
*** ChampSim Multicore Out-of-Order Simulator ***

Warmup Instructions: 50000000
Simulation Instructions: 50000000
Number of CPUs: 1
LLC sets: 2048
LLC ways: 16
Off-chip DRAM Size: 4096 MB Channels: 1 Width: 64-bit Data Rate: 6400 MT/s
CPU 0 runs ./micro_traces/srv115.trace.gz
.gz
ITLB has LRU replacement policy
DTLB has LRU replacement policy
STLB has LRU replacement policy
SN4L + DIS + BTB Prefetcher for L1I CPU 0
srv115.cond
L1I has LRU replacement policy
L1D has LRU replacement policy
Initialize SRRIP state for L2C
Initialize DRRIP state for LLC
Heartbeat CPU 0 instructions: 10000001 cycles: 2799629 heartbeat IPC: 3.5719 cumulative IPC: 3.5719 (Simulation time: 0 hr 1 min 41 sec) 
Heartbeat CPU 0 instructions: 20000003 cycles: 5597450 heartbeat IPC: 3.57421 cumulative IPC: 3.57306 (Simulation time: 0 hr 3 min 19 sec) 
Heartbeat CPU 0 instructions: 30000000 cycles: 8393875 heartbeat IPC: 3.57599 cumulative IPC: 3.57403 (Simulation time: 0 hr 4 min 57 sec) 
Heartbeat CPU 0 instructions: 40000000 cycles: 11190714 heartbeat IPC: 3.57546 cumulative IPC: 3.57439 (Simulation time: 0 hr 6 min 35 sec) 
Heartbeat CPU 0 instructions: 50000002 cycles: 13987514 heartbeat IPC: 3.57552 cumulative IPC: 3.57462 (Simulation time: 0 hr 8 min 17 sec) 

Warmup complete CPU 0 instructions: 50000002 cycles: 13987514 (Simulation time: 0 hr 8 min 17 sec) 

Cycle: 20000000 FTQ IN: 57139273 FTQ occupancy: 18.3717 DECODE IN: 57139223 DECODE occupancy: 47.2016 ROB IN: 57139163 ROB occupancy: 287.096 ROB OUT: 57138868
Heartbeat CPU 0 instructions: 60000000 cycles: 22405066 heartbeat IPC: 1.18799 cumulative IPC: 1.18799 (Simulation time: 0 hr 9 min 46 sec) 
Cycle: 30000000 FTQ IN: 11957107 FTQ occupancy: 7.65748 DECODE IN: 11957131 DECODE occupancy: 17.5475 ROB IN: 11957157 ROB occupancy: 147.282 ROB OUT: 11957337
Heartbeat CPU 0 instructions: 70000002 cycles: 30845433 heartbeat IPC: 1.18478 cumulative IPC: 1.18639 (Simulation time: 0 hr 11 min 16 sec) 
Heartbeat CPU 0 instructions: 80000002 cycles: 39250367 heartbeat IPC: 1.18978 cumulative IPC: 1.18751 (Simulation time: 0 hr 12 min 48 sec) 
Cycle: 40000000 FTQ IN: 11816656 FTQ occupancy: 7.78565 DECODE IN: 11816618 DECODE occupancy: 17.7265 ROB IN: 11816652 ROB occupancy: 148.403 ROB OUT: 11816623
Heartbeat CPU 0 instructions: 90000000 cycles: 47588570 heartbeat IPC: 1.1993 cumulative IPC: 1.19044 (Simulation time: 0 hr 14 min 21 sec) 
Cycle: 50000000 FTQ IN: 11838834 FTQ occupancy: 7.78888 DECODE IN: 11838870 DECODE occupancy: 17.7651 ROB IN: 11838870 ROB occupancy: 148.76 ROB OUT: 11838875
Heartbeat CPU 0 instructions: 100000002 cycles: 56042704 heartbeat IPC: 1.18285 cumulative IPC: 1.18891 (Simulation time: 0 hr 15 min 56 sec) 
Finished CPU 0 instructions: 50000000 cycles: 42055190 cumulative IPC: 1.18891 (Simulation time: 0 hr 15 min 56 sec) 

ChampSim completed all CPUs

Region of Interest Statistics

CPU 0 cumulative IPC: 1.18891 instructions: 50000000 cycles: 42055190
 Fetch stage stalled: 67.6522  Sim cycles: 42055190 fetch stall cycle: 28451273
 Empty decode stage: 56.0511  Sim cycles: 42055190 fetch stall cycle: 23572416
ITLB TOTAL     ACCESS:    8120189  HIT:    7576514  MISS:     543675  HIT %:    93.3047  MISS %:    6.69535   MPKI: 10.8735
ITLB LOAD TRANSLATION INSTRUCTION	ACCESS:    5543012  HIT:    5069333  MISS:     473679  HIT %:    91.4545  MISS %:    8.54552  MPKI: 9.47358
ITLB TRANSLATION FROM L1D PREFETCHER INSTRUCTION	ACCESS:    2577177  HIT:    2507181  MISS:      69996  HIT %:     97.284  MISS %:      2.716  MPKI: 1.39992

ITLB AVERAGE MISS LATENCY: 339550 cycles
ITLB RQ	ACCESS:   11223965	FORWARD:          0	MERGED:    2601057	TO_CACHE:    8622908

DTLB TOTAL     ACCESS:    9206355  HIT:    8735029  MISS:     471326  HIT %:    94.8804  MISS %:    5.11957   MPKI: 9.42652
DTLB LOAD TRANSLATION DATA	ACCESS:    9206355  HIT:    8735029  MISS:     471326  HIT %:    94.8804  MISS %:    5.11957  MPKI: 9.42652

DTLB AVERAGE MISS LATENCY: 9.33186 cycles
DTLB RQ	ACCESS:   13513580	FORWARD:          0	MERGED:    4272215	TO_CACHE:    9241365

STLB TOTAL     ACCESS:    1264156  HIT:    1262089  MISS:       2067  HIT %:    99.8365  MISS %:   0.163508   MPKI: 0.04134
STLB LOAD TRANSLATION INSTRUCTION	ACCESS:     468562  HIT:     468340  MISS:        222  HIT %:    99.9526  MISS %:   0.047379  MPKI: 0.00444
STLB TRANSLATION FROM L1D PREFETCHER INSTRUCTION	ACCESS:      75113  HIT:      75102  MISS:         11  HIT %:    99.9854  MISS %:  0.0146446  MPKI: 0.00022
STLB LOAD TRANSLATION DATA	ACCESS:     471195  HIT:     469387  MISS:       1808  HIT %:    99.6163  MISS %:   0.383705  MPKI: 0.03616
STLB TRANSLATION FROM L1D PREFETCHER DATA	ACCESS:     249286  HIT:     249260  MISS:         26  HIT %:    99.9896  MISS %:  0.0104298  MPKI: 0.00052

STLB AVERAGE MISS LATENCY: 72.0242 cycles
STLB RQ	ACCESS:    1401528	FORWARD:          0	MERGED:     118411	TO_CACHE:    1283117

STLB Hit, L1D data hit: 0
STLB Hit, L2C data hit: 0
STLB Hit, LLC data hit: 0
STLB Hit, LLC data miss: 0
STLB STLB hints to L2: 0
L1D TOTAL     ACCESS:   13257896  HIT:   12144858  MISS:    1113038  HIT %:    91.6047  MISS %:    8.39528   MPKI: 22.2608
L1D LOAD DATA	ACCESS:    6711488  HIT:    5977213  MISS:     734275  HIT %:    89.0594  MISS %:    10.9406  MPKI: 14.6855
L1D RFO DATA	ACCESS:    6220989  HIT:    5936225  MISS:     284764  HIT %:    95.4225  MISS %:    4.57747  MPKI: 5.69528
L1D PREFETCH DATA	ACCESS:     325419  HIT:     231420  MISS:      93999  HIT %:    71.1145  MISS %:    28.8855  MPKI: 1.87998

L1D PREFETCH  REQUESTED:     735503  ISSUED:     735503  USEFUL:      33502  USELESS:      69323
L1D USEFUL LOAD PREFETCHES:      33502 PREFETCH ISSUED TO LOWER LEVEL:     102894  ACCURACY: 32.5597
 TIMELY PREFETCHES:      33502 LATE PREFETCHES: 8827 DROPPED PREFETCHES: 7
L1D AVERAGE MISS LATENCY: 286368 cycles
L1D RQ	ACCESS:   10813127	FORWARD:          0	MERGED:    3899949	TO_CACHE:    6750119
L1D WQ	ACCESS:    6945943	FORWARD:     163354	MERGED:     182482	TO_CACHE:    6763461
L1D PQ	ACCESS:     367899	FORWARD:          0	MERGED:          0	TO_CACHE:     367604

L1D UNIQUE REGIONS ACCESSED: 0
L1D REGIONS CONFLICTS: 0
L1D Cross Page Prefetch Requests: 6996
L1D Same Page Prefetch Requests: 747030
L1D ROI Sum of L1D PQ occupancy: 4678491
L1D PREFETCHES PUSHED FROM L2C: 0
L1I TOTAL     ACCESS:   10655124  HIT:    7097762  MISS:    3557362  HIT %:    66.6136  MISS %:    33.3864   MPKI: 71.1472
L1I LOAD INSTRUCTION	ACCESS:    6490717  HIT:    4165642  MISS:    2325075  HIT %:    64.1785  MISS %:    35.8215  MPKI: 46.5015
L1I PREFETCH INSTRUCTION	ACCESS:    4164407  HIT:    2932120  MISS:    1232287  HIT %:    70.4091  MISS %:    29.5909  MPKI: 24.6457

L1I PREFETCH  REQUESTED:    4806834  ISSUED:    4806834  USEFUL:     610894  USELESS:     712649
L1I USEFUL LOAD PREFETCHES:     610894 PREFETCH ISSUED TO LOWER LEVEL:    1323522  ACCURACY: 46.1567
 TIMELY PREFETCHES:     610894 LATE PREFETCHES: 91235 DROPPED PREFETCHES: 45706
L1I AVERAGE MISS LATENCY: 898028 cycles
L1I RQ	ACCESS:    9477187	FORWARD:          0	MERGED:    2806902	TO_CACHE:    6670285
L1I PQ	ACCESS:    4806834	FORWARD:          0	MERGED:     253154	TO_CACHE:    4553680

L1BTB TOTAL     ACCESS:    5670765  HIT:    2040772  MISS:    3629993  HIT %:    35.9876  MISS %:    64.0124   MPKI: 72.5999
L1BTB BRANCH_DIRECT_JUMP	ACCESS:     548560  HIT:     144643  MISS:     403917	AVERAGE STALL: 37.8246
L1BTB BRANCH_INDIRECT	ACCESS:     183055  HIT:      66074  MISS:     116981	AVERAGE STALL: 89.4105
L1BTB BRANCH_CONDITIONAL	ACCESS:    2704475  HIT:    1411237  MISS:    1293238	AVERAGE STALL: 37.9831
L1BTB BRANCH_DIRECT_CALL	ACCESS:     945269  HIT:     106290  MISS:     838979	AVERAGE STALL: 41.0424
L1BTB BRANCH_INDIRECT_CALL	ACCESS:     172067  HIT:      21567  MISS:     150500	AVERAGE STALL: 116.944
L1BTB BRANCH_RETURN	ACCESS:    1117339  HIT:     290961  MISS:     826378	AVERAGE STALL: 38.4559
L1BTB BRANCH_OTHER ACCESS:          0  HIT:          0  MISS:          0	AVERAGE STALL: -nan
L1BTB TOTAL ROB OCCUPANCY AT BTB MISS: 14.4647

L2BTB TOTAL     ACCESS:    3604585  HIT:    3180474  MISS:     424111  HIT %:    88.2341  MISS %:    11.7659   MPKI: 8.48222
L2BTB BRANCH_DIRECT_JUMP	ACCESS:     399760  HIT:     353416  MISS:      46344	AVERAGE STALL: 37.8246
L2BTB BRANCH_INDIRECT	ACCESS:     106679  HIT:     101499  MISS:       5180	AVERAGE STALL: 89.4105
L2BTB BRANCH_CONDITIONAL	ACCESS:    1293238  HIT:    1154115  MISS:     139123	AVERAGE STALL: 37.9831
L2BTB BRANCH_DIRECT_CALL	ACCESS:     838979  HIT:     727183  MISS:     111796	AVERAGE STALL: 41.0424
L2BTB BRANCH_INDIRECT_CALL	ACCESS:     140954  HIT:     119485  MISS:      21469	AVERAGE STALL: 116.944
L2BTB BRANCH_RETURN	ACCESS:     824975  HIT:     724776  MISS:     100199	AVERAGE STALL: 38.4559
L2BTB BRANCH_OTHER ACCESS:          0  HIT:          0  MISS:          0	AVERAGE STALL: -nan
L2BTB TOTAL ROB OCCUPANCY AT BTB MISS: 123.805

L2C TOTAL     ACCESS:    6057462  HIT:    5088943  MISS:     968519  HIT %:    84.0111  MISS %:    15.9889   MPKI: 19.3704
L2C LOAD INSTRUCTION	ACCESS:    2233840  HIT:    1944835  MISS:     289005  HIT %:    87.0624  MISS %:    12.9376  MPKI: 5.7801
L2C PREFETCH INSTRUCTION	ACCESS:    1323522  HIT:    1111109  MISS:     212413  HIT %:    83.9509  MISS %:    16.0491  MPKI: 4.24826
L2C LOAD TRANSLATION INSTRUCTION	ACCESS:        247  HIT:         68  MISS:        179  HIT %:    27.5304  MISS %:    72.4696  MPKI: 0.00358
L2C TRANSLATION FROM L1D PREFETCHER INSTRUCTION	ACCESS:      21804  HIT:      21016  MISS:        788  HIT %:     96.386  MISS %:    3.61402  MPKI: 0.01576
L2C LOAD DATA	ACCESS:     725419  HIT:     595459  MISS:     129960  HIT %:    82.0848  MISS %:    17.9152  MPKI: 2.5992
L2C RFO DATA	ACCESS:     284679  HIT:     207029  MISS:      77650  HIT %:    72.7237  MISS %:    27.2763  MPKI: 1.553
L2C PREFETCH DATA	ACCESS:     946549  HIT:     719761  MISS:     226788  HIT %:    76.0405  MISS %:    23.9595  MPKI: 4.53576
L2C WRITEBACK DATA	ACCESS:     519480  HIT:     489245  MISS:      30235  HIT %:    94.1798  MISS %:    5.82024  MPKI: 0.6047
L2C LOAD TRANSLATION DATA	ACCESS:       1873  HIT:        389  MISS:       1484  HIT %:    20.7688  MISS %:    79.2312  MPKI: 0.02968
L2C TRANSLATION FROM L1D PREFETCHER DATA	ACCESS:         49  HIT:         32  MISS:         17  HIT %:    65.3061  MISS %:    34.6939  MPKI: 0.00034

L2C PREFETCH  REQUESTED:    1376150  ISSUED:    1376150  USEFUL:      33881  USELESS:     408289
L2C USEFUL LOAD PREFETCHES:      33881 PREFETCH ISSUED TO LOWER LEVEL:     441086  ACCURACY: 7.68127
 TIMELY PREFETCHES:      33881 LATE PREFETCHES: 1884 DROPPED PREFETCHES: 0
L2C AVERAGE MISS LATENCY: 33.8244 cycles
L2C RQ	ACCESS:    3267957	FORWARD:          0	MERGED:          0	TO_CACHE:    3267911
L2C WQ	ACCESS:     519480	FORWARD:         46	MERGED:          0	TO_CACHE:     519480
L2C PQ	ACCESS:    2802566	FORWARD:          0	MERGED:     515261	TO_CACHE:    2287305

L2C Dense regions hint from L2: 0
PSCL5 TOTAL     ACCESS:      42002  HIT:      21001  MISS:      21001  HIT %:         50  MISS %:         50   MPKI: 0.42002
PSCL5 LOAD TRANSLATION INSTRUCTION	ACCESS:       4036  HIT:       2018  MISS:       2018  HIT %:         50  MISS %:         50  MPKI: 0.04036
PSCL5 TRANSLATION FROM L1D PREFETCHER INSTRUCTION	ACCESS:      37966  HIT:      18983  MISS:      18983  HIT %:         50  MISS %:         50  MPKI: 0.37966


PSCL4 TOTAL     ACCESS:      36175  HIT:      18082  MISS:      18093  HIT %:    49.9848  MISS %:    50.0152   MPKI: 0.36186
PSCL4 LOAD TRANSLATION INSTRUCTION	ACCESS:       2867  HIT:       1819  MISS:       1048  HIT %:    63.4461  MISS %:    36.5539  MPKI: 0.02096
PSCL4 TRANSLATION FROM L1D PREFETCHER INSTRUCTION	ACCESS:      24824  HIT:      16263  MISS:       8561  HIT %:    65.5132  MISS %:    34.4868  MPKI: 0.17122
PSCL4 LOAD TRANSLATION DATA	ACCESS:        782  HIT:          0  MISS:        782  HIT %:          0  MISS %:        100  MPKI: 0.01564
PSCL4 TRANSLATION FROM L1D PREFETCHER DATA	ACCESS:       7702  HIT:          0  MISS:       7702  HIT %:          0  MISS %:        100  MPKI: 0.15404


PSCL3 TOTAL     ACCESS:      36187  HIT:      18088  MISS:      18099  HIT %:    49.9848  MISS %:    50.0152   MPKI: 0.36198
PSCL3 LOAD TRANSLATION INSTRUCTION	ACCESS:       2873  HIT:       1825  MISS:       1048  HIT %:    63.5225  MISS %:    36.4775  MPKI: 0.02096
PSCL3 TRANSLATION FROM L1D PREFETCHER INSTRUCTION	ACCESS:      24824  HIT:      16263  MISS:       8561  HIT %:    65.5132  MISS %:    34.4868  MPKI: 0.17122
PSCL3 LOAD TRANSLATION DATA	ACCESS:        788  HIT:          0  MISS:        788  HIT %:          0  MISS %:        100  MPKI: 0.01576
PSCL3 TRANSLATION FROM L1D PREFETCHER DATA	ACCESS:       7702  HIT:          0  MISS:       7702  HIT %:          0  MISS %:        100  MPKI: 0.15404


PSCL2 TOTAL     ACCESS:      36314  HIT:      18116  MISS:      18198  HIT %:    49.8871  MISS %:    50.1129   MPKI: 0.36396
PSCL2 LOAD TRANSLATION INSTRUCTION	ACCESS:       2160  HIT:       1937  MISS:        223  HIT %:    89.6759  MISS %:    10.3241  MPKI: 0.00446
PSCL2 TRANSLATION FROM L1D PREFETCHER INSTRUCTION	ACCESS:      32309  HIT:      16179  MISS:      16130  HIT %:    50.0758  MISS %:    49.9242  MPKI: 0.3226
PSCL2 LOAD TRANSLATION DATA	ACCESS:       1796  HIT:          0  MISS:       1796  HIT %:          0  MISS %:        100  MPKI: 0.03592
PSCL2 TRANSLATION FROM L1D PREFETCHER DATA	ACCESS:         49  HIT:          0  MISS:         49  HIT %:          0  MISS %:        100  MPKI: 0.00098


LLC TOTAL     ACCESS:    1058633  HIT:    1030015  MISS:      28618  HIT %:    97.2967  MISS %:     2.7033   MPKI: 0.57236
LLC LOAD INSTRUCTION	ACCESS:     287838  HIT:     287368  MISS:        470  HIT %:    99.8367  MISS %:   0.163286  MPKI: 0.0094
LLC PREFETCH INSTRUCTION	ACCESS:     205347  HIT:     205069  MISS:        278  HIT %:    99.8646  MISS %:   0.135381  MPKI: 0.00556
LLC LOAD TRANSLATION INSTRUCTION	ACCESS:        179  HIT:        161  MISS:         18  HIT %:    89.9441  MISS %:    10.0559  MPKI: 0.00036
LLC TRANSLATION FROM L1D PREFETCHER INSTRUCTION	ACCESS:        788  HIT:        780  MISS:          8  HIT %:    98.9848  MISS %:    1.01523  MPKI: 0.00016
LLC LOAD DATA	ACCESS:     129298  HIT:     125599  MISS:       3699  HIT %:    97.1392  MISS %:    2.86083  MPKI: 0.07398
LLC RFO DATA	ACCESS:      77589  HIT:      64424  MISS:      13165  HIT %:    83.0324  MISS %:    16.9676  MPKI: 0.2633
LLC PREFETCH DATA	ACCESS:     235739  HIT:     225075  MISS:      10664  HIT %:    95.4764  MISS %:    4.52365  MPKI: 0.21328
LLC WRITEBACK DATA	ACCESS:     120354  HIT:     120128  MISS:        226  HIT %:    99.8122  MISS %:   0.187779  MPKI: 0.00452
LLC LOAD TRANSLATION DATA	ACCESS:       1484  HIT:       1394  MISS:         90  HIT %:    93.9353  MISS %:    6.06469  MPKI: 0.0018
LLC TRANSLATION FROM L1D PREFETCHER DATA	ACCESS:         17  HIT:         17  MISS:          0  HIT %:        100  MISS %:          0  MPKI: 0

LLC AVERAGE MISS LATENCY: 159.761 cycles
LLC RQ	ACCESS:     497199	FORWARD:          0	MERGED:          0	TO_CACHE:     497193
LLC WQ	ACCESS:     120354	FORWARD:          6	MERGED:          0	TO_CACHE:     120354
LLC PQ	ACCESS:     441086	FORWARD:          0	MERGED:          0	TO_CACHE:     441086

LLC Dense regions hint to LLC: 0

RAW hits: 1820342
Loads Generated: 12633469
Loads sent to L1D: 10813127
Stores Generated: 6945939
Stores sent to L1D: 6945943
Major fault: 0 Minor fault: 2559
Allocated PAGES: 2559
CPU 0 L1I prefetcher final stats
USEFUL PREFETCHES 1296706
USELESS PREFETCHES 1588943
MISSES TRACKED 2240223
MISSES OMITTED 2444682
2240223 2266982 4654652BRANCHES PENDING
22839513/32524271
To predecode: 9228099 predecoding_something: 311574046

stream: 
stream:times selected: 1186001
stream:pref_filled: 119814
stream:pref_useful: 21807
stream:pref_late: 8113
stream:misses: 8321
stream:misses_by_poll: 0

CS: 
CS:times selected: 180132
CS:pref_filled: 55298
CS:pref_useful: 32231
CS:pref_late: 11829
CS:misses: 21151
CS:misses_by_poll: 2

CPLX: 
CPLX:times selected: 1004636
CPLX:pref_filled: 19339
CPLX:pref_useful: 4089
CPLX:pref_late: 3868
CPLX:misses: 95077
CPLX:misses_by_poll: 0

NL_L1: 
NL:times selected: 21035
NL:pref_filled: 684
NL:pref_useful: 321
NL:pref_late: 290
NL:misses: 1762
NL:misses_by_poll: 0

total selections: 2391804
total_filled: 93999
total_useful: 33502
total_late: 25673
total_polluted: 2
total_misses_after_warmup: 772907
conflicts: 5595755

test: 117819

DRAM Statistics
 CHANNEL 0
 RQ ROW_BUFFER_HIT:      10049  ROW_BUFFER_MISS:      18341
 DBUS_CONGESTED:         10
 WQ ROW_BUFFER_HIT:       1408  ROW_BUFFER_MISS:      12061  FULL:          0

 AVG_CONGESTED_CYCLE: 7

CPU 0 Branch Prediction Accuracy: 99.8238% MPKI: 0.3225 Average ROB Occupancy at Mispredict: 154.555
Branch types
NOT_BRANCH: 40850119 81.7002%
BRANCH_DIRECT_JUMP: 548560 1.09712%
BRANCH_INDIRECT: 183055 0.36611%
BRANCH_CONDITIONAL: 6183307 12.3666%
BRANCH_DIRECT_CALL: 945269 1.89054%
BRANCH_INDIRECT_CALL: 172067 0.344134%
BRANCH_RETURN: 1117339 2.23468%
BRANCH_OTHER: 0 0%

DRAM PAGES: 1048576
Allocated PAGES: 2559
Average_ROB_Occupancy: 148.881
Average_Decode_Occupancy: 17.625
Average_FTQ_Occupancy: 7.71425
Indirect max targets: 14 Average targets: 1.15282
Branch_type:  BRANCH_DIRECT_JUMP:  Count Percentage: 5.30489 5.78691 3.60887 3.01027 2.76597 11.1281 6.97181 61.4232 
Branch_type:  BRANCH_INDIRECT:  Count Percentage: 16.3954 0.802997 10.6146 0 1.33605 27.8338 2.13659 40.8804 
Branch_type:  BRANCH_CONDITIONAL:  Count Percentage: 26.4922 2.48251 1.71658 5.80978 1.20284 8.10196 2.93103 51.2631 
Branch_type:  BRANCH_DIRECT_CALL:  Count Percentage: 0.884896 1.26771 0.428699 2.31331 2.25423 3.48051 2.50787 86.8628 
Branch_type:  BRANCH_INDIRECT_CALL:  Count Percentage: 9.5499 0 2.99351 0.00174923 0.000583075 2.37428 0.99735 84.0826 
Branch_type:  BRANCH_RETURN:  Count Percentage: 9.96527 1.41949 1.35701 4.59337 1.75358 10.4956 3.15855 67.2571 
Branch_type:  BRANCH_DIRECT_JUMP:  Total Count: 58153 63437 39561 32999 30321 121988 76426 673330 
Branch_type:  BRANCH_INDIRECT:  Total Count: 60008 2939 38850 0 4890 101873 7820 149624 
Branch_type:  BRANCH_CONDITIONAL:  Total Count: 3274443 306839 212170 718090 148671 1001405 362276 6336137 
Branch_type:  BRANCH_DIRECT_CALL:  Total Count: 16701 23926 8091 43660 42545 65689 47332 1639396 
Branch_type:  BRANCH_INDIRECT_CALL:  Total Count: 32757 0 10268 6 2 8144 3421 288411 
Branch_type:  BRANCH_RETURN:  Total Count: 222340 31671 30277 102485 39125 234173 70472 1500606 
Number of unique branch instructions: 9958
Upper 32 bits: 
aaaa
ffff
ffff0000
Unique upper 32 bits: 3
Unique upper 36 bits: 3
Unique upper 40 bits: 5
Unique upper 44 bits: 32
Unique upper 48 bits: 156
Offset_3 4093
Offset_4 255
Offset_5 462
Offset_6 508
Offset_7 575
Offset_8 514
Offset_9 475
Offset_10 382
Offset_11 305
Offset_12 275
Offset_13 206
Offset_14 227
Offset_15 190
Offset_16 219
Offset_17 151
Offset_18 118
Offset_19 237
Offset_20 140
Offset_21 265
Offset_22 391
Offset_23 241
Offset_24 338
Offset_25 88
Offset_47 84
Offset_64 1
decode_dispatch_called: 20767253 49.381
Dispatch_width: 0 10502395 50.5719 24.9729
Dispatch_width: 1 594862 2.86442 1.41448
Dispatch_width: 2 676215 3.25616 1.60792
Dispatch_width: 3 438136 2.10974 1.04181
Dispatch_width: 4 2145838 10.3328 5.10243
Dispatch_width: 5 304054 1.4641 0.722988
Dispatch_width: 6 6105753 29.4009 14.5184
Empty_decode_cycles: 21287937 50.619
ROB_full_cycles: 3261814 7.75603
Starvation_cycles_per_kilo_instr: 326.876
Starvation_cycles_per_kilo_instr_3: 302.377
Starvation_cycles_per_kilo_instr_0: 285.285
Branch_type_1  (3,1)  (4,8)  (5,38)  (6,72)  (7,112)  (8,132)  (9,128)  (10,99)  (11,67)  (12,43)  (13,8)  (14,2)  (15,3)  (16,4)  (18,1)  (19,4)  (20,2)  (21,1)  (22,3)  (23,2)  (24,10)  (25,12) 
Branch_type_2  (3,1)  (5,1)  (8,3)  (9,3)  (12,1)  (13,1)  (14,1)  (16,3)  (17,2)  (20,2)  (21,2)  (23,5)  (24,1)  (47,38) 
Branch_type_3  (3,4091)  (4,247)  (5,419)  (6,421)  (7,431)  (8,319)  (9,261)  (10,152)  (11,120)  (12,50)  (13,7) 
Branch_type_4  (6,3)  (7,8)  (8,26)  (9,51)  (10,61)  (11,61)  (12,97)  (13,87)  (14,100)  (15,89)  (16,98)  (17,68)  (18,53)  (19,114)  (20,71)  (21,144)  (22,208)  (23,136)  (24,190)  (25,72) 
Branch_type_5  (8,2)  (9,1)  (10,4)  (11,5)  (12,3)  (13,14)  (14,16)  (15,11)  (16,20)  (17,11)  (18,16)  (19,13)  (20,12)  (21,13)  (22,42)  (23,26)  (24,40) 
Branch_type_6  (5,4)  (6,12)  (7,24)  (8,32)  (9,31)  (10,66)  (11,52)  (12,81)  (13,89)  (14,108)  (15,87)  (16,94)  (17,70)  (18,48)  (19,106)  (20,53)  (21,105)  (22,138)  (23,72)  (24,97)  (25,4)  (47,46)  (64,1) 
Unique trigger count: 
BTB PER SET UNIQUE ADDR: 2 4 4 2 1 1 3 2 4 0 3 0 5 3 2 3 3 2 3 4 3 4 2 3 4 5 1 4 3 2 6 6 4 2 5 2 1 5 6 3 4 4 3 7 6 2 4 3 6 4 4 2 3 2 2 4 4 3 3 3 1 4 2 3 1 5 6 2 3 5 5 1 1 4 2 3 3 6 1 3 2 2 1 4 3 3 2 5 3 3 6 4 3 5 2 0 3 4 1 4 4 3 3 3 2 2 1 2 3 2 2 1 3 6 2 6 2 4 4 1 4 5 2 0 1 2 3 1 6 4 5 2 4 1 5 3 2 1 3 3 5 3 3 2 1 4 2 5 4 3 3 8 3 5 3 0 3 3 3 2 4 5 4 4 4 3 2 2 9 1 2 2 4 2 1 1 3 4 5 1 3 3 6 3 4 5 3 1 2 3 5 3 3 4 4 4 2 3 3 5 3 2 4 1 3 3 2 4 2 1 2 4 5 4 3 2 3 5 4 0 1 1 2 3 3 2 3 3 0 3 8 3 3 2 3 3 3 2 1 2 1 0 5 3 9 7 1 1 3 3 2 2 1 3 2 6 3 4 4 3 4 4 4 2 3 6 3 1 4 2 3 2 2 3 4 2 1 1 3 3 4 2 6 2 5 5 3 3 1 1 0 3 1 5 1 1 5 3 2 2 3 3 1 2 4 2 4 2 6 6 3 1 3 2 5 1 6 6 2 2 3 7 3 4 2 2 2 6 2 1 4 0 2 5 5 1 2 2 5 0 3 0 1 4 4 2 1 3 3 4 3 6 4 3 5 3 2 0 4 1 2 5 2 4 6 5 1 1 2 1 2 2 2 4 4 4 3 3 3 4 6 3 2 5 3 2 5 2 4 1 5 5 4 2 3 1 5 0 1 3 4 2 3 2 2 4 3 2 1 1 1 3 4 3 2 2 5 3 1 3 1 1 3 4 3 3 2 0 2 4 1 2 8 3 5 5 3 3 3 1 2 4 5 3 4 6 2 3 3 2 4 3 1 2 5 1 1 3 7 2 3 3 4 6 2 3 5 2 3 3 0 4 5 2 2 1 4 5 1 1 2 2 2 2 0 4 3 0 5 1 4 2 3 5 0 5 3 3 2 1 5 1 1 1 1 2 2 2 2 3 3 2 2 6 2 1 2 5 4 5 3 5 4 2 6 5 0 6 6 3 4 3 3 6 3 4 1 1 4 1 2 5 6 2 5 2 7 3 6 9 3 6 3 6 1 3 3 1 3 3 8 2 5 2 2 1 4 2 2 7 3 2 3 7 2 2 3 3 1 5 4 2 1 0 1 0 0 9 4 2 5 6 1 1 2 3 4 2 3 1 3 2 4 6 1 4 4 4 2 2 5 2 2 2 2 2 2 0 3 1 4 4 6 2 2 3 2 5 2 3 5 4 3 2 5 2 2 3 2 2 7 1 4 4 0 0 3 3 3 4 3 2 5 2 3 0 4 3 2 3 5 2 5 4 5 3 5 3 1 3 5 3 4 4 5 6 3 3 3 3 3 2 5 3 5 3 5 3 4 3 1 4 2 2 2 4 6 4 5 4 0 6 0 3 3 2 4 1 3 1 3 3 3 2 2 1 7 2 0 3 2 0 1 1 1 1 1 4 2 4 5 5 2 2 2 4 4 3 2 2 1 3 2 4 2 1 3 2 2 2 0 2 1 3 2 2 2 6 4 1 3 3 1 5 4 4 8 2 2 2 4 3 0 3 3 4 5 2 1 3 4 4 0 3 8 6 3 3 0 2 2 4 2 1 4 7 7 2 2 2 5 3 4 3 4 3 3 5 2 3 1 3 4 0 4 3 1 2 0 4 4 2 4 2 2 1 2 2 4 4 3 1 3 2 5 2 2 1 5 2 2 1 3 3 1 4 6 4 5 2 6 2 5 4 5 4 3 2 4 4 2 6 2 1 8 3 2 4 5 3 1 3 3 6 4 0 2 3 5 4 3 5 3 4 5 3 2 2 2 4 4 2 3 3 2 1 7 3 1 1 5 2 1 3 4 5 3 5 3 4 5 4 0 3 1 5 0 1 5 2 6 4 5 3 4 1 3 2 5 6 4 4 8 7 5 4 6 4 1 5 4 2 0 4 4 5 5 5 3 2 6 0 5 4 2 3 6 5 4 2 2 3 4 5 2 5 9 4 6 3 2 4 0 5 6 1 6 5 1 3 6 5 3 4 2 1 2 3 3 2 5 5 2 7 5 3 4 5 3 5 1 2 5 2 2 5 4 3 3 2 5 3 4 5 5 2 5 2 2 4 5 2 9 5 2 3 3 2 2 3 5 8 6 2 3 2 3 2 3 1 3 2 4 4 2 4 4 5 4 6 0 3 3 3 4 4 2 1 3 2 3 2 1 1 4 1 2 3 3 4 1 8 5 3 2 1 10 1 2 4 1 2 5 6 3 7 2 5 4 7 2 5 2 2 1 1 5 0 4 4 3 8 4 1 6 5 7 2 3 4 5 4 5 8 4 4 6 1 4 4 7 4 3 2 4 3 6 6 2 6 6 6 4 3 4 3 1 2 4 5 1 3 2 1 3 4 2 2 5 2 2 5 4 1 5 1 7 3 3 3 3 1 3 4 3 4 3 4 2 6 1 3 6 3 3 3 3 5 2 8 3 5 3 8 6 1 6 1 5 2 1 2 5 4 2 1 3 4 2 1 2 1 4 3 3 2 2 3 2 5 2 4 5 6 0 5 3 2 2 6 7 0 6 0 1 4 4 2 5 1 3 3 4 1 1 2 4 5 3 4 1 4 4 6 5 1 4 3 3 6 9 4 2 6 5 5 1 1 3 5 6 3 2 2 3 3 4 5 5 3 1 4 2 2 6 8 5 4 3 6 1 2 5 2 4 1 3 2 6 8 2 3 3 3 4 4 2 5 6 6 4 2 1 5 3 3 4 3 4 4 3 4 8 3 6 4 3 5 5 3 1 7 4 4 3 3 3 2 3 3 2 2 5 4 2 2 5 1 1 3 3 7 4 1 3 4 2 3 3 3 4 3 2 1 3 2 4 2 5 3 4 4 2 1 2 6 1 4 2 4 2 4 5 1 2 4 4 3 3 3 5 3 3 4 5 5 4 4 5 3 3 2 2 3 5 2 4 1 3 0 8 3 2 6 4 4 5 7 3 2 3 3 1 2 5 1 4 2 4 2 1 5 1 4 2 2 3 3 3 2 4 2 3 2 3 1 6 1 0 3 3 1 1 3 1 4 2 3 7 3 1 2 2 3 2 2 6 2 3 5 3 3 3 3 2 2 3 0 2 2 2 3 3 1 2 1 4 1 4 3 3 4 2 3 2 1 2 4 4 2 6 1 3 4 2 2 4 5 3 2 6 0 1 2 3 1 1 2 3 3 7 3 1 1 6 2 1 4 1 6 1 4 2 3 6 2 2 2 1 3 3 1 0 4 4 2 3 3 1 2 0 6 3 4 3 0 3 2 5 6 4 3 4 4 1 3 1 3 1 2 4 0 2 3 3 3 3 2 3 3 3 9 6 2 2 2 4 2 1 3 5 2 3 0 3 2 3 3 3 4 5 5 8 0 5 1 6 4 5 5 3 8 2 4 9 3 0 6 3 3 3 4 3 3 2 2 2 4 2 2 2 4 2 4 5 3 5 3 6 2 2 5 5 3 4 4 4 3 6 3 5 6 2 6 3 3 3 1 3 6 5 3 2 3 3 3 3 4 2 2 3 1 3 1 3 7 1 2 2 3 3 3 6 3 5 2 5 2 3 2 5 2 4 5 6 1 1 7 2 4 2 3 4 6 2 3 2 3 6 2 3 3 5 3 4 8 4 4 3 5 1 5 3 3 2 3 0 2 2 4 4 4 2 3 3 4 4 2 3 7 1 3 2 4 4 4 3 4 3 6 2 4 1 5 2 3 5 2 3 0 2 6 0 8 2 5 5 1 4 3 2 0 4 2 3 5 3 6 2 2 2 1 3 4 6 1 3 3 0 3 2 4 5 3 2 3 5 2 3 2 6 3 4 1 5 3 0 3 5 1 1 8 2 1 4 1 4 3 2 3 6 3 4 6 1 6 3 5 2 5 4 2 3 2 7 1 4 0 3 3 4 4 3 3 3 1 2 3 0 3 0 3 5 6 2 2 6 2 3 3 3 1 2 2 5 2 4 2 5 3 2 3 1 2 3 3 3 2 3 4 2 1 2 2 2 5 2 5 1 5 4 2 4 1 4 1 2 3 4 2 3 4 4 5 3 3 3 3 3 2 0 3 2 0 0 1 2 2 4 2 5 2 2 3 4 2 1 3 3 2 2 6 3 2 7 5 3 2 3 1 2 5 3 3 4 2 4 0 1 2 4 3 2 4 3 2 4 3 4 7 3 2 0 5 1 0 2 3 0 4 4 6 1 3 4 6 5 0 2 2 4 2 4 1 3 1 8 3 1 2 3 6 2 7 3 5 6 0 1 3 1 4 3 1 0 2 3 4 5 4 1 0 3 4 5 1 2 1 3 5 2 2 5 4 3 3 5 4 0 6 2 6 2 1 2 3 1 3 4 2 3 3 3 2 3 1 5 2 5 2 4 2 1 3 5 4 4 0 
BTB PER SET COUNT: 2 4 5 1466 2 1 724 2 5 0 3 0 3861 6 4 3 3 29 1502 5281 3 482 2 5 13 6772 1 4 1469 2 3432 2590 6 2 5729 478 2934 3188 4282 3 4 5465 3 2211 8207 2 4 3 1595 4 1151 3479 3 2 2 4 5 3 3 814 3 4 977 482 1 371 493 2 3 1002 837 2741 1 8992 2 981 1469 756 1 4 2 2 1 4 4 4 2 13 3 4 3009 2439 3 3900 2 0 938 4 1 4 506 1686 3861 3 2 2 1 2860 575 2 2 1 126 2686 2581 2449 876 1434 4 1 5 6 2 0 1 2 6 1 2877 4 19153 2 4158 1 986 3 1910 1 15 3 4843 4 3 2 1 10 2 4390 4 1053 3 7094 3 10282 136 0 3 3 1033 8049 4767 1777 4 1473 4 1955 2 2 14114 240 2 2 6367 37 1 5695 4 4 992 8 476 152 7636 281 3892 2208 1440 1 2 3 35 5872 3 12 1477 3029 33 3 242 984 4356 808 997 1 6 3 2 1470 2117 1 1002 5 13 4 3 1781 3 499 8082 0 1 881 2 3 4653 2 69 43 0 3 14045 3 3 68 979 3 3 70 1 2 1 0 2453 3 9769 6019 725 1 4 3 5641 2 1 629 2 4475 4 4 4 3 1240 641 1759 2 1853 1627 3 13718 48 2 4 2 2 3 1932 6567 1 1 3 8 80053 2 1966 14970 1717 11001 3 4 1 1 0 1807 1 39 1 3778 983 2445 2 2 3 4 1 2 4 2 14 2 1966 988 2466 9575 4 2 1849 2 2454 1245 2 4 94 2231 3 4 2 2 5 437 2 7 3557 0 2 13 1530 1 982 3810 2471 0 3 0 1 985 985 1470 1 3 3296 823 3 616 4225 4507 1035 2921 2 0 4 1 2 3567 1570 4 2657 1302 959 29 491 1 3388 2 2 4 5 2948 1260 2941 1328 4 28 424 2 73740 58 2 1111 3 1331 1 1305 627 2673 490 3 1 5352 0 1 3 4 2 3 2 2 3667 2407 2 1 976 1 1204 7 3 977 1469 897 1074 1 91 1 1 3 53 1550 3 12 0 2 6 2566 3077 8746 4 3939 5627 3 3 4365 1 2 494 2941 389 6 2452 3021 2351 1505 1952 979 3 1 2 1964 1 1 3 17378 9 3 3 4 2983 2 1570 2330 2 3 6046 0 403 35 492 2 1 73 988 1 1 2724 2 1479 4864 0 3669 18 0 879 1 4 2 2151 990 0 23 3 2344 2 1 4216 11 1 1 1 2 2 625 108 3 5 2 3 524 2 2250 1470 5388 4 501 3 1476 959 13 1245 4285 0 1966 4940 5 4 5055 29 875 1468 496 1 133 5 1 2 1473 187 712 1987 16 50 3 997 13697 4696 2154 8975 2941 1 3 4 1 1471 1074 16470 2 1963 5915 2 1 4 1747 2 3915 162 3 3 6432 2 2 1032 3957 1 24 1611 38 1 0 3 0 0 6400 7362 2 1983 2943 1 1 977 732 5 2 1729 1 978 695 2964 5592 1 5 4 1472 3 2 2453 2 2 2 982 2 3395 0 2481 142 4 494 3434 4397 6 3 2 13 2 1578 4623 6566 3 13 3277 2 2 2131 2 2 3451 1 4 5 0 0 3 9 8 4 3 2 744 484 4 0 4 659 581 3 17158 44 101 4 1964 3 5074 984 2 4 6610 3 6445 5 1473 3255 342 5 5 8 4634 2052 7 984 6099 3 3605 1469 4 1471 20 2746 2 2 3187 4 6068 9 4854 39 0 2905 0 904 3 983 4 1 2049 1 3 3 5 2 983 1 2466 88 0 3 2 0 1 1 1 1 1 1923 1447 4 5691 7045 977 6 3 484 4 224 2 2531 1 3 4281 6515 2 1 493 2 2 1963 0 2 1 5 4 4 2 7836 2496 1 3 2163 1 37 563 4 9040 2 4 1026 4 659 0 109 3 16 2926 2 3 8243 4 4 0 1489 4526 4910 5 1955 0 2 2 1590 2 1 5 2227 3434 3321 2 2 8503 2114 312 1483 2230 3 3 20 2 904 1 1368 6 0 27 5 4 2 0 4 4 4155 1982 2 1908 1464 2 2 4 3188 49888 1 1921 2 4638 2 2 1 1532 6200 2 1 3 9039 1 7 2004 2119 10 4 5485 3606 2710 12 3008 4 6 2 53 4 2 6409 6 1 6381 978 2 5 2352 988 1 1001 1483 4367 4 0 2 1467 24 4 248 6352 3 6704 1133 3 2 220 1470 4 6 3 3 65 2 3 3609 3 1 998 1727 2 1 1588 28057 2426 3 4207 3 4 3140 4 0 3 2 5666 0 1 1472 2406 53 4 1474 50 8 1469 7 2 2749 3084 4 494 5806 3895 9114 2468 2300 5 1 24 4 602 0 980 4 6360 1367 1474 41 2 830 0 7633 229 4883 3 8309 1991 12 2 979 494 494 4883 5 4771 2576 3992 8508 1471 4280 4 0 1166 9882 1 7328 3697 1 20 6724 596 494 4 2 3 2 3 4 5938 2355 10251 2 3526 489 3 4 4848 3 1470 1 2 6 3649 2 4815 4 3 3 1354 3713 2555 5641 1347 1722 2 834 4 2 4 2919 2465 6216 1502 2 323 3 2 2 3 6 4827 1968 8 955 126 3 2 3 2 4 2 988 2080 2 4 1010 1963 5240 6610 0 3 4 3 1470 372 780 1 3 5 768 2 1 1 4 1 2 3 3 4 1582 4415 2986 12538 2 2 15012 1 2 4 983 2333 3755 1100 955 5375 2182 24 4 2498 2 4372 2 2 1 1 4913 0 3556 4 3 11788 4 1 3556 2884 4303 429 493 4 2845 1382 2461 2810 4 3902 2457 470 4 6 10755 6 3 977 4 3 3932 2470 2992 4414 18857 3592 4 3 437 6 1 3 4 13281 2242 3 2 1 3 7 579 2 507 3 2005 23 5 4905 3519 1 5612 3 755 265 3 1 22 3670 3 18037 3 4 3 26 1 3 1715 4058 3 5543 3 9143 3 6089 3 2303 3 3103 9798 1 5371 7522 534 3334 1248 2 497 1288 2 1187 2503 3148 2 1 2 491 3087 6523 3 978 3831 20 2173 1474 1868 1913 8 5665 0 2824 3 2 4 49 16642 0 299 0 1 4 3386 5 23 1 961 992 17 1 1 2 3155 2515 3 1349 516 1426 4 14902 11549 1 4207 753 3 3239 10775 1968 4012 8637 4314 3363 1 4673 432 1964 2453 3057 2 2 2106 3 16 7 7306 3 5 4 22445 2 3437 29706 7169 4 1571 637 4576 2 264 2 4 1 3 736 6248 8249 977 4 3 3 984 9 2 4617 1968 3956 985 478 1 3988 3829 3 2668 4400 8 4 1128 1154 7234 1964 1966 2939 493 3748 2452 8 1714 14918 4 3797 3 4 3 2 3 4 2 2 14 714 2 144 1476 1 1 4326 839 5440 6837 1 360 4 2 3 3 1549 4 3 2 1 3 6788 6210 2 4478 6878 780 4 2 4269 450 7168 1 8240 2 4 2 4 1682 4 2 4 4 978 3 1700 2458 7 1418 1995 7 8654 5 5 8 3 3 6846 2 2921 4411 3 4 1 2039 0 13314 2286 2 2943 901 4 2527 8759 1454 2 3 1019 1 2 2935 1 2882 1429 1471 4 1 19391 1 108 2 2 2938 190 3 2 5077 2363 3 1344 4 1 519 1 0 3 240 1 1 1345 1 15470 2 3 1983 638 1 2 2 3728 2 2 2946 3 3 1147 4 3 2091 971 2 4137 878 0 4 1606 2 1349 3 1 2 1 4 22 3466 3 3033 868 2 3896 983 491 10 4 5796 2 15969 1 3 243 2 492 5 279 4780 2 23503 0 1 2 531 1 1 2 18735 7 2026 397 1 1 1349 2 507 4 1 7056 1 4 2 341 1945 13 5381 122 1 255 3 1 0 30 1471 2 3 3 1 2 0 6414 3 5 4 0 5156 2309 2847 12 6289 3 4 1982 1 49 1 1457 1 2 4 0 2 3 4 3 9055 2 4 980 3 4267 2944 6967 3 1469 984 2 1 3 1717 2 991 0 2897 2 3 3 1977 1764 2453 16 5866 0 597 1 2920 4 1511 8151 1472 3436 2 745 8412 482 0 5891 5549 3 3 4407 2143 241 2 2 2 979 2051 1384 2 948 2 242 3356 5 1964 498 8770 2941 2 1224 37636 3 5 5869 4 1988 6360 3 2566 1965 2506 2459 3097 290 369 1 1951 2970 14 4156 4 12633 1772 3 4 5 2 20 3 1 4569 1 3 2598 1 2 2 2585 2227 96 3136 277 1041 4026 6772 3 3 2 4855 2 3327 3429 2991 1 1 6350 2 1147 2 3 984 1968 493 4 3035 3443 2943 2 494 3 5584 1225 4 9771 241 4 14672 2942 2838 1964 1469 3 158 152 0 2 2 261 15326 1483 2 1250 3 4 1213 8945 169 3433 1 1470 2 1470 3333 5 3 4 4099 3224 95 2936 1 2452 2 3 67 2 3 0 493 3034 0 5375 382 1224 2454 741 5 3 2 0 2742 2 4 8963 3 8699 2 2 2 1 3 5651 7334 1 45 12698 0 3 2 8473 3305 978 2 4 1963 2 3 2 7387 3 4 1 10284 994 0 4 496 1467 1 6489 2 1 8358 496 4 3 2 1995 3371 4 458 4147 1 4489 6407 4896 226 1963 1569 2 11 2 10947 1831 6874 0 4 1469 3248 4 4 3150 1926 1 2 488 0 3999 0 3 2867 3364 2 2 2844 1149 1418 5 978 1 15758 2 7 4068 4 2 147 3 6351 3 125 2 1745 3 3 2899 3 4 2 1 2 51 2 1422 2 8 2778 11170 492 2 3185 4 4 1 2007 4058 721 1994 493 1011 1435 8243 5 3 3 3 3 2 0 3 2 0 0 1 4525 472 4 7 2452 2 2 3 4 2 1 986 3 8 1432 3316 6 265 3679 5599 1092 6 3 1 2 615 3 3 495 2 2282 0 2189 2 2402 984 8 4 3 25594 5 3 980 3820 3 2 0 9 2275 0 2785 1788 0 5 1471 1000 1 3 4 2432 19 0 2460 2 5 2 468 1435 1085 768 6727 2010 613 2 1763 2461 6 31494 2932 6 15570 0 1 37 1 4 13061 326 0 715 3104 4 1503 4 1 0 598 3662 3588 1 2 1 3 11366 2 2 7713 4 4542 13 3323 1918 0 2460 2 6398 7 15772 980 3 1 10 501 2 4 3 1748 963 3 2446 17 2 869 2 26012 10 1 3 1665 49 4 0 
