
*** ChampSim Multicore Out-of-Order Simulator ***

Warmup Instructions: 50000000
Simulation Instructions: 50000000
Number of CPUs: 1
LLC sets: 2048
LLC ways: 16
Off-chip DRAM Size: 4096 MB Channels: 1 Width: 64-bit Data Rate: 6400 MT/s
CPU 0 runs ./micro_traces/srv191.trace.gz
.gz
ITLB has LRU replacement policy
DTLB has LRU replacement policy
STLB has LRU replacement policy
FDIP Prefetcher at L1I
L1I has LRU replacement policy
L1D has LRU replacement policy
Initialize SRRIP state for L2C
Initialize DRRIP state for LLC
Heartbeat CPU 0 instructions: 10000002 cycles: 2791498 heartbeat IPC: 3.58231 cumulative IPC: 3.58231 (Simulation time: 0 hr 2 min 29 sec) 
Heartbeat CPU 0 instructions: 20000000 cycles: 5582040 heartbeat IPC: 3.58353 cumulative IPC: 3.58292 (Simulation time: 0 hr 4 min 30 sec) 
Heartbeat CPU 0 instructions: 30000002 cycles: 8372804 heartbeat IPC: 3.58325 cumulative IPC: 3.58303 (Simulation time: 0 hr 6 min 26 sec) 
Heartbeat CPU 0 instructions: 40000000 cycles: 11162576 heartbeat IPC: 3.58452 cumulative IPC: 3.5834 (Simulation time: 0 hr 8 min 25 sec) 
Heartbeat CPU 0 instructions: 50000000 cycles: 13954639 heartbeat IPC: 3.58158 cumulative IPC: 3.58304 (Simulation time: 0 hr 10 min 27 sec) 

Warmup complete CPU 0 instructions: 50000004 cycles: 13954640 (Simulation time: 0 hr 10 min 27 sec) 

Cycle: 20000000 FTQ IN: 54930534 FTQ occupancy: 17.225 DECODE IN: 54930534 DECODE occupancy: 44.2956 ROB IN: 54930521 ROB occupancy: 264.103 ROB OUT: 54930507
Heartbeat CPU 0 instructions: 60000001 cycles: 26420092 heartbeat IPC: 0.802217 cumulative IPC: 0.802217 (Simulation time: 0 hr 12 min 7 sec) 
Cycle: 30000000 FTQ IN: 8066860 FTQ occupancy: 4.13144 DECODE IN: 8066830 DECODE occupancy: 8.45619 ROB IN: 8066843 ROB occupancy: 71.4394 ROB OUT: 8066836
Heartbeat CPU 0 instructions: 70000003 cycles: 38814918 heartbeat IPC: 0.806788 cumulative IPC: 0.804496 (Simulation time: 0 hr 13 min 46 sec) 
Cycle: 40000000 FTQ IN: 7927537 FTQ occupancy: 3.86543 DECODE IN: 7927548 DECODE occupancy: 7.7205 ROB IN: 7927548 ROB occupancy: 66.138 ROB OUT: 7927562
Cycle: 50000000 FTQ IN: 7825817 FTQ occupancy: 3.99519 DECODE IN: 7825800 DECODE occupancy: 8.01821 ROB IN: 7825794 ROB occupancy: 67.6094 ROB OUT: 7825785
Heartbeat CPU 0 instructions: 80000003 cycles: 51561401 heartbeat IPC: 0.78453 cumulative IPC: 0.797729 (Simulation time: 0 hr 15 min 16 sec) 
Cycle: 60000000 FTQ IN: 7978060 FTQ occupancy: 3.87461 DECODE IN: 7977959 DECODE occupancy: 7.79237 ROB IN: 7977905 ROB occupancy: 67.0968 ROB OUT: 7977573
Heartbeat CPU 0 instructions: 90000000 cycles: 64171465 heartbeat IPC: 0.793017 cumulative IPC: 0.796546 (Simulation time: 0 hr 16 min 46 sec) 
Cycle: 70000000 FTQ IN: 7898745 FTQ occupancy: 4.0561 DECODE IN: 7898880 DECODE occupancy: 8.18879 ROB IN: 7898940 ROB occupancy: 68.6496 ROB OUT: 7899172
Heartbeat CPU 0 instructions: 100000000 cycles: 76685366 heartbeat IPC: 0.799111 cumulative IPC: 0.797058 (Simulation time: 0 hr 18 min 30 sec) 
Finished CPU 0 instructions: 50000001 cycles: 62730764 cumulative IPC: 0.797057 (Simulation time: 0 hr 18 min 30 sec) 

ChampSim completed all CPUs

Region of Interest Statistics

CPU 0 cumulative IPC: 0.797057 instructions: 50000001 cycles: 62730764
 Fetch stage stalled: 79.9035  Sim cycles: 62730764 fetch stall cycle: 50124100
 Empty decode stage: 67.076  Sim cycles: 62730764 fetch stall cycle: 42077295
ITLB TOTAL     ACCESS:    5698911  HIT:    5252861  MISS:     446050  HIT %:    92.1731  MISS %:    7.82693   MPKI: 8.921
ITLB LOAD TRANSLATION INSTRUCTION	ACCESS:    5602762  HIT:    5156712  MISS:     446050  HIT %:    92.0387  MISS %:    7.96125  MPKI: 8.921
ITLB TRANSLATION FROM L1D PREFETCHER INSTRUCTION	ACCESS:      96149  HIT:      96149  MISS:          0  HIT %:        100  MISS %:          0  MPKI: 0

ITLB AVERAGE MISS LATENCY: 9.06084 cycles
ITLB RQ	ACCESS:    7104463	FORWARD:          0	MERGED:    1036377	TO_CACHE:    6068086

DTLB TOTAL     ACCESS:    9821226  HIT:    9354565  MISS:     466661  HIT %:    95.2484  MISS %:    4.75156   MPKI: 9.33322
DTLB LOAD TRANSLATION DATA	ACCESS:    9821226  HIT:    9354565  MISS:     466661  HIT %:    95.2484  MISS %:    4.75156  MPKI: 9.33322

DTLB AVERAGE MISS LATENCY: 9.35937 cycles
DTLB RQ	ACCESS:   13867711	FORWARD:          0	MERGED:    4015742	TO_CACHE:    9851969

STLB TOTAL     ACCESS:    1212914  HIT:    1210045  MISS:       2869  HIT %:    99.7635  MISS %:   0.236538   MPKI: 0.05738
STLB LOAD TRANSLATION INSTRUCTION	ACCESS:     446050  HIT:     445549  MISS:        501  HIT %:    99.8877  MISS %:   0.112319  MPKI: 0.01002
STLB LOAD TRANSLATION DATA	ACCESS:     466459  HIT:     464122  MISS:       2337  HIT %:     99.499  MISS %:   0.501009  MPKI: 0.04674
STLB TRANSLATION FROM L1D PREFETCHER DATA	ACCESS:     300405  HIT:     300374  MISS:         31  HIT %:    99.9897  MISS %:  0.0103194  MPKI: 0.00062

STLB AVERAGE MISS LATENCY: 61.6595 cycles
STLB RQ	ACCESS:    1392081	FORWARD:          0	MERGED:     179095	TO_CACHE:    1212986

STLB Hit, L1D data hit: 0
STLB Hit, L2C data hit: 0
STLB Hit, LLC data hit: 0
STLB Hit, LLC data miss: 0
STLB STLB hints to L2: 0
L1D TOTAL     ACCESS:   13751294  HIT:   12654604  MISS:    1096690  HIT %:    92.0248  MISS %:    7.97518   MPKI: 21.9338
L1D LOAD DATA	ACCESS:    7191744  HIT:    6484867  MISS:     706877  HIT %:     90.171  MISS %:    9.82901  MPKI: 14.1375
L1D RFO DATA	ACCESS:    6158540  HIT:    5880212  MISS:     278328  HIT %:    95.4806  MISS %:    4.51938  MPKI: 5.56656
L1D PREFETCH DATA	ACCESS:     401010  HIT:     289525  MISS:     111485  HIT %:    72.1989  MISS %:    27.8011  MPKI: 2.2297

L1D PREFETCH  REQUESTED:     958955  ISSUED:     958955  USEFUL:      56339  USELESS:      72868
L1D USEFUL LOAD PREFETCHES:      56339 PREFETCH ISSUED TO LOWER LEVEL:     129235  ACCURACY: 43.5942
 TIMELY PREFETCHES:      56339 LATE PREFETCHES: 17718 DROPPED PREFETCHES: 41
L1D AVERAGE MISS LATENCY: 734836 cycles
L1D RQ	ACCESS:   11137222	FORWARD:          0	MERGED:    3761673	TO_CACHE:    7225178
L1D WQ	ACCESS:    6768845	FORWARD:     150586	MERGED:     126312	TO_CACHE:    6642533
L1D PQ	ACCESS:     479585	FORWARD:          0	MERGED:          0	TO_CACHE:     479370

L1D UNIQUE REGIONS ACCESSED: 0
L1D REGIONS CONFLICTS: 0
L1D Cross Page Prefetch Requests: 10815
L1D Same Page Prefetch Requests: 961254
L1D ROI Sum of L1D PQ occupancy: 6079697
L1D PREFETCHES PUSHED FROM L2C: 0
L1I TOTAL     ACCESS:    6938236  HIT:    4425187  MISS:    2513049  HIT %:    63.7797  MISS %:    36.2203   MPKI: 50.261
L1I LOAD INSTRUCTION	ACCESS:    6552654  HIT:    4039605  MISS:    2513049  HIT %:    61.6484  MISS %:    38.3516  MPKI: 50.261
L1I PREFETCH INSTRUCTION	ACCESS:     385582  HIT:     385582  MISS:          0  HIT %:        100  MISS %:          0  MPKI: 0

L1I PREFETCH  REQUESTED:     676573  ISSUED:     676573  USEFUL:          0  USELESS:          0
L1I USEFUL LOAD PREFETCHES:          0 PREFETCH ISSUED TO LOWER LEVEL:          0  ACCURACY: -nan
 TIMELY PREFETCHES:          0 LATE PREFETCHES: 0 DROPPED PREFETCHES: 0
L1I AVERAGE MISS LATENCY: 17.0996 cycles
L1I RQ	ACCESS:    9438675	FORWARD:          0	MERGED:    2795407	TO_CACHE:    6643268
L1I PQ	ACCESS:     676573	FORWARD:          0	MERGED:     215378	TO_CACHE:     461195

L1BTB TOTAL     ACCESS:    5844628  HIT:    2450986  MISS:    3393642  HIT %:    41.9357  MISS %:    58.0643   MPKI: 67.8728
L1BTB BRANCH_DIRECT_JUMP	ACCESS:     590787  HIT:     198013  MISS:     392774	AVERAGE STALL: 28.1565
L1BTB BRANCH_INDIRECT	ACCESS:     172325  HIT:      56756  MISS:     115569	AVERAGE STALL: 78.3522
L1BTB BRANCH_CONDITIONAL	ACCESS:    2995099  HIT:    1783080  MISS:    1212019	AVERAGE STALL: 29.5728
L1BTB BRANCH_DIRECT_CALL	ACCESS:     883437  HIT:     106636  MISS:     776801	AVERAGE STALL: 31.0221
L1BTB BRANCH_INDIRECT_CALL	ACCESS:     159770  HIT:      20298  MISS:     139472	AVERAGE STALL: 87.8577
L1BTB BRANCH_RETURN	ACCESS:    1043210  HIT:     286203  MISS:     757007	AVERAGE STALL: 29.6234
L1BTB BRANCH_OTHER ACCESS:          0  HIT:          0  MISS:          0	AVERAGE STALL: -nan
L1BTB TOTAL ROB OCCUPANCY AT BTB MISS: 20.1158

L2BTB TOTAL     ACCESS:    3368209  HIT:    2048582  MISS:    1319627  HIT %:    60.8211  MISS %:    39.1789   MPKI: 26.3925
L2BTB BRANCH_DIRECT_JUMP	ACCESS:     387700  HIT:     225510  MISS:     162190	AVERAGE STALL: 28.1565
L2BTB BRANCH_INDIRECT	ACCESS:     105753  HIT:      91719  MISS:      14034	AVERAGE STALL: 78.3522
L2BTB BRANCH_CONDITIONAL	ACCESS:    1212019  HIT:     742735  MISS:     469284	AVERAGE STALL: 29.5728
L2BTB BRANCH_DIRECT_CALL	ACCESS:     776801  HIT:     421922  MISS:     354879	AVERAGE STALL: 31.0221
L2BTB BRANCH_INDIRECT_CALL	ACCESS:     129963  HIT:      70345  MISS:      59618	AVERAGE STALL: 87.8577
L2BTB BRANCH_RETURN	ACCESS:     755973  HIT:     496351  MISS:     259622	AVERAGE STALL: 29.6234
L2BTB BRANCH_OTHER ACCESS:          0  HIT:          0  MISS:          0	AVERAGE STALL: -nan
L2BTB TOTAL ROB OCCUPANCY AT BTB MISS: 51.7311

L2C TOTAL     ACCESS:    4183364  HIT:    3705521  MISS:     477843  HIT %:    88.5775  MISS %:    11.4225   MPKI: 9.55686
L2C LOAD INSTRUCTION	ACCESS:    2513048  HIT:    2283033  MISS:     230015  HIT %:    90.8472  MISS %:    9.15283  MPKI: 4.6003
L2C LOAD TRANSLATION INSTRUCTION	ACCESS:        555  HIT:        229  MISS:        326  HIT %:    41.2613  MISS %:    58.7387  MPKI: 0.00652
L2C LOAD DATA	ACCESS:     689042  HIT:     599238  MISS:      89804  HIT %:    86.9668  MISS %:    13.0332  MPKI: 1.79608
L2C RFO DATA	ACCESS:     278289  HIT:     221076  MISS:      57213  HIT %:    79.4412  MISS %:    20.5588  MPKI: 1.14426
L2C PREFETCH DATA	ACCESS:     216502  HIT:     129763  MISS:      86739  HIT %:    59.9362  MISS %:    40.0638  MPKI: 1.73478
L2C WRITEBACK DATA	ACCESS:     483361  HIT:     471380  MISS:      11981  HIT %:    97.5213  MISS %:    2.47869  MPKI: 0.23962
L2C LOAD TRANSLATION DATA	ACCESS:       2486  HIT:        757  MISS:       1729  HIT %:    30.4505  MISS %:    69.5495  MPKI: 0.03458
L2C TRANSLATION FROM L1D PREFETCHER DATA	ACCESS:         81  HIT:         45  MISS:         36  HIT %:    55.5556  MISS %:    44.4444  MPKI: 0.00072

L2C PREFETCH  REQUESTED:      96719  ISSUED:      96719  USEFUL:      11209  USELESS:      76648
L2C USEFUL LOAD PREFETCHES:      11209 PREFETCH ISSUED TO LOWER LEVEL:      87836  ACCURACY: 12.7613
 TIMELY PREFETCHES:      11209 LATE PREFETCHES: 1097 DROPPED PREFETCHES: 0
L2C AVERAGE MISS LATENCY: 42.385 cycles
L2C RQ	ACCESS:    3483626	FORWARD:          0	MERGED:          0	TO_CACHE:    3483502
L2C WQ	ACCESS:     483362	FORWARD:        124	MERGED:          0	TO_CACHE:     483362
L2C PQ	ACCESS:     225954	FORWARD:          0	MERGED:       3909	TO_CACHE:     222045

L2C Dense regions hint from L2: 0
PSCL5 TOTAL     ACCESS:       5820  HIT:       2910  MISS:       2910  HIT %:         50  MISS %:         50   MPKI: 0.0582
PSCL5 LOAD TRANSLATION INSTRUCTION	ACCESS:       5662  HIT:       2831  MISS:       2831  HIT %:         50  MISS %:         50  MPKI: 0.05662
PSCL5 TRANSLATION FROM L1D PREFETCHER INSTRUCTION	ACCESS:        158  HIT:         79  MISS:         79  HIT %:         50  MISS %:         50  MPKI: 0.00158


PSCL4 TOTAL     ACCESS:       5795  HIT:       2897  MISS:       2898  HIT %:    49.9914  MISS %:    50.0086   MPKI: 0.05796
PSCL4 LOAD TRANSLATION INSTRUCTION	ACCESS:       2981  HIT:       2818  MISS:        163  HIT %:     94.532  MISS %:    5.46796  MPKI: 0.00326
PSCL4 TRANSLATION FROM L1D PREFETCHER INSTRUCTION	ACCESS:         79  HIT:         79  MISS:          0  HIT %:        100  MISS %:          0  MPKI: 0
PSCL4 LOAD TRANSLATION DATA	ACCESS:       2656  HIT:          0  MISS:       2656  HIT %:          0  MISS %:        100  MPKI: 0.05312
PSCL4 TRANSLATION FROM L1D PREFETCHER DATA	ACCESS:         79  HIT:          0  MISS:         79  HIT %:          0  MISS %:        100  MPKI: 0.00158


PSCL3 TOTAL     ACCESS:       5795  HIT:       2897  MISS:       2898  HIT %:    49.9914  MISS %:    50.0086   MPKI: 0.05796
PSCL3 LOAD TRANSLATION INSTRUCTION	ACCESS:       2981  HIT:       2818  MISS:        163  HIT %:     94.532  MISS %:    5.46796  MPKI: 0.00326
PSCL3 TRANSLATION FROM L1D PREFETCHER INSTRUCTION	ACCESS:         79  HIT:         79  MISS:          0  HIT %:        100  MISS %:          0  MPKI: 0
PSCL3 LOAD TRANSLATION DATA	ACCESS:       2656  HIT:          0  MISS:       2656  HIT %:          0  MISS %:        100  MPKI: 0.05312
PSCL3 TRANSLATION FROM L1D PREFETCHER DATA	ACCESS:         79  HIT:          0  MISS:         79  HIT %:          0  MISS %:        100  MPKI: 0.00158


PSCL2 TOTAL     ACCESS:       5609  HIT:       2700  MISS:       2909  HIT %:    48.1369  MISS %:    51.8631   MPKI: 0.05818
PSCL2 LOAD TRANSLATION INSTRUCTION	ACCESS:       3123  HIT:       2623  MISS:        500  HIT %:    83.9898  MISS %:    16.0102  MPKI: 0.01
PSCL2 TRANSLATION FROM L1D PREFETCHER INSTRUCTION	ACCESS:         77  HIT:         77  MISS:          0  HIT %:        100  MISS %:          0  MPKI: 0
PSCL2 LOAD TRANSLATION DATA	ACCESS:       2332  HIT:          0  MISS:       2332  HIT %:          0  MISS %:        100  MPKI: 0.04664
PSCL2 TRANSLATION FROM L1D PREFETCHER DATA	ACCESS:         77  HIT:          0  MISS:         77  HIT %:          0  MISS %:        100  MPKI: 0.00154


LLC TOTAL     ACCESS:     547725  HIT:     508470  MISS:      39255  HIT %:    92.8331  MISS %:    7.16692   MPKI: 0.7851
LLC LOAD INSTRUCTION	ACCESS:     230015  HIT:     228866  MISS:       1149  HIT %:    99.5005  MISS %:   0.499533  MPKI: 0.02298
LLC LOAD TRANSLATION INSTRUCTION	ACCESS:        326  HIT:        295  MISS:         31  HIT %:    90.4908  MISS %:     9.5092  MPKI: 0.00062
LLC LOAD DATA	ACCESS:      88721  HIT:      83709  MISS:       5012  HIT %:    94.3508  MISS %:    5.64917  MPKI: 0.10024
LLC RFO DATA	ACCESS:      57181  HIT:      38245  MISS:      18936  HIT %:    66.8841  MISS %:    33.1159  MPKI: 0.37872
LLC PREFETCH DATA	ACCESS:      87836  HIT:      74174  MISS:      13662  HIT %:     84.446  MISS %:     15.554  MPKI: 0.27324
LLC WRITEBACK DATA	ACCESS:      81881  HIT:      81520  MISS:        361  HIT %:    99.5591  MISS %:   0.440884  MPKI: 0.00722
LLC LOAD TRANSLATION DATA	ACCESS:       1729  HIT:       1626  MISS:        103  HIT %:    94.0428  MISS %:     5.9572  MPKI: 0.00206
LLC TRANSLATION FROM L1D PREFETCHER DATA	ACCESS:         36  HIT:         35  MISS:          1  HIT %:    97.2222  MISS %:    2.77778  MPKI: 2e-05

LLC AVERAGE MISS LATENCY: 159.418 cycles
LLC RQ	ACCESS:     378026	FORWARD:          0	MERGED:          0	TO_CACHE:     378008
LLC WQ	ACCESS:      81881	FORWARD:         18	MERGED:          0	TO_CACHE:      81881
LLC PQ	ACCESS:      87836	FORWARD:          0	MERGED:          0	TO_CACHE:      87836

LLC Dense regions hint to LLC: 0

RAW hits: 1318222
Loads Generated: 12455444
Loads sent to L1D: 11137222
Stores Generated: 6768846
Stores sent to L1D: 6768845
Major fault: 0 Minor fault: 2501
Allocated PAGES: 2501

stream: 
stream:times selected: 1491411
stream:pref_filled: 126151
stream:pref_useful: 28890
stream:pref_late: 10260
stream:misses: 12878
stream:misses_by_poll: 0

CS: 
CS:times selected: 234859
CS:pref_filled: 85430
CS:pref_useful: 60424
CS:pref_late: 10594
CS:misses: 28250
CS:misses_by_poll: 6

CPLX: 
CPLX:times selected: 1254490
CPLX:pref_filled: 29090
CPLX:pref_useful: 8905
CPLX:pref_late: 4878
CPLX:misses: 146137
CPLX:misses_by_poll: 4

NL_L1: 
NL:times selected: 29926
NL:pref_filled: 2025
NL:pref_useful: 981
NL:pref_late: 643
NL:misses: 3822
NL:misses_by_poll: 0

total selections: 3010686
total_filled: 111485
total_useful: 56339
total_late: 29512
total_polluted: 10
total_misses_after_warmup: 740312
conflicts: 5545319

test: 179940

DRAM Statistics
 CHANNEL 0
 RQ ROW_BUFFER_HIT:      13698  ROW_BUFFER_MISS:      25192
 DBUS_CONGESTED:         12
 WQ ROW_BUFFER_HIT:       2318  ROW_BUFFER_MISS:      18825  FULL:          0

 AVG_CONGESTED_CYCLE: 3

CPU 0 Branch Prediction Accuracy: 99.7649% MPKI: 0.4307 Average ROB Occupancy at Mispredict: 114.013
Branch types
NOT_BRANCH: 40839760 81.6795%
BRANCH_DIRECT_JUMP: 590787 1.18157%
BRANCH_INDIRECT: 172325 0.34465%
BRANCH_CONDITIONAL: 6310260 12.6205%
BRANCH_DIRECT_CALL: 883437 1.76687%
BRANCH_INDIRECT_CALL: 159770 0.31954%
BRANCH_RETURN: 1043210 2.08642%
BRANCH_OTHER: 0 0%

DRAM PAGES: 1048576
Allocated PAGES: 2501
Average_ROB_Occupancy: 69.008
Average_Decode_Occupancy: 8.01597
Average_FTQ_Occupancy: 3.97277
Indirect max targets: 14 Average targets: 1.14626
Branch_type:  BRANCH_DIRECT_JUMP:  Count Percentage: 8.89504 5.97182 4.49273 11.4118 1.74309 4.40078 1.66028 61.4244 
Branch_type:  BRANCH_INDIRECT:  Count Percentage: 5.47432 1.18804 3.76247 3.51346 1.37046 10.6747 5.28466 68.7319 
Branch_type:  BRANCH_CONDITIONAL:  Count Percentage: 25.8238 2.42374 2.46595 5.6985 1.33319 5.92367 3.12317 53.208 
Branch_type:  BRANCH_DIRECT_CALL:  Count Percentage: 0.344158 1.52675 1.69166 5.75775 1.96458 1.87187 3.14338 83.6998 
Branch_type:  BRANCH_INDIRECT_CALL:  Count Percentage: 8.70423 0 2.96308 11.2418 0 2.46573 6.8409 67.7843 
Branch_type:  BRANCH_RETURN:  Count Percentage: 4.71227 1.36449 0.873914 7.64573 2.03094 7.96161 5.3546 70.0565 
Branch_type:  BRANCH_DIRECT_JUMP:  Total Count: 105056 70531 53062 134781 20587 51976 19609 725461 
Branch_type:  BRANCH_INDIRECT:  Total Count: 18906 4103 12994 12134 4733 36866 18251 237371 
Branch_type:  BRANCH_CONDITIONAL:  Total Count: 3257790 305766 311091 718891 168188 747298 394002 6712424 
Branch_type:  BRANCH_DIRECT_CALL:  Total Count: 6073 26941 29851 101601 34667 33031 55468 1476965 
Branch_type:  BRANCH_INDIRECT_CALL:  Total Count: 27757 0 9449 35849 0 7863 21815 216158 
Branch_type:  BRANCH_RETURN:  Total Count: 98218 28440 18215 159360 42331 165944 111606 1460188 
Number of unique branch instructions: 9878
Upper 32 bits: 
aaaa
ffff
ffff0000
Unique upper 32 bits: 3
Unique upper 36 bits: 3
Unique upper 40 bits: 5
Unique upper 44 bits: 32
Unique upper 48 bits: 153
Offset_3 4067
Offset_4 238
Offset_5 460
Offset_6 501
Offset_7 585
Offset_8 501
Offset_9 471
Offset_10 368
Offset_11 328
Offset_12 289
Offset_13 205
Offset_14 227
Offset_15 188
Offset_16 222
Offset_17 145
Offset_18 123
Offset_19 229
Offset_20 138
Offset_21 239
Offset_22 394
Offset_23 241
Offset_24 333
Offset_25 88
Offset_47 82
Offset_64 1
decode_dispatch_called: 20969733 33.4281
Dispatch_width: 0 10382603 49.5123 16.5511
Dispatch_width: 1 683451 3.25923 1.0895
Dispatch_width: 2 974722 4.64823 1.55382
Dispatch_width: 3 626028 2.98539 0.99796
Dispatch_width: 4 1939612 9.24958 3.09196
Dispatch_width: 5 449623 2.14415 0.71675
Dispatch_width: 6 5913694 28.2011 9.4271
Empty_decode_cycles: 41761031 66.5719
ROB_full_cycles: 1848899 2.94736
Starvation_cycles_per_kilo_instr: 549.682
Starvation_cycles_per_kilo_instr_3: 525.789
Starvation_cycles_per_kilo_instr_0: 502.947
Branch_type_1  (3,1)  (4,8)  (5,35)  (6,68)  (7,115)  (8,129)  (9,123)  (10,89)  (11,74)  (12,52)  (13,6)  (14,2)  (15,3)  (16,4)  (18,1)  (19,4)  (20,2)  (21,1)  (22,3)  (23,2)  (24,10)  (25,12) 
Branch_type_2  (3,1)  (5,1)  (8,2)  (9,3)  (12,1)  (13,1)  (14,1)  (16,3)  (17,2)  (20,2)  (21,2)  (23,5)  (24,1)  (47,38) 
Branch_type_3  (3,4065)  (4,230)  (5,420)  (6,418)  (7,440)  (8,311)  (9,262)  (10,151)  (11,136)  (12,62)  (13,5)  (64,1) 
Branch_type_4  (6,3)  (7,8)  (8,25)  (9,50)  (10,60)  (11,60)  (12,96)  (13,88)  (14,103)  (15,89)  (16,99)  (17,65)  (18,57)  (19,112)  (20,71)  (21,127)  (22,209)  (23,136)  (24,194)  (25,72) 
Branch_type_5  (8,2)  (9,1)  (10,3)  (11,5)  (12,3)  (13,14)  (14,16)  (15,11)  (16,20)  (17,11)  (18,16)  (19,12)  (20,10)  (21,13)  (22,42)  (23,26)  (24,36) 
Branch_type_6  (5,4)  (6,12)  (7,22)  (8,32)  (9,32)  (10,65)  (11,53)  (12,75)  (13,91)  (14,105)  (15,85)  (16,96)  (17,67)  (18,49)  (19,101)  (20,53)  (21,96)  (22,140)  (23,72)  (24,92)  (25,4)  (47,44) 
aaaaab1fc620: 2ac9e77e 2aca717c 2aca8eff 2acaf6bc 2acaf9aa 2acaf9f1 2acb1abc 2acb1b7f 2acd4e22 2acdb712 2acf5f9e 2ad0ef44 2ad3f15c 2ad414e6 2ad60e42 2ad8609c 2ad99830 2ada35cc 2ada4676 2ada6612 2adf183e 2adf30e5 2adf5602 2adf785c 2ae11572 2aeb2dcf 2aee101b 2aee1ae1 2aee9456 2b156a8c 2b156b61 2b156bea 2b167f35 2b177656 2b17feec 2b1a3e5a 
aaaaab1fc740: 2aca1fb0 2aca45b3 2aca5aa1 2aca5c69 2aca66f9 2aca9426 2acaeecb 2acf3d2d 2acf3d64 2acf6089 2ad017ea 2ad5e7ef 2ad61064 2ad87373 2ad9bf84 2ad9c093 2ae9b606 2aea9ffa 2aee99f5 2aee9a2c 2aeece4b 
aaaaac68f310: 2ac9ec8c 2ac9fb44 2ac9fbd2 2aca59ab 2acac04c 2acaf6e0 2acaf6ec 2acaf6f9 2acaf700 2acaf708 2acf2d90 2ad3cfbd 2ad3cfc4 2ad3d000 2ad3f35f 2ad4955d 2ad49571 2ad4f3f2 2ad4f400 2ad5f240 2ad5f37c 2ad5f86a 2ad5f86f 2ad5f880 2ad5fc0d 2ad5fc14 2ad5fc21 2ad5fe1b 2ad873bb 2ad873e3 2ad8a6b2 2ad9086e 2ad93096 2ad9bbb2 2ada152c 2ada1554 2ada3332 2ada5522 2adf3130 2adf313c 2adf3a3f 2adf3bd9 2adf5788 2adf7a8d 2ae07f6b 2ae0857a 2ae0857e 2ae08630 2ae08634 2ae08637 2ae08642 2ae0866f 2ae086e4 2ae086ec 2ae08717 2ae0871b 2aee0170 2aee1d38 2aee75f4 2aee7662 2aee85ca 2aee85e4 2aee8eef 2aee9a0a 2af70b84 2af74e8f 2b17d843 
aaaaac690ef0: 2aca598b 2acb111b 2acb175f 2acb1772 2acbfaf4 2acbfb00 2acf374f 2acf6d43 2acfa5c8 2ad3baf1 2ad3d4ac 2ad3d4b8 2ad3f1cf 2ad486b2 2ad5a59b 2ad5fc64 2ad5fcf9 2ad6121c 2ad906e9 2ad907bf 2ad9bada 2ada16ce 2ada1ad5 2ada43df 2ada64c0 2ada72ee 2adeb71a 2adf3bcb 2adf7a38 2adf7c6a 2adf8872 2adf8880 2adf9959 2adf9abe 2ae07f78 2ae08503 2ae08754 2ae12e80 2aea3bea 2aecb509 2aee00b0 2aee2bdd 2aee5467 2aee5601 2aee8f20 2af703fd 2af7048b 2af74e74 2dfba627 
Unique trigger count: 
1 9430
2 494
3 90
4 31
5 9
6 7
7 7
8 1
9 3
10 1
11 2
12 1
13 3
16 2
18 2
19 2
21 1
36 1
49 1
67 1
BTB PER SET UNIQUE ADDR: 4 8 6 4 3 3 7 9 10 2 4 2 8 5 4 4 6 5 8 8 4 8 6 10 8 12 1 7 6 5 9 10 6 4 7 5 4 6 6 3 7 5 5 10 9 6 5 11 11 6 5 3 13 2 2 7 5 5 8 8 4 11 4 8 5 9 8 7 5 7 6 2 6 4 6 7 6 14 6 3 8 6 8 6 7 8 7 8 8 10 10 8 9 6 8 4 10 7 4 5 8 6 8 9 5 8 6 8 8 6 5 4 5 7 5 11 3 6 6 2 9 8 4 2 6 4 4 6 9 8 11 3 11 4 8 4 5 2 6 7 7 7 6 7 3 10 3 8 10 6 6 11 6 10 4 8 7 8 6 10 9 6 9 5 10 6 3 4 12 5 4 3 8 6 3 2 5 8 8 4 5 6 8 6 6 12 5 5 6 9 6 7 6 6 6 10 10 3 9 6 4 6 8 3 8 4 5 7 6 2 3 5 9 9 5 6 3 8 7 6 6 2 6 6 5 8 12 7 2 10 13 10 4 2 7 9 9 5 4 4 4 3 9 7 15 9 1 5 5 5 8 9 6 6 5 10 4 7 10 5 8 5 7 4 9 15 6 4 7 5 7 6 4 9 9 8 6 3 4 8 8 4 9 5 10 9 6 8 8 4 5 7 4 11 6 3 5 11 5 6 6 7 4 4 7 6 6 4 10 10 5 3 8 3 7 4 8 13 6 3 6 11 5 7 5 5 6 8 3 0 7 2 5 7 9 4 6 7 7 1 6 6 2 8 5 6 3 6 7 3 3 10 9 6 8 7 7 2 7 5 6 10 6 8 10 8 4 3 4 4 8 4 6 5 7 4 11 6 5 10 10 6 6 11 6 4 7 5 5 4 9 5 8 4 7 4 5 7 2 7 6 4 7 6 5 6 9 5 5 3 3 4 9 4 2 5 8 4 3 6 2 6 6 7 9 7 4 2 4 7 4 4 14 4 8 10 6 6 6 4 4 6 8 4 6 8 4 7 5 4 6 3 4 1 9 2 4 8 9 5 5 4 7 10 5 5 9 3 6 7 2 6 8 7 4 3 8 5 2 3 5 3 4 4 3 7 8 3 6 2 11 4 4 8 1 12 4 7 6 4 11 3 4 3 2 5 5 3 2 6 8 3 4 9 3 3 2 11 6 9 6 4 8 3 10 9 4 8 10 7 5 6 4 8 4 7 5 1 6 4 5 9 9 4 8 5 9 14 12 12 5 9 7 8 2 6 9 3 5 3 10 5 8 5 6 5 9 8 11 6 7 4 9 11 6 7 6 11 4 8 12 6 1 6 4 3 3 14 8 6 8 8 3 5 3 5 6 5 4 4 10 5 9 10 9 6 4 9 8 6 9 6 7 7 8 4 7 4 5 8 7 5 9 5 5 9 7 8 3 5 8 7 6 6 7 5 5 4 5 3 10 9 4 5 3 3 6 7 8 7 8 5 10 3 5 3 10 5 6 8 11 3 6 11 7 7 7 6 5 9 7 6 6 7 11 9 7 6 7 6 8 10 8 6 7 8 6 9 7 7 3 7 3 4 4 6 10 7 7 7 3 12 7 5 6 10 3 4 5 5 6 8 5 5 5 7 9 5 1 8 4 3 5 3 4 1 3 8 3 11 7 11 7 2 6 8 6 3 6 4 4 8 5 10 4 3 5 3 6 6 6 3 5 5 2 5 4 10 9 4 4 6 6 8 7 6 14 5 5 4 9 6 0 6 7 5 6 10 4 3 7 5 4 6 11 9 9 6 3 9 3 10 4 6 5 12 11 4 6 4 13 4 7 3 7 7 7 8 3 5 3 4 6 3 4 6 1 5 5 9 7 4 9 3 5 4 5 4 7 7 7 3 7 4 10 6 4 4 6 4 6 4 5 6 4 7 8 5 5 4 8 7 6 8 5 9 8 4 7 4 7 6 4 4 12 5 6 8 9 9 5 7 6 9 6 2 2 3 8 4 3 7 6 6 9 5 6 4 4 7 8 3 4 7 5 5 8 10 4 3 13 7 5 5 8 6 5 11 6 8 10 6 4 3 1 7 5 4 7 6 8 8 8 6 8 8 6 4 5 12 5 4 11 10 5 8 10 9 2 8 8 8 4 4 6 7 10 5 7 3 8 1 13 7 4 5 9 12 5 9 5 6 10 6 4 9 9 8 8 3 2 5 4 8 10 6 8 4 4 7 12 5 4 5 5 6 4 3 8 7 8 7 7 11 5 10 6 11 5 5 3 5 7 4 7 6 7 4 6 5 9 3 9 4 9 5 9 4 3 6 9 6 13 4 
BTB PER SET COUNT: 4 5171 4921 4 4 3 3597 4866 7741 5 4 2 4792 1096 4 5 2715 523 2898 4602 4 2116 695 5220 7055 10126 1 530 2680 33 9120 4185 1516 6 3813 3284 2704 3396 721 3 3201 514 47 4374 9438 527 2235 5940 8821 2158 754 4 11223 2 2 4240 677 5392 6111 3742 4 8246 4 4154 22 6709 1638 1651 1105 3329 2257 2 39 4 1023 3204 696 8712 685 3 2359 3694 2043 2389 2802 2847 1890 2221 8427 3036 7594 2654 4865 3008 1477 4 7165 2201 4 732 1846 774 2441 5721 5 5386 1460 3420 3874 1145 1259 6 286 2521 22 9991 3 25 1249 18 4150 4010 4 3 2109 5 4 3772 9265 1465 6006 3 7116 4 7776 5 1126 2 28 5740 6088 7139 1106 3370 3 2900 3 6471 8799 1824 1380 9312 3785 10127 4 4895 7431 5880 3723 7075 10530 1514 8765 1514 7412 3216 3 4 12859 1461 4 3 834 104 3 2 19 1564 4371 4 21 1139 8464 462 1102 8418 2600 18 5061 4674 46 5155 1101 4105 2433 2492 8531 4 1485 8 4 875 6088 3 3778 4 1096 3042 525 2 4 345 3008 4316 1429 3727 3 3429 936 5222 1194 2 1223 6062 1451 4428 11953 5801 2 10171 10016 7533 4 2 1468 5626 4604 6 5 4 4 3 9861 2166 12340 6068 1 2662 732 6 3507 6378 4642 1530 19 8116 4 2132 5020 1139 3285 684 3713 4 6330 10824 1010 5 3108 2279 3627 1905 4 6806 4607 2375 1452 3 5 4736 2129 4 3851 683 7871 9118 3876 2460 1535 4 1460 3597 373 7492 3834 9 21 7756 3421 2985 2431 1619 4 5 2938 964 626 4 6847 5817 854 3 4082 4 855 5 5201 8784 3822 3 2266 3977 684 5465 54 1822 25 3442 4 0 4385 2 882 1633 9365 4 5155 3421 1845 1 18 699 2 5373 1389 821 3 685 1995 3 3 5254 6024 2805 2230 23 8731 3 4662 1550 1858 4926 25 2318 2629 5118 6 4 4 4 3609 4 1630 514 2007 5 5578 30 1096 5008 4162 1824 3784 8679 25 4 46 759 516 4 3159 18 4513 6 3736 6 2259 4584 2 1493 2515 5 2103 1097 558 24 3823 7 5 1612 3 8 2879 4 667 733 1343 4 12 1241 2 4047 4083 1524 5363 1284 9 2 4 1865 114 4 7794 4 4545 9885 1113 3928 3876 4 4 746 3973 4 1472 4280 4 2907 20 4 2187 3 4 1 6991 2 8 1040 6267 22 738 38 1604 6731 901 28 7052 3 37 1107 2 882 6529 693 124 3 24056 684 2 3 34 4 33 371 3 3198 3164 510 1108 2 4725 4 4 4659 1 9442 5 1876 10 4 11546 9 4 3 2 2373 17 3 2 44 2422 3 4 6475 4 3 2 11314 72 2942 1824 1090 4201 3 4204 6524 4 4628 5578 6109 7 3612 4 385 4 5496 84 1 674 4 21 8808 3686 5 3514 20 1679 5752 10835 11279 1092 5366 1120 5167 2 1456 3313 3 1824 3 7410 1045 4428 1460 2343 775 6028 1790 8933 1472 5078 5 7465 9791 3695 2201 4761 7265 5 3820 8900 1373 1 2600 1091 3 3 11148 2236 19 7344 4562 4 1398 669 1459 25 2737 4 4 4575 1814 8369 6300 4364 4378 4 6166 3327 1606 9240 1050 3102 2303 7417 4 3239 4 17 4379 2072 399 7260 1141 1105 5129 1844 5385 3 1096 7293 7558 3061 39 5885 6 690 4 732 3 9825 5348 4 34 3 18 1154 2247 5861 27 6763 8 11048 3 732 3 7746 1139 7415 5472 17387 4 2744 10322 5462 5455 3485 1385 22 5309 4708 5852 2241 2224 10277 4991 3753 3193 4727 3422 6189 9121 1974 6767 13622 4686 2167 5209 2559 5334 3 2971 3 5 4 2236 8064 2203 2067 1194 3 8574 687 3420 1097 7392 3 1091 1501 1861 2214 2197 14 775 2710 2482 6905 1824 1 6932 4 3 3091 3 4 1 3 4466 3 8923 4944 7178 6258 2 1509 4894 3363 4 1473 4 5 4017 21 9333 4 4 2007 3 1100 2533 6355 3 732 12 2 1183 4 7430 8427 669 4 5197 4188 2936 2668 1994 10668 514 18 4 3846 532 0 2859 80 1094 3332 6094 4 3 3105 11 4 4005 8620 6690 4095 16 607 4605 4 5795 4 1474 16 9001 6275 4 1459 4 8350 5 2980 3 3469 2801 3336 5143 3 18 3 4 1089 306 5 28 4 51 8 4803 740 4 6684 3 1095 4 1179 4 3102 3186 3225 4 6364 4 9154 1628 5 5 1778 4 1993 4 1493 4176 4 3636 2436 1182 1124 6 8093 3853 2432 5362 2279 10466 2664 4 6383 4 2523 3431 4 4 8183 690 528 9197 9368 7383 1460 3999 3790 4681 1106 2 3 3 264 4 3 5844 41 2830 4854 756 2643 5 4 2659 6712 3 4 1584 134 8 2497 4911 4 3 9155 3431 85 132 1675 1522 514 3844 177 2901 4095 1108 5 3 1 2602 8 732 7115 3957 4478 2878 4676 3331 4799 4097 3110 4 1503 4657 25 382 7432 5513 1228 4923 5918 5633 2 4247 3679 4503 4 669 1027 4469 2108 1068 3613 3 1998 1 8806 2894 4 1281 5937 10580 42 5566 165 2436 7736 3425 4 3302 3602 2569 4796 3 2 1096 4 7392 6941 1605 5005 5 4 1837 8877 12 382 359 1521 3426 4 3 2986 3423 3416 2749 4469 8456 7 4252 1901 6270 6 85 3 2025 1265 4 3058 37 5711 5 1544 5 8189 4 8616 282 2709 6 3398 5 3 116 4894 969 6945 4 
