
*** ChampSim Multicore Out-of-Order Simulator ***

Warmup Instructions: 50000000
Simulation Instructions: 50000000
Number of CPUs: 1
LLC sets: 2048
LLC ways: 16
Off-chip DRAM Size: 4096 MB Channels: 1 Width: 64-bit Data Rate: 6400 MT/s
CPU 0 runs ./micro_traces/srv102.trace.gz
.gz
ITLB has LRU replacement policy
DTLB has LRU replacement policy
STLB has LRU replacement policy
FDIP Prefetcher at L1I
L1I has LRU replacement policy
L1D has LRU replacement policy
Initialize SRRIP state for L2C
Initialize DRRIP state for LLC
Heartbeat_Variant_0 : 1301 0.158813 per_variant_size: 0 1301 0 0 0 0 0 0 0 
Heartbeat_Variant_1 : 2792 0.34082 per_variant_size: 0 1038 1754 0 0 0 0 0 0 
Heartbeat_Variant_2 : 0 0 per_variant_size: 0 0 0 0 0 0 0 0 0 
Heartbeat_Variant_3 : 0 0 per_variant_size: 0 0 0 0 0 0 0 0 0 
Heartbeat_Variant_0_evicts 0 : 7789 1 : 1657 2 : 0 3 : 0 
Heartbeat_Variant_1_evicts 0 : 1667 1 : 0 2 : 0 3 : 0 
Heartbeat_Variant_2_evicts 0 : 0 1 : 0 2 : 0 3 : 0 
Heartbeat_Variant_3_evicts 0 : 0 1 : 0 2 : 0 3 : 0 
Heartbeat CPU 0 instructions: 10000000 cycles: 2796959 heartbeat IPC: 3.57531 cumulative IPC: 3.57531 (Simulation time: 0 hr 2 min 16 sec) 
Heartbeat_Variant_0 : 1329 0.162231 per_variant_size: 0 1329 0 0 0 0 0 0 0 
Heartbeat_Variant_1 : 2861 0.349243 per_variant_size: 0 1022 1839 0 0 0 0 0 0 
Heartbeat_Variant_2 : 0 0 per_variant_size: 0 0 0 0 0 0 0 0 0 
Heartbeat_Variant_3 : 0 0 per_variant_size: 0 0 0 0 0 0 0 0 0 
Heartbeat_Variant_0_evicts 0 : 7857 1 : 1590 2 : 0 3 : 0 
Heartbeat_Variant_1_evicts 0 : 1581 1 : 0 2 : 0 3 : 0 
Heartbeat_Variant_2_evicts 0 : 0 1 : 0 2 : 0 3 : 0 
Heartbeat_Variant_3_evicts 0 : 0 1 : 0 2 : 0 3 : 0 
Heartbeat CPU 0 instructions: 20000001 cycles: 5593036 heartbeat IPC: 3.57644 cumulative IPC: 3.57588 (Simulation time: 0 hr 4 min 26 sec) 
Heartbeat_Variant_0 : 1326 0.161865 per_variant_size: 0 1326 0 0 0 0 0 0 0 
Heartbeat_Variant_1 : 2867 0.349976 per_variant_size: 0 1033 1834 0 0 0 0 0 0 
Heartbeat_Variant_2 : 0 0 per_variant_size: 0 0 0 0 0 0 0 0 0 
Heartbeat_Variant_3 : 0 0 per_variant_size: 0 0 0 0 0 0 0 0 0 
Heartbeat_Variant_0_evicts 0 : 7975 1 : 1646 2 : 0 3 : 0 
Heartbeat_Variant_1_evicts 0 : 1649 1 : 0 2 : 0 3 : 0 
Heartbeat_Variant_2_evicts 0 : 0 1 : 0 2 : 0 3 : 0 
Heartbeat_Variant_3_evicts 0 : 0 1 : 0 2 : 0 3 : 0 
Heartbeat CPU 0 instructions: 30000000 cycles: 8389467 heartbeat IPC: 3.57599 cumulative IPC: 3.57591 (Simulation time: 0 hr 6 min 38 sec) 
Heartbeat_Variant_0 : 1371 0.167358 per_variant_size: 0 1371 0 0 0 0 0 0 0 
Heartbeat_Variant_1 : 2965 0.361938 per_variant_size: 0 1030 1935 0 0 0 0 0 0 
Heartbeat_Variant_2 : 0 0 per_variant_size: 0 0 0 0 0 0 0 0 0 
Heartbeat_Variant_3 : 0 0 per_variant_size: 0 0 0 0 0 0 0 0 0 
Heartbeat_Variant_0_evicts 0 : 7779 1 : 1582 2 : 0 3 : 0 
Heartbeat_Variant_1_evicts 0 : 1587 1 : 0 2 : 0 3 : 0 
Heartbeat_Variant_2_evicts 0 : 0 1 : 0 2 : 0 3 : 0 
Heartbeat_Variant_3_evicts 0 : 0 1 : 0 2 : 0 3 : 0 
Heartbeat CPU 0 instructions: 40000001 cycles: 11186982 heartbeat IPC: 3.5746 cumulative IPC: 3.57558 (Simulation time: 0 hr 8 min 43 sec) 
Heartbeat_Variant_0 : 1371 0.167358 per_variant_size: 0 1371 0 0 0 0 0 0 0 
Heartbeat_Variant_1 : 2965 0.361938 per_variant_size: 0 1027 1938 0 0 0 0 0 0 
Heartbeat_Variant_2 : 0 0 per_variant_size: 0 0 0 0 0 0 0 0 0 
Heartbeat_Variant_3 : 0 0 per_variant_size: 0 0 0 0 0 0 0 0 0 
Heartbeat_Variant_0_evicts 0 : 7895 1 : 1638 2 : 0 3 : 0 
Heartbeat_Variant_1_evicts 0 : 1638 1 : 0 2 : 0 3 : 0 
Heartbeat_Variant_2_evicts 0 : 0 1 : 0 2 : 0 3 : 0 
Heartbeat_Variant_3_evicts 0 : 0 1 : 0 2 : 0 3 : 0 
Heartbeat CPU 0 instructions: 50000002 cycles: 13983512 heartbeat IPC: 3.57586 cumulative IPC: 3.57564 (Simulation time: 0 hr 10 min 40 sec) 

Warmup complete CPU 0 instructions: 50000002 cycles: 13983512 (Simulation time: 0 hr 10 min 40 sec) 

Cycle: 20000000 FTQ IN: 58215251 FTQ occupancy: 19.636 DECODE IN: 58215155 DECODE occupancy: 51.2597 ROB IN: 58215095 ROB occupancy: 309.417 ROB OUT: 58214831
Heartbeat_Variant_0 : 1377 0.168091 per_variant_size: 0 1377 0 0 0 0 0 0 0 
Heartbeat_Variant_1 : 2963 0.361694 per_variant_size: 0 1048 1915 0 0 0 0 0 0 
Heartbeat_Variant_2 : 0 0 per_variant_size: 0 0 0 0 0 0 0 0 0 
Heartbeat_Variant_3 : 0 0 per_variant_size: 0 0 0 0 0 0 0 0 0 
Heartbeat_Variant_0_evicts 0 : 7755 1 : 1501 2 : 0 3 : 0 
Heartbeat_Variant_1_evicts 0 : 1495 1 : 0 2 : 0 3 : 0 
Heartbeat_Variant_2_evicts 0 : 0 1 : 0 2 : 0 3 : 0 
Heartbeat_Variant_3_evicts 0 : 0 1 : 0 2 : 0 3 : 0 
Heartbeat CPU 0 instructions: 60000001 cycles: 21316465 heartbeat IPC: 1.36371 cumulative IPC: 1.36371 (Simulation time: 0 hr 13 min 11 sec) 
Heartbeat_Variant_0 : 1376 0.167969 per_variant_size: 0 1376 0 0 0 0 0 0 0 
Heartbeat_Variant_1 : 2964 0.361816 per_variant_size: 0 1037 1927 0 0 0 0 0 0 
Heartbeat_Variant_2 : 0 0 per_variant_size: 0 0 0 0 0 0 0 0 0 
Heartbeat_Variant_3 : 0 0 per_variant_size: 0 0 0 0 0 0 0 0 0 
Heartbeat_Variant_0_evicts 0 : 7856 1 : 1485 2 : 0 3 : 0 
Heartbeat_Variant_1_evicts 0 : 1486 1 : 0 2 : 0 3 : 0 
Heartbeat_Variant_2_evicts 0 : 0 1 : 0 2 : 0 3 : 0 
Heartbeat_Variant_3_evicts 0 : 0 1 : 0 2 : 0 3 : 0 
Heartbeat CPU 0 instructions: 70000001 cycles: 28699257 heartbeat IPC: 1.3545 cumulative IPC: 1.35909 (Simulation time: 0 hr 15 min 41 sec) 
Cycle: 30000000 FTQ IN: 13557755 FTQ occupancy: 11.9735 DECODE IN: 13557751 DECODE occupancy: 30.8631 ROB IN: 13557751 ROB occupancy: 217.786 ROB OUT: 13557663
Heartbeat_Variant_0 : 1374 0.167725 per_variant_size: 0 1374 0 0 0 0 0 0 0 
Heartbeat_Variant_1 : 2966 0.362061 per_variant_size: 0 1040 1926 0 0 0 0 0 0 
Heartbeat_Variant_2 : 0 0 per_variant_size: 0 0 0 0 0 0 0 0 0 
Heartbeat_Variant_3 : 0 0 per_variant_size: 0 0 0 0 0 0 0 0 0 
Heartbeat_Variant_0_evicts 0 : 8018 1 : 1546 2 : 0 3 : 0 
Heartbeat_Variant_1_evicts 0 : 1548 1 : 0 2 : 0 3 : 0 
Heartbeat_Variant_2_evicts 0 : 0 1 : 0 2 : 0 3 : 0 
Heartbeat_Variant_3_evicts 0 : 0 1 : 0 2 : 0 3 : 0 
Heartbeat CPU 0 instructions: 80000000 cycles: 36030253 heartbeat IPC: 1.36407 cumulative IPC: 1.36075 (Simulation time: 0 hr 18 min 8 sec) 
Cycle: 40000000 FTQ IN: 13642295 FTQ occupancy: 11.8116 DECODE IN: 13642254 DECODE occupancy: 30.5173 ROB IN: 13642254 ROB occupancy: 215.908 ROB OUT: 13642258
Heartbeat_Variant_0 : 1374 0.167725 per_variant_size: 0 1374 0 0 0 0 0 0 0 
Heartbeat_Variant_1 : 2966 0.362061 per_variant_size: 0 1041 1925 0 0 0 0 0 0 
Heartbeat_Variant_2 : 0 0 per_variant_size: 0 0 0 0 0 0 0 0 0 
Heartbeat_Variant_3 : 0 0 per_variant_size: 0 0 0 0 0 0 0 0 0 
Heartbeat_Variant_0_evicts 0 : 7925 1 : 1488 2 : 0 3 : 0 
Heartbeat_Variant_1_evicts 0 : 1488 1 : 0 2 : 0 3 : 0 
Heartbeat_Variant_2_evicts 0 : 0 1 : 0 2 : 0 3 : 0 
Heartbeat_Variant_3_evicts 0 : 0 1 : 0 2 : 0 3 : 0 
Heartbeat CPU 0 instructions: 90000000 cycles: 43427226 heartbeat IPC: 1.3519 cumulative IPC: 1.35852 (Simulation time: 0 hr 20 min 31 sec) 
Cycle: 50000000 FTQ IN: 13370583 FTQ occupancy: 11.881 DECODE IN: 13370619 DECODE occupancy: 30.4681 ROB IN: 13370619 ROB occupancy: 214.987 ROB OUT: 13370619
Heartbeat_Variant_0 : 1457 0.177856 per_variant_size: 0 1457 0 0 0 0 0 0 0 
Heartbeat_Variant_1 : 3142 0.383545 per_variant_size: 0 1031 2111 0 0 0 0 0 0 
Heartbeat_Variant_2 : 0 0 per_variant_size: 0 0 0 0 0 0 0 0 0 
Heartbeat_Variant_3 : 0 0 per_variant_size: 0 0 0 0 0 0 0 0 0 
Heartbeat_Variant_0_evicts 0 : 7942 1 : 1537 2 : 0 3 : 0 
Heartbeat_Variant_1_evicts 0 : 1539 1 : 0 2 : 0 3 : 0 
Heartbeat_Variant_2_evicts 0 : 0 1 : 0 2 : 0 3 : 0 
Heartbeat_Variant_3_evicts 0 : 0 1 : 0 2 : 0 3 : 0 
Heartbeat CPU 0 instructions: 100000003 cycles: 50894575 heartbeat IPC: 1.33916 cumulative IPC: 1.35461 (Simulation time: 0 hr 21 min 31 sec) 
Finished CPU 0 instructions: 50000001 cycles: 36911063 cumulative IPC: 1.35461 (Simulation time: 0 hr 21 min 31 sec) 

ChampSim completed all CPUs

Region of Interest Statistics

CPU 0 cumulative IPC: 1.35461 instructions: 50000001 cycles: 36911063
 Fetch stage stalled: 57.5879  Sim cycles: 36911063 fetch stall cycle: 21256294
 Empty decode stage: 38.9883  Sim cycles: 36911063 fetch stall cycle: 14391013
ITLB TOTAL     ACCESS:    5848379  HIT:    5349914  MISS:     498465  HIT %:    91.4769  MISS %:    8.52313   MPKI: 9.9693
ITLB LOAD TRANSLATION INSTRUCTION	ACCESS:    5733617  HIT:    5235152  MISS:     498465  HIT %:    91.3063  MISS %:    8.69373  MPKI: 9.9693
ITLB TRANSLATION FROM L1D PREFETCHER INSTRUCTION	ACCESS:     114762  HIT:     114762  MISS:          0  HIT %:        100  MISS %:          0  MPKI: 0

ITLB AVERAGE MISS LATENCY: 9.06167 cycles
ITLB RQ	ACCESS:    7970104	FORWARD:          0	MERGED:    1668284	TO_CACHE:    6301820

DTLB TOTAL     ACCESS:    9008979  HIT:    8536538  MISS:     472441  HIT %:    94.7559  MISS %:    5.24411   MPKI: 9.44882
DTLB LOAD TRANSLATION DATA	ACCESS:    9008979  HIT:    8536538  MISS:     472441  HIT %:    94.7559  MISS %:    5.24411  MPKI: 9.44882

DTLB AVERAGE MISS LATENCY: 9.33449 cycles
DTLB RQ	ACCESS:   13376265	FORWARD:          0	MERGED:    4329898	TO_CACHE:    9046367

STLB TOTAL     ACCESS:    1215600  HIT:    1213607  MISS:       1993  HIT %:     99.836  MISS %:   0.163952   MPKI: 0.03986
STLB LOAD TRANSLATION INSTRUCTION	ACCESS:     498465  HIT:     498205  MISS:        260  HIT %:    99.9478  MISS %:  0.0521601  MPKI: 0.0052
STLB LOAD TRANSLATION DATA	ACCESS:     472440  HIT:     470732  MISS:       1708  HIT %:    99.6385  MISS %:   0.361527  MPKI: 0.03416
STLB TRANSLATION FROM L1D PREFETCHER DATA	ACCESS:     244695  HIT:     244670  MISS:         25  HIT %:    99.9898  MISS %:  0.0102168  MPKI: 0.0005

STLB AVERAGE MISS LATENCY: 79.5891 cycles
STLB RQ	ACCESS:    1334614	FORWARD:          0	MERGED:     118964	TO_CACHE:    1215650

STLB Hit, L1D data hit: 0
STLB Hit, L2C data hit: 0
STLB Hit, LLC data hit: 0
STLB Hit, LLC data miss: 0
STLB STLB hints to L2: 0
L1D TOTAL     ACCESS:   13119960  HIT:   11991399  MISS:    1128561  HIT %:    91.3981  MISS %:    8.60186   MPKI: 22.5712
L1D LOAD DATA	ACCESS:    6576910  HIT:    5830187  MISS:     746723  HIT %:    88.6463  MISS %:    11.3537  MPKI: 14.9345
L1D RFO DATA	ACCESS:    6220484  HIT:    5933329  MISS:     287155  HIT %:    95.3837  MISS %:    4.61628  MPKI: 5.7431
L1D PREFETCH DATA	ACCESS:     322566  HIT:     227883  MISS:      94683  HIT %:    70.6469  MISS %:    29.3531  MPKI: 1.89366

L1D PREFETCH  REQUESTED:     727731  ISSUED:     727731  USEFUL:      33955  USELESS:      68529
L1D USEFUL LOAD PREFETCHES:      33955 PREFETCH ISSUED TO LOWER LEVEL:     102531  ACCURACY: 33.1168
 TIMELY PREFETCHES:      33955 LATE PREFETCHES: 7786 DROPPED PREFETCHES: 11
L1D AVERAGE MISS LATENCY: 228084 cycles
L1D RQ	ACCESS:   10700970	FORWARD:          0	MERGED:    3921708	TO_CACHE:    6612502
L1D WQ	ACCESS:    6959238	FORWARD:     167075	MERGED:     195475	TO_CACHE:    6763763
L1D PQ	ACCESS:     364023	FORWARD:          0	MERGED:          0	TO_CACHE:     363708

L1D UNIQUE REGIONS ACCESSED: 0
L1D REGIONS CONFLICTS: 0
L1D Cross Page Prefetch Requests: 7050
L1D Same Page Prefetch Requests: 743008
L1D ROI Sum of L1D PQ occupancy: 4632342
L1D PREFETCHES PUSHED FROM L2C: 0
L1I TOTAL     ACCESS:    7177129  HIT:    4392913  MISS:    2784216  HIT %:    61.2071  MISS %:    38.7929   MPKI: 55.6843
L1I LOAD INSTRUCTION	ACCESS:    6524270  HIT:    3740054  MISS:    2784216  HIT %:    57.3252  MISS %:    42.6748  MPKI: 55.6843
L1I PREFETCH INSTRUCTION	ACCESS:     652859  HIT:     652859  MISS:          0  HIT %:        100  MISS %:          0  MPKI: 0

L1I PREFETCH  REQUESTED:    1559407  ISSUED:    1559407  USEFUL:          0  USELESS:          0
L1I USEFUL LOAD PREFETCHES:          0 PREFETCH ISSUED TO LOWER LEVEL:          0  ACCURACY: -nan
 TIMELY PREFETCHES:          0 LATE PREFETCHES: 0 DROPPED PREFETCHES: 0
L1I AVERAGE MISS LATENCY: 17.0888 cycles
L1I RQ	ACCESS:    9500147	FORWARD:          0	MERGED:    2661559	TO_CACHE:    6838588
L1I PQ	ACCESS:    1559407	FORWARD:          0	MERGED:     427891	TO_CACHE:    1131516

L1BTB TOTAL     ACCESS:    5672207  HIT:    2021885  MISS:    3650322  HIT %:    35.6455  MISS %:    64.3545   MPKI: 73.0064
L1BTB BRANCH_DIRECT_JUMP	ACCESS:     547905 HIT:     142985 MISS:     404920 AVERAGE STALL: 44.1345 AVERAGE FETCH STALL: 17.1106 AVERAGE FETCH QUEUE STALL: 11.6906 AVERAGE DECODE STALL: 14.4806 AVERAGE EXECUTE STALL: 1.71215e+15
L1BTB BRANCH_INDIRECT	ACCESS:     182092 HIT:      65217 MISS:     116875 AVERAGE STALL: 105.647 AVERAGE FETCH STALL: 12.5131 AVERAGE FETCH QUEUE STALL: 12.9276 AVERAGE DECODE STALL: 12.0557 AVERAGE EXECUTE STALL: 67.1847
L1BTB BRANCH_CONDITIONAL	ACCESS:    2695877 HIT:    1397001 MISS:    1298876 AVERAGE STALL: 45.0284 AVERAGE FETCH STALL: 21.5305 AVERAGE FETCH QUEUE STALL: 13.0431 AVERAGE DECODE STALL: 9.77545 AVERAGE EXECUTE STALL: 1.55721e+15
L1BTB BRANCH_DIRECT_CALL	ACCESS:     950809 HIT:     105395 MISS:     845414 AVERAGE STALL: 60.591 AVERAGE FETCH STALL: 24.4609 AVERAGE FETCH QUEUE STALL: 19.1304 AVERAGE DECODE STALL: 16.2582 AVERAGE EXECUTE STALL: 9.90429e+14
L1BTB BRANCH_INDIRECT_CALL	ACCESS:     172365 HIT:      21117 MISS:     151248 AVERAGE STALL: 131.936 AVERAGE FETCH STALL: 13.6842 AVERAGE FETCH QUEUE STALL: 12.9501 AVERAGE DECODE STALL: 9.97943 AVERAGE EXECUTE STALL: 94.8122
L1BTB BRANCH_RETURN	ACCESS:    1123159 HIT:     290170 MISS:     832989 AVERAGE STALL: 48.6008 AVERAGE FETCH STALL: 17.4557 AVERAGE FETCH QUEUE STALL: 6.87404 AVERAGE DECODE STALL: 7.08633 AVERAGE EXECUTE STALL: 3.93304e+14
L1BTB BRANCH_OTHER ACCESS:          0 HIT:          0 MISS:          0 AVERAGE STALL: -nan AVERAGE FETCH STALL: -nan AVERAGE FETCH QUEUE STALL: -nan AVERAGE DECODE STALL: -nan AVERAGE EXECUTE STALL: -nan
L1BTB TOTAL ROB OCCUPANCY AT BTB MISS: 3.96354

L2BTB TOTAL     ACCESS:    3625100  HIT:    3527136  MISS:      97964  HIT %:    97.2976  MISS %:    2.70238   MPKI: 1.95928
L2BTB BRANCH_DIRECT_JUMP	ACCESS:     400885 HIT:     394112 MISS:       6773 AVERAGE STALL: 44.1345 AVERAGE FETCH STALL: 17.1106 AVERAGE FETCH QUEUE STALL: 11.6906 AVERAGE DECODE STALL: 14.4806 AVERAGE EXECUTE STALL: 1.71215e+15
L2BTB BRANCH_INDIRECT	ACCESS:     106512 HIT:     103313 MISS:       3199 AVERAGE STALL: 105.647 AVERAGE FETCH STALL: 12.5131 AVERAGE FETCH QUEUE STALL: 12.9276 AVERAGE DECODE STALL: 12.0557 AVERAGE EXECUTE STALL: 67.1847
L2BTB BRANCH_CONDITIONAL	ACCESS:    1298876 HIT:    1286896 MISS:      11980 AVERAGE STALL: 45.0284 AVERAGE FETCH STALL: 21.5305 AVERAGE FETCH QUEUE STALL: 13.0431 AVERAGE DECODE STALL: 9.77545 AVERAGE EXECUTE STALL: 1.55721e+15
L2BTB BRANCH_DIRECT_CALL	ACCESS:     845414 HIT:     826718 MISS:      18696 AVERAGE STALL: 60.591 AVERAGE FETCH STALL: 24.4609 AVERAGE FETCH QUEUE STALL: 19.1304 AVERAGE DECODE STALL: 16.2582 AVERAGE EXECUTE STALL: 9.90429e+14
L2BTB BRANCH_INDIRECT_CALL	ACCESS:     141850 HIT:     130050 MISS:      11800 AVERAGE STALL: 131.936 AVERAGE FETCH STALL: 13.6842 AVERAGE FETCH QUEUE STALL: 12.9501 AVERAGE DECODE STALL: 9.97943 AVERAGE EXECUTE STALL: 94.8122
L2BTB BRANCH_RETURN	ACCESS:     831563 HIT:     786047 MISS:      45516 AVERAGE STALL: 48.6008 AVERAGE FETCH STALL: 17.4557 AVERAGE FETCH QUEUE STALL: 6.87404 AVERAGE DECODE STALL: 7.08633 AVERAGE EXECUTE STALL: 3.93304e+14
L2BTB BRANCH_OTHER ACCESS:          0 HIT:          0 MISS:          0 AVERAGE STALL: -nan AVERAGE FETCH STALL: -nan AVERAGE FETCH QUEUE STALL: -nan AVERAGE DECODE STALL: -nan AVERAGE EXECUTE STALL: -nan
L2BTB TOTAL ROB OCCUPANCY AT BTB MISS: 147.689

L2C TOTAL     ACCESS:    4522269  HIT:    4069969  MISS:     452300  HIT %:    89.9984  MISS %:    10.0016   MPKI: 9.046
L2C LOAD INSTRUCTION	ACCESS:    2784217  HIT:    2534499  MISS:     249718  HIT %:    91.0309  MISS %:    8.96906  MPKI: 4.99436
L2C LOAD TRANSLATION INSTRUCTION	ACCESS:        295  HIT:         71  MISS:        224  HIT %:    24.0678  MISS %:    75.9322  MPKI: 0.00448
L2C LOAD DATA	ACCESS:     738901  HIT:     671295  MISS:      67606  HIT %:    90.8505  MISS %:    9.14953  MPKI: 1.35212
L2C RFO DATA	ACCESS:     287077  HIT:     234779  MISS:      52298  HIT %:    81.7826  MISS %:    18.2174  MPKI: 1.04596
L2C PREFETCH DATA	ACCESS:     183570  HIT:     116273  MISS:      67297  HIT %:    63.3399  MISS %:    36.6601  MPKI: 1.34594
L2C WRITEBACK DATA	ACCESS:     526390  HIT:     512520  MISS:      13870  HIT %:    97.3651  MISS %:    2.63493  MPKI: 0.2774
L2C LOAD TRANSLATION DATA	ACCESS:       1767  HIT:        499  MISS:       1268  HIT %:      28.24  MISS %:      71.76  MPKI: 0.02536
L2C TRANSLATION FROM L1D PREFETCHER DATA	ACCESS:         52  HIT:         33  MISS:         19  HIT %:    63.4615  MISS %:    36.5385  MPKI: 0.00038

L2C PREFETCH  REQUESTED:      87831  ISSUED:      87831  USEFUL:       7102  USELESS:      60440
L2C USEFUL LOAD PREFETCHES:       7102 PREFETCH ISSUED TO LOWER LEVEL:      67569  ACCURACY: 10.5107
 TIMELY PREFETCHES:       7102 LATE PREFETCHES: 272 DROPPED PREFETCHES: 0
L2C AVERAGE MISS LATENCY: 39.0257 cycles
L2C RQ	ACCESS:    3812363	FORWARD:          0	MERGED:          0	TO_CACHE:    3812311
L2C WQ	ACCESS:     526390	FORWARD:         52	MERGED:          0	TO_CACHE:     526390
L2C PQ	ACCESS:     190362	FORWARD:          0	MERGED:       3314	TO_CACHE:     187048

L2C Dense regions hint from L2: 0
PSCL5 TOTAL     ACCESS:       4012  HIT:       2006  MISS:       2006  HIT %:         50  MISS %:         50   MPKI: 0.04012
PSCL5 LOAD TRANSLATION INSTRUCTION	ACCESS:       3910  HIT:       1955  MISS:       1955  HIT %:         50  MISS %:         50  MPKI: 0.0391
PSCL5 TRANSLATION FROM L1D PREFETCHER INSTRUCTION	ACCESS:        102  HIT:         51  MISS:         51  HIT %:         50  MISS %:         50  MPKI: 0.00102


PSCL4 TOTAL     ACCESS:       3944  HIT:       1970  MISS:       1974  HIT %:    49.9493  MISS %:    50.0507   MPKI: 0.03948
PSCL4 LOAD TRANSLATION INSTRUCTION	ACCESS:       2088  HIT:       1919  MISS:        169  HIT %:    91.9061  MISS %:    8.09387  MPKI: 0.00338
PSCL4 TRANSLATION FROM L1D PREFETCHER INSTRUCTION	ACCESS:         51  HIT:         51  MISS:          0  HIT %:        100  MISS %:          0  MPKI: 0
PSCL4 LOAD TRANSLATION DATA	ACCESS:       1754  HIT:          0  MISS:       1754  HIT %:          0  MISS %:        100  MPKI: 0.03508
PSCL4 TRANSLATION FROM L1D PREFETCHER DATA	ACCESS:         51  HIT:          0  MISS:         51  HIT %:          0  MISS %:        100  MPKI: 0.00102


PSCL3 TOTAL     ACCESS:       3962  HIT:       1979  MISS:       1983  HIT %:    49.9495  MISS %:    50.0505   MPKI: 0.03966
PSCL3 LOAD TRANSLATION INSTRUCTION	ACCESS:       2097  HIT:       1928  MISS:        169  HIT %:    91.9409  MISS %:    8.05913  MPKI: 0.00338
PSCL3 TRANSLATION FROM L1D PREFETCHER INSTRUCTION	ACCESS:         51  HIT:         51  MISS:          0  HIT %:        100  MISS %:          0  MPKI: 0
PSCL3 LOAD TRANSLATION DATA	ACCESS:       1763  HIT:          0  MISS:       1763  HIT %:          0  MISS %:        100  MPKI: 0.03526
PSCL3 TRANSLATION FROM L1D PREFETCHER DATA	ACCESS:         51  HIT:          0  MISS:         51  HIT %:          0  MISS %:        100  MPKI: 0.00102


PSCL2 TOTAL     ACCESS:       3909  HIT:       1903  MISS:       2006  HIT %:    48.6825  MISS %:    51.3175   MPKI: 0.04012
PSCL2 LOAD TRANSLATION INSTRUCTION	ACCESS:       2135  HIT:       1853  MISS:        282  HIT %:    86.7916  MISS %:    13.2084  MPKI: 0.00564
PSCL2 TRANSLATION FROM L1D PREFETCHER INSTRUCTION	ACCESS:         50  HIT:         50  MISS:          0  HIT %:        100  MISS %:          0  MPKI: 0
PSCL2 LOAD TRANSLATION DATA	ACCESS:       1674  HIT:          0  MISS:       1674  HIT %:          0  MISS %:        100  MPKI: 0.03348
PSCL2 TRANSLATION FROM L1D PREFETCHER DATA	ACCESS:         50  HIT:          0  MISS:         50  HIT %:          0  MISS %:        100  MPKI: 0.001


LLC TOTAL     ACCESS:     510961  HIT:     482839  MISS:      28122  HIT %:    94.4963  MISS %:    5.50375   MPKI: 0.56244
LLC LOAD INSTRUCTION	ACCESS:     249717  HIT:     248589  MISS:       1128  HIT %:    99.5483  MISS %:   0.451711  MPKI: 0.02256
LLC LOAD TRANSLATION INSTRUCTION	ACCESS:        224  HIT:        177  MISS:         47  HIT %:    79.0179  MISS %:    20.9821  MPKI: 0.00094
LLC LOAD DATA	ACCESS:      67356  HIT:      63730  MISS:       3626  HIT %:    94.6167  MISS %:    5.38334  MPKI: 0.07252
LLC RFO DATA	ACCESS:      52273  HIT:      39233  MISS:      13040  HIT %:     75.054  MISS %:     24.946  MPKI: 0.2608
LLC PREFETCH DATA	ACCESS:      67569  HIT:      57689  MISS:       9880  HIT %:    85.3779  MISS %:    14.6221  MPKI: 0.1976
LLC WRITEBACK DATA	ACCESS:      72535  HIT:      72240  MISS:        295  HIT %:    99.5933  MISS %:     0.4067  MPKI: 0.0059
LLC LOAD TRANSLATION DATA	ACCESS:       1268  HIT:       1163  MISS:        105  HIT %:    91.7192  MISS %:    8.28076  MPKI: 0.0021
LLC TRANSLATION FROM L1D PREFETCHER DATA	ACCESS:         19  HIT:         18  MISS:          1  HIT %:    94.7368  MISS %:    5.26316  MPKI: 2e-05

LLC AVERAGE MISS LATENCY: 158.261 cycles
LLC RQ	ACCESS:     370861	FORWARD:          0	MERGED:          0	TO_CACHE:     370857
LLC WQ	ACCESS:      72535	FORWARD:          4	MERGED:          0	TO_CACHE:      72535
LLC PQ	ACCESS:      67569	FORWARD:          0	MERGED:          0	TO_CACHE:      67569

LLC Dense regions hint to LLC: 0

RAW hits: 1930939
Loads Generated: 12631909
Loads sent to L1D: 10700970
Stores Generated: 6959228
Stores sent to L1D: 6959238
Major fault: 0 Minor fault: 2635
Allocated PAGES: 2635

stream: 
stream:times selected: 1177746
stream:pref_filled: 122456
stream:pref_useful: 24607
stream:pref_late: 6723
stream:misses: 7992
stream:misses_by_poll: 0

CS: 
CS:times selected: 178331
CS:pref_filled: 60848
CS:pref_useful: 37697
CS:pref_late: 6740
CS:misses: 15963
CS:misses_by_poll: 4

CPLX: 
CPLX:times selected: 998190
CPLX:pref_filled: 19837
CPLX:pref_useful: 4766
CPLX:pref_late: 3073
CPLX:misses: 94352
CPLX:misses_by_poll: 2

NL_L1: 
NL:times selected: 20576
NL:pref_filled: 761
NL:pref_useful: 377
NL:pref_late: 268
NL:misses: 1753
NL:misses_by_poll: 0

total selections: 2374843
total_filled: 94683
total_useful: 33955
total_late: 18316
total_polluted: 6
total_misses_after_warmup: 782316
conflicts: 5541196

test: 117187

DRAM Statistics
 CHANNEL 0
 RQ ROW_BUFFER_HIT:      10143  ROW_BUFFER_MISS:      17671
 DBUS_CONGESTED:          6
 WQ ROW_BUFFER_HIT:       1385  ROW_BUFFER_MISS:      11838  FULL:          0

 AVG_CONGESTED_CYCLE: 5

CPU 0 Branch Prediction Accuracy: 99.8084% MPKI: 0.35088 Average ROB Occupancy at Mispredict: 169.642
Branch types
NOT_BRANCH: 40844509 81.689%
BRANCH_DIRECT_JUMP: 547905 1.09581%
BRANCH_INDIRECT: 182092 0.364184%
BRANCH_CONDITIONAL: 6178935 12.3579%
BRANCH_DIRECT_CALL: 950809 1.90162%
BRANCH_INDIRECT_CALL: 172365 0.34473%
BRANCH_RETURN: 1123159 2.24632%
BRANCH_OTHER: 0 0%

DRAM PAGES: 1048576
Allocated PAGES: 2635
Average_ROB_Occupancy: 217.892
Average_Decode_Occupancy: 30.6539
Average_FTQ_Occupancy: 11.8719
Indirect max targets: 14 Average targets: 1.17891
Branch_type:  BRANCH_DIRECT_JUMP:  Count Percentage: 3.77612 4.78446 4.81563 8.46363 2.40745 6.01231 1.56597 68.1744 
Branch_type:  BRANCH_INDIRECT:  Count Percentage: 6.10758 3.37609 8.14042 9.6785 3.35386 2.81766 3.90159 62.6243 
Branch_type:  BRANCH_CONDITIONAL:  Count Percentage: 25.4249 2.35007 1.55286 4.60623 2.44852 3.59381 2.11989 57.9037 
Branch_type:  BRANCH_DIRECT_CALL:  Count Percentage: 0.916119 1.32111 0.714232 3.88468 3.20291 2.6904 3.03686 84.2337 
Branch_type:  BRANCH_INDIRECT_CALL:  Count Percentage: 9.57683 0 3.00511 0.00087324 0.922724 1.71999 4.99639 79.7781 
Branch_type:  BRANCH_RETURN:  Count Percentage: 8.33508 1.23035 1.01714 3.87703 4.217 3.48128 2.68701 75.1551 
Branch_type:  BRANCH_DIRECT_JUMP:  Total Count: 41321 52355 52696 92615 26344 65791 17136 746013 
Branch_type:  BRANCH_INDIRECT:  Total Count: 22257 12303 29665 35270 12222 10268 14218 228213 
Branch_type:  BRANCH_CONDITIONAL:  Total Count: 3139812 290218 191768 568840 302376 443813 261793 7150738 
Branch_type:  BRANCH_DIRECT_CALL:  Total Count: 17357 25030 13532 73600 60683 50973 57537 1595911 
Branch_type:  BRANCH_INDIRECT_CALL:  Total Count: 32901 0 10324 3 3170 5909 17165 274076 
Branch_type:  BRANCH_RETURN:  Total Count: 186625 27548 22774 86808 94420 77947 60163 1682746 
Number of unique branch instructions: 10759
Upper 32 bits: 
aaaa
ffff
ffff0000
Unique upper 32 bits: 3
Unique upper 36 bits: 3
Unique upper 40 bits: 5
Unique upper 44 bits: 32
Unique upper 48 bits: 158
Variant_0 : 1457 0.177856
Variant_1 : 3142 0.383545
Variant_2 : 0 0
Variant_3 : 0 0
Offset_3 4455
Offset_4 260
Offset_5 482
Offset_6 538
Offset_7 639
Offset_8 578
Offset_9 511
Offset_10 421
Offset_11 352
Offset_12 325
Offset_13 240
Offset_14 247
Offset_15 199
Offset_16 231
Offset_17 165
Offset_18 152
Offset_19 262
Offset_20 146
Offset_21 235
Offset_22 410
Offset_23 241
Offset_24 346
Offset_25 117
Offset_47 92
Offset_64 2
decode_dispatch_called: 24441101 66.2162
Dispatch_width: 0 13153867 53.8186 35.6367
Dispatch_width: 1 823938 3.37112 2.23223
Dispatch_width: 2 745480 3.05011 2.01967
Dispatch_width: 3 456964 1.86965 1.23801
Dispatch_width: 4 4538208 18.5679 12.295
Dispatch_width: 5 174708 0.714812 0.473322
Dispatch_width: 6 4547936 18.6077 12.3213
Empty_decode_cycles: 12469962 33.7838
ROB_full_cycles: 7195998 19.4955
Starvation_cycles_per_kilo_instr: 251.671
Starvation_cycles_per_kilo_instr_3: 204.542
Starvation_cycles_per_kilo_instr_0: 184.278
Branch_type_1  (3,1)  (4,9)  (5,39)  (6,72)  (7,124)  (8,149)  (9,134)  (10,110)  (11,79)  (12,55)  (13,11)  (14,2)  (15,3)  (16,4)  (18,1)  (19,5)  (20,2)  (21,1)  (22,3)  (23,2)  (24,10)  (25,12)  (64,1) 
Branch_type_2  (3,1)  (4,1)  (5,1)  (8,4)  (9,4)  (10,1)  (12,1)  (13,1)  (14,1)  (16,3)  (17,2)  (20,2)  (21,2)  (23,5)  (24,1)  (47,41) 
Branch_type_3  (3,4453)  (4,250)  (5,438)  (6,449)  (7,484)  (8,358)  (9,278)  (10,169)  (11,137)  (12,62)  (13,10)  (24,1)  (64,1) 
Branch_type_4  (6,4)  (7,8)  (8,26)  (9,57)  (10,67)  (11,70)  (12,116)  (13,102)  (14,112)  (15,95)  (16,102)  (17,76)  (18,65)  (19,127)  (20,74)  (21,124)  (22,216)  (23,136)  (24,200)  (25,101) 
Branch_type_5  (8,3)  (9,1)  (10,4)  (11,5)  (12,3)  (13,14)  (14,16)  (15,11)  (16,22)  (17,11)  (18,23)  (19,14)  (20,11)  (21,13)  (22,43)  (23,26)  (24,38) 
Branch_type_6  (5,4)  (6,13)  (7,23)  (8,38)  (9,37)  (10,70)  (11,61)  (12,88)  (13,102)  (14,116)  (15,90)  (16,100)  (17,76)  (18,63)  (19,116)  (20,57)  (21,95)  (22,148)  (23,72)  (24,96)  (25,4)  (47,51) 
Unique trigger count: 
Variant_0_evicts_0 : 0
Variant_0_evicts_1 : 0
Variant_0_evicts_2 : 0
Variant_0_evicts_3 : 0
Variant_1_evicts_0 : 0
Variant_1_evicts_1 : 0
Variant_1_evicts_2 : 0
Variant_1_evicts_3 : 0
Variant_2_evicts_0 : 0
Variant_2_evicts_1 : 0
Variant_2_evicts_2 : 0
Variant_2_evicts_3 : 0
Variant_3_evicts_0 : 0
Variant_3_evicts_1 : 0
Variant_3_evicts_2 : 0
Variant_3_evicts_3 : 0
BTB PER SET UNIQUE ADDR: 3 4 3 3 1 1 3 2 4 0 2 0 5 3 1 3 3 2 4 5 3 4 2 3 4 5 1 4 3 2 6 6 4 4 5 2 1 6 5 2 4 4 4 7 6 4 4 4 6 3 3 2 3 1 0 3 4 3 3 3 1 4 2 3 1 4 5 4 3 5 5 1 1 4 2 3 3 7 2 4 2 3 1 4 3 4 2 5 3 3 6 5 3 5 3 0 4 4 2 3 4 4 3 3 4 2 1 2 3 2 2 2 3 6 2 6 2 5 4 1 5 4 2 0 1 2 2 2 7 6 6 2 4 3 6 4 2 2 3 3 5 4 4 3 3 5 3 5 5 5 3 9 3 5 4 1 4 4 4 3 5 6 5 4 7 5 2 2 9 3 3 3 5 3 1 2 4 5 7 1 3 4 7 4 7 7 4 1 2 3 5 3 3 4 4 4 4 3 3 6 3 2 4 2 3 3 2 5 3 1 2 4 5 4 4 2 3 5 4 0 1 3 2 4 3 2 4 3 0 4 8 4 3 4 3 4 5 3 2 3 1 0 6 4 11 8 1 3 4 4 3 2 1 4 2 7 3 5 4 3 4 4 4 2 3 7 3 2 4 2 3 2 2 3 5 2 2 1 3 3 4 3 6 2 5 5 3 3 1 1 0 3 1 6 2 1 5 3 2 2 3 3 2 2 4 2 4 2 8 5 4 1 3 2 5 2 7 6 2 4 4 7 3 5 2 3 2 7 1 2 5 0 2 5 5 2 4 5 6 0 4 0 1 5 5 3 1 6 5 5 4 8 6 3 5 3 2 0 5 1 2 6 2 4 7 5 1 1 2 2 3 2 3 4 4 4 3 4 3 4 6 3 2 6 3 2 5 2 6 1 5 5 4 2 2 1 5 0 1 3 4 2 4 2 2 3 3 2 1 1 1 3 5 4 2 3 6 3 1 3 1 1 4 4 5 6 3 0 2 6 1 2 8 3 5 5 3 3 4 0 3 4 5 3 5 6 2 3 3 2 4 3 1 3 5 1 1 3 7 3 3 3 4 6 2 3 6 3 3 3 0 4 5 3 3 1 4 5 2 1 2 1 2 2 0 4 3 0 6 1 5 2 3 4 0 5 3 3 2 1 5 1 1 2 1 2 2 2 2 3 3 2 5 8 2 1 2 5 4 6 4 5 4 3 6 6 1 7 6 4 5 3 4 6 3 5 2 1 4 1 2 5 6 3 6 2 8 3 7 9 4 6 3 6 1 3 3 1 4 4 7 3 5 3 2 1 4 3 3 7 4 2 3 8 3 2 3 4 1 5 5 2 2 0 1 0 0 9 4 2 6 7 2 2 3 3 6 2 4 2 6 2 6 7 1 4 3 4 2 2 5 3 2 2 2 3 2 0 3 1 5 3 8 2 2 4 3 5 2 3 5 4 3 3 5 5 3 5 3 3 8 1 4 4 1 0 4 4 3 4 3 2 5 2 3 0 5 3 2 3 6 2 5 4 5 4 5 3 2 4 5 5 4 3 5 6 3 3 3 3 3 2 5 2 5 3 5 3 4 3 1 5 2 3 3 3 6 4 5 5 0 6 0 3 3 3 4 1 3 1 3 3 3 2 2 1 8 2 0 3 2 0 1 1 1 3 1 4 2 4 6 5 2 2 3 4 8 3 2 2 2 3 2 4 2 2 4 2 3 2 0 2 1 4 2 2 3 6 4 1 3 3 1 5 4 4 8 3 2 2 5 4 0 3 3 4 5 2 1 3 4 4 0 3 8 6 3 4 0 3 2 4 1 1 4 7 7 2 2 3 5 3 4 3 5 3 3 5 1 2 1 4 4 0 5 4 1 2 0 4 5 2 4 2 2 2 3 2 4 4 3 1 3 2 5 2 2 2 5 3 2 2 3 4 2 4 7 5 5 2 6 3 5 4 5 5 3 2 4 4 2 6 2 1 9 3 3 4 5 3 1 3 3 6 4 0 2 3 5 4 3 6 4 5 6 3 2 3 3 5 5 3 3 4 3 1 6 4 2 2 5 2 1 4 5 5 4 5 3 5 5 4 1 3 1 5 0 2 6 2 6 5 5 3 4 1 3 2 5 8 5 4 9 7 6 4 6 5 2 7 4 2 1 4 4 6 5 5 4 4 7 1 5 5 2 4 6 6 4 2 3 3 4 5 2 6 9 5 6 3 3 4 0 6 7 1 7 5 1 3 7 5 3 5 2 1 2 4 4 2 5 4 2 7 5 5 4 5 3 5 3 3 5 2 2 5 4 3 3 3 5 3 4 4 6 2 5 3 2 5 5 2 10 5 3 3 3 2 2 3 4 7 6 2 3 2 3 2 2 1 3 2 4 4 3 4 6 5 4 6 0 3 3 4 4 4 2 1 3 2 3 1 2 1 4 1 3 3 3 5 2 8 5 3 2 1 10 1 2 4 1 2 6 5 3 7 3 5 5 6 3 5 3 2 1 1 5 1 4 4 3 8 4 1 7 4 6 2 3 4 5 3 5 8 4 4 6 1 4 5 7 4 3 3 4 3 6 6 3 6 6 6 4 3 5 5 1 2 4 5 1 3 2 1 3 5 2 3 5 2 2 5 4 2 5 1 7 3 3 2 3 1 3 5 3 4 3 4 2 6 2 3 7 3 4 5 3 5 2 8 3 5 3 8 6 2 6 1 5 2 1 2 4 4 3 1 3 4 3 1 2 3 4 4 3 3 3 4 2 5 2 5 4 5 0 5 3 3 2 6 8 1 8 0 1 4 5 2 5 1 3 3 4 1 1 2 4 5 3 4 1 4 4 6 5 1 4 3 3 6 10 4 3 7 6 5 1 1 3 5 6 3 2 2 4 3 4 4 5 3 1 4 2 3 6 8 5 3 3 6 1 2 6 3 4 1 3 2 6 8 3 3 3 3 4 5 2 5 6 6 5 2 1 5 4 2 4 3 4 4 4 4 7 3 5 4 3 5 5 3 1 7 4 4 3 3 3 2 3 3 2 2 5 4 3 3 5 2 1 3 3 8 5 2 3 4 2 4 3 3 4 3 2 1 4 2 4 2 5 3 4 4 2 1 2 6 1 5 2 4 2 4 7 1 1 5 5 3 3 4 5 2 3 4 5 5 4 4 4 3 3 3 2 3 5 2 4 1 4 0 8 3 3 6 4 4 5 7 3 2 3 3 2 3 4 1 4 2 4 3 0 5 1 6 3 3 3 5 3 2 5 3 3 2 4 1 6 3 0 3 3 1 1 4 1 5 3 3 6 3 2 2 2 3 2 2 7 2 3 5 3 3 3 4 2 2 5 0 2 3 4 3 2 2 2 0 3 0 4 2 4 4 2 3 2 1 2 6 4 2 6 1 3 4 2 2 5 5 2 2 6 0 1 2 3 1 1 2 3 3 5 3 1 1 8 2 1 4 1 6 1 4 3 3 6 2 4 2 1 3 3 1 2 3 5 2 3 3 1 3 0 5 2 3 3 0 4 3 5 3 5 3 3 4 2 3 2 2 2 3 5 0 2 3 3 3 4 1 3 3 2 10 7 2 3 2 4 1 1 3 6 2 3 0 3 2 4 2 3 5 6 6 8 0 4 2 8 4 4 5 4 8 2 4 8 3 0 6 4 3 3 5 3 3 2 1 2 5 2 2 3 3 2 3 6 3 5 4 6 1 1 5 6 3 3 5 5 4 6 2 5 5 2 6 4 3 3 2 3 6 5 3 2 3 3 3 4 4 2 3 3 2 3 1 3 7 0 2 2 3 3 4 5 3 4 2 5 1 2 2 6 2 4 5 6 1 1 7 2 4 2 3 4 8 2 3 2 4 6 3 5 3 5 3 5 10 4 4 3 5 2 5 4 3 2 3 1 2 2 4 4 3 2 4 3 5 4 2 4 9 0 3 2 4 4 4 3 4 3 6 4 4 1 5 3 3 4 3 3 0 3 5 0 7 2 6 6 1 4 3 2 0 4 2 3 5 3 6 2 3 2 2 3 5 6 1 4 3 0 3 2 4 5 3 2 3 5 2 3 2 6 4 4 1 5 3 0 2 4 1 1 8 2 0 4 2 4 3 2 3 6 3 3 6 1 5 4 6 2 6 5 3 3 2 7 1 4 1 3 3 4 4 3 4 2 1 2 5 0 3 0 3 5 6 2 2 5 2 3 3 3 1 3 2 4 2 4 2 5 3 2 3 1 2 3 3 4 2 3 4 2 1 1 3 2 5 1 5 1 6 4 3 3 2 5 1 2 3 5 4 3 4 5 6 3 3 3 4 3 2 0 3 2 0 2 1 2 2 4 2 5 2 2 3 4 1 2 4 3 2 3 9 3 2 7 7 3 2 5 2 3 6 3 4 4 3 4 1 2 4 6 4 2 4 3 2 5 3 5 7 4 3 0 4 1 0 2 3 0 4 4 6 1 3 4 7 5 0 2 2 4 3 5 2 3 3 8 3 2 3 3 7 2 7 3 4 6 0 1 3 1 4 4 2 0 2 3 4 6 5 1 0 3 4 6 1 1 1 3 6 2 1 5 5 3 3 5 4 0 6 3 6 2 1 2 2 1 2 5 1 3 3 3 3 4 1 5 3 5 2 4 2 1 3 6 4 4 0 
BTB PER SET COUNT: 3 4 3 3 1 2 3 2 5 0 2 0 5 3 1 7 4 4 4 1494 3 7 4 3 4 6 1 4 1476 2 7 8 4 4 5 2 2948 6 8 2 5 4 10 1054 1004 5 5 4 7 3 3 2 4 1 0 3 4 3 4 3 1 4 2 3 1 362 7 4 3 5 5 1 1 4 2 3 478 796 3 4 2 3 2 4 3 5 2 6 3 3 12 535 3 5 3 0 4 7 2 3 4 4 4 3 4 2 1 2 3 3 2 2 3 6 2 7 2 5 4 1 5 5 2 0 3 3 2 2 9 9 481 2 4 5 10 4 2 2 3 3 5 5 6 3 4 18 6 5 5 5 4 1062 3 5 10 1 4 4 4 5 6 6 6 6 11 2990 2 2 2065 3 3 3 7 3 1 5 4 9 1440 1 3 4 1910 4 8 7 6 1 2 4 5 3 3 4 4 9 4 3 4 6 4 3 4 2 6 3 2 2023 3 1 5 10 5 4 4 2 3 7 4 0 1 3 2 5 3 2 8 35 0 4 1615 4 3 6 3 4 5 3 2 3 1 0 6 4 893 9 1 3 4 4 3 2 1 4 3 7 4 5 4 3 7 4 4 2 2950 7 4 2 4 2 3 2 3 3 5 3 2 1 3 3 8 3 6 2 6 1429 3 3 1 1 0 3 1 7 5 1 10 3 3 2 3 3 2 2 5 2 6 2 1907 7 6 1 3 2 5 3 7 9 2 5 4 7 3 5 2 3 2 11 1 2 1441 0 2 6 1002 2 1429 5 6 0 5 0 1 956 956 3 1 6 8 9 4 16 7 5 5 3 2 0 6 1 2 6 2 4 12 7 1 3 2 2 5 2 3 4 5 4 4 4 4 4 8 3 2 8 3 2 7 2 6 1 5 5 4 2 2 1 1481 0 1 5 4 2 6 2 2 3 1477 3 1 998 1 3 5 5 1467 3 210 3 1 87 1 1 4 6 5 6 8 0 2 8 141 2 1072 3 5 5 3 3 5 0 5 4 5 3 5 6 2 3 3 2 4 3 1 6 5 1 1 3 483 3 3 3 4 6 2 4 8 3 5 3 0 5 27 478 3 1 5 5 2 1 2 1 2 477 0 4 3 0 6 1 5 2 4 4 0 6 9 3 2 2 5 10 1 2 1 2 2 3 2 3 3 2 5 10 5 1 2 5 4 486 5 1478 4 3 7 6 1 7 6 6 5 4 4 12 3 970 2 1 21 1 3 5 6 6 10 2 8 3 7 1948 5 10 5 6 1 3 7 1 4 4 7 3 5 5 2 1 4 3 3 43 4 4 3 36 3 2 3 6 1 5 5 35 2 0 2 0 0 2141 4 2 8 26 4 2 1000 4 6 2 4 2 6 2 7 9 1 4 3 4 4 2 5 3 2 2 2 5 1090 0 3 1 7 952 13 2 2 4 3 5 2 3 954 1477 3 10 5 6 3 5 3 3 1434 1 4 4 1 0 5 4 3 6 5 2 7 2 3 0 9 3 2 3 7756 2 5 4 5 7 2955 955 2 4 6 5 4 7 5 1520 3 3 4 3 4 5 5 953 5 3 5 1476 4 3 1 960 2 3 3 3 6 4 8 33 0 6 0 3 4 956 4 1 3 2 3 3 5 2 953 1 1490 2 0 3 4 0 1 1 1 5 1 4 2 4 6 5 1000 2 4 5 10 4 2 2 2 3 2 4 2 2 982 2 3 941 0 2 2 6 2 2 3 8 4 2 3 3 1 5 4 4 21 3 6 2 5 4 0 201 3 8 9 6 1 3 4 6 0 3 23 7 6 4 0 3 2 74 1 2 5 16 35 2 2 3 5 3 5 5 1906 4 5 7 2 5 1 5 4 0 6 6 1 2 0 4 6 2 4 2 3 2 3 2 4 89 3 1 3 2 5 4 16 2 5 3 2 2 3 1481 2 11 12 5 5 4 1431 3 6 6 5 11 3 3 5 4 2 7 2 1 1601 1009 4 4 5 7 1 3 3 9 4 0 4 4 7 6 3 8 6 5 6 3 2 3 3 6 7 3 3 4 3 2 8 4 2 2 5 2 1 106 9 6 4 5 3 8 5 4 1 3 1 5 0 2 6 2 6 5 5 3 7 1 3 2 5 9 6 480 1266 1064 6 4 58 7 3 28 4 2 1 1001 7 12 5 468 5 4 7 1 5 7 4 4 12 12 4 2 3 493 4 5 2 6 26 5 6 3 3 4 0 363 8 2 1005 5 1 3 8 5 487 7 2 3 2 6 4 2 18 5 2 7 5 6 5 5 3 5 3 6 5 2 2 6 5 15 3 3 1910 3 2475 361 958 2 6 6 2 7 6 5 1311 5 3 3 4 2 2 3 4 22 6 2 3 2 3 2 2 2 3 2 4 4 3 4 7 5 4 6 0 3 3 4 1477 363 2 1 3 4 3 1 2 1 6 1 3 4 4 8 2 8 5 3 2 1 1456 1 2 4 1 2 6 105 5 7 3 5 5 6 3 5 3 2 3 1 7 1 4 4 3 27 4 1 7 4 6 2 953 4 5 3 7 367 4 4 6 2 6 7 8 4 3 3 5 3 7 7 4 6 6 7 4 3 5 6 1 3 4 5 1 3 2 1 3 5 4 4 970 2 2 5 4 2 5 1 7 4 3 2 3 1 3 5 3 4 3 4 2 6 2 3 11 3 6 9 3 5 2 938 3 7 3 21 15 2 1003 1 7 2 1 2 961 4 3 1 5 108 3 1 2 490 4 4 3 3 3 4 2 5 2 6 4 5 0 11 3 3 2 11 1007 1 11 0 1 4 5 5 5 1 3 1416 6 1 1 2 4 8 3 4 1 4 4 6 5 1 4 3 3 6 1434 2016 5 1482 7 5 1 1 6 5 10 3 2 2 4 3 4 4 6 3 1 6 2 3 6 2033 5 4 3 6 1 2 6 3 4 1 3 2 6 1507 1000 3 4 3 10 6 2 5 6 7 9 2 1 18 4 2 7 3 4 4 4 4 7 3 5 4 478 5 2377 15 1 1589 4 4 3 4 3 8 3 3 2 2 5 4 3 3 5 2 1 3 3 10 6 2 3 4 2 4 3 3 6 3 3 1 4 3 4 2 5 3 8 4 2 1 2 6 1 5 2 4 2 4 10 1 1 5 5 1000 3 4 11 4 3 35 5 5 4 4 4 3 4 3 2 3 6 2 4 1 4 0 1464 3 3 7 4 4 5 1268 3 2 3 3 2 3 4 2 6 4 10 5 0 5 1 6 3 5 3 6 4 2 1478 4 3 1358 13 1 549 4 0 3 5 2 2 1359 1 7 3 3 7 4 4 2 2 4 2 2 1884 2 3 16 4 3 3 4 2 2 8 0 5 7 5 1002 2 2 2 0 4 0 4 2 4 4 2 3 941 1 20 7 24 2 1412 1 3 7 2 2 6 8 154 2 20651 0 1 2 3 1 1 2 3 4 486 377 1 1 54 2 1 4 1 9 1 4 3 3 33 4 12 2 1 3 3 1 2 3 5 5 3 3 1 3 0 5 2 3 5 0 7 735 5 3 5 3 3 4 2 4 2 2 3 3 6 0 2 3 4 3 18 1 3 3 2 807 7 2 5 2 4 1 1 3 1531 2 3 0 3 2 4 2 3 5 6 9 14 0 4 2 16 4 5 5 4 979 2 4 4941 3 0 1436 1477 3 4 6 3 3 2 1 3 1002 4 2 3 3 2 3 9 4 5 4 7 2851 1 5 6 4 3 10 5 4 6 4 6 5 2 6 4 425 361 2 1476 9 5 396 14 3 3 3 6 4 2 3 5 2 4 1 5 8 0 2 2 3 4 4 481 3 4 2 14 1 2 5 6 2 1904 6 6 1 1 7 2 954 2 4 4 8 982 3 2 5 6 3 497 3 1044 3 5 5454 4 5 14745 1430 2 364 1477 18 2 3 1 4 2 4 4 3 2 6 3 5 4 2 283 44 0 1476 2 1477 199 6 3 4 3 6 4 1025 1 5 9 4 4 3 3 0 3 868 0 1878 2 8 6 1 8 3 3 0 4 2 16 5 3 7 2 4 2 3 3 5 18 1 4 536 0 3 2 5 5 1001 2 5 1003 2 4 2 792 4 6 1 7 3 0 2 4 1474 1 1832 2 0 4 5 6 5 4 3 10 3 444 6 1 5 4 8 206 9 223 3 4 2 7 2 378 1 3 2488 6 4 3 4 2 3 2 547 0 3 0 3 7 9 2 2 7 715 3 5 1528 1 3 2 5 2 4 2 55 3 2 3 1 2 237 3 4 2 3 4 2 1 1 3 2 5 1 5 1 3988 4 3 3 8 8 1 2 3 5 4 3 1419 7 8 3 3 4 4 3 2 0 3 4 0 2 1 2 2 4 3 5 2 2 3 4 1 2 4 3 2 3 18 3 2 1313 13 136 2 8 4 3 8 3 6 17 4 6 2 4 4 7 943 2 4 3 2 5 3 5 1430 6 4 0 4 2 0 2 5 0 4 1481 6 1 3 5 16 5 0 8 2 12 3 5 2 4 3 2722 5 3 5 3 498 6 1156 3 4 1266 0 1 3 1 5 4 2 0 2 3 4 6 5 2 0 3 5 6 1 1 1 3 7 2 1 5 5 3 4 5 4 0 28 3 17 2 1 2 2 2 4 5 1 3 3 3 4 4 1 5 4 409 2 4 2 1 3 1500 4 4 0 
To predecode: 0
Predecoding something: 0
Predecode request dropped: 0
sizeofblock_0 0
sizeofblock_1 66240
sizeofblock_2 96660
sizeofblock_3 0
sizeofblock_4 0
sizeofblock_5 0
sizeofblock_6 0
sizeofblock_7 0
sizeofblock_8 0
Variant_0 Correct: 0 Incorrect: 0 Accuracy: -nan
Variant_1 Correct: 0 Incorrect: 0 Accuracy: -nan
Variant_2 Correct: 0 Incorrect: 0 Accuracy: -nan
Variant_3 Correct: 0 Incorrect: 0 Accuracy: -nan
