
*** ChampSim Multicore Out-of-Order Simulator ***

Warmup Instructions: 50000000
Simulation Instructions: 50000000
Number of CPUs: 1
LLC sets: 2048
LLC ways: 16
Off-chip DRAM Size: 4096 MB Channels: 1 Width: 64-bit Data Rate: 6400 MT/s
CPU 0 runs ./micro_traces/srv193.trace.gz
.gz
ITLB has LRU replacement policy
DTLB has LRU replacement policy
STLB has LRU replacement policy
FDIP Prefetcher at L1I
L1I has LRU replacement policy
L1D has LRU replacement policy
Initialize SRRIP state for L2C
Initialize DRRIP state for LLC
Heartbeat_Variant_0 : 1363 0.332764 per_variant_size: 0 1363 0 0 0 0 0 0 0 
Heartbeat_Variant_1 : 2493 0.608643 per_variant_size: 0 302 2191 0 0 0 0 0 0 
Heartbeat_Variant_2 : 0 0 per_variant_size: 0 0 0 0 0 0 0 0 0 
Heartbeat_Variant_3 : 0 0 per_variant_size: 0 0 0 0 0 0 0 0 0 
Heartbeat_Variant_0_evicts 0 : 5566 1 : 62 2 : 0 3 : 0 
Heartbeat_Variant_1_evicts 0 : 60 1 : 0 2 : 0 3 : 0 
Heartbeat_Variant_2_evicts 0 : 0 1 : 0 2 : 0 3 : 0 
Heartbeat_Variant_3_evicts 0 : 0 1 : 0 2 : 0 3 : 0 
Heartbeat CPU 0 instructions: 10000002 cycles: 2795054 heartbeat IPC: 3.57775 cumulative IPC: 3.57775 (Simulation time: 0 hr 1 min 54 sec) 
Heartbeat_Variant_0 : 1366 0.333496 per_variant_size: 0 1366 0 0 0 0 0 0 0 
Heartbeat_Variant_1 : 2503 0.611084 per_variant_size: 0 294 2209 0 0 0 0 0 0 
Heartbeat_Variant_2 : 0 0 per_variant_size: 0 0 0 0 0 0 0 0 0 
Heartbeat_Variant_3 : 0 0 per_variant_size: 0 0 0 0 0 0 0 0 0 
Heartbeat_Variant_0_evicts 0 : 5484 1 : 7 2 : 0 3 : 0 
Heartbeat_Variant_1_evicts 0 : 9 1 : 0 2 : 0 3 : 0 
Heartbeat_Variant_2_evicts 0 : 0 1 : 0 2 : 0 3 : 0 
Heartbeat_Variant_3_evicts 0 : 0 1 : 0 2 : 0 3 : 0 
Heartbeat CPU 0 instructions: 20000001 cycles: 5589944 heartbeat IPC: 3.57796 cumulative IPC: 3.57785 (Simulation time: 0 hr 3 min 35 sec) 
Heartbeat_Variant_0 : 1405 0.343018 per_variant_size: 0 1405 0 0 0 0 0 0 0 
Heartbeat_Variant_1 : 2591 0.632568 per_variant_size: 0 265 2326 0 0 0 0 0 0 
Heartbeat_Variant_2 : 0 0 per_variant_size: 0 0 0 0 0 0 0 0 0 
Heartbeat_Variant_3 : 0 0 per_variant_size: 0 0 0 0 0 0 0 0 0 
Heartbeat_Variant_0_evicts 0 : 5462 1 : 102 2 : 0 3 : 0 
Heartbeat_Variant_1_evicts 0 : 96 1 : 0 2 : 0 3 : 0 
Heartbeat_Variant_2_evicts 0 : 0 1 : 0 2 : 0 3 : 0 
Heartbeat_Variant_3_evicts 0 : 0 1 : 0 2 : 0 3 : 0 
Heartbeat CPU 0 instructions: 30000001 cycles: 8384601 heartbeat IPC: 3.57826 cumulative IPC: 3.57799 (Simulation time: 0 hr 5 min 16 sec) 
Heartbeat_Variant_0 : 1432 0.349609 per_variant_size: 0 1432 0 0 0 0 0 0 0 
Heartbeat_Variant_1 : 2627 0.641357 per_variant_size: 0 227 2400 0 0 0 0 0 0 
Heartbeat_Variant_2 : 0 0 per_variant_size: 0 0 0 0 0 0 0 0 0 
Heartbeat_Variant_3 : 0 0 per_variant_size: 0 0 0 0 0 0 0 0 0 
Heartbeat_Variant_0_evicts 0 : 5697 1 : 126 2 : 0 3 : 0 
Heartbeat_Variant_1_evicts 0 : 120 1 : 0 2 : 0 3 : 0 
Heartbeat_Variant_2_evicts 0 : 0 1 : 0 2 : 0 3 : 0 
Heartbeat_Variant_3_evicts 0 : 0 1 : 0 2 : 0 3 : 0 
Heartbeat CPU 0 instructions: 40000001 cycles: 11178867 heartbeat IPC: 3.57876 cumulative IPC: 3.57818 (Simulation time: 0 hr 6 min 57 sec) 
Heartbeat_Variant_0 : 1433 0.349854 per_variant_size: 0 1433 0 0 0 0 0 0 0 
Heartbeat_Variant_1 : 2630 0.64209 per_variant_size: 0 223 2407 0 0 0 0 0 0 
Heartbeat_Variant_2 : 0 0 per_variant_size: 0 0 0 0 0 0 0 0 0 
Heartbeat_Variant_3 : 0 0 per_variant_size: 0 0 0 0 0 0 0 0 0 
Heartbeat_Variant_0_evicts 0 : 5506 1 : 36 2 : 0 3 : 0 
Heartbeat_Variant_1_evicts 0 : 35 1 : 0 2 : 0 3 : 0 
Heartbeat_Variant_2_evicts 0 : 0 1 : 0 2 : 0 3 : 0 
Heartbeat_Variant_3_evicts 0 : 0 1 : 0 2 : 0 3 : 0 
Heartbeat CPU 0 instructions: 50000002 cycles: 13974783 heartbeat IPC: 3.57665 cumulative IPC: 3.57787 (Simulation time: 0 hr 8 min 39 sec) 

Warmup complete CPU 0 instructions: 50000002 cycles: 13974783 (Simulation time: 0 hr 8 min 39 sec) 

*** Reached end of trace for Core: 0 Repeating trace: ./micro_traces/srv193.trace.gz
Cycle: 20000000 FTQ IN: 58374879 FTQ occupancy: 20.5265 DECODE IN: 58374788 DECODE occupancy: 53.4265 ROB IN: 58374728 ROB occupancy: 318.768 ROB OUT: 58374378
Heartbeat_Variant_0 : 1451 0.354248 per_variant_size: 0 1451 0 0 0 0 0 0 0 
Heartbeat_Variant_1 : 2628 0.641602 per_variant_size: 0 197 2431 0 0 0 0 0 0 
Heartbeat_Variant_2 : 0 0 per_variant_size: 0 0 0 0 0 0 0 0 0 
Heartbeat_Variant_3 : 0 0 per_variant_size: 0 0 0 0 0 0 0 0 0 
Heartbeat_Variant_0_evicts 0 : 5624 1 : 187 2 : 0 3 : 0 
Heartbeat_Variant_1_evicts 0 : 174 1 : 0 2 : 0 3 : 0 
Heartbeat_Variant_2_evicts 0 : 0 1 : 0 2 : 0 3 : 0 
Heartbeat_Variant_3_evicts 0 : 0 1 : 0 2 : 0 3 : 0 
Heartbeat CPU 0 instructions: 60000001 cycles: 21283027 heartbeat IPC: 1.36832 cumulative IPC: 1.36832 (Simulation time: 0 hr 10 min 42 sec) 
Heartbeat_Variant_0 : 1449 0.35376 per_variant_size: 0 1449 0 0 0 0 0 0 0 
Heartbeat_Variant_1 : 2634 0.643066 per_variant_size: 0 200 2434 0 0 0 0 0 0 
Heartbeat_Variant_2 : 0 0 per_variant_size: 0 0 0 0 0 0 0 0 0 
Heartbeat_Variant_3 : 0 0 per_variant_size: 0 0 0 0 0 0 0 0 0 
Heartbeat_Variant_0_evicts 0 : 5563 1 : 30 2 : 0 3 : 0 
Heartbeat_Variant_1_evicts 0 : 33 1 : 0 2 : 0 3 : 0 
Heartbeat_Variant_2_evicts 0 : 0 1 : 0 2 : 0 3 : 0 
Heartbeat_Variant_3_evicts 0 : 0 1 : 0 2 : 0 3 : 0 
Heartbeat CPU 0 instructions: 70000001 cycles: 28417264 heartbeat IPC: 1.40169 cumulative IPC: 1.3848 (Simulation time: 0 hr 12 min 42 sec) 
Cycle: 30000000 FTQ IN: 13851465 FTQ occupancy: 15.1551 DECODE IN: 13851422 DECODE occupancy: 38.8786 ROB IN: 13851422 ROB occupancy: 254.237 ROB OUT: 13851666
Heartbeat_Variant_0 : 1449 0.35376 per_variant_size: 0 1449 0 0 0 0 0 0 0 
Heartbeat_Variant_1 : 2634 0.643066 per_variant_size: 0 199 2435 0 0 0 0 0 0 
Heartbeat_Variant_2 : 0 0 per_variant_size: 0 0 0 0 0 0 0 0 0 
Heartbeat_Variant_3 : 0 0 per_variant_size: 0 0 0 0 0 0 0 0 0 
Heartbeat_Variant_0_evicts 0 : 5468 1 : 3 2 : 0 3 : 0 
Heartbeat_Variant_1_evicts 0 : 3 1 : 0 2 : 0 3 : 0 
Heartbeat_Variant_2_evicts 0 : 0 1 : 0 2 : 0 3 : 0 
Heartbeat_Variant_3_evicts 0 : 0 1 : 0 2 : 0 3 : 0 
Heartbeat CPU 0 instructions: 80000001 cycles: 35541212 heartbeat IPC: 1.40372 cumulative IPC: 1.39105 (Simulation time: 0 hr 14 min 44 sec) 
Cycle: 40000000 FTQ IN: 13916023 FTQ occupancy: 15.0767 DECODE IN: 13916157 DECODE occupancy: 38.6979 ROB IN: 13916217 ROB occupancy: 252.288 ROB OUT: 13916314
Heartbeat_Variant_0 : 1445 0.352783 per_variant_size: 0 1445 0 0 0 0 0 0 0 
Heartbeat_Variant_1 : 2641 0.644775 per_variant_size: 0 192 2449 0 0 0 0 0 0 
Heartbeat_Variant_2 : 0 0 per_variant_size: 0 0 0 0 0 0 0 0 0 
Heartbeat_Variant_3 : 0 0 per_variant_size: 0 0 0 0 0 0 0 0 0 
Heartbeat_Variant_0_evicts 0 : 5561 1 : 133 2 : 0 3 : 0 
Heartbeat_Variant_1_evicts 0 : 139 1 : 0 2 : 0 3 : 0 
Heartbeat_Variant_2_evicts 0 : 0 1 : 0 2 : 0 3 : 0 
Heartbeat_Variant_3_evicts 0 : 0 1 : 0 2 : 0 3 : 0 
Heartbeat CPU 0 instructions: 90000002 cycles: 42770229 heartbeat IPC: 1.38331 cumulative IPC: 1.38911 (Simulation time: 0 hr 16 min 45 sec) 
Heartbeat_Variant_0 : 1445 0.352783 per_variant_size: 0 1445 0 0 0 0 0 0 0 
Heartbeat_Variant_1 : 2642 0.64502 per_variant_size: 0 189 2453 0 0 0 0 0 0 
Heartbeat_Variant_2 : 0 0 per_variant_size: 0 0 0 0 0 0 0 0 0 
Heartbeat_Variant_3 : 0 0 per_variant_size: 0 0 0 0 0 0 0 0 0 
Heartbeat_Variant_0_evicts 0 : 5692 1 : 92 2 : 0 3 : 0 
Heartbeat_Variant_1_evicts 0 : 92 1 : 0 2 : 0 3 : 0 
Heartbeat_Variant_2_evicts 0 : 0 1 : 0 2 : 0 3 : 0 
Heartbeat_Variant_3_evicts 0 : 0 1 : 0 2 : 0 3 : 0 
Heartbeat CPU 0 instructions: 100000003 cycles: 49894900 heartbeat IPC: 1.40357 cumulative IPC: 1.39198 (Simulation time: 0 hr 18 min 43 sec) 
Finished CPU 0 instructions: 50000001 cycles: 35920117 cumulative IPC: 1.39198 (Simulation time: 0 hr 18 min 43 sec) 

ChampSim completed all CPUs

Region of Interest Statistics

CPU 0 cumulative IPC: 1.39198 instructions: 50000001 cycles: 35920117
 Fetch stage stalled: 45.1356  Sim cycles: 35920117 fetch stall cycle: 16212768
 Empty decode stage: 24.8351  Sim cycles: 35920117 fetch stall cycle: 8920780
ITLB TOTAL     ACCESS:    5841909  HIT:    5350981  MISS:     490928  HIT %:    91.5964  MISS %:    8.40355   MPKI: 9.81856
ITLB LOAD TRANSLATION INSTRUCTION	ACCESS:    5704268  HIT:    5213340  MISS:     490928  HIT %:    91.3937  MISS %:    8.60633  MPKI: 9.81856
ITLB TRANSLATION FROM L1D PREFETCHER INSTRUCTION	ACCESS:     137641  HIT:     137641  MISS:          0  HIT %:        100  MISS %:          0  MPKI: 0

ITLB AVERAGE MISS LATENCY: 9.0731 cycles
ITLB RQ	ACCESS:    7934511	FORWARD:          0	MERGED:    1613974	TO_CACHE:    6320537

DTLB TOTAL     ACCESS:    8913409  HIT:    8437553  MISS:     475856  HIT %:    94.6613  MISS %:    5.33865   MPKI: 9.51712
DTLB LOAD TRANSLATION DATA	ACCESS:    8913409  HIT:    8437553  MISS:     475856  HIT %:    94.6613  MISS %:    5.33865  MPKI: 9.51712

DTLB AVERAGE MISS LATENCY: 9.30515 cycles
DTLB RQ	ACCESS:   13276614	FORWARD:          0	MERGED:    4325834	TO_CACHE:    8950780

STLB TOTAL     ACCESS:    1222142  HIT:    1219893  MISS:       2249  HIT %:     99.816  MISS %:   0.184021   MPKI: 0.04498
STLB LOAD TRANSLATION INSTRUCTION	ACCESS:     490928  HIT:     490616  MISS:        312  HIT %:    99.9364  MISS %:  0.0635531  MPKI: 0.00624
STLB LOAD TRANSLATION DATA	ACCESS:     475855  HIT:     473959  MISS:       1896  HIT %:    99.6016  MISS %:   0.398441  MPKI: 0.03792
STLB TRANSLATION FROM L1D PREFETCHER DATA	ACCESS:     255359  HIT:     255318  MISS:         41  HIT %:    99.9839  MISS %:  0.0160558  MPKI: 0.00082

STLB AVERAGE MISS LATENCY: 68.5487 cycles
STLB RQ	ACCESS:    1369665	FORWARD:          0	MERGED:     147492	TO_CACHE:    1222173

STLB Hit, L1D data hit: 0
STLB Hit, L2C data hit: 0
STLB Hit, LLC data hit: 0
STLB Hit, LLC data miss: 0
STLB STLB hints to L2: 0
L1D TOTAL     ACCESS:   13026858  HIT:   11857179  MISS:    1169679  HIT %:     91.021  MISS %:    8.97898   MPKI: 23.3936
L1D LOAD DATA	ACCESS:    6532383  HIT:    5761865  MISS:     770518  HIT %:    88.2046  MISS %:    11.7954  MPKI: 15.4104
L1D RFO DATA	ACCESS:    6157903  HIT:    5865020  MISS:     292883  HIT %:    95.2438  MISS %:    4.75621  MPKI: 5.85766
L1D PREFETCH DATA	ACCESS:     336572  HIT:     230294  MISS:     106278  HIT %:    68.4234  MISS %:    31.5766  MPKI: 2.12556

L1D PREFETCH  REQUESTED:     806132  ISSUED:     806132  USEFUL:      48892  USELESS:      71646
L1D USEFUL LOAD PREFETCHES:      48892 PREFETCH ISSUED TO LOWER LEVEL:     120570  ACCURACY: 40.5507
 TIMELY PREFETCHES:      48892 LATE PREFETCHES: 14248 DROPPED PREFETCHES: 4
L1D AVERAGE MISS LATENCY: 379946 cycles
L1D RQ	ACCESS:   10657173	FORWARD:          0	MERGED:    3926141	TO_CACHE:    6568081
L1D WQ	ACCESS:    6906510	FORWARD:     163321	MERGED:     197977	TO_CACHE:    6708533
L1D PQ	ACCESS:     403251	FORWARD:          0	MERGED:          0	TO_CACHE:     402881

L1D UNIQUE REGIONS ACCESSED: 0
L1D REGIONS CONFLICTS: 0
L1D Cross Page Prefetch Requests: 8049
L1D Same Page Prefetch Requests: 812420
L1D ROI Sum of L1D PQ occupancy: 5149851
L1D PREFETCHES PUSHED FROM L2C: 0
L1I TOTAL     ACCESS:    7116406  HIT:    4363829  MISS:    2752577  HIT %:    61.3207  MISS %:    38.6793   MPKI: 55.0515
L1I LOAD INSTRUCTION	ACCESS:    6447687  HIT:    3695110  MISS:    2752577  HIT %:    57.3091  MISS %:    42.6909  MPKI: 55.0515
L1I PREFETCH INSTRUCTION	ACCESS:     668719  HIT:     668719  MISS:          0  HIT %:        100  MISS %:          0  MPKI: 0

L1I PREFETCH  REQUESTED:    1618401  ISSUED:    1618401  USEFUL:          0  USELESS:          0
L1I USEFUL LOAD PREFETCHES:          0 PREFETCH ISSUED TO LOWER LEVEL:          0  ACCURACY: -nan
 TIMELY PREFETCHES:          0 LATE PREFETCHES: 0 DROPPED PREFETCHES: 0
L1I AVERAGE MISS LATENCY: 17.0666 cycles
L1I RQ	ACCESS:    9570588	FORWARD:          0	MERGED:    2825033	TO_CACHE:    6745555
L1I PQ	ACCESS:    1618401	FORWARD:          0	MERGED:     429445	TO_CACHE:    1188956

L1BTB TOTAL     ACCESS:    5683294  HIT:    2072664  MISS:    3610630  HIT %:    36.4694  MISS %:    63.5306   MPKI: 72.2126
L1BTB BRANCH_DIRECT_JUMP	ACCESS:     543933 HIT:     143532 MISS:     400401 AVERAGE STALL: 51.5479 AVERAGE FETCH STALL: 12.8245 AVERAGE FETCH QUEUE STALL: 18.6324 AVERAGE DECODE STALL: 19.1623 AVERAGE EXECUTE STALL: 2.15122e+15
L1BTB BRANCH_INDIRECT	ACCESS:     181519 HIT:      65560 MISS:     115959 AVERAGE STALL: 110.174 AVERAGE FETCH STALL: 10.8906 AVERAGE FETCH QUEUE STALL: 18.7567 AVERAGE DECODE STALL: 13.3173 AVERAGE EXECUTE STALL: 66.2467
L1BTB BRANCH_CONDITIONAL	ACCESS:    2736723 HIT:    1450204 MISS:    1286519 AVERAGE STALL: 70.4248 AVERAGE FETCH STALL: 25.7302 AVERAGE FETCH QUEUE STALL: 25.2968 AVERAGE DECODE STALL: 18.7801 AVERAGE EXECUTE STALL: 3.92234e+15
L1BTB BRANCH_DIRECT_CALL	ACCESS:     940050 HIT:     103444 MISS:     836606 AVERAGE STALL: 77.6905 AVERAGE FETCH STALL: 33.7891 AVERAGE FETCH QUEUE STALL: 25.6327 AVERAGE DECODE STALL: 17.5047 AVERAGE EXECUTE STALL: 1.93565e+16
L1BTB BRANCH_INDIRECT_CALL	ACCESS:     170507 HIT:      20995 MISS:     149512 AVERAGE STALL: 138.655 AVERAGE FETCH STALL: 12.3191 AVERAGE FETCH QUEUE STALL: 17.1485 AVERAGE DECODE STALL: 11.8999 AVERAGE EXECUTE STALL: 96.7972
L1BTB BRANCH_RETURN	ACCESS:    1110562 HIT:     288929 MISS:     821633 AVERAGE STALL: 49.196 AVERAGE FETCH STALL: 16.8824 AVERAGE FETCH QUEUE STALL: 4.49135 AVERAGE DECODE STALL: 6.48439 AVERAGE EXECUTE STALL: 4.28128e+14
L1BTB BRANCH_OTHER ACCESS:          0 HIT:          0 MISS:          0 AVERAGE STALL: -nan AVERAGE FETCH STALL: -nan AVERAGE FETCH QUEUE STALL: -nan AVERAGE DECODE STALL: -nan AVERAGE EXECUTE STALL: -nan
L1BTB TOTAL ROB OCCUPANCY AT BTB MISS: 2.611

L2BTB TOTAL     ACCESS:    3585669  HIT:    3520918  MISS:      64751  HIT %:    98.1942  MISS %:    1.80583   MPKI: 1.29502
L2BTB BRANCH_DIRECT_JUMP	ACCESS:     396306 HIT:     391818 MISS:       4488 AVERAGE STALL: 51.5479 AVERAGE FETCH STALL: 12.8245 AVERAGE FETCH QUEUE STALL: 18.6324 AVERAGE DECODE STALL: 19.1623 AVERAGE EXECUTE STALL: 2.15122e+15
L2BTB BRANCH_INDIRECT	ACCESS:     105746 HIT:     103118 MISS:       2628 AVERAGE STALL: 110.174 AVERAGE FETCH STALL: 10.8906 AVERAGE FETCH QUEUE STALL: 18.7567 AVERAGE DECODE STALL: 13.3173 AVERAGE EXECUTE STALL: 66.2467
L2BTB BRANCH_CONDITIONAL	ACCESS:    1286519 HIT:    1281768 MISS:       4751 AVERAGE STALL: 70.4248 AVERAGE FETCH STALL: 25.7302 AVERAGE FETCH QUEUE STALL: 25.2968 AVERAGE DECODE STALL: 18.7801 AVERAGE EXECUTE STALL: 3.92234e+15
L2BTB BRANCH_DIRECT_CALL	ACCESS:     836606 HIT:     835625 MISS:        981 AVERAGE STALL: 77.6905 AVERAGE FETCH STALL: 33.7891 AVERAGE FETCH QUEUE STALL: 25.6327 AVERAGE DECODE STALL: 17.5047 AVERAGE EXECUTE STALL: 1.93565e+16
L2BTB BRANCH_INDIRECT_CALL	ACCESS:     140081 HIT:     130070 MISS:      10011 AVERAGE STALL: 138.655 AVERAGE FETCH STALL: 12.3191 AVERAGE FETCH QUEUE STALL: 17.1485 AVERAGE DECODE STALL: 11.8999 AVERAGE EXECUTE STALL: 96.7972
L2BTB BRANCH_RETURN	ACCESS:     820411 HIT:     778519 MISS:      41892 AVERAGE STALL: 49.196 AVERAGE FETCH STALL: 16.8824 AVERAGE FETCH QUEUE STALL: 4.49135 AVERAGE DECODE STALL: 6.48439 AVERAGE EXECUTE STALL: 4.28128e+14
L2BTB BRANCH_OTHER ACCESS:          0 HIT:          0 MISS:          0 AVERAGE STALL: -nan AVERAGE FETCH STALL: -nan AVERAGE FETCH QUEUE STALL: -nan AVERAGE DECODE STALL: -nan AVERAGE EXECUTE STALL: -nan
L2BTB TOTAL ROB OCCUPANCY AT BTB MISS: 145.594

L2C TOTAL     ACCESS:    4548303  HIT:    4059900  MISS:     488403  HIT %:    89.2619  MISS %:    10.7381   MPKI: 9.76806
L2C LOAD INSTRUCTION	ACCESS:    2752578  HIT:    2510563  MISS:     242015  HIT %:    91.2077  MISS %:     8.7923  MPKI: 4.8403
L2C LOAD TRANSLATION INSTRUCTION	ACCESS:        369  HIT:         98  MISS:        271  HIT %:    26.5583  MISS %:    73.4417  MPKI: 0.00542
L2C LOAD DATA	ACCESS:     756240  HIT:     673596  MISS:      82644  HIT %:    89.0717  MISS %:    10.9283  MPKI: 1.65288
L2C RFO DATA	ACCESS:     292824  HIT:     227274  MISS:      65550  HIT %:    77.6145  MISS %:    22.3855  MPKI: 1.311
L2C PREFETCH DATA	ACCESS:     211474  HIT:     132408  MISS:      79066  HIT %:     62.612  MISS %:     37.388  MPKI: 1.58132
L2C WRITEBACK DATA	ACCESS:     532712  HIT:     515411  MISS:      17301  HIT %:    96.7523  MISS %:    3.24772  MPKI: 0.34602
L2C LOAD TRANSLATION DATA	ACCESS:       2048  HIT:        505  MISS:       1543  HIT %:    24.6582  MISS %:    75.3418  MPKI: 0.03086
L2C TRANSLATION FROM L1D PREFETCHER DATA	ACCESS:         58  HIT:         45  MISS:         13  HIT %:    77.5862  MISS %:    22.4138  MPKI: 0.00026

L2C PREFETCH  REQUESTED:      99240  ISSUED:      99240  USEFUL:       9208  USELESS:      70494
L2C USEFUL LOAD PREFETCHES:       9208 PREFETCH ISSUED TO LOWER LEVEL:      79524  ACCURACY: 11.5789
 TIMELY PREFETCHES:       9208 LATE PREFETCHES: 458 DROPPED PREFETCHES: 0
L2C AVERAGE MISS LATENCY: 41.3297 cycles
L2C RQ	ACCESS:    3804163	FORWARD:          0	MERGED:          0	TO_CACHE:    3804118
L2C WQ	ACCESS:     532712	FORWARD:         45	MERGED:          0	TO_CACHE:     532712
L2C PQ	ACCESS:     219810	FORWARD:          0	MERGED:       3515	TO_CACHE:     216295

L2C Dense regions hint from L2: 0
PSCL5 TOTAL     ACCESS:       4508  HIT:       2254  MISS:       2254  HIT %:         50  MISS %:         50   MPKI: 0.04508
PSCL5 LOAD TRANSLATION INSTRUCTION	ACCESS:       4394  HIT:       2197  MISS:       2197  HIT %:         50  MISS %:         50  MPKI: 0.04394
PSCL5 TRANSLATION FROM L1D PREFETCHER INSTRUCTION	ACCESS:        114  HIT:         57  MISS:         57  HIT %:         50  MISS %:         50  MPKI: 0.00114


PSCL4 TOTAL     ACCESS:       4290  HIT:       2140  MISS:       2150  HIT %:    49.8834  MISS %:    50.1166   MPKI: 0.043
PSCL4 LOAD TRANSLATION INSTRUCTION	ACCESS:       3641  HIT:       2083  MISS:       1558  HIT %:    57.2096  MISS %:    42.7904  MPKI: 0.03116
PSCL4 TRANSLATION FROM L1D PREFETCHER INSTRUCTION	ACCESS:        112  HIT:         57  MISS:         55  HIT %:    50.8929  MISS %:    49.1071  MPKI: 0.0011
PSCL4 LOAD TRANSLATION DATA	ACCESS:        535  HIT:          0  MISS:        535  HIT %:          0  MISS %:        100  MPKI: 0.0107
PSCL4 TRANSLATION FROM L1D PREFETCHER DATA	ACCESS:          2  HIT:          0  MISS:          2  HIT %:          0  MISS %:        100  MPKI: 4e-05


PSCL3 TOTAL     ACCESS:       4303  HIT:       2139  MISS:       2164  HIT %:    49.7095  MISS %:    50.2905   MPKI: 0.04328
PSCL3 LOAD TRANSLATION INSTRUCTION	ACCESS:       2765  HIT:       2098  MISS:        667  HIT %:     75.877  MISS %:     24.123  MPKI: 0.01334
PSCL3 TRANSLATION FROM L1D PREFETCHER INSTRUCTION	ACCESS:         58  HIT:         41  MISS:         17  HIT %:    70.6897  MISS %:    29.3103  MPKI: 0.00034
PSCL3 LOAD TRANSLATION DATA	ACCESS:       1456  HIT:          0  MISS:       1456  HIT %:          0  MISS %:        100  MPKI: 0.02912
PSCL3 TRANSLATION FROM L1D PREFETCHER DATA	ACCESS:         24  HIT:          0  MISS:         24  HIT %:          0  MISS %:        100  MPKI: 0.00048


PSCL2 TOTAL     ACCESS:       4322  HIT:       2068  MISS:       2254  HIT %:    47.8482  MISS %:    52.1518   MPKI: 0.04508
PSCL2 LOAD TRANSLATION INSTRUCTION	ACCESS:       2325  HIT:       2012  MISS:        313  HIT %:    86.5376  MISS %:    13.4624  MPKI: 0.00626
PSCL2 TRANSLATION FROM L1D PREFETCHER INSTRUCTION	ACCESS:         56  HIT:         56  MISS:          0  HIT %:        100  MISS %:          0  MPKI: 0
PSCL2 LOAD TRANSLATION DATA	ACCESS:       1885  HIT:          0  MISS:       1885  HIT %:          0  MISS %:        100  MPKI: 0.0377
PSCL2 TRANSLATION FROM L1D PREFETCHER DATA	ACCESS:         56  HIT:          0  MISS:         56  HIT %:          0  MISS %:        100  MPKI: 0.00112


LLC TOTAL     ACCESS:     560783  HIT:     531139  MISS:      29644  HIT %:    94.7138  MISS %:    5.28618   MPKI: 0.59288
LLC LOAD INSTRUCTION	ACCESS:     242015  HIT:     241161  MISS:        854  HIT %:    99.6471  MISS %:   0.352871  MPKI: 0.01708
LLC LOAD TRANSLATION INSTRUCTION	ACCESS:        271  HIT:        240  MISS:         31  HIT %:    88.5609  MISS %:    11.4391  MPKI: 0.00062
LLC LOAD DATA	ACCESS:      82209  HIT:      78695  MISS:       3514  HIT %:    95.7255  MISS %:    4.27447  MPKI: 0.07028
LLC RFO DATA	ACCESS:      65522  HIT:      51001  MISS:      14521  HIT %:     77.838  MISS %:     22.162  MPKI: 0.29042
LLC PREFETCH DATA	ACCESS:      79524  HIT:      69091  MISS:      10433  HIT %:    86.8807  MISS %:    13.1193  MPKI: 0.20866
LLC WRITEBACK DATA	ACCESS:      89686  HIT:      89482  MISS:        204  HIT %:    99.7725  MISS %:    0.22746  MPKI: 0.00408
LLC LOAD TRANSLATION DATA	ACCESS:       1543  HIT:       1457  MISS:         86  HIT %:    94.4264  MISS %:    5.57356  MPKI: 0.00172
LLC TRANSLATION FROM L1D PREFETCHER DATA	ACCESS:         13  HIT:         12  MISS:          1  HIT %:    92.3077  MISS %:    7.69231  MPKI: 2e-05

LLC AVERAGE MISS LATENCY: 204.034 cycles
LLC RQ	ACCESS:     391578	FORWARD:          0	MERGED:          0	TO_CACHE:     391573
LLC WQ	ACCESS:      89686	FORWARD:          5	MERGED:          0	TO_CACHE:      89686
LLC PQ	ACCESS:      79524	FORWARD:          0	MERGED:          0	TO_CACHE:      79524

LLC Dense regions hint to LLC: 0

RAW hits: 1943862
Loads Generated: 12601035
Loads sent to L1D: 10657173
Stores Generated: 6906488
Stores sent to L1D: 6906510
Major fault: 0 Minor fault: 2387
Allocated PAGES: 2387

stream: 
stream:times selected: 1244791
stream:pref_filled: 129016
stream:pref_useful: 29018
stream:pref_late: 9755
stream:misses: 10790
stream:misses_by_poll: 0

CS: 
CS:times selected: 194369
CS:pref_filled: 74559
CS:pref_useful: 51296
CS:pref_late: 10073
CS:misses: 24406
CS:misses_by_poll: 1

CPLX: 
CPLX:times selected: 1049246
CPLX:pref_filled: 25720
CPLX:pref_useful: 7994
CPLX:pref_late: 4144
CPLX:misses: 133286
CPLX:misses_by_poll: 0

NL_L1: 
NL:times selected: 21804
NL:pref_filled: 1178
NL:pref_useful: 498
NL:pref_late: 770
NL:misses: 3205
NL:misses_by_poll: 0

total selections: 2510210
total_filled: 106278
total_useful: 48892
total_late: 27200
total_polluted: 1
total_misses_after_warmup: 806216
conflicts: 5483764

test: 118368

DRAM Statistics
 CHANNEL 0
 RQ ROW_BUFFER_HIT:      11122  ROW_BUFFER_MISS:      18306
 DBUS_CONGESTED:         13
 WQ ROW_BUFFER_HIT:       2074  ROW_BUFFER_MISS:      13915  FULL:          0

 AVG_CONGESTED_CYCLE: 5

CPU 0 Branch Prediction Accuracy: 99.8222% MPKI: 0.32582 Average ROB Occupancy at Mispredict: 201.649
Branch types
NOT_BRANCH: 40836653 81.6733%
BRANCH_DIRECT_JUMP: 543933 1.08787%
BRANCH_INDIRECT: 181519 0.363038%
BRANCH_CONDITIONAL: 6216771 12.4335%
BRANCH_DIRECT_CALL: 940050 1.8801%
BRANCH_INDIRECT_CALL: 170507 0.341014%
BRANCH_RETURN: 1110562 2.22112%
BRANCH_OTHER: 0 0%

DRAM PAGES: 1048576
Allocated PAGES: 2387
Average_ROB_Occupancy: 253.588
Average_Decode_Occupancy: 38.603
Average_FTQ_Occupancy: 15.0228
Indirect max targets: 14 Average targets: 1.15563
Branch_type:  BRANCH_DIRECT_JUMP:  Count Percentage: 4.13897 5.12003 3.97698 8.46497 2.40668 6.32723 1.55263 68.0125 
Branch_type:  BRANCH_INDIRECT:  Count Percentage: 6.11545 3.53349 8.13041 9.68367 3.33861 2.80496 1.73821 64.6552 
Branch_type:  BRANCH_CONDITIONAL:  Count Percentage: 22.8197 2.76048 1.65328 7.56645 2.91521 3.56897 1.63215 57.0837 
Branch_type:  BRANCH_DIRECT_CALL:  Count Percentage: 0.391087 1.2553 0.737933 4.49537 2.99523 2.60552 2.82928 84.6903 
Branch_type:  BRANCH_INDIRECT_CALL:  Count Percentage: 9.54811 0 3.00299 0.00410886 0.999921 1.71134 2.70539 82.0281 
Branch_type:  BRANCH_RETURN:  Count Percentage: 4.25868 4.66014 1.24136 4.75127 5.54162 3.53595 1.82368 74.1873 
Branch_type:  BRANCH_DIRECT_JUMP:  Total Count: 44969 55628 43209 91970 26148 68744 16869 738941 
Branch_type:  BRANCH_INDIRECT:  Total Count: 22186 12819 29496 35131 12112 10176 6306 234560 
Branch_type:  BRANCH_CONDITIONAL:  Total Count: 2834992 342947 205394 940013 362169 443389 202769 7091763 
Branch_type:  BRANCH_DIRECT_CALL:  Total Count: 7346 23579 13861 84439 56261 48941 53144 1590785 
Branch_type:  BRANCH_INDIRECT_CALL:  Total Count: 32533 0 10232 14 3407 5831 9218 279492 
Branch_type:  BRANCH_RETURN:  Total Count: 94539 103451 27557 105474 123019 78495 40484 1646893 
Number of unique branch instructions: 10480
Upper 32 bits: 
aaaa
ffff
ffff0000
Unique upper 32 bits: 3
Unique upper 36 bits: 3
Unique upper 40 bits: 5
Unique upper 44 bits: 32
Unique upper 48 bits: 159
Variant_0 : 1445 0.352783
Variant_1 : 2642 0.64502
Variant_2 : 0 0
Variant_3 : 0 0
Offset_3 4329
Offset_4 269
Offset_5 477
Offset_6 537
Offset_7 614
Offset_8 534
Offset_9 506
Offset_10 415
Offset_11 342
Offset_12 277
Offset_13 218
Offset_14 228
Offset_15 203
Offset_16 234
Offset_17 165
Offset_18 135
Offset_19 254
Offset_20 145
Offset_21 267
Offset_22 403
Offset_23 241
Offset_24 348
Offset_25 88
Offset_47 84
decode_dispatch_called: 26638578 74.1606
Dispatch_width: 0 14402682 54.067 40.0964
Dispatch_width: 1 1059760 3.97829 2.95032
Dispatch_width: 2 859067 3.2249 2.3916
Dispatch_width: 3 508758 1.90985 1.41636
Dispatch_width: 4 6524783 24.4937 18.1647
Dispatch_width: 5 104467 0.392164 0.290831
Dispatch_width: 6 3179061 11.934 8.85036
Empty_decode_cycles: 9281539 25.8394
ROB_full_cycles: 10503122 29.2402
Starvation_cycles_per_kilo_instr: 222.379
Starvation_cycles_per_kilo_instr_3: 156.087
Starvation_cycles_per_kilo_instr_0: 131.811
Branch_type_1  (3,1)  (4,8)  (5,39)  (6,77)  (7,121)  (8,130)  (9,134)  (10,108)  (11,79)  (12,43)  (13,7)  (14,2)  (15,3)  (16,4)  (18,1)  (19,4)  (20,2)  (21,1)  (22,3)  (23,2)  (24,10)  (25,12) 
Branch_type_2  (3,1)  (5,1)  (8,3)  (9,3)  (12,1)  (13,1)  (14,1)  (16,3)  (17,2)  (20,2)  (21,2)  (23,5)  (24,1)  (47,38) 
Branch_type_3  (3,4327)  (4,261)  (5,433)  (6,444)  (7,460)  (8,342)  (9,281)  (10,173)  (11,136)  (12,49)  (13,7) 
Branch_type_4  (6,4)  (7,8)  (8,26)  (9,53)  (10,62)  (11,64)  (12,100)  (13,94)  (14,101)  (15,98)  (16,106)  (17,76)  (18,62)  (19,122)  (20,74)  (21,144)  (22,217)  (23,136)  (24,199)  (25,72) 
Branch_type_5  (8,2)  (9,1)  (10,4)  (11,6)  (12,3)  (13,14)  (14,16)  (15,11)  (16,20)  (17,12)  (18,16)  (19,13)  (20,11)  (21,13)  (22,42)  (23,26)  (24,40) 
Branch_type_6  (5,4)  (6,12)  (7,25)  (8,31)  (9,34)  (10,68)  (11,57)  (12,81)  (13,95)  (14,108)  (15,91)  (16,101)  (17,75)  (18,56)  (19,115)  (20,56)  (21,107)  (22,141)  (23,72)  (24,98)  (25,4)  (47,46) 
Unique trigger count: 
Variant_0_evicts_0 : 0
Variant_0_evicts_1 : 0
Variant_0_evicts_2 : 0
Variant_0_evicts_3 : 0
Variant_1_evicts_0 : 0
Variant_1_evicts_1 : 0
Variant_1_evicts_2 : 0
Variant_1_evicts_3 : 0
Variant_2_evicts_0 : 0
Variant_2_evicts_1 : 0
Variant_2_evicts_2 : 0
Variant_2_evicts_3 : 0
Variant_3_evicts_0 : 0
Variant_3_evicts_1 : 0
Variant_3_evicts_2 : 0
Variant_3_evicts_3 : 0
BTB PER SET UNIQUE ADDR: 23 14 13 15 14 25 23 12 15 24 24 19 20 16 15 25 14 21 21 13 17 15 18 16 21 18 17 19 17 20 18 20 21 19 23 20 22 17 15 16 24 15 17 21 21 24 20 12 22 16 15 25 16 19 24 17 19 26 25 21 14 14 16 20 19 22 26 14 21 14 18 28 27 17 17 23 25 18 29 15 20 16 14 17 15 26 19 17 16 25 34 15 23 16 17 24 21 16 14 25 18 25 23 21 17 28 22 12 20 15 15 21 15 20 23 19 18 18 16 18 27 13 21 28 20 22 25 13 16 18 22 15 20 16 15 17 18 17 13 29 17 25 18 16 21 13 15 22 13 19 27 15 15 17 21 16 24 18 17 26 25 15 15 24 13 21 16 17 17 21 24 21 25 19 16 22 16 17 19 16 20 20 16 19 17 19 20 19 18 32 20 19 17 20 14 26 17 19 23 14 16 23 23 15 21 14 18 24 16 24 23 16 18 19 14 25 20 17 20 20 13 23 22 13 17 25 18 16 25 18 14 23 24 15 21 25 21 20 19 13 20 15 19 27 18 22 18 15 15 22 29 17 21 17 18 19 17 22 25 23 23 16 19 23 27 17 19 17 19 24 19 14 19 14 16 24 14 27 19 19 18 18 22 17 19 17 15 27 19 17 19 21 14 17 26 17 15 21 20 14 20 14 18 23 14 19 26 14 22 15 14 22 17 16 13 27 14 20 22 15 22 17 20 28 13 29 21 18 16 26 20 14 26 15 20 20 17 26 23 18 18 18 19 25 19 19 17 31 15 16 18 15 17 25 15 14 20 14 15 25 21 13 12 21 21 25 26 18 22 15 11 25 16 24 21 13 12 17 21 16 23 15 15 26 23 17 15 17 19 22 21 16 12 22 26 13 22 11 16 29 18 29 25 17 17 16 14 22 20 15 16 16 16 18 23 16 17 18 17 18 23 19 20 27 18 16 13 21 16 23 24 19 20 18 15 23 19 27 20 14 18 20 17 15 21 12 14 19 16 24 22 17 17 16 18 21 25 13 18 25 13 22 27 15 22 16 16 19 16 26 21 19 15 25 24 20 25 13 16 20 18 18 24 27 18 19 24 19 16 21 18 16 25 17 18 17 14 20 24 12 25 15 16 26 21 14 15 27 14 30 12 18 
BTB PER SET COUNT: 93 14 15 15 14 1406 24 12 17 27 625 360 24 16 994 1457 14 1704 214 90 2808 15 21 498 23 24 21 24 318 22 21 980 23 1976 26 20 25 19 22 976 581 15 26 24 1521 226 21 12 23 645 19 121 977 23 723 18 21 31 687 25 19 17 20 23 23 488 30 14 984 17 18 29 29 1001 21 742 607 24 36 18 20 19 14 1937 100 27 235 1835 1976 119 252 15 131 22 18 25 1005 20 14 287 21 2437 24 22 122 1018 24 993 336 21 16 1085 15 127 25 24 23 519 402 261 659 13 21 1032 22 132 29 15 736 412 25 15 53 40 17 18 18 19 23 792 348 1978 5975 540 21 13 17 23 13 817 29 316 16 17 25 18 817 662 427 29 32 19 15 744 1450 26 20 20 19 23 25 550 27 19 17 29 467 21 20 18 21 28 20 19 17 1723 22 503 20 950 698 979 17 349 15 542 19 20 34 19 2205 26 25 16 256 149 18 282 477 542 28 21 19 20 32 544 21 3334 777 23 315 32 24 973 18 478 123 995 1029 19 15 249 29 19 33 1059 22 521 1479 992 1355 4835 22 33 19 2975 22 16 2494 1485 34 17 24 25 19 21 930 23 32 75 26 22 20 24 30 24 21 19 23 281 22 14 22 1299 20 29 16 31 25 23 18 522 62 19 20 18 15 31 25 18 21 179 15 1475 809 1477 1935 490 20 283 773 968 23 27 18 978 10680 20 30 15 3270 2217 21 18 16 38 18 25 25 15 9406 17 22 34 385 198 24 481 18 34 544 28 841 15 22 985 20 30 488 1118 18 1569 20 41 21 1303 599 36 16 19 21 16 366 26 16 14 25 15 19 28 184 14 13 528 27 31 30 24 23 264 11 33 82 65 418 17 12 722 982 18 24 16 26 1679 37 18 21 19 20 1003 157 901 14 27 30 14 24 15 763 1023 1251 67 640 18 21 22 14 24 25 15 18 16 21 21 147 26 20 19 17 21 28 22 22 5344 23 498 13 1595 49 27 1222 20 22 3661 21 25 374 812 26 15 1021 359 19 18 24 14 17 521 30 43 25 17 24 23 27 21 765 15 1486 257 13 303 28 15 1995 60 19 23 1020 734 424 22 30 30 26 3421 26 14 19 251 1875 18 528 29 24 283 31 644 741 25 25 17 29 955 45 20 14 22 93 12 675 17 20 80 24 167 17 33 16 37 12 27 
To predecode: 0
Predecoding something: 0
Predecode request dropped: 0
sizeofblock_0 0
sizeofblock_1 37700
sizeofblock_2 95277
sizeofblock_3 0
sizeofblock_4 0
sizeofblock_5 0
sizeofblock_6 0
sizeofblock_7 0
sizeofblock_8 0
Variant_0 Correct: 1602804 Incorrect: 0 Accuracy: 1
Variant_1 Correct: 5706997 Incorrect: 0 Accuracy: 1
Variant_2 Correct: 0 Incorrect: 0 Accuracy: -nan
Variant_3 Correct: 0 Incorrect: 0 Accuracy: -nan
