
*** ChampSim Multicore Out-of-Order Simulator ***

Warmup Instructions: 50000000
Simulation Instructions: 50000000
Number of CPUs: 1
LLC sets: 2048
LLC ways: 16
Off-chip DRAM Size: 4096 MB Channels: 1 Width: 64-bit Data Rate: 6400 MT/s
CPU 0 runs ./micro_traces/srv115.trace.gz
.gz
ITLB has LRU replacement policy
DTLB has LRU replacement policy
STLB has LRU replacement policy
FDIP Prefetcher at L1I
L1I has LRU replacement policy
L1D has LRU replacement policy
Initialize SRRIP state for L2C
Initialize DRRIP state for LLC
Heartbeat CPU 0 instructions: 10000001 cycles: 2796816 heartbeat IPC: 3.57549 cumulative IPC: 3.57549 (Simulation time: 0 hr 2 min 21 sec) 
Heartbeat CPU 0 instructions: 20000003 cycles: 5593800 heartbeat IPC: 3.57528 cumulative IPC: 3.57539 (Simulation time: 0 hr 4 min 20 sec) 
Heartbeat CPU 0 instructions: 30000000 cycles: 8389544 heartbeat IPC: 3.57686 cumulative IPC: 3.57588 (Simulation time: 0 hr 6 min 20 sec) 
Heartbeat CPU 0 instructions: 40000000 cycles: 11185442 heartbeat IPC: 3.57667 cumulative IPC: 3.57608 (Simulation time: 0 hr 8 min 30 sec) 
Heartbeat CPU 0 instructions: 50000002 cycles: 13981524 heartbeat IPC: 3.57643 cumulative IPC: 3.57615 (Simulation time: 0 hr 10 min 30 sec) 

Warmup complete CPU 0 instructions: 50000002 cycles: 13981524 (Simulation time: 0 hr 10 min 30 sec) 

Cycle: 20000000 FTQ IN: 58849618 FTQ occupancy: 21.1943 DECODE IN: 58849544 DECODE occupancy: 55.5695 ROB IN: 58849520 ROB occupancy: 331.879 ROB OUT: 58849218
Heartbeat CPU 0 instructions: 60000000 cycles: 20782418 heartbeat IPC: 1.47039 cumulative IPC: 1.47039 (Simulation time: 0 hr 13 min 0 sec) 
Heartbeat CPU 0 instructions: 70000002 cycles: 27676043 heartbeat IPC: 1.45062 cumulative IPC: 1.46044 (Simulation time: 0 hr 15 min 35 sec) 
Cycle: 30000000 FTQ IN: 14572739 FTQ occupancy: 17.1598 DECODE IN: 14572813 DECODE occupancy: 45.4962 ROB IN: 14572837 ROB occupancy: 294.324 ROB OUT: 14572926
Heartbeat CPU 0 instructions: 80000002 cycles: 34465085 heartbeat IPC: 1.47296 cumulative IPC: 1.46459 (Simulation time: 0 hr 17 min 59 sec) 
Cycle: 40000000 FTQ IN: 14677649 FTQ occupancy: 17.1925 DECODE IN: 14677538 DECODE occupancy: 45.5775 ROB IN: 14677478 ROB occupancy: 294.552 ROB OUT: 14677339
Heartbeat CPU 0 instructions: 90000000 cycles: 41288160 heartbeat IPC: 1.46561 cumulative IPC: 1.46485 (Simulation time: 0 hr 19 min 53 sec) 
Heartbeat CPU 0 instructions: 100000002 cycles: 48171691 heartbeat IPC: 1.45274 cumulative IPC: 1.46241 (Simulation time: 0 hr 21 min 9 sec) 
Finished CPU 0 instructions: 50000000 cycles: 34190167 cumulative IPC: 1.46241 (Simulation time: 0 hr 21 min 9 sec) 

ChampSim completed all CPUs

Region of Interest Statistics

CPU 0 cumulative IPC: 1.46241 instructions: 50000000 cycles: 34190167
 Fetch stage stalled: 24.1669  Sim cycles: 34190167 fetch stall cycle: 8262706
 Empty decode stage: 8.36512  Sim cycles: 34190167 fetch stall cycle: 2860047
ITLB TOTAL     ACCESS:    5824490  HIT:    5331183  MISS:     493307  HIT %:    91.5305  MISS %:    8.46953   MPKI: 9.86614
ITLB LOAD TRANSLATION INSTRUCTION	ACCESS:    5666173  HIT:    5172866  MISS:     493307  HIT %:    91.2938  MISS %:    8.70618  MPKI: 9.86614
ITLB TRANSLATION FROM L1D PREFETCHER INSTRUCTION	ACCESS:     158317  HIT:     158317  MISS:          0  HIT %:        100  MISS %:          0  MPKI: 0

ITLB AVERAGE MISS LATENCY: 9.05695 cycles
ITLB RQ	ACCESS:    7851005	FORWARD:          0	MERGED:    1449540	TO_CACHE:    6401465

DTLB TOTAL     ACCESS:    8910403  HIT:    8440192  MISS:     470211  HIT %:    94.7229  MISS %:     5.2771   MPKI: 9.40422
DTLB LOAD TRANSLATION DATA	ACCESS:    8910403  HIT:    8440192  MISS:     470211  HIT %:    94.7229  MISS %:     5.2771  MPKI: 9.40422

DTLB AVERAGE MISS LATENCY: 9.31709 cycles
DTLB RQ	ACCESS:   13293518	FORWARD:          0	MERGED:    4345701	TO_CACHE:    8947817

STLB TOTAL     ACCESS:    1210816  HIT:    1208781  MISS:       2035  HIT %:    99.8319  MISS %:   0.168068   MPKI: 0.0407
STLB LOAD TRANSLATION INSTRUCTION	ACCESS:     493307  HIT:     493093  MISS:        214  HIT %:    99.9566  MISS %:  0.0433807  MPKI: 0.00428
STLB LOAD TRANSLATION DATA	ACCESS:     470211  HIT:     468412  MISS:       1799  HIT %:    99.6174  MISS %:   0.382594  MPKI: 0.03598
STLB TRANSLATION FROM L1D PREFETCHER DATA	ACCESS:     247298  HIT:     247276  MISS:         22  HIT %:    99.9911  MISS %: 0.00889615  MPKI: 0.00044

STLB AVERAGE MISS LATENCY: 69.1376 cycles
STLB RQ	ACCESS:    1331064	FORWARD:          0	MERGED:     120207	TO_CACHE:    1210857

STLB Hit, L1D data hit: 0
STLB Hit, L2C data hit: 0
STLB Hit, LLC data hit: 0
STLB Hit, LLC data miss: 0
STLB STLB hints to L2: 0
L1D TOTAL     ACCESS:   13044243  HIT:   11931248  MISS:    1112995  HIT %:    91.4675  MISS %:    8.53246   MPKI: 22.2599
L1D LOAD DATA	ACCESS:    6512904  HIT:    5778639  MISS:     734265  HIT %:     88.726  MISS %:     11.274  MPKI: 14.6853
L1D RFO DATA	ACCESS:    6204273  HIT:    5919995  MISS:     284278  HIT %:     95.418  MISS %:    4.58197  MPKI: 5.68556
L1D PREFETCH DATA	ACCESS:     327066  HIT:     232614  MISS:      94452  HIT %:    71.1214  MISS %:    28.8786  MPKI: 1.88904

L1D PREFETCH  REQUESTED:     735469  ISSUED:     735469  USEFUL:      33008  USELESS:      69414
L1D USEFUL LOAD PREFETCHES:      33008 PREFETCH ISSUED TO LOWER LEVEL:     102492  ACCURACY: 32.2054
 TIMELY PREFETCHES:      33008 LATE PREFETCHES: 7966 DROPPED PREFETCHES: 7
L1D AVERAGE MISS LATENCY: 229317 cycles
L1D RQ	ACCESS:   10661490	FORWARD:          0	MERGED:    3951496	TO_CACHE:    6547642
L1D WQ	ACCESS:    6945943	FORWARD:     162729	MERGED:     200067	TO_CACHE:    6745876
L1D PQ	ACCESS:     367923	FORWARD:          0	MERGED:          0	TO_CACHE:     367546

L1D UNIQUE REGIONS ACCESSED: 0
L1D REGIONS CONFLICTS: 0
L1D Cross Page Prefetch Requests: 7004
L1D Same Page Prefetch Requests: 746871
L1D ROI Sum of L1D PQ occupancy: 4666674
L1D PREFETCHES PUSHED FROM L2C: 0
L1I TOTAL     ACCESS:    7016395  HIT:    4253395  MISS:    2763000  HIT %:    60.6208  MISS %:    39.3792   MPKI: 55.26
L1I LOAD INSTRUCTION	ACCESS:    6348289  HIT:    3585289  MISS:    2763000  HIT %:    56.4765  MISS %:    43.5235  MPKI: 55.26
L1I PREFETCH INSTRUCTION	ACCESS:     668106  HIT:     668106  MISS:          0  HIT %:        100  MISS %:          0  MPKI: 0

L1I PREFETCH  REQUESTED:    1675875  ISSUED:    1675875  USEFUL:          0  USELESS:          0
L1I USEFUL LOAD PREFETCHES:          0 PREFETCH ISSUED TO LOWER LEVEL:          0  ACCURACY: -nan
 TIMELY PREFETCHES:          0 LATE PREFETCHES: 0 DROPPED PREFETCHES: 0
L1I AVERAGE MISS LATENCY: 17.3741 cycles
L1I RQ	ACCESS:    9796120	FORWARD:          0	MERGED:    3183929	TO_CACHE:    6612191
L1I PQ	ACCESS:    1675875	FORWARD:          0	MERGED:     437061	TO_CACHE:    1238814

L1BTB TOTAL     ACCESS:    5370588  HIT:    5338033  MISS:      32555  HIT %:    99.3938  MISS %:   0.606172   MPKI: 0.6511
L1BTB BRANCH_DIRECT_JUMP	ACCESS:     548563  HIT:     548563  MISS:          0	AVERAGE STALL: -nan
L1BTB BRANCH_INDIRECT	ACCESS:     183059  HIT:     170097  MISS:      12962	AVERAGE STALL: 122.403
L1BTB BRANCH_CONDITIONAL	ACCESS:    2404273  HIT:    2404273  MISS:          0	AVERAGE STALL: -nan
L1BTB BRANCH_DIRECT_CALL	ACCESS:     945277  HIT:     945277  MISS:          0	AVERAGE STALL: -nan
L1BTB BRANCH_INDIRECT_CALL	ACCESS:     172068  HIT:     152475  MISS:      19593	AVERAGE STALL: 163.856
L1BTB BRANCH_RETURN	ACCESS:    1117348  HIT:    1117348  MISS:          0	AVERAGE STALL: -nan
L1BTB BRANCH_OTHER ACCESS:          0  HIT:          0  MISS:          0	AVERAGE STALL: -nan
L1BTB TOTAL ROB OCCUPANCY AT BTB MISS: 148.476

L2BTB BRANCH_DIRECT_JUMP	ACCESS:          0  HIT:          0  MISS:          0	AVERAGE STALL: -nan
L2BTB BRANCH_INDIRECT	ACCESS:          0  HIT:          0  MISS:          0	AVERAGE STALL: 122.403
L2BTB BRANCH_CONDITIONAL	ACCESS:          0  HIT:          0  MISS:          0	AVERAGE STALL: -nan
L2BTB BRANCH_DIRECT_CALL	ACCESS:          0  HIT:          0  MISS:          0	AVERAGE STALL: -nan
L2BTB BRANCH_INDIRECT_CALL	ACCESS:          0  HIT:          0  MISS:          0	AVERAGE STALL: 163.856
L2BTB BRANCH_RETURN	ACCESS:          0  HIT:          0  MISS:          0	AVERAGE STALL: -nan
L2BTB BRANCH_OTHER ACCESS:          0  HIT:          0  MISS:          0	AVERAGE STALL: -nan
L2BTB TOTAL ROB OCCUPANCY AT BTB MISS: inf

L2C TOTAL     ACCESS:    4477623  HIT:    4012051  MISS:     465572  HIT %:    89.6023  MISS %:    10.3977   MPKI: 9.31144
L2C LOAD INSTRUCTION	ACCESS:    2763000  HIT:    2506287  MISS:     256713  HIT %:    90.7089  MISS %:     9.2911  MPKI: 5.13426
L2C LOAD TRANSLATION INSTRUCTION	ACCESS:        240  HIT:         68  MISS:        172  HIT %:    28.3333  MISS %:    71.6667  MPKI: 0.00344
L2C LOAD DATA	ACCESS:     726268  HIT:     653222  MISS:      73046  HIT %:    89.9423  MISS %:    10.0577  MPKI: 1.46092
L2C RFO DATA	ACCESS:     284179  HIT:     235468  MISS:      48711  HIT %:     82.859  MISS %:     17.141  MPKI: 0.97422
L2C PREFETCH DATA	ACCESS:     182578  HIT:     111511  MISS:      71067  HIT %:    61.0758  MISS %:    38.9242  MPKI: 1.42134
L2C WRITEBACK DATA	ACCESS:     519450  HIT:     504961  MISS:      14489  HIT %:    97.2107  MISS %:     2.7893  MPKI: 0.28978
L2C LOAD TRANSLATION DATA	ACCESS:       1865  HIT:        508  MISS:       1357  HIT %:    27.2386  MISS %:    72.7614  MPKI: 0.02714
L2C TRANSLATION FROM L1D PREFETCHER DATA	ACCESS:         43  HIT:         26  MISS:         17  HIT %:    60.4651  MISS %:    39.5349  MPKI: 0.00034

L2C PREFETCH  REQUESTED:      87573  ISSUED:      87573  USEFUL:       7329  USELESS:      63930
L2C USEFUL LOAD PREFETCHES:       7329 PREFETCH ISSUED TO LOWER LEVEL:      71472  ACCURACY: 10.2544
 TIMELY PREFETCHES:       7329 LATE PREFETCHES: 405 DROPPED PREFETCHES: 0
L2C AVERAGE MISS LATENCY: 38.4019 cycles
L2C RQ	ACCESS:    3775651	FORWARD:          0	MERGED:          0	TO_CACHE:    3775595
L2C WQ	ACCESS:     519450	FORWARD:         56	MERGED:          0	TO_CACHE:     519450
L2C PQ	ACCESS:     190065	FORWARD:          0	MERGED:       3520	TO_CACHE:     186545

L2C Dense regions hint from L2: 0
PSCL5 TOTAL     ACCESS:       4092  HIT:       2046  MISS:       2046  HIT %:         50  MISS %:         50   MPKI: 0.04092
PSCL5 LOAD TRANSLATION INSTRUCTION	ACCESS:       4006  HIT:       2003  MISS:       2003  HIT %:         50  MISS %:         50  MPKI: 0.04006
PSCL5 TRANSLATION FROM L1D PREFETCHER INSTRUCTION	ACCESS:         86  HIT:         43  MISS:         43  HIT %:         50  MISS %:         50  MPKI: 0.00086


PSCL4 TOTAL     ACCESS:       3707  HIT:       1848  MISS:       1859  HIT %:    49.8516  MISS %:    50.1484   MPKI: 0.03718
PSCL4 LOAD TRANSLATION INSTRUCTION	ACCESS:       2846  HIT:       1808  MISS:       1038  HIT %:    63.5278  MISS %:    36.4722  MPKI: 0.02076
PSCL4 TRANSLATION FROM L1D PREFETCHER INSTRUCTION	ACCESS:         68  HIT:         40  MISS:         28  HIT %:    58.8235  MISS %:    41.1765  MPKI: 0.00056
PSCL4 LOAD TRANSLATION DATA	ACCESS:        781  HIT:          0  MISS:        781  HIT %:          0  MISS %:        100  MPKI: 0.01562
PSCL4 TRANSLATION FROM L1D PREFETCHER DATA	ACCESS:         12  HIT:          0  MISS:         12  HIT %:          0  MISS %:        100  MPKI: 0.00024


PSCL3 TOTAL     ACCESS:       3719  HIT:       1854  MISS:       1865  HIT %:    49.8521  MISS %:    50.1479   MPKI: 0.0373
PSCL3 LOAD TRANSLATION INSTRUCTION	ACCESS:       2852  HIT:       1814  MISS:       1038  HIT %:    63.6045  MISS %:    36.3955  MPKI: 0.02076
PSCL3 TRANSLATION FROM L1D PREFETCHER INSTRUCTION	ACCESS:         68  HIT:         40  MISS:         28  HIT %:    58.8235  MISS %:    41.1765  MPKI: 0.00056
PSCL3 LOAD TRANSLATION DATA	ACCESS:        787  HIT:          0  MISS:        787  HIT %:          0  MISS %:        100  MPKI: 0.01574
PSCL3 TRANSLATION FROM L1D PREFETCHER DATA	ACCESS:         12  HIT:          0  MISS:         12  HIT %:          0  MISS %:        100  MPKI: 0.00024


PSCL2 TOTAL     ACCESS:       4011  HIT:       1965  MISS:       2046  HIT %:    48.9903  MISS %:    51.0097   MPKI: 0.04092
PSCL2 LOAD TRANSLATION INSTRUCTION	ACCESS:       2136  HIT:       1922  MISS:        214  HIT %:    89.9813  MISS %:    10.0187  MPKI: 0.00428
PSCL2 TRANSLATION FROM L1D PREFETCHER INSTRUCTION	ACCESS:         43  HIT:         43  MISS:          0  HIT %:        100  MISS %:          0  MPKI: 0
PSCL2 LOAD TRANSLATION DATA	ACCESS:       1789  HIT:          0  MISS:       1789  HIT %:          0  MISS %:        100  MPKI: 0.03578
PSCL2 TRANSLATION FROM L1D PREFETCHER DATA	ACCESS:         43  HIT:          0  MISS:         43  HIT %:          0  MISS %:        100  MPKI: 0.00086


LLC TOTAL     ACCESS:     524583  HIT:     497348  MISS:      27235  HIT %:    94.8083  MISS %:    5.19174   MPKI: 0.5447
LLC LOAD INSTRUCTION	ACCESS:     256713  HIT:     256067  MISS:        646  HIT %:    99.7484  MISS %:   0.251643  MPKI: 0.01292
LLC LOAD TRANSLATION INSTRUCTION	ACCESS:        172  HIT:        159  MISS:         13  HIT %:    92.4419  MISS %:    7.55814  MPKI: 0.00026
LLC LOAD DATA	ACCESS:      72655  HIT:      69160  MISS:       3495  HIT %:    95.1896  MISS %:    4.81041  MPKI: 0.0699
LLC RFO DATA	ACCESS:      48684  HIT:      35529  MISS:      13155  HIT %:    72.9788  MISS %:    27.0212  MPKI: 0.2631
LLC PREFETCH DATA	ACCESS:      71471  HIT:      61910  MISS:       9561  HIT %:    86.6225  MISS %:    13.3775  MPKI: 0.19122
LLC WRITEBACK DATA	ACCESS:      73514  HIT:      73213  MISS:        301  HIT %:    99.5906  MISS %:   0.409446  MPKI: 0.00602
LLC LOAD TRANSLATION DATA	ACCESS:       1357  HIT:       1293  MISS:         64  HIT %:    95.2837  MISS %:    4.71629  MPKI: 0.00128
LLC TRANSLATION FROM L1D PREFETCHER DATA	ACCESS:         17  HIT:         17  MISS:          0  HIT %:        100  MISS %:          0  MPKI: 0

LLC AVERAGE MISS LATENCY: 158.211 cycles
LLC RQ	ACCESS:     379611	FORWARD:          0	MERGED:          0	TO_CACHE:     379598
LLC WQ	ACCESS:      73514	FORWARD:         14	MERGED:          0	TO_CACHE:      73514
LLC PQ	ACCESS:      71472	FORWARD:          0	MERGED:          0	TO_CACHE:      71471

LLC Dense regions hint to LLC: 0

RAW hits: 1971979
Loads Generated: 12633469
Loads sent to L1D: 10661490
Stores Generated: 6945939
Stores sent to L1D: 6945943
Major fault: 0 Minor fault: 2559
Allocated PAGES: 2559

stream: 
stream:times selected: 1185493
stream:pref_filled: 122928
stream:pref_useful: 23640
stream:pref_late: 6662
stream:misses: 8097
stream:misses_by_poll: 0

CS: 
CS:times selected: 176829
CS:pref_filled: 59945
CS:pref_useful: 36661
CS:pref_late: 7250
CS:misses: 16158
CS:misses_by_poll: 1

CPLX: 
CPLX:times selected: 1007542
CPLX:pref_filled: 19379
CPLX:pref_useful: 4549
CPLX:pref_late: 3279
CPLX:misses: 93360
CPLX:misses_by_poll: 0

NL_L1: 
NL:times selected: 21126
NL:pref_filled: 820
NL:pref_useful: 369
NL:pref_late: 268
NL:misses: 1742
NL:misses_by_poll: 0

total selections: 2390990
total_filled: 94452
total_useful: 33008
total_late: 18828
total_polluted: 1
total_misses_after_warmup: 769004
conflicts: 5501969

test: 118724

DRAM Statistics
 CHANNEL 0
 RQ ROW_BUFFER_HIT:       9752  ROW_BUFFER_MISS:      17177
 DBUS_CONGESTED:          8
 WQ ROW_BUFFER_HIT:       1364  ROW_BUFFER_MISS:      11759  FULL:          0

 AVG_CONGESTED_CYCLE: 5

CPU 0 Branch Prediction Accuracy: 99.8238% MPKI: 0.3225 Average ROB Occupancy at Mispredict: 207.719
Branch types
NOT_BRANCH: 40850358 81.7007%
BRANCH_DIRECT_JUMP: 548563 1.09713%
BRANCH_INDIRECT: 183059 0.366118%
BRANCH_CONDITIONAL: 6183336 12.3667%
BRANCH_DIRECT_CALL: 945277 1.89055%
BRANCH_INDIRECT_CALL: 172068 0.344136%
BRANCH_RETURN: 1117348 2.2347%
BRANCH_OTHER: 0 0%

DRAM PAGES: 1048576
Allocated PAGES: 2559
Average_ROB_Occupancy: 295.729
Average_Decode_Occupancy: 45.5087
Average_FTQ_Occupancy: 17.1654
Indirect max targets: 14 Average targets: 1.15282
Branch_type:  BRANCH_DIRECT_JUMP:  Count Percentage: 5.30488 5.7869 3.60886 3.01026 2.76596 11.1281 6.97179 61.4233 
Branch_type:  BRANCH_INDIRECT:  Count Percentage: 16.3953 0.802988 10.6145 0 1.33604 10.4719 9.80252 50.5768 
Branch_type:  BRANCH_CONDITIONAL:  Count Percentage: 26.4921 2.4825 1.71658 6.55289 1.20283 6.16572 4.29305 51.0943 
Branch_type:  BRANCH_DIRECT_CALL:  Count Percentage: 0.884892 1.2677 0.428697 2.3133 2.25422 3.48049 2.50786 86.8628 
Branch_type:  BRANCH_INDIRECT_CALL:  Count Percentage: 9.54987 0 2.9935 0.00174922 0.000583073 2.37427 0.997347 84.0827 
Branch_type:  BRANCH_RETURN:  Count Percentage: 9.96523 1.41949 1.35701 5.36062 1.75357 7.64751 4.41609 68.0805 
Branch_type:  BRANCH_DIRECT_JUMP:  Total Count: 58153 63437 39561 32999 30321 121988 76426 673333 
Branch_type:  BRANCH_INDIRECT:  Total Count: 60008 2939 38850 0 4890 38328 35878 185115 
Branch_type:  BRANCH_CONDITIONAL:  Total Count: 3274443 306839 212170 809941 148671 762087 530624 6315285 
Branch_type:  BRANCH_DIRECT_CALL:  Total Count: 16701 23926 8091 43660 42545 65689 47332 1639404 
Branch_type:  BRANCH_INDIRECT_CALL:  Total Count: 32757 0 10268 6 2 8144 3421 288412 
Branch_type:  BRANCH_RETURN:  Total Count: 222340 31671 30277 119604 39125 170628 98530 1518983 
Number of unique branch instructions: 9958
Upper 32 bits: 
aaaa
ffff
ffff0000
Unique upper 32 bits: 3
Unique upper 36 bits: 3
Unique upper 40 bits: 5
Unique upper 44 bits: 32
Unique upper 48 bits: 156
Offset_3 4093
Offset_4 255
Offset_5 462
Offset_6 508
Offset_7 575
Offset_8 514
Offset_9 475
Offset_10 382
Offset_11 305
Offset_12 275
Offset_13 206
Offset_14 227
Offset_15 190
Offset_16 219
Offset_17 151
Offset_18 118
Offset_19 237
Offset_20 140
Offset_21 265
Offset_22 391
Offset_23 241
Offset_24 338
Offset_25 88
Offset_47 84
Offset_64 1
decode_dispatch_called: 27582552 80.6739
Dispatch_width: 0 14298150 51.8377 41.8195
Dispatch_width: 1 1269673 4.60317 3.71356
Dispatch_width: 2 1033595 3.74728 3.02308
Dispatch_width: 3 603397 2.1876 1.76483
Dispatch_width: 4 8671222 31.4373 25.3617
Dispatch_width: 5 71032 0.257525 0.207756
Dispatch_width: 6 1635483 5.92941 4.78349
Empty_decode_cycles: 6607615 19.3261
ROB_full_cycles: 13826400 40.4397
Starvation_cycles_per_kilo_instr: 187.283
Starvation_cycles_per_kilo_instr_3: 99.8603
Starvation_cycles_per_kilo_instr_0: 70.7936
Branch_type_1  (3,1)  (4,8)  (5,38)  (6,72)  (7,112)  (8,132)  (9,128)  (10,99)  (11,67)  (12,43)  (13,8)  (14,2)  (15,3)  (16,4)  (18,1)  (19,4)  (20,2)  (21,1)  (22,3)  (23,2)  (24,10)  (25,12) 
Branch_type_2  (3,1)  (5,1)  (8,3)  (9,3)  (12,1)  (13,1)  (14,1)  (16,3)  (17,2)  (20,2)  (21,2)  (23,5)  (24,1)  (47,38) 
Branch_type_3  (3,4091)  (4,247)  (5,419)  (6,421)  (7,431)  (8,319)  (9,261)  (10,152)  (11,120)  (12,50)  (13,7) 
Branch_type_4  (6,3)  (7,8)  (8,26)  (9,51)  (10,61)  (11,61)  (12,97)  (13,87)  (14,100)  (15,89)  (16,98)  (17,68)  (18,53)  (19,114)  (20,71)  (21,144)  (22,208)  (23,136)  (24,190)  (25,72) 
Branch_type_5  (8,2)  (9,1)  (10,4)  (11,5)  (12,3)  (13,14)  (14,16)  (15,11)  (16,20)  (17,11)  (18,16)  (19,13)  (20,12)  (21,13)  (22,42)  (23,26)  (24,40) 
Branch_type_6  (5,4)  (6,12)  (7,24)  (8,32)  (9,31)  (10,66)  (11,52)  (12,81)  (13,89)  (14,108)  (15,87)  (16,94)  (17,70)  (18,48)  (19,106)  (20,53)  (21,105)  (22,138)  (23,72)  (24,97)  (25,4)  (47,46)  (64,1) 
Unique trigger count: 
BTB PER SET UNIQUE ADDR: 0 0 0 0 0 0 0 0 0 0 0 0 0 0 0 0 0 0 0 0 0 0 0 0 0 0 0 0 0 0 0 0 0 0 0 0 0 0 0 0 0 0 0 0 0 0 0 0 0 0 0 0 0 0 0 0 0 0 0 0 0 0 0 0 0 0 0 0 0 0 0 0 0 0 0 0 0 0 0 0 0 0 0 0 0 0 0 0 0 0 0 0 0 0 0 0 0 0 0 0 0 0 0 0 0 0 0 0 0 0 0 0 0 0 0 0 0 0 0 0 0 0 0 0 0 0 0 0 0 0 0 0 0 0 0 0 0 0 0 0 0 0 0 0 0 0 0 0 0 0 0 0 0 0 0 0 0 0 0 0 0 0 0 0 0 0 0 0 0 0 0 0 0 0 0 0 0 0 0 0 0 0 0 0 0 0 0 0 0 0 0 0 0 0 0 0 0 0 0 0 0 0 0 0 0 0 0 0 0 0 0 0 0 0 0 0 0 0 0 0 0 0 0 0 0 0 0 0 0 0 0 0 0 0 0 0 0 0 0 0 0 0 0 0 0 0 0 0 0 0 0 0 0 0 0 0 0 0 0 0 0 0 0 0 0 0 0 0 0 0 0 0 0 0 0 0 0 0 0 0 0 0 0 0 0 0 0 0 0 0 0 0 0 0 0 0 0 0 0 0 0 0 0 0 0 0 0 0 0 0 0 0 0 0 0 0 0 0 0 0 0 0 0 0 0 0 0 0 0 0 0 0 0 0 0 0 0 0 0 0 0 0 0 0 0 0 0 0 0 0 0 0 0 0 0 0 0 0 0 0 0 0 0 0 0 0 0 0 0 0 0 0 0 0 0 0 0 0 0 0 0 0 0 0 0 0 0 0 0 0 0 0 0 0 0 0 0 0 0 0 0 0 0 0 0 0 0 0 0 0 0 0 0 0 0 0 0 0 0 0 0 0 0 0 0 0 0 0 0 0 0 0 0 0 0 0 0 0 0 0 0 0 0 0 0 0 0 0 0 0 0 0 0 0 0 0 0 0 0 0 0 0 0 0 0 0 0 0 0 0 0 0 0 0 0 0 0 0 0 0 0 0 0 0 0 0 0 0 0 0 0 0 0 0 0 0 0 0 0 0 0 0 0 0 0 0 0 0 0 0 0 0 0 0 0 0 0 0 0 0 0 0 0 0 0 0 0 0 0 0 0 0 0 0 0 0 0 0 0 0 0 0 0 0 0 0 0 0 0 0 0 0 0 0 0 0 0 0 0 0 0 0 0 0 0 0 0 0 0 0 0 0 0 0 0 0 0 0 0 0 0 0 0 0 0 0 0 0 0 0 0 0 0 0 0 0 0 0 0 0 0 0 0 0 0 0 0 0 0 0 0 0 0 0 0 0 0 0 0 0 0 0 0 0 0 0 0 0 0 0 0 0 0 0 0 0 0 0 0 0 0 0 0 0 0 0 0 0 0 0 0 0 0 0 0 0 0 0 0 0 0 0 0 0 0 0 0 0 0 0 0 0 0 0 0 0 0 0 0 0 0 0 0 0 0 0 0 0 0 0 0 0 0 0 0 0 0 0 0 0 0 0 0 0 0 0 0 0 0 0 0 0 0 0 0 0 0 0 0 0 0 0 0 0 0 0 0 0 0 0 0 0 0 0 0 0 0 0 0 0 0 0 0 0 0 0 0 0 0 0 0 0 0 0 0 0 0 0 0 0 0 0 0 0 0 0 0 0 0 0 0 0 0 0 0 0 0 0 0 0 0 0 0 0 0 0 0 0 0 0 0 0 0 0 0 0 0 0 0 0 0 0 0 0 0 0 0 0 0 0 0 0 0 0 0 0 0 0 0 0 0 0 0 0 0 0 0 0 0 0 0 0 0 0 0 0 0 0 0 0 0 0 0 0 0 0 0 0 0 0 0 0 0 0 0 0 0 0 0 0 0 0 0 0 0 0 0 0 0 0 0 0 0 0 0 0 0 0 0 0 0 0 0 0 0 0 0 0 0 0 0 0 0 0 0 0 0 0 0 0 0 0 0 0 0 0 0 0 0 0 0 0 0 0 0 0 0 0 0 0 0 0 0 0 0 0 0 0 0 0 0 0 0 0 0 0 0 0 0 0 0 0 0 0 0 0 0 0 0 0 0 0 0 0 0 0 0 0 0 0 0 0 0 0 0 0 0 0 0 0 0 0 0 0 0 0 0 0 0 0 0 0 0 0 0 0 0 0 0 0 0 0 0 0 0 0 0 0 0 0 0 0 0 0 0 0 0 0 0 0 0 0 0 0 0 0 0 0 0 0 0 0 0 0 0 0 0 0 0 0 0 0 0 0 0 0 0 0 0 0 0 0 0 0 0 0 0 0 0 0 0 0 0 0 0 0 0 0 0 0 0 0 0 0 0 0 0 0 0 0 0 0 0 0 0 0 0 0 0 0 0 0 0 0 0 0 0 0 0 0 0 0 0 0 0 0 0 0 0 0 0 0 0 0 0 0 0 0 0 0 0 0 0 0 0 0 0 0 0 0 0 0 0 0 0 0 0 0 0 0 0 0 0 0 0 0 0 0 0 0 0 0 0 0 0 0 0 0 0 0 0 0 0 0 0 0 0 0 0 0 0 0 0 0 0 0 0 0 0 0 0 0 0 0 0 0 0 0 0 0 0 0 0 0 0 0 0 0 0 0 0 0 0 0 0 0 0 0 0 0 0 0 0 0 0 0 0 0 0 0 0 0 0 0 0 0 0 0 0 0 0 0 0 0 0 0 0 0 0 0 0 0 0 0 0 0 0 0 0 0 0 0 0 0 0 0 0 0 0 0 0 0 0 0 0 0 0 0 0 0 0 0 0 0 0 0 0 0 0 0 0 0 0 0 0 0 0 0 0 0 0 0 0 0 0 0 0 0 0 0 0 0 0 0 0 0 0 0 0 0 0 0 0 0 0 0 0 0 0 0 0 0 0 0 0 0 0 0 0 0 0 0 0 0 0 0 0 0 0 0 0 0 0 0 0 0 0 0 0 0 0 0 0 0 0 0 0 0 0 0 0 0 0 0 0 0 0 0 0 0 0 0 0 0 0 0 0 0 0 0 0 0 0 0 0 0 0 0 0 0 0 0 0 0 0 0 0 0 0 0 0 0 0 0 0 0 0 0 0 0 0 0 0 0 0 0 0 0 0 0 0 0 0 0 0 0 0 0 0 0 0 0 0 0 0 0 0 0 0 0 0 0 0 0 0 0 0 0 0 0 0 0 0 0 0 0 0 0 0 0 0 0 0 0 0 0 0 0 0 0 0 0 0 0 0 0 0 0 0 0 0 0 0 0 0 0 0 0 0 0 0 0 0 0 0 0 0 0 0 0 0 0 0 0 0 0 0 0 0 0 0 0 0 0 0 0 0 0 0 0 0 0 0 0 0 0 0 0 0 0 0 0 0 0 0 0 0 0 0 0 0 0 0 0 0 0 0 0 0 0 0 0 0 0 0 0 0 0 0 0 0 0 0 0 0 0 0 0 0 0 0 0 0 0 0 0 0 0 0 0 0 0 0 0 0 0 0 0 0 0 0 0 0 0 0 0 0 0 0 0 0 0 0 0 0 0 0 0 0 0 0 0 0 0 0 0 0 0 0 0 0 0 0 0 0 0 0 0 0 0 0 0 0 0 0 0 0 0 0 0 0 0 0 0 0 0 0 0 0 0 0 0 0 0 0 0 0 0 0 0 0 0 0 0 0 0 0 0 0 0 0 0 0 0 0 0 0 0 0 0 0 0 0 0 0 0 0 0 0 0 0 0 0 0 0 0 0 0 0 0 0 0 0 0 0 0 0 0 0 0 0 0 0 0 0 0 0 0 0 0 0 0 0 0 0 0 0 0 0 0 0 0 0 0 0 0 0 0 0 0 0 0 0 0 0 0 0 0 0 0 0 0 0 0 0 0 0 0 0 0 0 0 0 0 0 0 0 0 0 0 0 0 0 0 0 0 0 0 0 0 0 0 0 0 0 0 0 0 0 0 0 0 0 0 0 0 0 0 0 0 0 0 0 0 0 0 0 0 0 0 0 0 0 0 0 0 0 0 0 0 0 0 0 0 0 0 0 0 0 0 0 0 0 0 0 0 0 0 0 0 0 0 0 0 0 0 0 0 0 0 0 0 0 0 0 0 0 0 0 0 0 0 0 0 0 0 0 0 0 0 0 0 0 0 0 0 0 0 0 0 0 0 0 0 0 0 0 0 0 0 0 0 0 0 0 0 0 0 0 0 0 0 0 0 0 0 0 0 0 0 0 0 0 0 0 0 0 0 0 0 0 0 0 0 0 0 0 0 0 0 0 0 0 0 0 0 0 0 0 0 0 0 0 0 0 0 0 0 0 0 0 0 0 0 0 0 0 0 0 0 0 0 0 0 0 0 0 0 0 0 0 0 0 0 0 0 0 0 0 0 0 0 0 0 0 0 0 0 0 0 0 0 0 0 0 0 0 0 0 0 0 0 0 0 0 0 0 0 0 0 0 0 0 0 0 0 0 0 0 0 0 0 0 0 0 0 0 0 0 0 0 0 0 0 0 0 0 0 0 0 0 0 0 0 0 0 0 0 0 0 0 0 0 0 0 0 0 0 
BTB PER SET COUNT: 0 0 0 0 0 0 0 0 0 0 0 0 0 0 0 0 0 0 0 0 0 0 0 0 0 0 0 0 0 0 0 0 0 0 0 0 0 0 0 0 0 0 0 0 0 0 0 0 0 0 0 0 0 0 0 0 0 0 0 0 0 0 0 0 0 0 0 0 0 0 0 0 0 0 0 0 0 0 0 0 0 0 0 0 0 0 0 0 0 0 0 0 0 0 0 0 0 0 0 0 0 0 0 0 0 0 0 0 0 0 0 0 0 0 0 0 0 0 0 0 0 0 0 0 0 0 0 0 0 0 0 0 0 0 0 0 0 0 0 0 0 0 0 0 0 0 0 0 0 0 0 0 0 0 0 0 0 0 0 0 0 0 0 0 0 0 0 0 0 0 0 0 0 0 0 0 0 0 0 0 0 0 0 0 0 0 0 0 0 0 0 0 0 0 0 0 0 0 0 0 0 0 0 0 0 0 0 0 0 0 0 0 0 0 0 0 0 0 0 0 0 0 0 0 0 0 0 0 0 0 0 0 0 0 0 0 0 0 0 0 0 0 0 0 0 0 0 0 0 0 0 0 0 0 0 0 0 0 0 0 0 0 0 0 0 0 0 0 0 0 0 0 0 0 0 0 0 0 0 0 0 0 0 0 0 0 0 0 0 0 0 0 0 0 0 0 0 0 0 0 0 0 0 0 0 0 0 0 0 0 0 0 0 0 0 0 0 0 0 0 0 0 0 0 0 0 0 0 0 0 0 0 0 0 0 0 0 0 0 0 0 0 0 0 0 0 0 0 0 0 0 0 0 0 0 0 0 0 0 0 0 0 0 0 0 0 0 0 0 0 0 0 0 0 0 0 0 0 0 0 0 0 0 0 0 0 0 0 0 0 0 0 0 0 0 0 0 0 0 0 0 0 0 0 0 0 0 0 0 0 0 0 0 0 0 0 0 0 0 0 0 0 0 0 0 0 0 0 0 0 0 0 0 0 0 0 0 0 0 0 0 0 0 0 0 0 0 0 0 0 0 0 0 0 0 0 0 0 0 0 0 0 0 0 0 0 0 0 0 0 0 0 0 0 0 0 0 0 0 0 0 0 0 0 0 0 0 0 0 0 0 0 0 0 0 0 0 0 0 0 0 0 0 0 0 0 0 0 0 0 0 0 0 0 0 0 0 0 0 0 0 0 0 0 0 0 0 0 0 0 0 0 0 0 0 0 0 0 0 0 0 0 0 0 0 0 0 0 0 0 0 0 0 0 0 0 0 0 0 0 0 0 0 0 0 0 0 0 0 0 0 0 0 0 0 0 0 0 0 0 0 0 0 0 0 0 0 0 0 0 0 0 0 0 0 0 0 0 0 0 0 0 0 0 0 0 0 0 0 0 0 0 0 0 0 0 0 0 0 0 0 0 0 0 0 0 0 0 0 0 0 0 0 0 0 0 0 0 0 0 0 0 0 0 0 0 0 0 0 0 0 0 0 0 0 0 0 0 0 0 0 0 0 0 0 0 0 0 0 0 0 0 0 0 0 0 0 0 0 0 0 0 0 0 0 0 0 0 0 0 0 0 0 0 0 0 0 0 0 0 0 0 0 0 0 0 0 0 0 0 0 0 0 0 0 0 0 0 0 0 0 0 0 0 0 0 0 0 0 0 0 0 0 0 0 0 0 0 0 0 0 0 0 0 0 0 0 0 0 0 0 0 0 0 0 0 0 0 0 0 0 0 0 0 0 0 0 0 0 0 0 0 0 0 0 0 0 0 0 0 0 0 0 0 0 0 0 0 0 0 0 0 0 0 0 0 0 0 0 0 0 0 0 0 0 0 0 0 0 0 0 0 0 0 0 0 0 0 0 0 0 0 0 0 0 0 0 0 0 0 0 0 0 0 0 0 0 0 0 0 0 0 0 0 0 0 0 0 0 0 0 0 0 0 0 0 0 0 0 0 0 0 0 0 0 0 0 0 0 0 0 0 0 0 0 0 0 0 0 0 0 0 0 0 0 0 0 0 0 0 0 0 0 0 0 0 0 0 0 0 0 0 0 0 0 0 0 0 0 0 0 0 0 0 0 0 0 0 0 0 0 0 0 0 0 0 0 0 0 0 0 0 0 0 0 0 0 0 0 0 0 0 0 0 0 0 0 0 0 0 0 0 0 0 0 0 0 0 0 0 0 0 0 0 0 0 0 0 0 0 0 0 0 0 0 0 0 0 0 0 0 0 0 0 0 0 0 0 0 0 0 0 0 0 0 0 0 0 0 0 0 0 0 0 0 0 0 0 0 0 0 0 0 0 0 0 0 0 0 0 0 0 0 0 0 0 0 0 0 0 0 0 0 0 0 0 0 0 0 0 0 0 0 0 0 0 0 0 0 0 0 0 0 0 0 0 0 0 0 0 0 0 0 0 0 0 0 0 0 0 0 0 0 0 0 0 0 0 0 0 0 0 0 0 0 0 0 0 0 0 0 0 0 0 0 0 0 0 0 0 0 0 0 0 0 0 0 0 0 0 0 0 0 0 0 0 0 0 0 0 0 0 0 0 0 0 0 0 0 0 0 0 0 0 0 0 0 0 0 0 0 0 0 0 0 0 0 0 0 0 0 0 0 0 0 0 0 0 0 0 0 0 0 0 0 0 0 0 0 0 0 0 0 0 0 0 0 0 0 0 0 0 0 0 0 0 0 0 0 0 0 0 0 0 0 0 0 0 0 0 0 0 0 0 0 0 0 0 0 0 0 0 0 0 0 0 0 0 0 0 0 0 0 0 0 0 0 0 0 0 0 0 0 0 0 0 0 0 0 0 0 0 0 0 0 0 0 0 0 0 0 0 0 0 0 0 0 0 0 0 0 0 0 0 0 0 0 0 0 0 0 0 0 0 0 0 0 0 0 0 0 0 0 0 0 0 0 0 0 0 0 0 0 0 0 0 0 0 0 0 0 0 0 0 0 0 0 0 0 0 0 0 0 0 0 0 0 0 0 0 0 0 0 0 0 0 0 0 0 0 0 0 0 0 0 0 0 0 0 0 0 0 0 0 0 0 0 0 0 0 0 0 0 0 0 0 0 0 0 0 0 0 0 0 0 0 0 0 0 0 0 0 0 0 0 0 0 0 0 0 0 0 0 0 0 0 0 0 0 0 0 0 0 0 0 0 0 0 0 0 0 0 0 0 0 0 0 0 0 0 0 0 0 0 0 0 0 0 0 0 0 0 0 0 0 0 0 0 0 0 0 0 0 0 0 0 0 0 0 0 0 0 0 0 0 0 0 0 0 0 0 0 0 0 0 0 0 0 0 0 0 0 0 0 0 0 0 0 0 0 0 0 0 0 0 0 0 0 0 0 0 0 0 0 0 0 0 0 0 0 0 0 0 0 0 0 0 0 0 0 0 0 0 0 0 0 0 0 0 0 0 0 0 0 0 0 0 0 0 0 0 0 0 0 0 0 0 0 0 0 0 0 0 0 0 0 0 0 0 0 0 0 0 0 0 0 0 0 0 0 0 0 0 0 0 0 0 0 0 0 0 0 0 0 0 0 0 0 0 0 0 0 0 0 0 0 0 0 0 0 0 0 0 0 0 0 0 0 0 0 0 0 0 0 0 0 0 0 0 0 0 0 0 0 0 0 0 0 0 0 0 0 0 0 0 0 0 0 0 0 0 0 0 0 0 0 0 0 0 0 0 0 0 0 0 0 0 0 0 0 0 0 0 0 0 0 0 0 0 0 0 0 0 0 0 0 0 0 0 0 0 0 0 0 0 0 0 0 0 0 0 0 0 0 0 0 0 0 0 0 0 0 0 0 0 0 0 0 0 0 0 0 0 0 0 0 0 0 0 0 0 0 0 0 0 0 0 0 0 0 0 0 0 0 0 0 0 0 0 0 0 0 0 0 0 0 0 0 0 0 0 0 0 0 0 0 0 0 0 0 0 0 0 0 0 0 0 0 0 0 0 0 0 0 0 0 0 0 0 0 0 0 0 0 0 0 0 0 0 0 0 0 0 0 0 0 0 0 0 0 0 0 0 0 0 0 0 0 0 0 0 0 0 0 0 0 0 0 0 0 0 0 0 0 0 0 0 0 0 0 0 0 0 0 0 0 0 0 0 0 0 0 0 0 0 0 0 0 0 0 0 0 0 0 0 0 0 0 0 0 0 0 0 0 0 0 0 0 0 0 0 0 0 0 0 0 0 0 0 0 0 0 0 0 0 0 0 0 0 0 0 0 0 0 0 0 0 0 0 0 0 0 0 0 0 0 0 0 0 0 0 0 0 0 0 0 0 0 0 0 0 0 0 0 0 0 0 0 0 0 0 0 0 0 0 0 0 0 0 0 0 0 0 0 0 0 0 0 0 0 0 0 0 0 0 0 0 0 0 0 0 0 0 0 0 0 0 0 0 0 0 0 0 0 0 0 0 0 0 0 0 0 0 0 0 0 0 0 0 0 0 0 0 0 0 0 0 0 0 0 0 0 0 0 0 0 0 0 0 0 0 0 0 0 0 0 0 0 0 0 0 0 0 0 0 0 0 0 0 0 0 0 0 0 0 0 0 0 0 0 0 0 0 0 0 0 0 0 0 0 0 0 0 0 0 0 0 0 0 0 0 0 0 0 0 0 0 0 
