
*** ChampSim Multicore Out-of-Order Simulator ***

Warmup Instructions: 50000000
Simulation Instructions: 50000000
Number of CPUs: 1
LLC sets: 2048
LLC ways: 16
Off-chip DRAM Size: 4096 MB Channels: 1 Width: 64-bit Data Rate: 6400 MT/s
CPU 0 runs ./micro_traces/srv19.trace.gz
.gz
ITLB has LRU replacement policy
DTLB has LRU replacement policy
STLB has LRU replacement policy
CPU 0 L1I next line prefetcher
./conditional/srv19.cond
L1I has LRU replacement policy
L1D has LRU replacement policy
Initialize SRRIP state for L2C
Initialize DRRIP state for LLC
Heartbeat_Variant_0 : 1334 0.325684 per_variant_size: 0 1334 0 0 0 0 0 0 0 
Heartbeat_Variant_1 : 1222 0.29834 per_variant_size: 0 582 640 0 0 0 0 0 0 
Heartbeat_Variant_2 : 1313 0.320557 per_variant_size: 0 508 365 331 109 0 0 0 0 
Heartbeat_Variant_3 : 0 0 per_variant_size: 0 0 0 0 0 0 0 0 0 
Heartbeat_Variant_0_evicts 0 : 5818 1 : 234 2 : 273 3 : 0 
Heartbeat_Variant_1_evicts 0 : 213 1 : 0 2 : 436 3 : 0 
Heartbeat_Variant_2_evicts 0 : 253 1 : 435 2 : 0 3 : 0 
Heartbeat_Variant_3_evicts 0 : 0 1 : 0 2 : 0 3 : 0 
Heartbeat CPU 0 instructions: 10000003 cycles: 2797040 heartbeat IPC: 3.57521 cumulative IPC: 3.57521 (Simulation time: 0 hr 1 min 46 sec) 
Heartbeat_Variant_0 : 1347 0.328857 per_variant_size: 0 1347 0 0 0 0 0 0 0 
Heartbeat_Variant_1 : 1234 0.30127 per_variant_size: 0 571 663 0 0 0 0 0 0 
Heartbeat_Variant_2 : 1327 0.323975 per_variant_size: 0 513 368 345 101 0 0 0 0 
Heartbeat_Variant_3 : 0 0 per_variant_size: 0 0 0 0 0 0 0 0 0 
Heartbeat_Variant_0_evicts 0 : 5671 1 : 66 2 : 67 3 : 0 
Heartbeat_Variant_1_evicts 0 : 61 1 : 0 2 : 300 3 : 0 
Heartbeat_Variant_2_evicts 0 : 69 1 : 297 2 : 0 3 : 0 
Heartbeat_Variant_3_evicts 0 : 0 1 : 0 2 : 0 3 : 0 
Heartbeat CPU 0 instructions: 20000002 cycles: 5594454 heartbeat IPC: 3.57473 cumulative IPC: 3.57497 (Simulation time: 0 hr 3 min 29 sec) 
Heartbeat_Variant_0 : 1347 0.328857 per_variant_size: 0 1347 0 0 0 0 0 0 0 
Heartbeat_Variant_1 : 1235 0.301514 per_variant_size: 0 571 664 0 0 0 0 0 0 
Heartbeat_Variant_2 : 1328 0.324219 per_variant_size: 0 512 370 348 98 0 0 0 0 
Heartbeat_Variant_3 : 0 0 per_variant_size: 0 0 0 0 0 0 0 0 0 
Heartbeat_Variant_0_evicts 0 : 5619 1 : 3 2 : 3 3 : 0 
Heartbeat_Variant_1_evicts 0 : 3 1 : 0 2 : 249 3 : 0 
Heartbeat_Variant_2_evicts 0 : 4 1 : 249 2 : 0 3 : 0 
Heartbeat_Variant_3_evicts 0 : 0 1 : 0 2 : 0 3 : 0 
Heartbeat CPU 0 instructions: 30000001 cycles: 8391273 heartbeat IPC: 3.57549 cumulative IPC: 3.57514 (Simulation time: 0 hr 5 min 9 sec) 
Heartbeat_Variant_0 : 1392 0.339844 per_variant_size: 0 1392 0 0 0 0 0 0 0 
Heartbeat_Variant_1 : 1290 0.314941 per_variant_size: 0 562 728 0 0 0 0 0 0 
Heartbeat_Variant_2 : 1351 0.329834 per_variant_size: 0 493 371 391 96 0 0 0 0 
Heartbeat_Variant_3 : 0 0 per_variant_size: 0 0 0 0 0 0 0 0 0 
Heartbeat_Variant_0_evicts 0 : 5885 1 : 441 2 : 451 3 : 0 
Heartbeat_Variant_1_evicts 0 : 446 1 : 0 2 : 644 3 : 0 
Heartbeat_Variant_2_evicts 0 : 436 1 : 646 2 : 0 3 : 0 
Heartbeat_Variant_3_evicts 0 : 0 1 : 0 2 : 0 3 : 0 
Heartbeat CPU 0 instructions: 40000002 cycles: 11188193 heartbeat IPC: 3.57536 cumulative IPC: 3.5752 (Simulation time: 0 hr 6 min 50 sec) 
Heartbeat_Variant_0 : 1391 0.3396 per_variant_size: 0 1391 0 0 0 0 0 0 0 
Heartbeat_Variant_1 : 1294 0.315918 per_variant_size: 0 563 731 0 0 0 0 0 0 
Heartbeat_Variant_2 : 1350 0.32959 per_variant_size: 0 487 379 381 103 0 0 0 0 
Heartbeat_Variant_3 : 0 0 per_variant_size: 0 0 0 0 0 0 0 0 0 
Heartbeat_Variant_0_evicts 0 : 5594 1 : 14 2 : 12 3 : 0 
Heartbeat_Variant_1_evicts 0 : 15 1 : 0 2 : 263 3 : 0 
Heartbeat_Variant_2_evicts 0 : 13 1 : 260 2 : 0 3 : 0 
Heartbeat_Variant_3_evicts 0 : 0 1 : 0 2 : 0 3 : 0 
Heartbeat CPU 0 instructions: 50000003 cycles: 13984608 heartbeat IPC: 3.57601 cumulative IPC: 3.57536 (Simulation time: 0 hr 8 min 33 sec) 

Warmup complete CPU 0 instructions: 50000003 cycles: 13984608 (Simulation time: 0 hr 8 min 33 sec) 

Cycle: 20000000 FTQ IN: 58089299 FTQ occupancy: 19.4732 DECODE IN: 58089281 DECODE occupancy: 50.8522 ROB IN: 58089276 ROB occupancy: 311.258 ROB OUT: 58089251
Heartbeat_Variant_0 : 1403 0.342529 per_variant_size: 0 1403 0 0 0 0 0 0 0 
Heartbeat_Variant_1 : 1300 0.317383 per_variant_size: 0 569 731 0 0 0 0 0 0 
Heartbeat_Variant_2 : 1349 0.329346 per_variant_size: 0 481 358 395 115 0 0 0 0 
Heartbeat_Variant_3 : 0 0 per_variant_size: 0 0 0 0 0 0 0 0 0 
Heartbeat_Variant_0_evicts 0 : 5672 1 : 136 2 : 139 3 : 0 
Heartbeat_Variant_1_evicts 0 : 135 1 : 0 2 : 369 3 : 0 
Heartbeat_Variant_2_evicts 0 : 133 1 : 367 2 : 0 3 : 0 
Heartbeat_Variant_3_evicts 0 : 0 1 : 0 2 : 0 3 : 0 
Heartbeat CPU 0 instructions: 60000002 cycles: 21401533 heartbeat IPC: 1.34827 cumulative IPC: 1.34827 (Simulation time: 0 hr 10 min 25 sec) 
Heartbeat_Variant_0 : 1401 0.342041 per_variant_size: 0 1401 0 0 0 0 0 0 0 
Heartbeat_Variant_1 : 1303 0.318115 per_variant_size: 0 575 728 0 0 0 0 0 0 
Heartbeat_Variant_2 : 1348 0.329102 per_variant_size: 0 483 359 395 111 0 0 0 0 
Heartbeat_Variant_3 : 0 0 per_variant_size: 0 0 0 0 0 0 0 0 0 
Heartbeat_Variant_0_evicts 0 : 5679 1 : 24 2 : 31 3 : 0 
Heartbeat_Variant_1_evicts 0 : 22 1 : 0 2 : 266 3 : 0 
Heartbeat_Variant_2_evicts 0 : 35 1 : 261 2 : 0 3 : 0 
Heartbeat_Variant_3_evicts 0 : 0 1 : 0 2 : 0 3 : 0 
Heartbeat CPU 0 instructions: 70000000 cycles: 28662466 heartbeat IPC: 1.37723 cumulative IPC: 1.3626 (Simulation time: 0 hr 12 min 9 sec) 
Cycle: 30000000 FTQ IN: 13765281 FTQ occupancy: 11.2801 DECODE IN: 13765299 DECODE occupancy: 29.8353 ROB IN: 13765304 ROB occupancy: 229.297 ROB OUT: 13765128
Heartbeat_Variant_0 : 1405 0.343018 per_variant_size: 0 1405 0 0 0 0 0 0 0 
Heartbeat_Variant_1 : 1292 0.31543 per_variant_size: 0 554 738 0 0 0 0 0 0 
Heartbeat_Variant_2 : 1359 0.331787 per_variant_size: 0 482 364 395 118 0 0 0 0 
Heartbeat_Variant_3 : 0 0 per_variant_size: 0 0 0 0 0 0 0 0 0 
Heartbeat_Variant_0_evicts 0 : 5742 1 : 70 2 : 87 3 : 0 
Heartbeat_Variant_1_evicts 0 : 66 1 : 0 2 : 305 3 : 0 
Heartbeat_Variant_2_evicts 0 : 87 1 : 314 2 : 0 3 : 0 
Heartbeat_Variant_3_evicts 0 : 0 1 : 0 2 : 0 3 : 0 
Heartbeat CPU 0 instructions: 80000001 cycles: 36032254 heartbeat IPC: 1.35689 cumulative IPC: 1.36069 (Simulation time: 0 hr 14 min 0 sec) 
Cycle: 40000000 FTQ IN: 13595293 FTQ occupancy: 11.3797 DECODE IN: 13595293 DECODE occupancy: 29.9106 ROB IN: 13595293 ROB occupancy: 228.826 ROB OUT: 13595449
Heartbeat_Variant_0 : 1406 0.343262 per_variant_size: 0 1406 0 0 0 0 0 0 0 
Heartbeat_Variant_1 : 1293 0.315674 per_variant_size: 0 555 738 0 0 0 0 0 0 
Heartbeat_Variant_2 : 1359 0.331787 per_variant_size: 0 482 364 396 117 0 0 0 0 
Heartbeat_Variant_3 : 0 0 per_variant_size: 0 0 0 0 0 0 0 0 0 
Heartbeat_Variant_0_evicts 0 : 5682 1 : 37 2 : 30 3 : 0 
Heartbeat_Variant_1_evicts 0 : 37 1 : 0 2 : 268 3 : 0 
Heartbeat_Variant_2_evicts 0 : 30 1 : 267 2 : 0 3 : 0 
Heartbeat_Variant_3_evicts 0 : 0 1 : 0 2 : 0 3 : 0 
Heartbeat CPU 0 instructions: 90000001 cycles: 43280341 heartbeat IPC: 1.37967 cumulative IPC: 1.36539 (Simulation time: 0 hr 15 min 43 sec) 
Cycle: 50000000 FTQ IN: 13683970 FTQ occupancy: 11.37 DECODE IN: 13683849 DECODE occupancy: 30.0263 ROB IN: 13683789 ROB occupancy: 229.843 ROB OUT: 13683482
Heartbeat_Variant_0 : 1409 0.343994 per_variant_size: 0 1409 0 0 0 0 0 0 0 
Heartbeat_Variant_1 : 1293 0.315674 per_variant_size: 0 560 733 0 0 0 0 0 0 
Heartbeat_Variant_2 : 1359 0.331787 per_variant_size: 0 484 358 411 106 0 0 0 0 
Heartbeat_Variant_3 : 0 0 per_variant_size: 0 0 0 0 0 0 0 0 0 
Heartbeat_Variant_0_evicts 0 : 5565 1 : 41 2 : 38 3 : 0 
Heartbeat_Variant_1_evicts 0 : 42 1 : 0 2 : 283 3 : 0 
Heartbeat_Variant_2_evicts 0 : 34 1 : 285 2 : 0 3 : 0 
Heartbeat_Variant_3_evicts 0 : 0 1 : 0 2 : 0 3 : 0 
Heartbeat CPU 0 instructions: 100000002 cycles: 50633160 heartbeat IPC: 1.36002 cumulative IPC: 1.36431 (Simulation time: 0 hr 17 min 28 sec) 
Finished CPU 0 instructions: 50000003 cycles: 36648553 cumulative IPC: 1.36431 (Simulation time: 0 hr 17 min 28 sec) 

ChampSim completed all CPUs

Region of Interest Statistics

CPU 0 cumulative IPC: 1.36431 instructions: 50000003 cycles: 36648553
 Fetch stage stalled: 57.039  Sim cycles: 36648553 fetch stall cycle: 20903968
 Empty decode stage: 41.3505  Sim cycles: 36648553 fetch stall cycle: 15154346
ITLB TOTAL     ACCESS:    6887488  HIT:    6381874  MISS:     505614  HIT %:    92.6589  MISS %:    7.34105   MPKI: 10.1123
ITLB LOAD TRANSLATION INSTRUCTION	ACCESS:    5663857  HIT:    5178492  MISS:     485365  HIT %:    91.4305  MISS %:    8.56951  MPKI: 9.7073
ITLB TRANSLATION FROM L1D PREFETCHER INSTRUCTION	ACCESS:    1223631  HIT:    1203382  MISS:      20249  HIT %:    98.3452  MISS %:    1.65483  MPKI: 0.40498

ITLB AVERAGE MISS LATENCY: 65911.9 cycles
ITLB RQ	ACCESS:   10141286	FORWARD:          0	MERGED:    2776923	TO_CACHE:    7364363

DTLB TOTAL     ACCESS:    8983232  HIT:    8512073  MISS:     471159  HIT %:    94.7551  MISS %:    5.24487   MPKI: 9.42318
DTLB LOAD TRANSLATION DATA	ACCESS:    8983232  HIT:    8512073  MISS:     471159  HIT %:    94.7551  MISS %:    5.24487  MPKI: 9.42318

DTLB AVERAGE MISS LATENCY: 9.33352 cycles
DTLB RQ	ACCESS:   13355626	FORWARD:          0	MERGED:    4336051	TO_CACHE:    9019575

STLB TOTAL     ACCESS:    1227651  HIT:    1225284  MISS:       2367  HIT %:    99.8072  MISS %:   0.192807   MPKI: 0.04734
STLB LOAD TRANSLATION INSTRUCTION	ACCESS:     484325  HIT:     483853  MISS:        472  HIT %:    99.9025  MISS %:  0.0974552  MPKI: 0.00944
STLB TRANSLATION FROM L1D PREFETCHER INSTRUCTION	ACCESS:      21289  HIT:      21193  MISS:         96  HIT %:    99.5491  MISS %:   0.450937  MPKI: 0.00192
STLB LOAD TRANSLATION DATA	ACCESS:     471158  HIT:     469391  MISS:       1767  HIT %:     99.625  MISS %:   0.375033  MPKI: 0.03534
STLB TRANSLATION FROM L1D PREFETCHER DATA	ACCESS:     250879  HIT:     250847  MISS:         32  HIT %:    99.9872  MISS %:  0.0127552  MPKI: 0.00064

STLB AVERAGE MISS LATENCY: 69.0296 cycles
STLB RQ	ACCESS:    1376819	FORWARD:          0	MERGED:     119526	TO_CACHE:    1257293

STLB Hit, L1D data hit: 0
STLB Hit, L2C data hit: 0
STLB Hit, LLC data hit: 0
STLB Hit, LLC data miss: 0
STLB STLB hints to L2: 0
L1D TOTAL     ACCESS:   13095087  HIT:   11981414  MISS:    1113673  HIT %:    91.4955  MISS %:    8.50451   MPKI: 22.2735
L1D LOAD DATA	ACCESS:    6562606  HIT:    5831097  MISS:     731509  HIT %:    88.8534  MISS %:    11.1466  MPKI: 14.6302
L1D RFO DATA	ACCESS:    6202121  HIT:    5914211  MISS:     287910  HIT %:    95.3579  MISS %:    4.64212  MPKI: 5.7582
L1D PREFETCH DATA	ACCESS:     330360  HIT:     236106  MISS:      94254  HIT %:    71.4693  MISS %:    28.5307  MPKI: 1.88508

L1D PREFETCH  REQUESTED:     741264  ISSUED:     741264  USEFUL:      34034  USELESS:      68868
L1D USEFUL LOAD PREFETCHES:      34034 PREFETCH ISSUED TO LOWER LEVEL:     103005  ACCURACY: 33.0411
 TIMELY PREFETCHES:      34034 LATE PREFETCHES: 8668 DROPPED PREFETCHES: 9
L1D AVERAGE MISS LATENCY: 254759 cycles
L1D RQ	ACCESS:   10712338	FORWARD:          0	MERGED:    3944996	TO_CACHE:    6601672
L1D WQ	ACCESS:    6952040	FORWARD:     166064	MERGED:     198086	TO_CACHE:    6753954
L1D PQ	ACCESS:     370829	FORWARD:          0	MERGED:          0	TO_CACHE:     370435

L1D UNIQUE REGIONS ACCESSED: 0
L1D REGIONS CONFLICTS: 0
L1D Cross Page Prefetch Requests: 5924
L1D Same Page Prefetch Requests: 745013
L1D ROI Sum of L1D PQ occupancy: 4740874
L1D PREFETCHES PUSHED FROM L2C: 0
L1I TOTAL     ACCESS:    8774581  HIT:    5463319  MISS:    3311262  HIT %:     62.263  MISS %:     37.737   MPKI: 66.2252
L1I LOAD INSTRUCTION	ACCESS:    6564282  HIT:    4450663  MISS:    2113619  HIT %:    67.8012  MISS %:    32.1988  MPKI: 42.2724
L1I PREFETCH INSTRUCTION	ACCESS:    2210299  HIT:    1012656  MISS:    1197643  HIT %:    45.8153  MISS %:    54.1847  MPKI: 23.9529

L1I PREFETCH  REQUESTED:    3917870  ISSUED:    3914966  USEFUL:     938292  USELESS:     488014
L1I USEFUL LOAD PREFETCHES:     938292 PREFETCH ISSUED TO LOWER LEVEL:    1426331  ACCURACY: 65.7836
 TIMELY PREFETCHES:     938292 LATE PREFETCHES: 228697 DROPPED PREFETCHES: 68878
L1I AVERAGE MISS LATENCY: 2.2343e+06 cycles
L1I RQ	ACCESS:    9483921	FORWARD:          0	MERGED:    2721215	TO_CACHE:    6762706
L1I PQ	ACCESS:    3914966	FORWARD:          0	MERGED:     536386	TO_CACHE:    3378580

L1BTB TOTAL     ACCESS:    5668480  HIT:    2041142  MISS:    3627338  HIT %:    36.0086  MISS %:    63.9914   MPKI: 72.5468
L1BTB BRANCH_DIRECT_JUMP	ACCESS:     549171  HIT:     145471  MISS:     403700	AVERAGE STALL: 47.0425
L1BTB BRANCH_INDIRECT	ACCESS:     183366  HIT:      66272  MISS:     117094	AVERAGE STALL: 99.8351
L1BTB BRANCH_CONDITIONAL	ACCESS:    2708572  HIT:    1415822  MISS:    1292750	AVERAGE STALL: 54.4898
L1BTB BRANCH_DIRECT_CALL	ACCESS:     942385  HIT:     104202  MISS:     838183	AVERAGE STALL: 64.9282
L1BTB BRANCH_INDIRECT_CALL	ACCESS:     171301  HIT:      20849  MISS:     150452	AVERAGE STALL: 123.708
L1BTB BRANCH_RETURN	ACCESS:    1113685  HIT:     288526  MISS:     825159	AVERAGE STALL: 44.9131
L1BTB BRANCH_OTHER ACCESS:          0  HIT:          0  MISS:          0	AVERAGE STALL: -nan
L1BTB TOTAL ROB OCCUPANCY AT BTB MISS: 5.06491

L2BTB TOTAL     ACCESS:    3601866  HIT:    3494497  MISS:     107369  HIT %:    97.0191  MISS %:    2.98093   MPKI: 2.14738
L2BTB BRANCH_DIRECT_JUMP	ACCESS:     399495  HIT:     394576  MISS:       4919	AVERAGE STALL: 47.0425
L2BTB BRANCH_INDIRECT	ACCESS:     106820  HIT:     104158  MISS:       2662	AVERAGE STALL: 99.8351
L2BTB BRANCH_CONDITIONAL	ACCESS:    1292750  HIT:    1266040  MISS:      26710	AVERAGE STALL: 54.4898
L2BTB BRANCH_DIRECT_CALL	ACCESS:     838183  HIT:     836906  MISS:       1277	AVERAGE STALL: 64.9282
L2BTB BRANCH_INDIRECT_CALL	ACCESS:     140861  HIT:     130627  MISS:      10234	AVERAGE STALL: 123.708
L2BTB BRANCH_RETURN	ACCESS:     823757  HIT:     762190  MISS:      61567	AVERAGE STALL: 44.9131
L2BTB BRANCH_OTHER ACCESS:          0  HIT:          0  MISS:          0	AVERAGE STALL: -nan
L2BTB TOTAL ROB OCCUPANCY AT BTB MISS: 171.112

L2C TOTAL     ACCESS:    5684921  HIT:    4887046  MISS:     797875  HIT %:    85.9651  MISS %:    14.0349   MPKI: 15.9575
L2C LOAD INSTRUCTION	ACCESS:    1884922  HIT:    1661370  MISS:     223552  HIT %:      88.14  MISS %:      11.86  MPKI: 4.47104
L2C PREFETCH INSTRUCTION	ACCESS:    1426339  HIT:    1254290  MISS:     172049  HIT %:    87.9377  MISS %:    12.0623  MPKI: 3.44098
L2C LOAD TRANSLATION INSTRUCTION	ACCESS:        513  HIT:        157  MISS:        356  HIT %:    30.6043  MISS %:    69.3957  MPKI: 0.00712
L2C TRANSLATION FROM L1D PREFETCHER INSTRUCTION	ACCESS:      38694  HIT:      24079  MISS:      14615  HIT %:    62.2293  MISS %:    37.7707  MPKI: 0.2923
L2C LOAD DATA	ACCESS:     722818  HIT:     605675  MISS:     117143  HIT %:    83.7936  MISS %:    16.2064  MPKI: 2.34286
L2C RFO DATA	ACCESS:     287797  HIT:     218962  MISS:      68835  HIT %:    76.0821  MISS %:    23.9179  MPKI: 1.3767
L2C PREFETCH DATA	ACCESS:     799089  HIT:     622526  MISS:     176563  HIT %:    77.9045  MISS %:    22.0955  MPKI: 3.53126
L2C WRITEBACK DATA	ACCESS:     522827  HIT:     499520  MISS:      23307  HIT %:    95.5421  MISS %:    4.45788  MPKI: 0.46614
L2C LOAD TRANSLATION DATA	ACCESS:       1871  HIT:        431  MISS:       1440  HIT %:    23.0358  MISS %:    76.9642  MPKI: 0.0288
L2C TRANSLATION FROM L1D PREFETCHER DATA	ACCESS:         51  HIT:         36  MISS:         15  HIT %:    70.5882  MISS %:    29.4118  MPKI: 0.0003

L2C PREFETCH  REQUESTED:    1493988  ISSUED:    1493988  USEFUL:      29282  USELESS:     336674
L2C USEFUL LOAD PREFETCHES:      29282 PREFETCH ISSUED TO LOWER LEVEL:     350572  ACCURACY: 8.35264
 TIMELY PREFETCHES:      29282 LATE PREFETCHES: 1960 DROPPED PREFETCHES: 0
L2C AVERAGE MISS LATENCY: 35.8901 cycles
L2C RQ	ACCESS:    2936719	FORWARD:          0	MERGED:          0	TO_CACHE:    2936666
L2C WQ	ACCESS:     522827	FORWARD:         53	MERGED:          0	TO_CACHE:     522827
L2C PQ	ACCESS:    3023324	FORWARD:          0	MERGED:     781757	TO_CACHE:    2241567

L2C Dense regions hint from L2: 0
PSCL5 TOTAL     ACCESS:      63978  HIT:      31989  MISS:      31989  HIT %:         50  MISS %:         50   MPKI: 0.63978
PSCL5 LOAD TRANSLATION INSTRUCTION	ACCESS:       4460  HIT:       2230  MISS:       2230  HIT %:         50  MISS %:         50  MPKI: 0.0446
PSCL5 TRANSLATION FROM L1D PREFETCHER INSTRUCTION	ACCESS:      59518  HIT:      29759  MISS:      29759  HIT %:         50  MISS %:         50  MPKI: 0.59518


PSCL4 TOTAL     ACCESS:      57002  HIT:      28498  MISS:      28504  HIT %:    49.9947  MISS %:    50.0053   MPKI: 0.57008
PSCL4 LOAD TRANSLATION INSTRUCTION	ACCESS:       3933  HIT:       2062  MISS:       1871  HIT %:    52.4282  MISS %:    47.5718  MPKI: 0.03742
PSCL4 TRANSLATION FROM L1D PREFETCHER INSTRUCTION	ACCESS:      52872  HIT:      26436  MISS:      26436  HIT %:         50  MISS %:         50  MPKI: 0.52872
PSCL4 LOAD TRANSLATION DATA	ACCESS:        197  HIT:          0  MISS:        197  HIT %:          0  MISS %:        100  MPKI: 0.00394


PSCL3 TOTAL     ACCESS:      61161  HIT:      30572  MISS:      30589  HIT %:    49.9861  MISS %:    50.0139   MPKI: 0.61178
PSCL3 LOAD TRANSLATION INSTRUCTION	ACCESS:       3058  HIT:       2158  MISS:        900  HIT %:     70.569  MISS %:     29.431  MPKI: 0.018
PSCL3 TRANSLATION FROM L1D PREFETCHER INSTRUCTION	ACCESS:      43926  HIT:      28414  MISS:      15512  HIT %:    64.6861  MISS %:    35.3139  MPKI: 0.31024
PSCL3 LOAD TRANSLATION DATA	ACCESS:       1275  HIT:          0  MISS:       1275  HIT %:          0  MISS %:        100  MPKI: 0.0255
PSCL3 TRANSLATION FROM L1D PREFETCHER DATA	ACCESS:      12902  HIT:          0  MISS:      12902  HIT %:          0  MISS %:        100  MPKI: 0.25804


PSCL2 TOTAL     ACCESS:      47299  HIT:      23570  MISS:      23729  HIT %:    49.8319  MISS %:    50.1681   MPKI: 0.47458
PSCL2 LOAD TRANSLATION INSTRUCTION	ACCESS:       2589  HIT:       2094  MISS:        495  HIT %:    80.8806  MISS %:    19.1194  MPKI: 0.0099
PSCL2 TRANSLATION FROM L1D PREFETCHER INSTRUCTION	ACCESS:      41149  HIT:      21476  MISS:      19673  HIT %:    52.1908  MISS %:    47.8092  MPKI: 0.39346
PSCL2 LOAD TRANSLATION DATA	ACCESS:       1758  HIT:          0  MISS:       1758  HIT %:          0  MISS %:        100  MPKI: 0.03516
PSCL2 TRANSLATION FROM L1D PREFETCHER DATA	ACCESS:       1803  HIT:          0  MISS:       1803  HIT %:          0  MISS %:        100  MPKI: 0.03606


LLC TOTAL     ACCESS:     876954  HIT:     843697  MISS:      33257  HIT %:    96.2077  MISS %:    3.79233   MPKI: 0.66514
LLC LOAD INSTRUCTION	ACCESS:     222527  HIT:     221886  MISS:        641  HIT %:    99.7119  MISS %:   0.288055  MPKI: 0.01282
LLC PREFETCH INSTRUCTION	ACCESS:     170544  HIT:     169252  MISS:       1292  HIT %:    99.2424  MISS %:   0.757576  MPKI: 0.02584
LLC LOAD TRANSLATION INSTRUCTION	ACCESS:        356  HIT:        351  MISS:          5  HIT %:    98.5955  MISS %:    1.40449  MPKI: 0.0001
LLC TRANSLATION FROM L1D PREFETCHER INSTRUCTION	ACCESS:      14615  HIT:      14497  MISS:        118  HIT %:    99.1926  MISS %:    0.80739  MPKI: 0.00236
LLC LOAD DATA	ACCESS:     116231  HIT:     112503  MISS:       3728  HIT %:    96.7926  MISS %:    3.20741  MPKI: 0.07456
LLC RFO DATA	ACCESS:      68806  HIT:      53377  MISS:      15429  HIT %:    77.5761  MISS %:    22.4239  MPKI: 0.30858
LLC PREFETCH DATA	ACCESS:     180028  HIT:     168432  MISS:      11596  HIT %:    93.5588  MISS %:    6.44122  MPKI: 0.23192
LLC WRITEBACK DATA	ACCESS:     102392  HIT:     102037  MISS:        355  HIT %:    99.6533  MISS %:   0.346707  MPKI: 0.0071
LLC LOAD TRANSLATION DATA	ACCESS:       1440  HIT:       1347  MISS:         93  HIT %:    93.5417  MISS %:    6.45833  MPKI: 0.00186
LLC TRANSLATION FROM L1D PREFETCHER DATA	ACCESS:         15  HIT:         15  MISS:          0  HIT %:        100  MISS %:          0  MPKI: 0

LLC AVERAGE MISS LATENCY: 161.412 cycles
LLC RQ	ACCESS:     423996	FORWARD:          0	MERGED:          0	TO_CACHE:     423990
LLC WQ	ACCESS:     102392	FORWARD:          6	MERGED:          0	TO_CACHE:     102392
LLC PQ	ACCESS:     350572	FORWARD:          0	MERGED:          0	TO_CACHE:     350572

LLC Dense regions hint to LLC: 0

RAW hits: 1933252
Loads Generated: 12645590
Loads sent to L1D: 10712338
Stores Generated: 6952037
Stores sent to L1D: 6952040
Major fault: 0 Minor fault: 2609
Allocated PAGES: 2609
I-Shadow cache 408 bytes
Touched + WorthPF tables 12288 bytes 
MMA filter 42 bytes 
FNL filter 272 bytes 
TOTAL PREFETCHER STORAGE SIZE: 19922 bytes
CPU 0 L1I next line prefetcher final stats

stream: 
stream:times selected: 1179574
stream:pref_filled: 120325
stream:pref_useful: 22961
stream:pref_late: 7616
stream:misses: 6946
stream:misses_by_poll: 0

CS: 
CS:times selected: 178176
CS:pref_filled: 56221
CS:pref_useful: 32702
CS:pref_late: 10126
CS:misses: 19485
CS:misses_by_poll: 5

CPLX: 
CPLX:times selected: 1000245
CPLX:pref_filled: 19113
CPLX:pref_useful: 4033
CPLX:pref_late: 3516
CPLX:misses: 90960
CPLX:misses_by_poll: 0

NL_L1: 
NL:times selected: 19608
NL:pref_filled: 553
NL:pref_useful: 238
NL:pref_late: 204
NL:misses: 1041
NL:misses_by_poll: 0

total selections: 2377603
total_filled: 94254
total_useful: 34034
total_late: 22777
total_polluted: 5
total_misses_after_warmup: 770578
conflicts: 5534248

test: 115779

DRAM Statistics
 CHANNEL 0
 RQ ROW_BUFFER_HIT:      11490  ROW_BUFFER_MISS:      21394
 DBUS_CONGESTED:          5
 WQ ROW_BUFFER_HIT:       1513  ROW_BUFFER_MISS:      13418  FULL:          0

 AVG_CONGESTED_CYCLE: 5

CPU 0 Branch Prediction Accuracy: 99.8275% MPKI: 0.31522 Average ROB Occupancy at Mispredict: 187.369
Branch types
NOT_BRANCH: 40860841 81.7217%
BRANCH_DIRECT_JUMP: 549171 1.09834%
BRANCH_INDIRECT: 183366 0.366732%
BRANCH_CONDITIONAL: 6179191 12.3584%
BRANCH_DIRECT_CALL: 942385 1.88477%
BRANCH_INDIRECT_CALL: 171301 0.342602%
BRANCH_RETURN: 1113685 2.22737%
BRANCH_OTHER: 0 0%

DRAM PAGES: 1048576
Allocated PAGES: 2609
Average_ROB_Occupancy: 229.717
Average_Decode_Occupancy: 29.8292
Average_FTQ_Occupancy: 11.3266
Indirect max targets: 14 Average targets: 1.17572
Branch_type:  BRANCH_DIRECT_JUMP:  Count Percentage: 3.2997 6.04914 4.13857 8.44421 2.41075 6.34095 1.94312 67.3736 
Branch_type:  BRANCH_INDIRECT:  Count Percentage: 11.7672 3.4517 2.52964 9.66273 3.35052 2.81348 1.74267 64.6821 
Branch_type:  BRANCH_CONDITIONAL:  Count Percentage: 24.9733 3.00294 1.4233 4.61558 2.2705 3.65543 2.57021 57.4887 
Branch_type:  BRANCH_DIRECT_CALL:  Count Percentage: 0.895397 1.27945 0.72052 3.93933 2.80237 2.91299 4.35779 83.0922 
Branch_type:  BRANCH_INDIRECT_CALL:  Count Percentage: 9.57076 0 3.00029 0.000873617 0 2.28771 3.85964 81.2807 
Branch_type:  BRANCH_RETURN:  Count Percentage: 8.32603 0.920806 1.79886 3.95002 3.53638 3.56212 3.43224 74.4736 
Branch_type:  BRANCH_DIRECT_JUMP:  Total Count: 36184 66334 45383 92598 26436 69534 21308 738809 
Branch_type:  BRANCH_INDIRECT:  Total Count: 43033 12623 9251 35337 12253 10289 6373 236545 
Branch_type:  BRANCH_CONDITIONAL:  Total Count: 3083735 370806 175751 569937 280364 451377 317372 7098768 
Branch_type:  BRANCH_DIRECT_CALL:  Total Count: 16917 24173 13613 74427 52946 55036 82333 1569885 
Branch_type:  BRANCH_INDIRECT_CALL:  Total Count: 32866 0 10303 3 0 7856 13254 279118 
Branch_type:  BRANCH_RETURN:  Total Count: 185969 20567 40179 88227 78988 79563 76662 1663431 
Number of unique branch instructions: 10597
Upper 32 bits: 
aaaa
ffff
ffff0000
Unique upper 32 bits: 3
Unique upper 36 bits: 3
Unique upper 40 bits: 5
Unique upper 44 bits: 32
Unique upper 48 bits: 158
Variant_0 : 1409 0.343994
Variant_1 : 1293 0.315674
Variant_2 : 1359 0.331787
Variant_3 : 0 0
Offset_3 4381
Offset_4 259
Offset_5 471
Offset_6 530
Offset_7 634
Offset_8 565
Offset_9 507
Offset_10 417
Offset_11 338
Offset_12 308
Offset_13 234
Offset_14 245
Offset_15 194
Offset_16 224
Offset_17 162
Offset_18 144
Offset_19 256
Offset_20 142
Offset_21 235
Offset_22 408
Offset_23 241
Offset_24 342
Offset_25 117
Offset_47 92
decode_dispatch_called: 24379348 66.522
Dispatch_width: 0 12941761 53.0849 35.3132
Dispatch_width: 1 851515 3.49277 2.32346
Dispatch_width: 2 792856 3.25216 2.1634
Dispatch_width: 3 484330 1.98664 1.32155
Dispatch_width: 4 4773294 19.5793 13.0245
Dispatch_width: 5 196942 0.807823 0.53738
Dispatch_width: 6 4338650 17.7964 11.8385
Empty_decode_cycles: 12269205 33.478
ROB_full_cycles: 7666707 20.9195
Starvation_cycles_per_kilo_instr: 246.432
Starvation_cycles_per_kilo_instr_3: 196.73
Starvation_cycles_per_kilo_instr_0: 175.443
Branch_type_1  (3,1)  (4,9)  (5,39)  (6,71)  (7,124)  (8,146)  (9,134)  (10,108)  (11,74)  (12,47)  (13,11)  (14,2)  (15,3)  (16,4)  (18,1)  (19,5)  (20,2)  (21,1)  (22,3)  (23,2)  (24,10)  (25,12) 
Branch_type_2  (3,1)  (4,1)  (5,1)  (8,4)  (9,4)  (10,1)  (12,1)  (13,1)  (14,1)  (16,3)  (17,2)  (20,2)  (21,2)  (23,5)  (24,1)  (47,41) 
Branch_type_3  (3,4379)  (4,249)  (5,427)  (6,443)  (7,480)  (8,349)  (9,274)  (10,168)  (11,129)  (12,54)  (13,10) 
Branch_type_4  (6,3)  (7,8)  (8,25)  (9,57)  (10,67)  (11,69)  (12,115)  (13,99)  (14,110)  (15,92)  (16,98)  (17,75)  (18,61)  (19,124)  (20,73)  (21,124)  (22,214)  (23,136)  (24,197)  (25,101) 
Branch_type_5  (8,3)  (9,1)  (10,4)  (11,5)  (12,3)  (13,14)  (14,16)  (15,11)  (16,22)  (17,11)  (18,23)  (19,14)  (20,11)  (21,13)  (22,43)  (23,26)  (24,38) 
Branch_type_6  (5,4)  (6,13)  (7,22)  (8,38)  (9,37)  (10,69)  (11,61)  (12,88)  (13,99)  (14,116)  (15,88)  (16,97)  (17,74)  (18,59)  (19,113)  (20,54)  (21,95)  (22,148)  (23,72)  (24,96)  (25,4)  (47,51) 
Unique trigger count: 
Variant_0_evicts_0 : 0
Variant_0_evicts_1 : 0
Variant_0_evicts_2 : 0
Variant_0_evicts_3 : 0
Variant_1_evicts_0 : 0
Variant_1_evicts_1 : 0
Variant_1_evicts_2 : 0
Variant_1_evicts_3 : 0
Variant_2_evicts_0 : 0
Variant_2_evicts_1 : 0
Variant_2_evicts_2 : 0
Variant_2_evicts_3 : 0
Variant_3_evicts_0 : 0
Variant_3_evicts_1 : 0
Variant_3_evicts_2 : 0
Variant_3_evicts_3 : 0
BTB PER SET UNIQUE ADDR: 14 12 11 11 12 11 7 13 9 12 11 18 12 12 12 9 8 9 10 14 10 10 12 10 11 16 10 11 9 9 16 14 13 8 8 16 10 11 10 10 11 10 12 16 9 12 13 6 15 12 16 14 14 12 11 5 10 6 11 10 14 12 12 13 14 18 12 7 17 12 11 18 12 9 5 7 9 13 8 15 14 9 10 13 14 15 18 12 10 19 9 7 14 7 7 17 6 9 17 17 19 14 12 11 11 10 16 9 12 5 12 16 17 11 9 5 14 12 13 10 14 11 12 11 13 18 8 10 17 13 7 13 12 16 11 18 12 10 14 20 9 18 8 9 11 14 11 9 9 14 12 16 11 11 10 18 17 10 12 12 11 9 11 16 11 10 13 9 15 10 13 15 12 9 12 12 13 9 8 17 13 15 7 12 17 16 6 13 7 9 13 10 10 12 14 13 10 12 13 14 20 9 12 8 12 9 14 12 12 13 10 13 14 10 7 13 10 11 15 19 8 15 11 8 11 14 18 11 7 18 11 5 7 16 14 15 12 13 12 10 13 14 14 17 8 11 14 12 11 11 16 8 13 11 14 11 14 9 10 10 11 10 7 9 13 5 9 11 11 11 10 14 10 9 8 12 10 11 12 9 9 12 9 10 15 10 14 22 14 11 11 9 14 14 6 17 12 16 16 18 12 9 11 18 11 13 11 12 11 12 11 17 10 13 11 10 16 14 14 14 10 14 14 17 14 14 14 12 7 9 11 14 9 11 10 16 12 15 7 18 10 8 7 13 16 14 12 14 9 11 13 9 13 13 13 15 14 14 12 12 12 12 8 18 12 13 10 15 12 17 13 12 13 13 6 13 14 15 12 8 11 12 9 12 7 11 14 13 10 8 18 13 17 18 10 6 14 9 14 11 9 13 10 13 14 10 10 18 16 12 10 11 11 16 11 12 12 16 22 19 7 13 9 12 11 11 12 12 12 12 14 14 14 14 12 11 13 11 11 9 14 10 12 9 24 8 8 9 13 16 14 15 14 11 12 17 20 17 10 18 10 13 17 14 23 8 14 10 16 11 14 13 9 11 13 15 11 15 7 14 15 10 11 14 7 12 18 12 14 7 12 15 12 10 11 14 16 14 9 10 12 12 12 21 16 10 9 18 16 10 13 18 10 12 10 10 10 10 12 7 14 11 13 10 13 9 19 6 8 19 16 15 9 11 11 16 12 9 11 13 11 11 14 9 20 14 11 13 11 11 16 11 13 12 10 18 10 13 13 20 9 17 15 8 13 13 9 16 10 14 16 14 17 14 11 13 14 19 12 14 12 16 9 11 15 9 17 11 20 14 13 13 11 14 18 12 9 9 19 10 12 10 8 7 10 17 18 13 11 13 26 11 8 14 6 21 12 14 12 13 19 13 8 8 11 20 10 13 12 12 14 15 12 9 16 13 11 12 8 20 12 11 16 14 14 12 16 18 12 15 9 14 11 12 13 15 9 12 17 16 8 9 13 16 13 11 13 11 12 11 13 13 10 15 16 13 12 10 15 9 17 18 10 14 16 10 11 13 14 14 13 15 13 6 9 10 10 12 11 14 6 16 16 16 7 12 13 9 11 8 11 13 10 6 12 10 15 7 11 13 16 16 14 14 12 9 12 7 12 12 15 11 15 11 9 17 14 12 14 13 10 8 15 9 12 16 15 15 13 8 16 11 10 12 8 9 17 13 8 12 10 10 7 14 13 15 12 13 9 13 12 17 13 8 10 11 12 9 12 12 7 13 13 9 17 10 9 9 11 8 7 10 19 13 11 20 8 9 15 8 20 14 16 13 19 6 17 12 15 14 13 17 12 12 11 16 15 16 6 17 8 21 11 17 7 11 10 10 8 14 11 15 15 9 13 11 14 15 8 7 12 12 9 11 13 12 10 18 10 8 14 10 11 14 20 19 15 12 19 13 11 12 11 12 21 10 15 9 18 14 12 10 14 14 16 8 18 14 9 8 11 12 10 14 18 18 12 11 15 13 10 10 9 12 9 15 15 7 9 8 15 8 11 15 7 13 11 13 11 13 11 7 11 11 11 8 13 14 8 13 10 11 11 12 8 13 6 9 11 7 15 15 17 13 14 19 7 13 19 8 9 17 15 15 12 10 11 12 8 20 14 11 10 12 12 14 10 14 19 15 16 15 13 15 14 11 15 12 8 12 19 13 16 13 11 11 14 19 18 16 12 10 14 14 12 18 23 12 19 11 11 9 15 12 9 12 12 13 12 15 12 19 14 13 12 13 8 15 10 14 14 15 12 6 10 16 6 8 6 8 15 10 12 10 
BTB PER SET COUNT: 1981 14 2003 224 3854 1711 10 251 3438 89 391 2541 4934 1901 634 2154 1380 2460 2720 1131 1300 39 3388 68 3948 1298 13 1642 653 9 3727 1160 22 54 183 2031 2444 83 1461 1388 1700 2269 25 2085 1626 238 19 6 1583 470 1363 3904 1431 2274 757 5 2720 2817 112 15 61 506 24 1018 3431 1180 672 40 135 289 1093 3660 14 1666 5 1175 73 6799 102 240 1761 1872 2396 288 1697 6920 126 726 3430 1989 87 854 3575 4188 2010 883 4158 14 31 15244 1025 2197 5425 2027 1162 1452 1396 57 5451 6 1471 20 2042 2274 592 5 2994 469 3688 2337 2482 5179 312 2452 2656 2959 257 11 2320 7526 779 2046 620 2579 158 1211 2622 13 738 1074 464 2558 11 22 1010 3491 5596 179 959 2717 1142 9863 3743 867 4422 1190 415 6286 70 905 1562 1699 304 6248 2857 819 1695 1042 264 749 129 764 258 21 3710 1056 438 3695 8 2124 2824 1094 13 921 2752 4342 54 498 3778 1006 116 2672 1487 13 4164 7426 850 1167 1342 2390 3696 210 2463 33 841 960 2134 322 18 842 179 19 4830 25 1759 1067 2777 1412 2519 1181 1208 1910 15 4230 958 730 2953 1923 1949 4322 1211 982 9 602 90 10195 1428 2477 3828 791 2615 4794 973 846 14 8610 2156 2284 141 11 3277 27 1457 1542 103 4163 10285 12 433 15 335 2962 613 36 1369 3906 759 3551 792 3234 101 5440 2907 3467 304 681 111 37 2740 1039 22 63 242 3364 9316 12 1494 3392 9094 1781 4217 775 1303 6186 10 534 2356 1772 174 1243 4111 1248 5603 34 2311 1306 927 40 1393 2624 2829 4578 816 287 449 1941 771 33 73 1110 2194 2438 180 30 7576 3508 3174 33 15 5358 892 2765 9 2418 12 1521 2067 5715 13 1630 1018 2763 2421 7295 50 980 4197 1647 1035 1631 177 682 1369 20 1258 4040 3015 2392 603 652 24 1251 375 1446 7710 2274 5108 2753 766 3512 3060 2182 1066 1917 1464 2541 181 1790 262 1242 1556 22 3166 1427 2651 757 2289 537 582 17 721 2296 406 5569 414 1560 1044 63 5845 918 2386 343 25 3652 865 27 17 607 114 1834 176 56 3649 1018 749 2336 1995 202 3177 3788 7 958 13 947 2306 4591 1036 1276 728 5019 470 23 1849 1989 2008 26 2167 1324 16 237 407 1475 1579 792 3287 9 1304 12 31 825 278 1586 1824 4364 3709 3410 2376 2162 1229 4341 1080 4249 2507 4906 111 5317 2830 15 6989 162 847 1584 2836 141 742 845 158 310 863 1661 1171 740 4572 2418 742 766 448 1019 5675 14 3184 2243 1994 202 1562 7361 5656 1426 170 333 81 7668 2110 2679 653 258 683 1194 6673 709 391 6199 44 5035 898 4203 1566 333 73 1462 2287 2452 181 2032 1196 283 633 6 18 1734 57 391 1809 20 50 1505 3246 1209 79 3749 456 4679 1454 10 438 5611 1011 676 590 2744 3814 1189 1740 6731 3611 530 1915 4109 39 1544 332 2948 25 229 1022 331 195 1629 11 2848 2241 55 5023 2104 3277 1853 7860 3331 2177 1508 226 77 1002 1400 916 191 5437 1324 36 4210 1854 8600 1665 2706 4616 1961 5627 1203 2424 4931 971 967 2337 103 1412 8874 1222 4155 1557 21 3058 6346 14 4634 956 2291 953 924 577 908 4139 259 11 2332 2006 3215 37 746 5667 9438 95 296 752 268 1687 538 4417 7369 18 3587 941 1901 4725 4182 689 114 3375 34 2315 1013 2687 3249 385 2522 1333 203 10 2077 2911 5584 1163 10 1224 2384 12813 3753 458 2078 4533 2108 846 1147 1925 1086 3376 2261 23 1324 31 2279 3794 1850 3478 3030 1057 3578 25 1033 4412 3851 3872 2654 6558 303 3339 16 433 320 2993 37 8 1415 9640 1364 8 661 2157 3308 595 1340 2209 752 995 765 3479 656 788 17 2768 1439 970 3324 2369 2626 4283 1844 1234 7 13 314 775 15673 487 761 13 4515 2232 1488 105 4113 651 148 2261 1612 17 2424 1024 3041 3645 132 2147 1359 13 4010 4413 1027 408 25 626 55 37 2690 63 1094 1301 149 535 6830 17 1539 1015 1409 1786 640 876 74 4929 129 613 91 546 1038 1055 890 1745 12 1966 859 3162 15 491 2498 2781 4172 1406 2569 592 866 3210 1840 1578 1255 2240 1268 1924 7 1243 1113 1445 763 2107 876 136 689 27 6723 2358 1223 500 2175 1285 4822 510 435 1777 2720 1924 1081 10 452 230 2933 48 605 2801 2795 2110 1693 23 1336 1014 19 5200 70 340 892 14 4323 3154 1113 73 2307 5684 696 3692 1895 195 118 2310 1333 3844 1194 2281 23 3891 1175 2647 1632 5030 778 251 543 1064 4233 795 1822 1766 3701 1731 13 969 3796 1001 55 1473 4889 2767 18 1691 7913 406 1595 2010 5845 364 27 820 11 3671 214 4512 759 2379 978 7 642 2531 35 2101 125 1752 1691 32 4453 2353 9 1482 2381 9 532 91 2472 1733 772 9 1178 11 28 3242 19 2421 828 3793 1567 1066 1035 2479 15 998 32 3612 5588 3189 2550 3989 19 25 2008 550 3512 748 982 537 8386 3430 62 1773 335 1831 1889 702 2393 3268 944 2376 2583 724 3363 1266 43 874 5519 29 838 3970 1435 22 1927 2200 5214 14 1199 557 668 402 7810 2028 3424 1291 1522 1886 1293 699 19 1745 3698 205 1855 1457 230 683 4853 192 145 214 4257 72 4837 11 5181 348 3290 1858 785 29 993 8 8 258 260 2548 3838 19 819 
To predecode: 1197643
Predecoding something: 756500
Predecode request dropped: 0
sizeofblock_0 0
sizeofblock_1 309949
sizeofblock_2 412573
sizeofblock_3 839423
sizeofblock_4 235480
sizeofblock_5 0
sizeofblock_6 0
sizeofblock_7 0
sizeofblock_8 0
Variant_0 Correct: 1616440 Incorrect: 0 Accuracy: 1
Variant_1 Correct: 2094772 Incorrect: 0 Accuracy: 1
Variant_2 Correct: 5070294 Incorrect: 0 Accuracy: 1
Variant_3 Correct: 0 Incorrect: 0 Accuracy: -nan
