
*** ChampSim Multicore Out-of-Order Simulator ***

Warmup Instructions: 50000000
Simulation Instructions: 50000000
Number of CPUs: 1
LLC sets: 2048
LLC ways: 16
Off-chip DRAM Size: 4096 MB Channels: 1 Width: 64-bit Data Rate: 6400 MT/s
CPU 0 runs ./micro_traces/srv197.trace.gz
.gz
ITLB has LRU replacement policy
DTLB has LRU replacement policy
STLB has LRU replacement policy
FDIP Prefetcher at L1I
L1I has LRU replacement policy
L1D has LRU replacement policy
Initialize SRRIP state for L2C
Initialize DRRIP state for LLC
Heartbeat_Variant_0 : 1343 0.327881 per_variant_size: 0 1343 0 0 0 0 0 0 0 
Heartbeat_Variant_1 : 1234 0.30127 per_variant_size: 0 599 635 0 0 0 0 0 0 
Heartbeat_Variant_2 : 1326 0.32373 per_variant_size: 0 545 372 210 199 0 0 0 0 
Heartbeat_Variant_3 : 0 0 per_variant_size: 0 0 0 0 0 0 0 0 0 
Heartbeat_Variant_0_evicts 0 : 5826 1 : 313 2 : 312 3 : 0 
Heartbeat_Variant_1_evicts 0 : 282 1 : 0 2 : 480 3 : 0 
Heartbeat_Variant_2_evicts 0 : 294 1 : 484 2 : 0 3 : 0 
Heartbeat_Variant_3_evicts 0 : 0 1 : 0 2 : 0 3 : 0 
Heartbeat CPU 0 instructions: 10000002 cycles: 2796266 heartbeat IPC: 3.5762 cumulative IPC: 3.5762 (Simulation time: 0 hr 1 min 56 sec) 
Heartbeat_Variant_0 : 1341 0.327393 per_variant_size: 0 1341 0 0 0 0 0 0 0 
Heartbeat_Variant_1 : 1241 0.302979 per_variant_size: 0 604 637 0 0 0 0 0 0 
Heartbeat_Variant_2 : 1327 0.323975 per_variant_size: 0 542 373 215 197 0 0 0 0 
Heartbeat_Variant_3 : 0 0 per_variant_size: 0 0 0 0 0 0 0 0 0 
Heartbeat_Variant_0_evicts 0 : 5601 1 : 5 2 : 7 3 : 0 
Heartbeat_Variant_1_evicts 0 : 11 1 : 0 2 : 204 3 : 0 
Heartbeat_Variant_2_evicts 0 : 6 1 : 205 2 : 0 3 : 0 
Heartbeat_Variant_3_evicts 0 : 0 1 : 0 2 : 0 3 : 0 
Heartbeat CPU 0 instructions: 20000001 cycles: 5593129 heartbeat IPC: 3.57543 cumulative IPC: 3.57582 (Simulation time: 0 hr 3 min 31 sec) 
Heartbeat_Variant_0 : 1350 0.32959 per_variant_size: 0 1350 0 0 0 0 0 0 0 
Heartbeat_Variant_1 : 1244 0.303711 per_variant_size: 0 587 657 0 0 0 0 0 0 
Heartbeat_Variant_2 : 1337 0.326416 per_variant_size: 0 537 384 221 195 0 0 0 0 
Heartbeat_Variant_3 : 0 0 per_variant_size: 0 0 0 0 0 0 0 0 0 
Heartbeat_Variant_0_evicts 0 : 5700 1 : 50 2 : 46 3 : 0 
Heartbeat_Variant_1_evicts 0 : 45 1 : 0 2 : 254 3 : 0 
Heartbeat_Variant_2_evicts 0 : 52 1 : 250 2 : 0 3 : 0 
Heartbeat_Variant_3_evicts 0 : 0 1 : 0 2 : 0 3 : 0 
Heartbeat CPU 0 instructions: 30000003 cycles: 8390293 heartbeat IPC: 3.57505 cumulative IPC: 3.57556 (Simulation time: 0 hr 5 min 9 sec) 
Heartbeat_Variant_0 : 1378 0.336426 per_variant_size: 0 1378 0 0 0 0 0 0 0 
Heartbeat_Variant_1 : 1269 0.309814 per_variant_size: 0 577 692 0 0 0 0 0 0 
Heartbeat_Variant_2 : 1341 0.327393 per_variant_size: 0 506 378 228 229 0 0 0 0 
Heartbeat_Variant_3 : 0 0 per_variant_size: 0 0 0 0 0 0 0 0 0 
Heartbeat_Variant_0_evicts 0 : 5764 1 : 141 2 : 167 3 : 0 
Heartbeat_Variant_1_evicts 0 : 158 1 : 0 2 : 325 3 : 0 
Heartbeat_Variant_2_evicts 0 : 141 1 : 340 2 : 0 3 : 0 
Heartbeat_Variant_3_evicts 0 : 0 1 : 0 2 : 0 3 : 0 
Heartbeat CPU 0 instructions: 40000000 cycles: 11186302 heartbeat IPC: 3.57653 cumulative IPC: 3.5758 (Simulation time: 0 hr 6 min 48 sec) 
Heartbeat_Variant_0 : 1378 0.336426 per_variant_size: 0 1378 0 0 0 0 0 0 0 
Heartbeat_Variant_1 : 1275 0.311279 per_variant_size: 0 584 691 0 0 0 0 0 0 
Heartbeat_Variant_2 : 1345 0.328369 per_variant_size: 0 512 367 243 223 0 0 0 0 
Heartbeat_Variant_3 : 0 0 per_variant_size: 0 0 0 0 0 0 0 0 0 
Heartbeat_Variant_0_evicts 0 : 5644 1 : 40 2 : 36 3 : 0 
Heartbeat_Variant_1_evicts 0 : 47 1 : 0 2 : 239 3 : 0 
Heartbeat_Variant_2_evicts 0 : 31 1 : 241 2 : 0 3 : 0 
Heartbeat_Variant_3_evicts 0 : 0 1 : 0 2 : 0 3 : 0 
Heartbeat CPU 0 instructions: 50000003 cycles: 13982380 heartbeat IPC: 3.57644 cumulative IPC: 3.57593 (Simulation time: 0 hr 8 min 28 sec) 

Warmup complete CPU 0 instructions: 50000003 cycles: 13982380 (Simulation time: 0 hr 8 min 28 sec) 

Cycle: 20000000 FTQ IN: 58129986 FTQ occupancy: 19.1948 DECODE IN: 58129986 DECODE occupancy: 50.038 ROB IN: 58129986 ROB occupancy: 306.593 ROB OUT: 58129983
Heartbeat_Variant_0 : 1393 0.340088 per_variant_size: 0 1393 0 0 0 0 0 0 0 
Heartbeat_Variant_1 : 1277 0.311768 per_variant_size: 0 595 682 0 0 0 0 0 0 
Heartbeat_Variant_2 : 1341 0.327393 per_variant_size: 0 502 380 245 214 0 0 0 0 
Heartbeat_Variant_3 : 0 0 per_variant_size: 0 0 0 0 0 0 0 0 0 
Heartbeat_Variant_0_evicts 0 : 5630 1 : 115 2 : 131 3 : 0 
Heartbeat_Variant_1_evicts 0 : 118 1 : 0 2 : 293 3 : 0 
Heartbeat_Variant_2_evicts 0 : 113 1 : 296 2 : 0 3 : 0 
Heartbeat_Variant_3_evicts 0 : 0 1 : 0 2 : 0 3 : 0 
Heartbeat CPU 0 instructions: 60000003 cycles: 21374048 heartbeat IPC: 1.35287 cumulative IPC: 1.35287 (Simulation time: 0 hr 10 min 8 sec) 
Heartbeat_Variant_0 : 1392 0.339844 per_variant_size: 0 1392 0 0 0 0 0 0 0 
Heartbeat_Variant_1 : 1278 0.312012 per_variant_size: 0 594 684 0 0 0 0 0 0 
Heartbeat_Variant_2 : 1346 0.328613 per_variant_size: 0 515 371 235 225 0 0 0 0 
Heartbeat_Variant_3 : 0 0 per_variant_size: 0 0 0 0 0 0 0 0 0 
Heartbeat_Variant_0_evicts 0 : 5623 1 : 41 2 : 41 3 : 0 
Heartbeat_Variant_1_evicts 0 : 43 1 : 0 2 : 239 3 : 0 
Heartbeat_Variant_2_evicts 0 : 41 1 : 241 2 : 0 3 : 0 
Heartbeat_Variant_3_evicts 0 : 0 1 : 0 2 : 0 3 : 0 
Heartbeat CPU 0 instructions: 70000001 cycles: 28784187 heartbeat IPC: 1.3495 cumulative IPC: 1.35119 (Simulation time: 0 hr 11 min 49 sec) 
Cycle: 30000000 FTQ IN: 13513443 FTQ occupancy: 10.6589 DECODE IN: 13513369 DECODE occupancy: 27.3895 ROB IN: 13513309 ROB occupancy: 212.337 ROB OUT: 13512962
Heartbeat_Variant_0 : 1389 0.339111 per_variant_size: 0 1389 0 0 0 0 0 0 0 
Heartbeat_Variant_1 : 1282 0.312988 per_variant_size: 0 583 699 0 0 0 0 0 0 
Heartbeat_Variant_2 : 1353 0.330322 per_variant_size: 0 510 379 245 219 0 0 0 0 
Heartbeat_Variant_3 : 0 0 per_variant_size: 0 0 0 0 0 0 0 0 0 
Heartbeat_Variant_0_evicts 0 : 5593 1 : 39 2 : 43 3 : 0 
Heartbeat_Variant_1_evicts 0 : 39 1 : 0 2 : 233 3 : 0 
Heartbeat_Variant_2_evicts 0 : 47 1 : 233 2 : 0 3 : 0 
Heartbeat_Variant_3_evicts 0 : 0 1 : 0 2 : 0 3 : 0 
Heartbeat CPU 0 instructions: 80000003 cycles: 36154825 heartbeat IPC: 1.35673 cumulative IPC: 1.35303 (Simulation time: 0 hr 13 min 28 sec) 
Cycle: 40000000 FTQ IN: 13649983 FTQ occupancy: 10.5592 DECODE IN: 13650041 DECODE occupancy: 27.1822 ROB IN: 13650081 ROB occupancy: 210.733 ROB OUT: 13650175
Heartbeat_Variant_0 : 1391 0.3396 per_variant_size: 0 1391 0 0 0 0 0 0 0 
Heartbeat_Variant_1 : 1286 0.313965 per_variant_size: 0 596 690 0 0 0 0 0 0 
Heartbeat_Variant_2 : 1350 0.32959 per_variant_size: 0 514 370 254 212 0 0 0 0 
Heartbeat_Variant_3 : 0 0 per_variant_size: 0 0 0 0 0 0 0 0 0 
Heartbeat_Variant_0_evicts 0 : 5762 1 : 51 2 : 83 3 : 0 
Heartbeat_Variant_1_evicts 0 : 51 1 : 0 2 : 264 3 : 0 
Heartbeat_Variant_2_evicts 0 : 81 1 : 261 2 : 0 3 : 0 
Heartbeat_Variant_3_evicts 0 : 0 1 : 0 2 : 0 3 : 0 
Heartbeat CPU 0 instructions: 90000001 cycles: 43544429 heartbeat IPC: 1.35325 cumulative IPC: 1.35309 (Simulation time: 0 hr 15 min 10 sec) 
Cycle: 50000000 FTQ IN: 13519719 FTQ occupancy: 10.6724 DECODE IN: 13519677 DECODE occupancy: 27.4231 ROB IN: 13519646 ROB occupancy: 211.39 ROB OUT: 13519550
Heartbeat_Variant_0 : 1390 0.339355 per_variant_size: 0 1390 0 0 0 0 0 0 0 
Heartbeat_Variant_1 : 1287 0.314209 per_variant_size: 0 595 692 0 0 0 0 0 0 
Heartbeat_Variant_2 : 1350 0.32959 per_variant_size: 0 514 371 246 219 0 0 0 0 
Heartbeat_Variant_3 : 0 0 per_variant_size: 0 0 0 0 0 0 0 0 0 
Heartbeat_Variant_0_evicts 0 : 5603 1 : 2 2 : 3 3 : 0 
Heartbeat_Variant_1_evicts 0 : 1 1 : 0 2 : 201 3 : 0 
Heartbeat_Variant_2_evicts 0 : 5 1 : 199 2 : 0 3 : 0 
Heartbeat_Variant_3_evicts 0 : 0 1 : 0 2 : 0 3 : 0 
Heartbeat CPU 0 instructions: 100000001 cycles: 50865580 heartbeat IPC: 1.36591 cumulative IPC: 1.35563 (Simulation time: 0 hr 17 min 0 sec) 
Finished CPU 0 instructions: 50000002 cycles: 36883201 cumulative IPC: 1.35563 (Simulation time: 0 hr 17 min 0 sec) 

ChampSim completed all CPUs

Region of Interest Statistics

CPU 0 cumulative IPC: 1.35563 instructions: 50000002 cycles: 36883201
 Fetch stage stalled: 60.2239  Sim cycles: 36883201 fetch stall cycle: 22212512
 Empty decode stage: 48.8687  Sim cycles: 36883201 fetch stall cycle: 18024357
ITLB TOTAL     ACCESS:    5862170  HIT:    5368393  MISS:     493777  HIT %:    91.5769  MISS %:    8.42311   MPKI: 9.87554
ITLB LOAD TRANSLATION INSTRUCTION	ACCESS:    5739531  HIT:    5245754  MISS:     493777  HIT %:    91.3969  MISS %:    8.60309  MPKI: 9.87554
ITLB TRANSLATION FROM L1D PREFETCHER INSTRUCTION	ACCESS:     122639  HIT:     122639  MISS:          0  HIT %:        100  MISS %:          0  MPKI: 0

ITLB AVERAGE MISS LATENCY: 9.04674 cycles
ITLB RQ	ACCESS:    8001385	FORWARD:          0	MERGED:    1714283	TO_CACHE:    6287102

DTLB TOTAL     ACCESS:    9014101  HIT:    8542953  MISS:     471148  HIT %:    94.7732  MISS %:    5.22679   MPKI: 9.42296
DTLB LOAD TRANSLATION DATA	ACCESS:    9014101  HIT:    8542953  MISS:     471148  HIT %:    94.7732  MISS %:    5.22679  MPKI: 9.42296

DTLB AVERAGE MISS LATENCY: 9.305 cycles
DTLB RQ	ACCESS:   13373569	FORWARD:          0	MERGED:    4323775	TO_CACHE:    9049794

STLB TOTAL     ACCESS:    1212103  HIT:    1210122  MISS:       1981  HIT %:    99.8366  MISS %:   0.163435   MPKI: 0.03962
STLB LOAD TRANSLATION INSTRUCTION	ACCESS:     493777  HIT:     493553  MISS:        224  HIT %:    99.9546  MISS %:  0.0453646  MPKI: 0.00448
STLB LOAD TRANSLATION DATA	ACCESS:     471146  HIT:     469414  MISS:       1732  HIT %:    99.6324  MISS %:   0.367614  MPKI: 0.03464
STLB TRANSLATION FROM L1D PREFETCHER DATA	ACCESS:     247180  HIT:     247155  MISS:         25  HIT %:    99.9899  MISS %:  0.0101141  MPKI: 0.0005

STLB AVERAGE MISS LATENCY: 67.6577 cycles
STLB RQ	ACCESS:    1331894	FORWARD:          0	MERGED:     119749	TO_CACHE:    1212145

STLB Hit, L1D data hit: 0
STLB Hit, L2C data hit: 0
STLB Hit, LLC data hit: 0
STLB Hit, LLC data miss: 0
STLB STLB hints to L2: 0
L1D TOTAL     ACCESS:   13126149  HIT:   12015236  MISS:    1110913  HIT %:    91.5366  MISS %:    8.46336   MPKI: 22.2183
L1D LOAD DATA	ACCESS:    6588421  HIT:    5855913  MISS:     732508  HIT %:    88.8819  MISS %:    11.1181  MPKI: 14.6502
L1D RFO DATA	ACCESS:    6211543  HIT:    5926700  MISS:     284843  HIT %:    95.4143  MISS %:     4.5857  MPKI: 5.69686
L1D PREFETCH DATA	ACCESS:     326185  HIT:     232623  MISS:      93562  HIT %:    71.3163  MISS %:    28.6837  MPKI: 1.87124

L1D PREFETCH  REQUESTED:     734323  ISSUED:     734323  USEFUL:      33572  USELESS:      68154
L1D USEFUL LOAD PREFETCHES:      33572 PREFETCH ISSUED TO LOWER LEVEL:     101769  ACCURACY: 32.9884
 TIMELY PREFETCHES:      33572 LATE PREFETCHES: 8173 DROPPED PREFETCHES: 4
L1D AVERAGE MISS LATENCY: 238137 cycles
L1D RQ	ACCESS:   10710767	FORWARD:          0	MERGED:    3924894	TO_CACHE:    6622236
L1D WQ	ACCESS:    6946339	FORWARD:     164022	MERGED:     195006	TO_CACHE:    6751333
L1D PQ	ACCESS:     367354	FORWARD:          0	MERGED:          0	TO_CACHE:     366969

L1D UNIQUE REGIONS ACCESSED: 0
L1D REGIONS CONFLICTS: 0
L1D Cross Page Prefetch Requests: 6906
L1D Same Page Prefetch Requests: 749332
L1D ROI Sum of L1D PQ occupancy: 4666859
L1D PREFETCHES PUSHED FROM L2C: 0
L1I TOTAL     ACCESS:    7211200  HIT:    4449098  MISS:    2762102  HIT %:    61.6971  MISS %:    38.3029   MPKI: 55.242
L1I LOAD INSTRUCTION	ACCESS:    6549721  HIT:    3787619  MISS:    2762102  HIT %:    57.8287  MISS %:    42.1713  MPKI: 55.242
L1I PREFETCH INSTRUCTION	ACCESS:     661479  HIT:     661479  MISS:          0  HIT %:        100  MISS %:          0  MPKI: 0

L1I PREFETCH  REQUESTED:    1582796  ISSUED:    1582796  USEFUL:          0  USELESS:          0
L1I USEFUL LOAD PREFETCHES:          0 PREFETCH ISSUED TO LOWER LEVEL:          0  ACCURACY: -nan
 TIMELY PREFETCHES:          0 LATE PREFETCHES: 0 DROPPED PREFETCHES: 0
L1I AVERAGE MISS LATENCY: 17.2594 cycles
L1I RQ	ACCESS:    9470516	FORWARD:          0	MERGED:    2616108	TO_CACHE:    6854408
L1I PQ	ACCESS:    1582796	FORWARD:          0	MERGED:     435819	TO_CACHE:    1146977

L1BTB TOTAL     ACCESS:    5671367  HIT:    2042278  MISS:    3629089  HIT %:    36.0103  MISS %:    63.9897   MPKI: 72.5818
L1BTB BRANCH_DIRECT_JUMP	ACCESS:     548144  HIT:     144792  MISS:     403352	AVERAGE STALL: 44.9442
L1BTB BRANCH_INDIRECT	ACCESS:     182904  HIT:      65959  MISS:     116945	AVERAGE STALL: 91.8269
L1BTB BRANCH_CONDITIONAL	ACCESS:    2705113  HIT:    1412353  MISS:    1292760	AVERAGE STALL: 42.722
L1BTB BRANCH_DIRECT_CALL	ACCESS:     945712  HIT:     106159  MISS:     839553	AVERAGE STALL: 61.242
L1BTB BRANCH_INDIRECT_CALL	ACCESS:     171889  HIT:      21466  MISS:     150423	AVERAGE STALL: 118.993
L1BTB BRANCH_RETURN	ACCESS:    1117605  HIT:     291549  MISS:     826056	AVERAGE STALL: 44.9955
L1BTB BRANCH_OTHER ACCESS:          0  HIT:          0  MISS:          0	AVERAGE STALL: -nan
L1BTB TOTAL ROB OCCUPANCY AT BTB MISS: 2.31466

L2BTB TOTAL     ACCESS:    3603685  HIT:    3538159  MISS:      65526  HIT %:    98.1817  MISS %:    1.81831   MPKI: 1.31052
L2BTB BRANCH_DIRECT_JUMP	ACCESS:     399187  HIT:     394823  MISS:       4364	AVERAGE STALL: 44.9442
L2BTB BRANCH_INDIRECT	ACCESS:     106663  HIT:     103995  MISS:       2668	AVERAGE STALL: 91.8269
L2BTB BRANCH_CONDITIONAL	ACCESS:    1292760  HIT:    1288296  MISS:       4464	AVERAGE STALL: 42.722
L2BTB BRANCH_DIRECT_CALL	ACCESS:     839553  HIT:     838436  MISS:       1117	AVERAGE STALL: 61.242
L2BTB BRANCH_INDIRECT_CALL	ACCESS:     140879  HIT:     130692  MISS:      10187	AVERAGE STALL: 118.993
L2BTB BRANCH_RETURN	ACCESS:     824643  HIT:     781917  MISS:      42726	AVERAGE STALL: 44.9955
L2BTB BRANCH_OTHER ACCESS:          0  HIT:          0  MISS:          0	AVERAGE STALL: -nan
L2BTB TOTAL ROB OCCUPANCY AT BTB MISS: 128.195

L2C TOTAL     ACCESS:    4483071  HIT:    3989491  MISS:     493580  HIT %:    88.9901  MISS %:    11.0099   MPKI: 9.8716
L2C LOAD INSTRUCTION	ACCESS:    2762103  HIT:    2493916  MISS:     268187  HIT %:    90.2905  MISS %:    9.70952  MPKI: 5.36374
L2C LOAD TRANSLATION INSTRUCTION	ACCESS:        252  HIT:         73  MISS:        179  HIT %:    28.9683  MISS %:    71.0317  MPKI: 0.00358
L2C LOAD DATA	ACCESS:     724300  HIT:     642164  MISS:      82136  HIT %:    88.6599  MISS %:    11.3401  MPKI: 1.64272
L2C RFO DATA	ACCESS:     284792  HIT:     235942  MISS:      48850  HIT %:    82.8471  MISS %:    17.1529  MPKI: 0.977
L2C PREFETCH DATA	ACCESS:     190695  HIT:     114763  MISS:      75932  HIT %:    60.1814  MISS %:    39.8186  MPKI: 1.51864
L2C WRITEBACK DATA	ACCESS:     519101  HIT:     502059  MISS:      17042  HIT %:     96.717  MISS %:    3.28298  MPKI: 0.34084
L2C LOAD TRANSLATION DATA	ACCESS:       1782  HIT:        542  MISS:       1240  HIT %:    30.4153  MISS %:    69.5847  MPKI: 0.0248
L2C TRANSLATION FROM L1D PREFETCHER DATA	ACCESS:         46  HIT:         32  MISS:         14  HIT %:    69.5652  MISS %:    30.4348  MPKI: 0.00028

L2C PREFETCH  REQUESTED:      96817  ISSUED:      96817  USEFUL:       8544  USELESS:      67881
L2C USEFUL LOAD PREFETCHES:       8544 PREFETCH ISSUED TO LOWER LEVEL:      76426  ACCURACY: 11.1794
 TIMELY PREFETCHES:       8544 LATE PREFETCHES: 494 DROPPED PREFETCHES: 0
L2C AVERAGE MISS LATENCY: 37.7546 cycles
L2C RQ	ACCESS:    3773331	FORWARD:          0	MERGED:          0	TO_CACHE:    3773278
L2C WQ	ACCESS:     519101	FORWARD:         54	MERGED:          0	TO_CACHE:     519101
L2C PQ	ACCESS:     198586	FORWARD:          0	MERGED:       3409	TO_CACHE:     195176

L2C Dense regions hint from L2: 0
PSCL5 TOTAL     ACCESS:       3982  HIT:       1991  MISS:       1991  HIT %:         50  MISS %:         50   MPKI: 0.03982
PSCL5 LOAD TRANSLATION INSTRUCTION	ACCESS:       3890  HIT:       1945  MISS:       1945  HIT %:         50  MISS %:         50  MPKI: 0.0389
PSCL5 TRANSLATION FROM L1D PREFETCHER INSTRUCTION	ACCESS:         92  HIT:         46  MISS:         46  HIT %:         50  MISS %:         50  MPKI: 0.00092


PSCL4 TOTAL     ACCESS:       3901  HIT:       1950  MISS:       1951  HIT %:    49.9872  MISS %:    50.0128   MPKI: 0.03902
PSCL4 LOAD TRANSLATION INSTRUCTION	ACCESS:       3680  HIT:       1904  MISS:       1776  HIT %:    51.7391  MISS %:    48.2609  MPKI: 0.03552
PSCL4 TRANSLATION FROM L1D PREFETCHER INSTRUCTION	ACCESS:         92  HIT:         46  MISS:         46  HIT %:         50  MISS %:         50  MPKI: 0.00092
PSCL4 LOAD TRANSLATION DATA	ACCESS:        129  HIT:          0  MISS:        129  HIT %:          0  MISS %:        100  MPKI: 0.00258


PSCL3 TOTAL     ACCESS:       3907  HIT:       1951  MISS:       1956  HIT %:     49.936  MISS %:     50.064   MPKI: 0.03912
PSCL3 LOAD TRANSLATION INSTRUCTION	ACCESS:       3579  HIT:       1912  MISS:       1667  HIT %:    53.4227  MISS %:    46.5773  MPKI: 0.03334
PSCL3 TRANSLATION FROM L1D PREFETCHER INSTRUCTION	ACCESS:         78  HIT:         39  MISS:         39  HIT %:         50  MISS %:         50  MPKI: 0.00078
PSCL3 LOAD TRANSLATION DATA	ACCESS:        250  HIT:          0  MISS:        250  HIT %:          0  MISS %:        100  MPKI: 0.005


PSCL2 TOTAL     ACCESS:       3899  HIT:       1908  MISS:       1991  HIT %:    48.9356  MISS %:    51.0644   MPKI: 0.03982
PSCL2 LOAD TRANSLATION INSTRUCTION	ACCESS:       2085  HIT:       1862  MISS:        223  HIT %:    89.3046  MISS %:    10.6954  MPKI: 0.00446
PSCL2 TRANSLATION FROM L1D PREFETCHER INSTRUCTION	ACCESS:         46  HIT:         46  MISS:          0  HIT %:        100  MISS %:          0  MPKI: 0
PSCL2 LOAD TRANSLATION DATA	ACCESS:       1722  HIT:          0  MISS:       1722  HIT %:          0  MISS %:        100  MPKI: 0.03444
PSCL2 TRANSLATION FROM L1D PREFETCHER DATA	ACCESS:         46  HIT:          0  MISS:         46  HIT %:          0  MISS %:        100  MPKI: 0.00092


LLC TOTAL     ACCESS:     549097  HIT:     521349  MISS:      27748  HIT %:    94.9466  MISS %:    5.05339   MPKI: 0.55496
LLC LOAD INSTRUCTION	ACCESS:     268187  HIT:     267418  MISS:        769  HIT %:    99.7133  MISS %:    0.28674  MPKI: 0.01538
LLC LOAD TRANSLATION INSTRUCTION	ACCESS:        179  HIT:        152  MISS:         27  HIT %:    84.9162  MISS %:    15.0838  MPKI: 0.00054
LLC LOAD DATA	ACCESS:      81643  HIT:      78162  MISS:       3481  HIT %:    95.7363  MISS %:    4.26368  MPKI: 0.06962
LLC RFO DATA	ACCESS:      48833  HIT:      35569  MISS:      13264  HIT %:     72.838  MISS %:     27.162  MPKI: 0.26528
LLC PREFETCH DATA	ACCESS:      76426  HIT:      66586  MISS:       9840  HIT %:    87.1248  MISS %:    12.8752  MPKI: 0.1968
LLC WRITEBACK DATA	ACCESS:      72575  HIT:      72267  MISS:        308  HIT %:    99.5756  MISS %:   0.424389  MPKI: 0.00616
LLC LOAD TRANSLATION DATA	ACCESS:       1240  HIT:       1183  MISS:         57  HIT %:    95.4032  MISS %:    4.59677  MPKI: 0.00114
LLC TRANSLATION FROM L1D PREFETCHER DATA	ACCESS:         14  HIT:         12  MISS:          2  HIT %:    85.7143  MISS %:    14.2857  MPKI: 4e-05

LLC AVERAGE MISS LATENCY: 155.141 cycles
LLC RQ	ACCESS:     400113	FORWARD:          0	MERGED:          0	TO_CACHE:     400097
LLC WQ	ACCESS:      72576	FORWARD:         16	MERGED:          0	TO_CACHE:      72576
LLC PQ	ACCESS:      76426	FORWARD:          0	MERGED:          0	TO_CACHE:      76426

LLC Dense regions hint to LLC: 0

RAW hits: 1921690
Loads Generated: 12632453
Loads sent to L1D: 10710767
Stores Generated: 6946333
Stores sent to L1D: 6946339
Major fault: 0 Minor fault: 2580
Allocated PAGES: 2580

stream: 
stream:times selected: 1185078
stream:pref_filled: 122716
stream:pref_useful: 24389
stream:pref_late: 6836
stream:misses: 8131
stream:misses_by_poll: 0

CS: 
CS:times selected: 179681
CS:pref_filled: 59856
CS:pref_useful: 36555
CS:pref_late: 6895
CS:misses: 16182
CS:misses_by_poll: 10

CPLX: 
CPLX:times selected: 1004097
CPLX:pref_filled: 19158
CPLX:pref_useful: 4550
CPLX:pref_late: 3068
CPLX:misses: 92167
CPLX:misses_by_poll: 0

NL_L1: 
NL:times selected: 21192
NL:pref_filled: 748
NL:pref_useful: 378
NL:pref_late: 282
NL:misses: 1749
NL:misses_by_poll: 0

total selections: 2390048
total_filled: 93562
total_useful: 33572
total_late: 18670
total_polluted: 10
total_misses_after_warmup: 766323
conflicts: 5535316

test: 115414

DRAM Statistics
 CHANNEL 0
 RQ ROW_BUFFER_HIT:      10240  ROW_BUFFER_MISS:      17194
 DBUS_CONGESTED:         10
 WQ ROW_BUFFER_HIT:       1338  ROW_BUFFER_MISS:      12041  FULL:          0

 AVG_CONGESTED_CYCLE: 4

CPU 0 Branch Prediction Accuracy: 99.8226% MPKI: 0.32462 Average ROB Occupancy at Mispredict: 174.912
Branch types
NOT_BRANCH: 40851619 81.7032%
BRANCH_DIRECT_JUMP: 548144 1.09629%
BRANCH_INDIRECT: 182904 0.365808%
BRANCH_CONDITIONAL: 6181957 12.3639%
BRANCH_DIRECT_CALL: 945712 1.89142%
BRANCH_INDIRECT_CALL: 171889 0.343778%
BRANCH_RETURN: 1117605 2.23521%
BRANCH_OTHER: 0 0%

DRAM PAGES: 1048576
Allocated PAGES: 2580
Average_ROB_Occupancy: 212.271
Average_Decode_Occupancy: 27.2213
Average_FTQ_Occupancy: 10.579
Indirect max targets: 14 Average targets: 1.14765
Branch_type:  BRANCH_DIRECT_JUMP:  Count Percentage: 2.9132 6.78799 2.96082 4.81234 1.69935 6.83158 1.25434 72.7404 
Branch_type:  BRANCH_INDIRECT:  Count Percentage: 11.7687 3.42617 2.55218 13.3424 3.34572 4.81924 2.00491 58.7407 
Branch_type:  BRANCH_CONDITIONAL:  Count Percentage: 21.1775 2.89347 1.67272 3.20137 1.14122 5.4399 0.739576 63.7342 
Branch_type:  BRANCH_DIRECT_CALL:  Count Percentage: 0.754182 1.26362 1.13011 2.91895 1.99552 3.18921 0.769905 87.9785 
Branch_type:  BRANCH_INDIRECT_CALL:  Count Percentage: 9.52312 0.571736 2.9835 4.83546 0.00029096 3.77666 0.995665 77.3136 
Branch_type:  BRANCH_RETURN:  Count Percentage: 4.18933 0.696273 2.26756 3.59729 2.05752 5.61868 1.15793 80.4154 
Branch_type:  BRANCH_DIRECT_JUMP:  Total Count: 31874 74269 32395 52653 18593 74746 13724 795870 
Branch_type:  BRANCH_INDIRECT:  Total Count: 43009 12521 9327 48760 12227 17612 7327 214669 
Branch_type:  BRANCH_CONDITIONAL:  Total Count: 2616062 357431 206632 395466 140975 671992 91360 7873100 
Branch_type:  BRANCH_DIRECT_CALL:  Total Count: 14246 23869 21347 55137 37694 60242 14543 1661856 
Branch_type:  BRANCH_INDIRECT_CALL:  Total Count: 32730 1965 10254 16619 1 12980 3422 265719 
Branch_type:  BRANCH_RETURN:  Total Count: 93567 15551 50645 80344 45954 125491 25862 1796048 
Number of unique branch instructions: 10072
Upper 32 bits: 
aaaa
ffff
ffff0000
Unique upper 32 bits: 3
Unique upper 36 bits: 3
Unique upper 40 bits: 5
Unique upper 44 bits: 32
Unique upper 48 bits: 154
Variant_0 : 1390 0.339355
Variant_1 : 1287 0.314209
Variant_2 : 1350 0.32959
Variant_3 : 0 0
Offset_3 4161
Offset_4 250
Offset_5 458
Offset_6 516
Offset_7 596
Offset_8 524
Offset_9 477
Offset_10 388
Offset_11 321
Offset_12 273
Offset_13 213
Offset_14 227
Offset_15 197
Offset_16 230
Offset_17 151
Offset_18 128
Offset_19 246
Offset_20 142
Offset_21 235
Offset_22 398
Offset_23 241
Offset_24 338
Offset_25 88
Offset_47 82
decode_dispatch_called: 23582512 63.9384
Dispatch_width: 0 12388050 52.5307 33.5872
Dispatch_width: 1 826241 3.50362 2.24016
Dispatch_width: 2 762499 3.23332 2.06733
Dispatch_width: 3 473400 2.00742 1.28351
Dispatch_width: 4 4176276 17.7092 11.323
Dispatch_width: 5 212857 0.902605 0.577111
Dispatch_width: 6 4743189 20.1132 12.86
Empty_decode_cycles: 13300689 36.0616
ROB_full_cycles: 6531153 17.7077
Starvation_cycles_per_kilo_instr: 256.089
Starvation_cycles_per_kilo_instr_3: 212.197
Starvation_cycles_per_kilo_instr_0: 191.576
Branch_type_1  (3,1)  (4,9)  (5,37)  (6,72)  (7,118)  (8,130)  (9,125)  (10,99)  (11,72)  (12,44)  (13,8)  (14,2)  (15,3)  (16,4)  (18,1)  (19,4)  (20,2)  (21,1)  (22,3)  (23,2)  (24,10)  (25,12) 
Branch_type_2  (3,1)  (5,1)  (8,3)  (9,3)  (12,1)  (13,1)  (14,1)  (16,3)  (17,2)  (20,2)  (21,2)  (23,5)  (24,1)  (47,38) 
Branch_type_3  (3,4159)  (4,241)  (5,416)  (6,428)  (7,446)  (8,328)  (9,263)  (10,158)  (11,133)  (12,51)  (13,7) 
Branch_type_4  (6,4)  (7,8)  (8,26)  (9,54)  (10,62)  (11,60)  (12,98)  (13,90)  (14,100)  (15,94)  (16,104)  (17,66)  (18,58)  (19,120)  (20,74)  (21,124)  (22,212)  (23,136)  (24,198)  (25,72) 
Branch_type_5  (8,2)  (9,1)  (10,3)  (11,5)  (12,3)  (13,14)  (14,16)  (15,11)  (16,20)  (17,13)  (18,16)  (19,12)  (20,10)  (21,13)  (22,42)  (23,26)  (24,37) 
Branch_type_6  (5,4)  (6,12)  (7,24)  (8,35)  (9,31)  (10,66)  (11,51)  (12,76)  (13,93)  (14,108)  (15,89)  (16,99)  (17,70)  (18,53)  (19,110)  (20,54)  (21,95)  (22,141)  (23,72)  (24,92)  (25,4)  (47,44) 
Unique trigger count: 
Variant_0_evicts_0 : 0
Variant_0_evicts_1 : 0
Variant_0_evicts_2 : 0
Variant_0_evicts_3 : 0
Variant_1_evicts_0 : 0
Variant_1_evicts_1 : 0
Variant_1_evicts_2 : 0
Variant_1_evicts_3 : 0
Variant_2_evicts_0 : 0
Variant_2_evicts_1 : 0
Variant_2_evicts_2 : 0
Variant_2_evicts_3 : 0
Variant_3_evicts_0 : 0
Variant_3_evicts_1 : 0
Variant_3_evicts_2 : 0
Variant_3_evicts_3 : 0
BTB PER SET UNIQUE ADDR: 10 10 6 14 12 14 9 9 8 12 14 12 17 11 11 9 7 11 11 10 10 9 10 8 9 12 12 16 9 12 13 12 14 10 6 13 11 9 5 12 10 11 13 14 10 9 6 9 15 8 15 12 12 13 12 4 6 10 12 16 10 14 9 11 10 16 8 10 15 7 9 13 13 10 9 6 8 14 12 9 10 5 10 13 13 14 11 7 6 19 5 7 10 6 7 10 9 7 13 12 16 20 12 9 7 7 12 11 7 8 5 14 9 11 11 6 14 10 8 10 13 10 13 8 15 10 9 8 9 13 7 12 7 9 12 13 8 8 12 15 6 11 8 8 9 12 10 11 8 13 17 11 9 10 8 16 10 8 10 8 15 7 11 13 10 12 13 10 10 10 11 13 13 7 10 11 13 10 14 10 7 11 11 11 14 14 7 15 9 11 11 10 13 9 12 12 13 16 10 10 11 12 13 11 12 10 10 11 12 6 8 14 15 8 8 14 12 10 7 14 4 10 9 10 9 12 15 10 6 15 8 6 10 10 13 16 13 12 16 8 14 8 10 15 7 11 8 11 11 11 15 14 16 10 15 11 8 9 6 9 12 9 4 13 9 8 8 7 5 10 12 11 11 5 8 9 10 12 16 9 8 12 10 10 12 6 11 21 18 10 12 11 13 16 7 11 6 11 10 9 9 11 10 16 10 10 12 6 18 10 10 15 8 12 7 7 7 10 10 12 6 16 7 12 15 15 9 9 11 9 10 13 11 10 10 11 8 11 8 18 12 9 8 13 15 14 11 11 11 9 10 10 5 11 9 14 9 10 5 12 7 13 10 18 8 13 5 11 12 9 9 7 8 16 7 14 6 13 12 10 13 8 5 8 8 7 14 12 9 11 12 10 10 13 9 8 13 9 9 13 10 9 10 9 19 6 12 15 13 6 10 13 12 17 9 10 9 19 16 10 14 10 10 17 14 11 9 11 14 13 16 7 13 11 9 11 11 7 11 6 14 9 8 12 19 11 11 10 12 11 12 20 9 9 11 18 18 16 10 18 11 14 13 7 17 6 9 12 11 14 14 6 9 12 12 15 9 13 6 11 16 16 13 15 7 18 15 15 13 12 12 13 6 7 10 8 12 13 13 13 10 15 10 19 10 7 7 10 12 11 10 12 11 11 13 11 12 9 9 11 10 7 9 8 8 11 16 9 9 20 9 11 17 10 10 17 8 12 13 11 16 8 9 14 13 12 10 12 10 9 13 14 9 10 14 11 14 10 13 12 10 13 13 8 11 12 7 9 11 12 11 14 11 13 9 14 16 18 10 13 13 8 6 12 13 8 11 12 15 11 11 11 9 11 18 7 8 9 5 9 10 6 11 10 11 16 16 10 9 10 16 12 7 10 6 14 8 5 12 13 15 10 10 7 12 13 11 15 7 10 7 13 15 12 13 9 17 13 9 15 12 14 12 14 7 9 9 11 15 7 9 10 9 8 13 13 11 9 8 10 14 7 12 18 13 11 9 14 7 13 13 8 12 14 12 13 12 11 7 16 12 17 11 14 13 10 9 8 17 8 11 11 14 10 8 9 8 20 6 14 7 9 12 10 10 9 14 8 7 7 6 9 5 7 9 9 12 11 11 9 8 8 13 8 10 9 13 6 9 14 9 9 10 8 6 13 13 14 14 13 7 9 12 7 19 19 11 17 9 6 13 13 11 11 11 10 16 9 6 8 10 8 8 14 12 10 12 12 14 9 8 18 10 6 12 9 10 12 16 11 7 15 11 12 8 10 7 9 8 5 6 7 13 8 15 15 10 13 12 8 11 9 12 15 9 11 9 12 9 12 10 15 7 14 9 13 18 12 7 16 9 16 8 15 10 11 14 11 12 8 11 11 12 15 12 10 13 8 12 9 17 11 9 16 9 16 10 12 13 9 9 9 8 13 16 14 11 13 12 13 12 11 8 9 11 9 9 7 16 13 9 8 8 13 9 7 11 10 10 11 12 7 12 12 12 7 16 14 16 8 8 7 6 10 12 13 10 9 13 6 13 7 15 9 7 13 6 11 8 13 8 8 12 11 9 12 12 12 11 8 7 12 9 8 7 8 9 8 16 7 13 18 13 8 7 8 9 14 16 9 10 16 7 14 9 14 12 12 9 12 12 12 10 10 11 14 9 11 10 12 9 10 11 15 9 13 14 13 10 12 10 13 13 8 13 11 12 12 14 15 12 11 12 15 10 14 13 11 12 8 12 9 9 13 13 9 12 9 14 10 10 16 8 8 11 9 10 13 9 14 12 11 10 7 9 10 7 10 7 7 9 18 9 9 
BTB PER SET COUNT: 990 14 1975 14 1383 16 9 10 1473 16 18 15 20420 1476 11 9 985 12 504 11 17 12 719 13 14 12 13 22 11 15 176 13 22 20 6 219 12 10 5 25 12 13 15 1486 1476 11 6 9 602 13 18 428 15 17 17 4 7 11 17 17 14 3407 9 11 14 23 12 1027 15 8 9 966 17 13 10 10 8 21 14 11 994 5 14 20 13 14 22 7 11 43 5 854 288 6 8 11 144 8 17 23 18 672 13 15 1964 9 15 11 990 9 5 35 981 14 13 8 20 12 1440 14 17 14 25 10 16 11 10 12 13 967 8 19 9 10 12 14 686 10 15 23 7 18 10 9 10 398 55 17 13 199 22 293 1365 12 8 22 14 11 19 9 22 216 46 16 23 1679 16 10 14 1523 22 16 17 11 14 17 14 15 242 512 9 137 14 19 20 16 7 19 314 992 16 13 22 17 17 12 13 194 11 396 13 17 988 20 12 13 14 510 13 6 10 20 32 8028 12 775 17 12 1134 19 8 19 344 13 10 34 20 257 6 23 13 9 11 11 19 23 45 18 22 10 19 9 10 387 7 11 8 11 12 22 22 16 18 10 18 555 76 15 7 13 565 13 4 50 10 8 9 10 1940 21 15 992 19 6 8 11 11 14 21 190 9 19 291 11 12 7 11 26 19 10 14 18 19 25 9 21 7 11 16 15 13 13 305 24 10 17 22 6 24 14 985 17 9 16 1961 7 7 13 19 18 9 920 7 16 17 516 15 11 16 10 18 18 14 11 10 17 11 987 10 25 13 1139 10 19 25 19 13 17 12 15 14 136 5 12 9 21 10 13 5 18 9 20 15 27 8 178 6 13 15 13 12 278 9 231 9 17 6 14 23 12 1000 10 978 8 10 7 784 20 10 127 23 10 15 58 11 9 16 11 11 16 12 13 1029 10 28 6 21 98 22 8 14 17 13 27 11 10 13 181 317 11 23 20 13 32 21 12 14 17 15 20 39 9 24 17 13 21 15 26 15 7 16 9 8 14 215 18 350 14 12 11 809 708 10 11 11 580 23 22 10 31 15 20 13 8 17 6 159 22 13 19 16 6 12 17 19 23 10 19 6 14 22 32 20 18 9 29 21 16 19 181 755 14 7835 9 14 12 994 13 23 14 11 17 13 172 14 8 10 16 12 14 14 21 16 152 21 13 13 10 11 35 13 9 9 489 9 17 53 10 16 1510 13 12 23 14 14 19 14 784 21 13 25 8 9 16 18 14 12 13 13 992 19 15 9 13 17 14 20 10 17 23 15 14 23 9 355 18 128 11 17 133 930 19 13 16 2442 14 23 57 11 25 13 16 6 4387 17 12 13 12 21 11 11 14 12 11 27 7 10 395 6 9 14 8 16 14 13 22 28 1929 9 14 20 1360 7 11 6 18 8 5 19 18 20 11 12 685 16 14 17 18 10 14 9 21 19 19 18 9 34 794 13 15 14 19 14 14 7 172 992 16 1951 11 11 10 9 12 31 280 17 16 974 12 132 7 20 31 691 14 10 18 1474 27 18 8 757 19 18 513 18 14 7 32 12 19 12 17 53 14 10 9 105 13 15 16 29 14 1987 10 8 28 6 21 7 19 1479 13 10 11 22 13 7 8 6 10 986 9 10 31 504 12 15 11 277 13 15 2387 14 10 18 9 9 2271 423 6478 13 13 6 16 19 26 27 15 1000 14 17 9 24 32 15 20 15 7 1480 13 12 1970 1139 15 33 12 6 11 14 8 9 295 16 13 12 14 18 10 10 18 13 7 21 9 10 16 20 19 993 20 1105 13 9 59 7 10 100 5 6 431 19 8 760 22 10 19 15 981 13 10 16 290 11 15 9 16 11 62 15 32 8 345 415 716 26 1481 10 2940 13 811 8 17 230 11 25 11 17 11 13 12 15 18 516 19 18 11 997 15 33 14 11 19 9 22 12 12 20 21 1477 1199 14 18 1481 27 12 21 21 15 16 12 8 14 17 9 9 11 29 15 10 14 10 16 10 7 13 14 2067 14 13 7 135 13 232 9 19 23 20 413 11 9 6 14 19 23 13 12 15 6 16 10 20 249 8 24 7 19 8 340 8 11 20 14 11 992 16 155 11 11 9 37 656 8 7 245 12 9 21 16 13 29 543 14 7 228 16 28 30 10 10 1772 15 18 10 23 106 14 12 14 14 1009 16 1477 12 23 12 14 14 787 17 12 529 20 17 17 25 16 13 16 17 17 14 14 26 17 16 18 1002 86 12 12 15 756 18 1122 23 504 16 8 16 10 13 363 17 9 14 1479 22 14 16 142 11 8 11 11 14 17 14 990 612 16 12 10 11 12 9 14 8 7 9 513 13 15 
To predecode: 0
Predecoding something: 0
Predecode request dropped: 0
sizeofblock_0 0
sizeofblock_1 32427
sizeofblock_2 35207
sizeofblock_3 47388
sizeofblock_4 22972
sizeofblock_5 0
sizeofblock_6 0
sizeofblock_7 0
sizeofblock_8 0
Variant_0 Correct: 1612068 Incorrect: 0 Accuracy: 1
Variant_1 Correct: 2088783 Incorrect: 0 Accuracy: 1
Variant_2 Correct: 3639709 Incorrect: 0 Accuracy: 1
Variant_3 Correct: 0 Incorrect: 0 Accuracy: -nan
