
*** ChampSim Multicore Out-of-Order Simulator ***

Warmup Instructions: 50000000
Simulation Instructions: 50000000
Number of CPUs: 1
LLC sets: 2048
LLC ways: 16
Off-chip DRAM Size: 4096 MB Channels: 1 Width: 64-bit Data Rate: 6400 MT/s
CPU 0 runs ./micro_traces/srv122.trace.gz
.gz
ITLB has LRU replacement policy
DTLB has LRU replacement policy
STLB has LRU replacement policy
CPU 0 L1I next line prefetcher
L1I has LRU replacement policy
L1D has LRU replacement policy
Initialize SRRIP state for L2C
Initialize DRRIP state for LLC
Heartbeat CPU 0 instructions: 10000002 cycles: 2796888 heartbeat IPC: 3.5754 cumulative IPC: 3.5754 (Simulation time: 0 hr 1 min 38 sec) 
Heartbeat CPU 0 instructions: 20000003 cycles: 5591166 heartbeat IPC: 3.57874 cumulative IPC: 3.57707 (Simulation time: 0 hr 3 min 15 sec) 
Heartbeat CPU 0 instructions: 30000001 cycles: 8386472 heartbeat IPC: 3.57743 cumulative IPC: 3.57719 (Simulation time: 0 hr 4 min 52 sec) 
Heartbeat CPU 0 instructions: 40000003 cycles: 11183268 heartbeat IPC: 3.57552 cumulative IPC: 3.57677 (Simulation time: 0 hr 6 min 27 sec) 
Heartbeat CPU 0 instructions: 50000002 cycles: 13979174 heartbeat IPC: 3.57666 cumulative IPC: 3.57675 (Simulation time: 0 hr 8 min 7 sec) 

Warmup complete CPU 0 instructions: 50000002 cycles: 13979174 (Simulation time: 0 hr 8 min 7 sec) 

Cycle: 20000000 FTQ IN: 58138648 FTQ occupancy: 18.6818 DECODE IN: 58138572 DECODE occupancy: 49.778 ROB IN: 58138512 ROB occupancy: 308.156 ROB OUT: 58138164
Heartbeat CPU 0 instructions: 60000000 cycles: 21371790 heartbeat IPC: 1.3527 cumulative IPC: 1.3527 (Simulation time: 0 hr 9 min 43 sec) 
Heartbeat CPU 0 instructions: 70000002 cycles: 28858829 heartbeat IPC: 1.33564 cumulative IPC: 1.34412 (Simulation time: 0 hr 11 min 19 sec) 
Cycle: 30000000 FTQ IN: 13403707 FTQ occupancy: 8.8626 DECODE IN: 13403765 DECODE occupancy: 26.3475 ROB IN: 13403825 ROB occupancy: 217.312 ROB OUT: 13404159
Heartbeat CPU 0 instructions: 80000001 cycles: 36245492 heartbeat IPC: 1.35379 cumulative IPC: 1.34733 (Simulation time: 0 hr 12 min 55 sec) 
Cycle: 40000000 FTQ IN: 13446382 FTQ occupancy: 8.79506 DECODE IN: 13446302 DECODE occupancy: 26.3961 ROB IN: 13446242 ROB occupancy: 218.714 ROB OUT: 13446174
Heartbeat CPU 0 instructions: 90000002 cycles: 43697558 heartbeat IPC: 1.34191 cumulative IPC: 1.34597 (Simulation time: 0 hr 14 min 31 sec) 
Cycle: 50000000 FTQ IN: 13555099 FTQ occupancy: 8.65003 DECODE IN: 13555131 DECODE occupancy: 26.0186 ROB IN: 13555191 ROB occupancy: 217.324 ROB OUT: 13555221
Heartbeat CPU 0 instructions: 100000000 cycles: 51081052 heartbeat IPC: 1.35437 cumulative IPC: 1.34764 (Simulation time: 0 hr 16 min 6 sec) 
Finished CPU 0 instructions: 50000002 cycles: 37101879 cumulative IPC: 1.34764 (Simulation time: 0 hr 16 min 6 sec) 

ChampSim completed all CPUs

Region of Interest Statistics

CPU 0 cumulative IPC: 1.34764 instructions: 50000002 cycles: 37101879
 Fetch stage stalled: 60.4183  Sim cycles: 37101879 fetch stall cycle: 22416338
 Empty decode stage: 41.9183  Sim cycles: 37101879 fetch stall cycle: 15552482
ITLB TOTAL     ACCESS:    7735093  HIT:    7126028  MISS:     609065  HIT %:     92.126  MISS %:    7.87405   MPKI: 12.1813
ITLB LOAD TRANSLATION INSTRUCTION	ACCESS:    5987939  HIT:    5864227  MISS:     123712  HIT %:     97.934  MISS %:    2.06602  MPKI: 2.47424
ITLB TRANSLATION FROM L1D PREFETCHER INSTRUCTION	ACCESS:    1747154  HIT:    1261801  MISS:     485353  HIT %:    72.2204  MISS %:    27.7796  MPKI: 9.70706

ITLB AVERAGE MISS LATENCY: 128081 cycles
ITLB RQ	ACCESS:   11646117	FORWARD:          0	MERGED:    3767267	TO_CACHE:    7878850

DTLB TOTAL     ACCESS:    8998005  HIT:    8526142  MISS:     471863  HIT %:    94.7559  MISS %:    5.24408   MPKI: 9.43726
DTLB LOAD TRANSLATION DATA	ACCESS:    8998005  HIT:    8526142  MISS:     471863  HIT %:    94.7559  MISS %:    5.24408  MPKI: 9.43726

DTLB AVERAGE MISS LATENCY: 9.3295 cycles
DTLB RQ	ACCESS:   13369546	FORWARD:          0	MERGED:    4335547	TO_CACHE:    9033999

STLB TOTAL     ACCESS:    1327424  HIT:    1325510  MISS:       1914  HIT %:    99.8558  MISS %:   0.144189   MPKI: 0.03828
STLB LOAD TRANSLATION INSTRUCTION	ACCESS:     121252  HIT:     121129  MISS:        123  HIT %:    99.8986  MISS %:   0.101442  MPKI: 0.00246
STLB TRANSLATION FROM L1D PREFETCHER INSTRUCTION	ACCESS:     487813  HIT:     487726  MISS:         87  HIT %:    99.9822  MISS %:  0.0178347  MPKI: 0.00174
STLB LOAD TRANSLATION DATA	ACCESS:     471863  HIT:     470167  MISS:       1696  HIT %:    99.6406  MISS %:   0.359426  MPKI: 0.03392
STLB TRANSLATION FROM L1D PREFETCHER DATA	ACCESS:     246496  HIT:     246488  MISS:          8  HIT %:    99.9968  MISS %: 0.00324549  MPKI: 0.00016

STLB AVERAGE MISS LATENCY: 77.779 cycles
STLB RQ	ACCESS:    1461187	FORWARD:          0	MERGED:     130333	TO_CACHE:    1330854

STLB Hit, L1D data hit: 0
STLB Hit, L2C data hit: 0
STLB Hit, LLC data hit: 0
STLB Hit, LLC data miss: 0
STLB STLB hints to L2: 0
L1D TOTAL     ACCESS:   13098647  HIT:   11954067  MISS:    1144580  HIT %:    91.2618  MISS %:    8.73815   MPKI: 22.8916
L1D LOAD DATA	ACCESS:    6582100  HIT:    5824009  MISS:     758091  HIT %:    88.4825  MISS %:    11.5175  MPKI: 15.1618
L1D RFO DATA	ACCESS:    6191476  HIT:    5905291  MISS:     286185  HIT %:    95.3778  MISS %:    4.62224  MPKI: 5.7237
L1D PREFETCH DATA	ACCESS:     325071  HIT:     224767  MISS:     100304  HIT %:     69.144  MISS %:     30.856  MPKI: 2.00608

L1D PREFETCH  REQUESTED:     754148  ISSUED:     754148  USEFUL:      39130  USELESS:      72201
L1D USEFUL LOAD PREFETCHES:      39130 PREFETCH ISSUED TO LOWER LEVEL:     111373  ACCURACY: 35.1342
 TIMELY PREFETCHES:      39130 LATE PREFETCHES: 11007 DROPPED PREFETCHES: 5
L1D AVERAGE MISS LATENCY: 311310 cycles
L1D RQ	ACCESS:   10693603	FORWARD:          0	MERGED:    3910497	TO_CACHE:    6622054
L1D WQ	ACCESS:    6945468	FORWARD:     161466	MERGED:     197976	TO_CACHE:    6747492
L1D PQ	ACCESS:     377281	FORWARD:          0	MERGED:          0	TO_CACHE:     376867

L1D UNIQUE REGIONS ACCESSED: 0
L1D REGIONS CONFLICTS: 0
L1D Cross Page Prefetch Requests: 5368
L1D Same Page Prefetch Requests: 764383
L1D ROI Sum of L1D PQ occupancy: 4799492
L1D PREFETCHES PUSHED FROM L2C: 0
L1I TOTAL     ACCESS:   11241213  HIT:    7599601  MISS:    3641612  HIT %:    67.6048  MISS %:    32.3952   MPKI: 72.8322
L1I LOAD INSTRUCTION	ACCESS:    6714458  HIT:    6153319  MISS:     561139  HIT %:    91.6428  MISS %:    8.35717  MPKI: 11.2228
L1I PREFETCH INSTRUCTION	ACCESS:    4526755  HIT:    1446282  MISS:    3080473  HIT %:    31.9496  MISS %:    68.0504  MPKI: 61.6095

L1I PREFETCH  REQUESTED:    5185238  ISSUED:    5184313  USEFUL:    2401411  USELESS:     775438
L1I USEFUL LOAD PREFETCHES:    2401411 PREFETCH ISSUED TO LOWER LEVEL:    3176876  ACCURACY: 75.5903
 TIMELY PREFETCHES:    2401411 LATE PREFETCHES: 96399 DROPPED PREFETCHES: 9581
L1I AVERAGE MISS LATENCY: 846583 cycles
L1I RQ	ACCESS:    9468985	FORWARD:          0	MERGED:    2693706	TO_CACHE:    6775279
L1I PQ	ACCESS:    5184313	FORWARD:          0	MERGED:     313475	TO_CACHE:    4870838

L1BTB TOTAL     ACCESS:    5676332  HIT:    2029565  MISS:    3646767  HIT %:    35.7549  MISS %:    64.2451   MPKI: 72.9353
L1BTB BRANCH_DIRECT_JUMP	ACCESS:     546511  HIT:     142151  MISS:     404360	AVERAGE STALL: 31.5423
L1BTB BRANCH_INDIRECT	ACCESS:     181659  HIT:      65038  MISS:     116621	AVERAGE STALL: 123.549
L1BTB BRANCH_CONDITIONAL	ACCESS:    2705088  HIT:    1407583  MISS:    1297505	AVERAGE STALL: 40.0422
L1BTB BRANCH_DIRECT_CALL	ACCESS:     949344  HIT:     104588  MISS:     844756	AVERAGE STALL: 44.4892
L1BTB BRANCH_INDIRECT_CALL	ACCESS:     172193  HIT:      21010  MISS:     151183	AVERAGE STALL: 146.453
L1BTB BRANCH_RETURN	ACCESS:    1121537  HIT:     289195  MISS:     832342	AVERAGE STALL: 40.8327
L1BTB BRANCH_OTHER ACCESS:          0  HIT:          0  MISS:          0	AVERAGE STALL: -nan
L1BTB TOTAL ROB OCCUPANCY AT BTB MISS: 5.55959

L2BTB1 TOTAL     ACCESS:    3621611  HIT:    3498903  MISS:     122708  HIT %:    96.6118  MISS %:    3.38822   MPKI: 2.45416
L2BTB1 BRANCH_DIRECT_JUMP	ACCESS:     400334  HIT:     392302  MISS:       8032	AVERAGE STALL: 31.5423
L2BTB1 BRANCH_INDIRECT	ACCESS:     106298  HIT:      95232  MISS:      11066	AVERAGE STALL: 123.549
L2BTB1 BRANCH_CONDITIONAL	ACCESS:    1297505  HIT:    1283096  MISS:      14409	AVERAGE STALL: 40.0422
L2BTB1 BRANCH_DIRECT_CALL	ACCESS:     844756  HIT:     822231  MISS:      22525	AVERAGE STALL: 44.4892
L2BTB1 BRANCH_INDIRECT_CALL	ACCESS:     141798  HIT:     128792  MISS:      13006	AVERAGE STALL: 146.453
L2BTB1 BRANCH_RETURN	ACCESS:     830920  HIT:     777250  MISS:      53670	AVERAGE STALL: 40.8327
L2BTB1 BRANCH_OTHER ACCESS:          0  HIT:          0  MISS:          0	AVERAGE STALL: -nan
L2BTB1 TOTAL ROB OCCUPANCY AT BTB MISS: 165.226

L2C TOTAL     ACCESS:    6649737  HIT:    5693282  MISS:     956455  HIT %:    85.6166  MISS %:    14.3834   MPKI: 19.1291
L2C LOAD INSTRUCTION	ACCESS:     464740  HIT:     372940  MISS:      91800  HIT %:     80.247  MISS %:     19.753  MPKI: 1.836
L2C PREFETCH INSTRUCTION	ACCESS:    3176873  HIT:    2821518  MISS:     355355  HIT %:    88.8143  MISS %:    11.1857  MPKI: 7.1071
L2C LOAD TRANSLATION INSTRUCTION	ACCESS:        133  HIT:         37  MISS:         96  HIT %:    27.8195  MISS %:    72.1805  MPKI: 0.00192
L2C TRANSLATION FROM L1D PREFETCHER INSTRUCTION	ACCESS:       4163  HIT:       3902  MISS:        261  HIT %:    93.7305  MISS %:    6.26952  MPKI: 0.00522
L2C LOAD DATA	ACCESS:     747038  HIT:     605596  MISS:     141442  HIT %:    81.0663  MISS %:    18.9337  MPKI: 2.82884
L2C RFO DATA	ACCESS:     286084  HIT:     207267  MISS:      78817  HIT %:    72.4497  MISS %:    27.5503  MPKI: 1.57634
L2C PREFETCH DATA	ACCESS:    1441645  HIT:    1189766  MISS:     251879  HIT %:    82.5284  MISS %:    17.4716  MPKI: 5.03758
L2C WRITEBACK DATA	ACCESS:     527297  HIT:     491927  MISS:      35370  HIT %:    93.2922  MISS %:    6.70779  MPKI: 0.7074
L2C LOAD TRANSLATION DATA	ACCESS:       1744  HIT:        316  MISS:       1428  HIT %:    18.1193  MISS %:    81.8807  MPKI: 0.02856
L2C TRANSLATION FROM L1D PREFETCHER DATA	ACCESS:         20  HIT:         13  MISS:          7  HIT %:         65  MISS %:         35  MPKI: 0.00014

L2C PREFETCH  REQUESTED:    3281116  ISSUED:    3281116  USEFUL:      29639  USELESS:     580468
L2C USEFUL LOAD PREFETCHES:      29639 PREFETCH ISSUED TO LOWER LEVEL:     609166  ACCURACY: 4.8655
 TIMELY PREFETCHES:      29639 LATE PREFETCHES: 1929 DROPPED PREFETCHES: 0
L2C AVERAGE MISS LATENCY: 33.7262 cycles
L2C RQ	ACCESS:    1504008	FORWARD:          0	MERGED:          0	TO_CACHE:    1503923
L2C WQ	ACCESS:     527298	FORWARD:         85	MERGED:          0	TO_CACHE:     527298
L2C PQ	ACCESS:    6569365	FORWARD:          0	MERGED:    1929301	TO_CACHE:    4640064

L2C Dense regions hint from L2: 0
PSCL5 TOTAL     ACCESS:      10624  HIT:       5312  MISS:       5312  HIT %:         50  MISS %:         50   MPKI: 0.10624
PSCL5 LOAD TRANSLATION INSTRUCTION	ACCESS:       3626  HIT:       1813  MISS:       1813  HIT %:         50  MISS %:         50  MPKI: 0.03626
PSCL5 TRANSLATION FROM L1D PREFETCHER INSTRUCTION	ACCESS:       6998  HIT:       3499  MISS:       3499  HIT %:         50  MISS %:         50  MPKI: 0.06998


PSCL4 TOTAL     ACCESS:      10471  HIT:       5233  MISS:       5238  HIT %:    49.9761  MISS %:    50.0239   MPKI: 0.10476
PSCL4 LOAD TRANSLATION INSTRUCTION	ACCESS:       2265  HIT:       1743  MISS:        522  HIT %:    76.9536  MISS %:    23.0464  MPKI: 0.01044
PSCL4 TRANSLATION FROM L1D PREFETCHER INSTRUCTION	ACCESS:       4491  HIT:       3490  MISS:       1001  HIT %:     77.711  MISS %:     22.289  MPKI: 0.02002
PSCL4 LOAD TRANSLATION DATA	ACCESS:       1226  HIT:          0  MISS:       1226  HIT %:          0  MISS %:        100  MPKI: 0.02452
PSCL4 TRANSLATION FROM L1D PREFETCHER DATA	ACCESS:       2489  HIT:          0  MISS:       2489  HIT %:          0  MISS %:        100  MPKI: 0.04978


PSCL3 TOTAL     ACCESS:      10565  HIT:       5280  MISS:       5285  HIT %:    49.9763  MISS %:    50.0237   MPKI: 0.1057
PSCL3 LOAD TRANSLATION INSTRUCTION	ACCESS:       2312  HIT:       1790  MISS:        522  HIT %:    77.4221  MISS %:    22.5779  MPKI: 0.01044
PSCL3 TRANSLATION FROM L1D PREFETCHER INSTRUCTION	ACCESS:       4491  HIT:       3490  MISS:       1001  HIT %:     77.711  MISS %:     22.289  MPKI: 0.02002
PSCL3 LOAD TRANSLATION DATA	ACCESS:       1273  HIT:          0  MISS:       1273  HIT %:          0  MISS %:        100  MPKI: 0.02546
PSCL3 TRANSLATION FROM L1D PREFETCHER DATA	ACCESS:       2489  HIT:          0  MISS:       2489  HIT %:          0  MISS %:        100  MPKI: 0.04978


PSCL2 TOTAL     ACCESS:       9217  HIT:       4574  MISS:       4643  HIT %:    49.6257  MISS %:    50.3743   MPKI: 0.09286
PSCL2 LOAD TRANSLATION INSTRUCTION	ACCESS:       1887  HIT:       1755  MISS:        132  HIT %:    93.0048  MISS %:    6.99523  MPKI: 0.00264
PSCL2 TRANSLATION FROM L1D PREFETCHER INSTRUCTION	ACCESS:       5618  HIT:       2819  MISS:       2799  HIT %:     50.178  MISS %:     49.822  MPKI: 0.05598
PSCL2 LOAD TRANSLATION DATA	ACCESS:       1692  HIT:          0  MISS:       1692  HIT %:          0  MISS %:        100  MPKI: 0.03384
PSCL2 TRANSLATION FROM L1D PREFETCHER DATA	ACCESS:         20  HIT:          0  MISS:         20  HIT %:          0  MISS %:        100  MPKI: 0.0004


LLC TOTAL     ACCESS:    1042110  HIT:    1013593  MISS:      28517  HIT %:    97.2635  MISS %:    2.73647   MPKI: 0.57034
LLC LOAD INSTRUCTION	ACCESS:      90899  HIT:      90597  MISS:        302  HIT %:    99.6678  MISS %:   0.332237  MPKI: 0.00604
LLC PREFETCH INSTRUCTION	ACCESS:     352714  HIT:     352297  MISS:        417  HIT %:    99.8818  MISS %:   0.118226  MPKI: 0.00834
LLC LOAD TRANSLATION INSTRUCTION	ACCESS:         96  HIT:         78  MISS:         18  HIT %:      81.25  MISS %:      18.75  MPKI: 0.00036
LLC TRANSLATION FROM L1D PREFETCHER INSTRUCTION	ACCESS:        261  HIT:        249  MISS:         12  HIT %:    95.4023  MISS %:     4.5977  MPKI: 0.00024
LLC LOAD DATA	ACCESS:     140491  HIT:     136820  MISS:       3671  HIT %:     97.387  MISS %:    2.61298  MPKI: 0.07342
LLC RFO DATA	ACCESS:      78716  HIT:      65854  MISS:      12862  HIT %:    83.6602  MISS %:    16.3398  MPKI: 0.25724
LLC PREFETCH DATA	ACCESS:     256449  HIT:     245581  MISS:      10868  HIT %:    95.7621  MISS %:    4.23788  MPKI: 0.21736
LLC WRITEBACK DATA	ACCESS:     121049  HIT:     120770  MISS:        279  HIT %:    99.7695  MISS %:   0.230485  MPKI: 0.00558
LLC LOAD TRANSLATION DATA	ACCESS:       1428  HIT:       1340  MISS:         88  HIT %:    93.8375  MISS %:    6.16246  MPKI: 0.00176
LLC TRANSLATION FROM L1D PREFETCHER DATA	ACCESS:          7  HIT:          7  MISS:          0  HIT %:        100  MISS %:          0  MPKI: 0

LLC AVERAGE MISS LATENCY: 161.182 cycles
LLC RQ	ACCESS:     311923	FORWARD:          0	MERGED:          0	TO_CACHE:     311899
LLC WQ	ACCESS:     121049	FORWARD:         24	MERGED:          0	TO_CACHE:     121049
LLC PQ	ACCESS:     609166	FORWARD:          0	MERGED:          0	TO_CACHE:     609166

LLC Dense regions hint to LLC: 0

RAW hits: 1929160
Loads Generated: 12622763
Loads sent to L1D: 10693603
Stores Generated: 6945471
Stores sent to L1D: 6945468
Major fault: 0 Minor fault: 2477
Allocated PAGES: 2477
I-Shadow cache 408 bytes
Touched + WorthPF tables 12288 bytes 
MMA filter 174 bytes 
FNL filter 272 bytes 
TOTAL PREFETCHER STORAGE SIZE: 31318 bytes
CPU 0 L1I next line prefetcher final stats

stream: 
stream:times selected: 1189550
stream:pref_filled: 122218
stream:pref_useful: 23976
stream:pref_late: 9215
stream:misses: 9420
stream:misses_by_poll: 0

CS: 
CS:times selected: 177962
CS:pref_filled: 58067
CS:pref_useful: 33226
CS:pref_late: 14196
CS:misses: 25693
CS:misses_by_poll: 8

CPLX: 
CPLX:times selected: 1010400
CPLX:pref_filled: 22772
CPLX:pref_useful: 5747
CPLX:pref_late: 3976
CPLX:misses: 111392
CPLX:misses_by_poll: 3

NL_L1: 
NL:times selected: 13188
NL:pref_filled: 676
NL:pref_useful: 154
NL:pref_late: 309
NL:misses: 1237
NL:misses_by_poll: 0

total selections: 2391100
total_filled: 100304
total_useful: 39130
total_late: 29643
total_polluted: 11
total_misses_after_warmup: 798048
conflicts: 5543369

test: 114155

DRAM Statistics
 CHANNEL 0
 RQ ROW_BUFFER_HIT:       9995  ROW_BUFFER_MISS:      18241
 DBUS_CONGESTED:         15
 WQ ROW_BUFFER_HIT:       1350  ROW_BUFFER_MISS:      11777  FULL:          0

 AVG_CONGESTED_CYCLE: 5

CPU 0 Branch Prediction Accuracy: 99.8244% MPKI: 0.3217 Average ROB Occupancy at Mispredict: 184.247
Branch types
NOT_BRANCH: 40838261 81.6765%
BRANCH_DIRECT_JUMP: 546511 1.09302%
BRANCH_INDIRECT: 181659 0.363318%
BRANCH_CONDITIONAL: 6190432 12.3809%
BRANCH_DIRECT_CALL: 949344 1.89869%
BRANCH_INDIRECT_CALL: 172193 0.344386%
BRANCH_RETURN: 1121537 2.24307%
BRANCH_OTHER: 0 0%

DRAM PAGES: 1048576
Allocated PAGES: 2477
Average_ROB_Occupancy: 218.475
Average_Decode_Occupancy: 26.2097
Average_FTQ_Occupancy: 8.75261
Indirect max targets: 14 Average targets: 1.14527
Branch_type:  BRANCH_DIRECT_JUMP:  Count Percentage: 3.59886 5.89908 4.35202 9.75361 2.75148 6.50234 1.64019 65.5024 
Branch_type:  BRANCH_INDIRECT:  Count Percentage: 19.726 3.35594 5.25442 3.80853 3.35594 10.8769 3.25105 50.3712 
Branch_type:  BRANCH_CONDITIONAL:  Count Percentage: 21.4842 6.55547 2.67338 4.89998 2.73745 8.57622 1.08029 51.993 
Branch_type:  BRANCH_DIRECT_CALL:  Count Percentage: 0.795755 1.301 0.982275 4.77922 2.96549 3.00431 0.775505 85.3964 
Branch_type:  BRANCH_INDIRECT_CALL:  Count Percentage: 9.56259 0 3.00024 4.30824 0 3.74726 0.991375 78.3903 
Branch_type:  BRANCH_RETURN:  Count Percentage: 5.13063 4.33377 2.69156 4.07276 5.66942 9.98441 1.4387 66.6787 
Branch_type:  BRANCH_DIRECT_JUMP:  Total Count: 39302 64422 47527 106516 30048 71010 17912 715331 
Branch_type:  BRANCH_INDIRECT:  Total Count: 71652 12190 19086 13834 12190 39509 11809 182967 
Branch_type:  BRANCH_CONDITIONAL:  Total Count: 2658193 811095 330772 606265 338699 1061118 133662 6432991 
Branch_type:  BRANCH_DIRECT_CALL:  Total Count: 15090 24671 18627 90629 56235 56971 14706 1619383 
Branch_type:  BRANCH_INDIRECT_CALL:  Total Count: 32950 0 10338 14845 0 12912 3416 270111 
Branch_type:  BRANCH_RETURN:  Total Count: 115012 97149 60336 91298 127090 223818 32251 1494720 
Number of unique branch instructions: 9804
Upper 32 bits: 
aaaa
ffff
ffff0000
Unique upper 32 bits: 3
Unique upper 36 bits: 3
Unique upper 40 bits: 5
Unique upper 44 bits: 32
Unique upper 48 bits: 154
Offset_3 4031
Offset_4 243
Offset_5 449
Offset_6 498
Offset_7 571
Offset_8 507
Offset_9 463
Offset_10 374
Offset_11 301
Offset_12 269
Offset_13 203
Offset_14 227
Offset_15 184
Offset_16 220
Offset_17 145
Offset_18 118
Offset_19 234
Offset_20 136
Offset_21 235
Offset_22 391
Offset_23 241
Offset_24 331
Offset_25 88
Offset_47 82
Offset_64 2
decode_dispatch_called: 25140822 67.7616
Dispatch_width: 0 13547706 53.8873 36.5149
Dispatch_width: 1 902587 3.59013 2.43273
Dispatch_width: 2 933901 3.71468 2.51713
Dispatch_width: 3 596755 2.37365 1.60842
Dispatch_width: 4 4615282 18.3577 12.4395
Dispatch_width: 5 289326 1.15082 0.779815
Dispatch_width: 6 4255265 16.9257 11.4691
Empty_decode_cycles: 11961057 32.2384
ROB_full_cycles: 7154411 19.2832
Starvation_cycles_per_kilo_instr: 256.922
Starvation_cycles_per_kilo_instr_3: 207.876
Starvation_cycles_per_kilo_instr_0: 183.544
Branch_type_1  (3,1)  (4,9)  (5,37)  (6,68)  (7,112)  (8,128)  (9,122)  (10,97)  (11,67)  (12,43)  (13,5)  (14,2)  (15,3)  (16,4)  (18,1)  (19,4)  (20,2)  (21,1)  (22,3)  (23,2)  (24,10)  (25,12)  (64,1) 
Branch_type_2  (3,1)  (5,1)  (8,3)  (9,3)  (12,1)  (13,1)  (14,1)  (16,3)  (17,2)  (20,2)  (21,2)  (23,5)  (24,1)  (47,38) 
Branch_type_3  (3,4029)  (4,234)  (5,407)  (6,415)  (7,430)  (8,315)  (9,255)  (10,151)  (11,120)  (12,50)  (13,4)  (64,1) 
Branch_type_4  (6,3)  (7,8)  (8,25)  (9,51)  (10,60)  (11,58)  (12,96)  (13,88)  (14,100)  (15,86)  (16,98)  (17,64)  (18,53)  (19,115)  (20,71)  (21,124)  (22,208)  (23,136)  (24,192)  (25,72) 
Branch_type_5  (8,2)  (9,1)  (10,3)  (11,5)  (12,3)  (13,14)  (14,16)  (15,11)  (16,20)  (17,11)  (18,16)  (19,12)  (20,10)  (21,13)  (22,42)  (23,26)  (24,37) 
Branch_type_6  (5,4)  (6,12)  (7,21)  (8,34)  (9,31)  (10,63)  (11,51)  (12,76)  (13,91)  (14,108)  (15,84)  (16,95)  (17,68)  (18,48)  (19,103)  (20,51)  (21,95)  (22,138)  (23,72)  (24,91)  (25,4)  (47,44) 
Unique trigger count: 
L2BTB1 1536 4
L2BTB2 1536 4
L2BTB3 1536 4
L2BTB4 224 4
