
*** ChampSim Multicore Out-of-Order Simulator ***

Warmup Instructions: 50000000
Simulation Instructions: 50000000
Number of CPUs: 1
LLC sets: 2048
LLC ways: 16
Off-chip DRAM Size: 4096 MB Channels: 1 Width: 64-bit Data Rate: 6400 MT/s
CPU 0 runs ./micro_traces/srv197.trace.gz
.gz
ITLB has LRU replacement policy
DTLB has LRU replacement policy
STLB has LRU replacement policy
FDIP Prefetcher at L1I
L1I has LRU replacement policy
L1D has LRU replacement policy
Initialize SRRIP state for L2C
Initialize DRRIP state for LLC
Heartbeat_Variant_0 : 1342 0.327637 per_variant_size: 0 1342 0 0 0 0 0 0 0 
Heartbeat_Variant_1 : 2566 0.626465 per_variant_size: 0 548 2018 0 0 0 0 0 0 
Heartbeat_Variant_2 : 0 0 per_variant_size: 0 0 0 0 0 0 0 0 0 
Heartbeat_Variant_3 : 0 0 per_variant_size: 0 0 0 0 0 0 0 0 0 
Heartbeat_Variant_0_evicts 0 : 5784 1 : 518 2 : 0 3 : 0 
Heartbeat_Variant_1_evicts 0 : 480 1 : 0 2 : 0 3 : 0 
Heartbeat_Variant_2_evicts 0 : 0 1 : 0 2 : 0 3 : 0 
Heartbeat_Variant_3_evicts 0 : 0 1 : 0 2 : 0 3 : 0 
Heartbeat CPU 0 instructions: 10000002 cycles: 2796183 heartbeat IPC: 3.5763 cumulative IPC: 3.5763 (Simulation time: 0 hr 1 min 43 sec) 
Heartbeat_Variant_0 : 1342 0.327637 per_variant_size: 0 1342 0 0 0 0 0 0 0 
Heartbeat_Variant_1 : 2574 0.628418 per_variant_size: 0 546 2028 0 0 0 0 0 0 
Heartbeat_Variant_2 : 0 0 per_variant_size: 0 0 0 0 0 0 0 0 0 
Heartbeat_Variant_3 : 0 0 per_variant_size: 0 0 0 0 0 0 0 0 0 
Heartbeat_Variant_0_evicts 0 : 5595 1 : 17 2 : 0 3 : 0 
Heartbeat_Variant_1_evicts 0 : 18 1 : 0 2 : 0 3 : 0 
Heartbeat_Variant_2_evicts 0 : 0 1 : 0 2 : 0 3 : 0 
Heartbeat_Variant_3_evicts 0 : 0 1 : 0 2 : 0 3 : 0 
Heartbeat CPU 0 instructions: 20000001 cycles: 5593047 heartbeat IPC: 3.57543 cumulative IPC: 3.57587 (Simulation time: 0 hr 3 min 22 sec) 
Heartbeat_Variant_0 : 1343 0.327881 per_variant_size: 0 1343 0 0 0 0 0 0 0 
Heartbeat_Variant_1 : 2599 0.634521 per_variant_size: 0 540 2059 0 0 0 0 0 0 
Heartbeat_Variant_2 : 0 0 per_variant_size: 0 0 0 0 0 0 0 0 0 
Heartbeat_Variant_3 : 0 0 per_variant_size: 0 0 0 0 0 0 0 0 0 
Heartbeat_Variant_0_evicts 0 : 5680 1 : 95 2 : 0 3 : 0 
Heartbeat_Variant_1_evicts 0 : 96 1 : 0 2 : 0 3 : 0 
Heartbeat_Variant_2_evicts 0 : 0 1 : 0 2 : 0 3 : 0 
Heartbeat_Variant_3_evicts 0 : 0 1 : 0 2 : 0 3 : 0 
Heartbeat CPU 0 instructions: 30000003 cycles: 8390179 heartbeat IPC: 3.57509 cumulative IPC: 3.57561 (Simulation time: 0 hr 4 min 58 sec) 
Heartbeat_Variant_0 : 1368 0.333984 per_variant_size: 0 1368 0 0 0 0 0 0 0 
Heartbeat_Variant_1 : 2644 0.645508 per_variant_size: 0 487 2157 0 0 0 0 0 0 
Heartbeat_Variant_2 : 0 0 per_variant_size: 0 0 0 0 0 0 0 0 0 
Heartbeat_Variant_3 : 0 0 per_variant_size: 0 0 0 0 0 0 0 0 0 
Heartbeat_Variant_0_evicts 0 : 5791 1 : 402 2 : 0 3 : 0 
Heartbeat_Variant_1_evicts 0 : 396 1 : 0 2 : 0 3 : 0 
Heartbeat_Variant_2_evicts 0 : 0 1 : 0 2 : 0 3 : 0 
Heartbeat_Variant_3_evicts 0 : 0 1 : 0 2 : 0 3 : 0 
Heartbeat CPU 0 instructions: 40000000 cycles: 11186199 heartbeat IPC: 3.57651 cumulative IPC: 3.57583 (Simulation time: 0 hr 6 min 38 sec) 
Heartbeat_Variant_0 : 1378 0.336426 per_variant_size: 0 1378 0 0 0 0 0 0 0 
Heartbeat_Variant_1 : 2640 0.644531 per_variant_size: 0 480 2160 0 0 0 0 0 0 
Heartbeat_Variant_2 : 0 0 per_variant_size: 0 0 0 0 0 0 0 0 0 
Heartbeat_Variant_3 : 0 0 per_variant_size: 0 0 0 0 0 0 0 0 0 
Heartbeat_Variant_0_evicts 0 : 5629 1 : 99 2 : 0 3 : 0 
Heartbeat_Variant_1_evicts 0 : 90 1 : 0 2 : 0 3 : 0 
Heartbeat_Variant_2_evicts 0 : 0 1 : 0 2 : 0 3 : 0 
Heartbeat_Variant_3_evicts 0 : 0 1 : 0 2 : 0 3 : 0 
Heartbeat CPU 0 instructions: 50000003 cycles: 13982285 heartbeat IPC: 3.57643 cumulative IPC: 3.57595 (Simulation time: 0 hr 8 min 19 sec) 

Warmup complete CPU 0 instructions: 50000003 cycles: 13982285 (Simulation time: 0 hr 8 min 19 sec) 

Cycle: 20000000 FTQ IN: 58335448 FTQ occupancy: 20.5104 DECODE IN: 58335448 DECODE occupancy: 53.3611 ROB IN: 58335448 ROB occupancy: 317.985 ROB OUT: 58335347
Heartbeat_Variant_0 : 1386 0.338379 per_variant_size: 0 1386 0 0 0 0 0 0 0 
Heartbeat_Variant_1 : 2643 0.645264 per_variant_size: 0 466 2177 0 0 0 0 0 0 
Heartbeat_Variant_2 : 0 0 per_variant_size: 0 0 0 0 0 0 0 0 0 
Heartbeat_Variant_3 : 0 0 per_variant_size: 0 0 0 0 0 0 0 0 0 
Heartbeat_Variant_0_evicts 0 : 5597 1 : 189 2 : 0 3 : 0 
Heartbeat_Variant_1_evicts 0 : 182 1 : 0 2 : 0 3 : 0 
Heartbeat_Variant_2_evicts 0 : 0 1 : 0 2 : 0 3 : 0 
Heartbeat_Variant_3_evicts 0 : 0 1 : 0 2 : 0 3 : 0 
Heartbeat CPU 0 instructions: 60000002 cycles: 21195507 heartbeat IPC: 1.38634 cumulative IPC: 1.38634 (Simulation time: 0 hr 10 min 17 sec) 
Heartbeat_Variant_0 : 1391 0.3396 per_variant_size: 0 1391 0 0 0 0 0 0 0 
Heartbeat_Variant_1 : 2644 0.645508 per_variant_size: 0 472 2172 0 0 0 0 0 0 
Heartbeat_Variant_2 : 0 0 per_variant_size: 0 0 0 0 0 0 0 0 0 
Heartbeat_Variant_3 : 0 0 per_variant_size: 0 0 0 0 0 0 0 0 0 
Heartbeat_Variant_0_evicts 0 : 5652 1 : 113 2 : 0 3 : 0 
Heartbeat_Variant_1_evicts 0 : 109 1 : 0 2 : 0 3 : 0 
Heartbeat_Variant_2_evicts 0 : 0 1 : 0 2 : 0 3 : 0 
Heartbeat_Variant_3_evicts 0 : 0 1 : 0 2 : 0 3 : 0 
Heartbeat CPU 0 instructions: 70000001 cycles: 28434300 heartbeat IPC: 1.38145 cumulative IPC: 1.38389 (Simulation time: 0 hr 12 min 14 sec) 
Cycle: 30000000 FTQ IN: 13835480 FTQ occupancy: 15.04 DECODE IN: 13835437 DECODE occupancy: 38.4211 ROB IN: 13835425 ROB occupancy: 249.164 ROB OUT: 13835174
Heartbeat_Variant_0 : 1382 0.337402 per_variant_size: 0 1382 0 0 0 0 0 0 0 
Heartbeat_Variant_1 : 2656 0.648438 per_variant_size: 0 457 2199 0 0 0 0 0 0 
Heartbeat_Variant_2 : 0 0 per_variant_size: 0 0 0 0 0 0 0 0 0 
Heartbeat_Variant_3 : 0 0 per_variant_size: 0 0 0 0 0 0 0 0 0 
Heartbeat_Variant_0_evicts 0 : 5592 1 : 95 2 : 0 3 : 0 
Heartbeat_Variant_1_evicts 0 : 104 1 : 0 2 : 0 3 : 0 
Heartbeat_Variant_2_evicts 0 : 0 1 : 0 2 : 0 3 : 0 
Heartbeat_Variant_3_evicts 0 : 0 1 : 0 2 : 0 3 : 0 
Heartbeat CPU 0 instructions: 80000003 cycles: 35631715 heartbeat IPC: 1.38939 cumulative IPC: 1.38572 (Simulation time: 0 hr 14 min 11 sec) 
Cycle: 40000000 FTQ IN: 13856589 FTQ occupancy: 14.9963 DECODE IN: 13856485 DECODE occupancy: 38.1762 ROB IN: 13856437 ROB occupancy: 247.535 ROB OUT: 13856437
Heartbeat_Variant_0 : 1385 0.338135 per_variant_size: 0 1385 0 0 0 0 0 0 0 
Heartbeat_Variant_1 : 2658 0.648926 per_variant_size: 0 469 2189 0 0 0 0 0 0 
Heartbeat_Variant_2 : 0 0 per_variant_size: 0 0 0 0 0 0 0 0 0 
Heartbeat_Variant_3 : 0 0 per_variant_size: 0 0 0 0 0 0 0 0 0 
Heartbeat_Variant_0_evicts 0 : 5760 1 : 88 2 : 0 3 : 0 
Heartbeat_Variant_1_evicts 0 : 85 1 : 0 2 : 0 3 : 0 
Heartbeat_Variant_2_evicts 0 : 0 1 : 0 2 : 0 3 : 0 
Heartbeat_Variant_3_evicts 0 : 0 1 : 0 2 : 0 3 : 0 
Heartbeat CPU 0 instructions: 90000001 cycles: 42847312 heartbeat IPC: 1.38589 cumulative IPC: 1.38576 (Simulation time: 0 hr 16 min 8 sec) 
Cycle: 50000000 FTQ IN: 13969523 FTQ occupancy: 14.958 DECODE IN: 13969574 DECODE occupancy: 38.4148 ROB IN: 13969574 ROB occupancy: 248.727 ROB OUT: 13969574
Heartbeat_Variant_0 : 1384 0.337891 per_variant_size: 0 1384 0 0 0 0 0 0 0 
Heartbeat_Variant_1 : 2659 0.64917 per_variant_size: 0 465 2194 0 0 0 0 0 0 
Heartbeat_Variant_2 : 0 0 per_variant_size: 0 0 0 0 0 0 0 0 0 
Heartbeat_Variant_3 : 0 0 per_variant_size: 0 0 0 0 0 0 0 0 0 
Heartbeat_Variant_0_evicts 0 : 5603 1 : 4 2 : 0 3 : 0 
Heartbeat_Variant_1_evicts 0 : 5 1 : 0 2 : 0 3 : 0 
Heartbeat_Variant_2_evicts 0 : 0 1 : 0 2 : 0 3 : 0 
Heartbeat_Variant_3_evicts 0 : 0 1 : 0 2 : 0 3 : 0 
Heartbeat CPU 0 instructions: 100000001 cycles: 50001913 heartbeat IPC: 1.3977 cumulative IPC: 1.38813 (Simulation time: 0 hr 18 min 4 sec) 
Finished CPU 0 instructions: 50000002 cycles: 36019629 cumulative IPC: 1.38813 (Simulation time: 0 hr 18 min 4 sec) 

ChampSim completed all CPUs

Region of Interest Statistics

CPU 0 cumulative IPC: 1.38813 instructions: 50000002 cycles: 36019629
 Fetch stage stalled: 45.8686  Sim cycles: 36019629 fetch stall cycle: 16521697
 Empty decode stage: 24.8156  Sim cycles: 36019629 fetch stall cycle: 8938474
ITLB TOTAL     ACCESS:    5843319  HIT:    5349552  MISS:     493767  HIT %:    91.5499  MISS %:    8.45011   MPKI: 9.87534
ITLB LOAD TRANSLATION INSTRUCTION	ACCESS:    5709228  HIT:    5215461  MISS:     493767  HIT %:    91.3514  MISS %:    8.64858  MPKI: 9.87534
ITLB TRANSLATION FROM L1D PREFETCHER INSTRUCTION	ACCESS:     134091  HIT:     134091  MISS:          0  HIT %:        100  MISS %:          0  MPKI: 0

ITLB AVERAGE MISS LATENCY: 9.04978 cycles
ITLB RQ	ACCESS:    7945303	FORWARD:          0	MERGED:    1617168	TO_CACHE:    6328135

DTLB TOTAL     ACCESS:    8953860  HIT:    8483377  MISS:     470483  HIT %:    94.7455  MISS %:    5.25453   MPKI: 9.40966
DTLB LOAD TRANSLATION DATA	ACCESS:    8953860  HIT:    8483377  MISS:     470483  HIT %:    94.7455  MISS %:    5.25453  MPKI: 9.40966

DTLB AVERAGE MISS LATENCY: 9.31073 cycles
DTLB RQ	ACCESS:   13324607	FORWARD:          0	MERGED:    4334626	TO_CACHE:    8989981

STLB TOTAL     ACCESS:    1212116  HIT:    1210135  MISS:       1981  HIT %:    99.8366  MISS %:   0.163433   MPKI: 0.03962
STLB LOAD TRANSLATION INSTRUCTION	ACCESS:     493767  HIT:     493543  MISS:        224  HIT %:    99.9546  MISS %:  0.0453655  MPKI: 0.00448
STLB LOAD TRANSLATION DATA	ACCESS:     470483  HIT:     468755  MISS:       1728  HIT %:    99.6327  MISS %:   0.367282  MPKI: 0.03456
STLB TRANSLATION FROM L1D PREFETCHER DATA	ACCESS:     247866  HIT:     247837  MISS:         29  HIT %:    99.9883  MISS %:  0.0116999  MPKI: 0.00058

STLB AVERAGE MISS LATENCY: 70.9258 cycles
STLB RQ	ACCESS:    1332882	FORWARD:          0	MERGED:     120724	TO_CACHE:    1212158

STLB Hit, L1D data hit: 0
STLB Hit, L2C data hit: 0
STLB Hit, LLC data hit: 0
STLB Hit, LLC data miss: 0
STLB STLB hints to L2: 0
L1D TOTAL     ACCESS:   13076043  HIT:   11964502  MISS:    1111541  HIT %:    91.4994  MISS %:    8.50059   MPKI: 22.2308
L1D LOAD DATA	ACCESS:    6543128  HIT:    5810073  MISS:     733055  HIT %:    88.7966  MISS %:    11.2034  MPKI: 14.6611
L1D RFO DATA	ACCESS:    6205351  HIT:    5921102  MISS:     284249  HIT %:    95.4193  MISS %:    4.58071  MPKI: 5.68498
L1D PREFETCH DATA	ACCESS:     327564  HIT:     233327  MISS:      94237  HIT %:     71.231  MISS %:     28.769  MPKI: 1.88474

L1D PREFETCH  REQUESTED:     737627  ISSUED:     737627  USEFUL:      33645  USELESS:      68673
L1D USEFUL LOAD PREFETCHES:      33645 PREFETCH ISSUED TO LOWER LEVEL:     102374  ACCURACY: 32.8648
 TIMELY PREFETCHES:      33645 LATE PREFETCHES: 8095 DROPPED PREFETCHES: 4
L1D AVERAGE MISS LATENCY: 234931 cycles
L1D RQ	ACCESS:   10682980	FORWARD:          0	MERGED:    3938325	TO_CACHE:    6576994
L1D WQ	ACCESS:    6946339	FORWARD:     168026	MERGED:     198726	TO_CACHE:    6747613
L1D PQ	ACCESS:     368996	FORWARD:          0	MERGED:          0	TO_CACHE:     368631

L1D UNIQUE REGIONS ACCESSED: 0
L1D REGIONS CONFLICTS: 0
L1D Cross Page Prefetch Requests: 6808
L1D Same Page Prefetch Requests: 751103
L1D ROI Sum of L1D PQ occupancy: 4682813
L1D PREFETCHES PUSHED FROM L2C: 0
L1I TOTAL     ACCESS:    7127660  HIT:    4366030  MISS:    2761630  HIT %:    61.2547  MISS %:    38.7453   MPKI: 55.2326
L1I LOAD INSTRUCTION	ACCESS:    6459609  HIT:    3697979  MISS:    2761630  HIT %:    57.2477  MISS %:    42.7523  MPKI: 55.2326
L1I PREFETCH INSTRUCTION	ACCESS:     668051  HIT:     668051  MISS:          0  HIT %:        100  MISS %:          0  MPKI: 0

L1I PREFETCH  REQUESTED:    1616814  ISSUED:    1616814  USEFUL:          0  USELESS:          0
L1I USEFUL LOAD PREFETCHES:          0 PREFETCH ISSUED TO LOWER LEVEL:          0  ACCURACY: -nan
 TIMELY PREFETCHES:          0 LATE PREFETCHES: 0 DROPPED PREFETCHES: 0
L1I AVERAGE MISS LATENCY: 17.3358 cycles
L1I RQ	ACCESS:    9567231	FORWARD:          0	MERGED:    2807624	TO_CACHE:    6759607
L1I PQ	ACCESS:    1616814	FORWARD:          0	MERGED:     431118	TO_CACHE:    1185696

L1BTB TOTAL     ACCESS:    5671367  HIT:    2042268  MISS:    3629099  HIT %:    36.0102  MISS %:    63.9898   MPKI: 72.582
L1BTB BRANCH_DIRECT_JUMP	ACCESS:     548144 HIT:     144790 MISS:     403354 AVERAGE STALL: 54.2653 AVERAGE FETCH STALL: 14.0354 AVERAGE FETCH QUEUE STALL: 19.3315 AVERAGE DECODE STALL: 19.99 AVERAGE EXECUTE STALL: 2.07104e+15
L1BTB BRANCH_INDIRECT	ACCESS:     182904 HIT:      65959 MISS:     116945 AVERAGE STALL: 108.935 AVERAGE FETCH STALL: 10.8911 AVERAGE FETCH QUEUE STALL: 16.8763 AVERAGE DECODE STALL: 13.363 AVERAGE EXECUTE STALL: 66.8354
L1BTB BRANCH_CONDITIONAL	ACCESS:    2705110 HIT:    1412346 MISS:    1292764 AVERAGE STALL: 64.435 AVERAGE FETCH STALL: 19.3399 AVERAGE FETCH QUEUE STALL: 27.8726 AVERAGE DECODE STALL: 16.3202 AVERAGE EXECUTE STALL: 3.9509e+15
L1BTB BRANCH_DIRECT_CALL	ACCESS:     945714 HIT:     106159 MISS:     839555 AVERAGE STALL: 68.9068 AVERAGE FETCH STALL: 28.2704 AVERAGE FETCH QUEUE STALL: 24.0172 AVERAGE DECODE STALL: 15.9211 AVERAGE EXECUTE STALL: 1.0547e+16
L1BTB BRANCH_INDIRECT_CALL	ACCESS:     171889 HIT:      21466 MISS:     150423 AVERAGE STALL: 144.614 AVERAGE FETCH STALL: 12.9385 AVERAGE FETCH QUEUE STALL: 17.5044 AVERAGE DECODE STALL: 12.6206 AVERAGE EXECUTE STALL: 101.056
L1BTB BRANCH_RETURN	ACCESS:    1117606 HIT:     291548 MISS:     826058 AVERAGE STALL: 51.1093 AVERAGE FETCH STALL: 17.8912 AVERAGE FETCH QUEUE STALL: 5.79882 AVERAGE DECODE STALL: 6.04926 AVERAGE EXECUTE STALL: 4.335e+14
L1BTB BRANCH_OTHER ACCESS:          0 HIT:          0 MISS:          0 AVERAGE STALL: -nan AVERAGE FETCH STALL: -nan AVERAGE FETCH QUEUE STALL: -nan AVERAGE DECODE STALL: -nan AVERAGE EXECUTE STALL: -nan
L1BTB TOTAL ROB OCCUPANCY AT BTB MISS: 2.6892

L2BTB TOTAL     ACCESS:    3603712  HIT:    3538280  MISS:      65432  HIT %:    98.1843  MISS %:    1.81568   MPKI: 1.30864
L2BTB BRANCH_DIRECT_JUMP	ACCESS:     399188 HIT:     394443 MISS:       4745 AVERAGE STALL: 54.2653 AVERAGE FETCH STALL: 14.0354 AVERAGE FETCH QUEUE STALL: 19.3315 AVERAGE DECODE STALL: 19.99 AVERAGE EXECUTE STALL: 2.07104e+15
L2BTB BRANCH_INDIRECT	ACCESS:     106681 HIT:     104008 MISS:       2673 AVERAGE STALL: 108.935 AVERAGE FETCH STALL: 10.8911 AVERAGE FETCH QUEUE STALL: 16.8763 AVERAGE DECODE STALL: 13.363 AVERAGE EXECUTE STALL: 66.8354
L2BTB BRANCH_CONDITIONAL	ACCESS:    1292764 HIT:    1288045 MISS:       4719 AVERAGE STALL: 64.435 AVERAGE FETCH STALL: 19.3399 AVERAGE FETCH QUEUE STALL: 27.8726 AVERAGE DECODE STALL: 16.3202 AVERAGE EXECUTE STALL: 3.9509e+15
L2BTB BRANCH_DIRECT_CALL	ACCESS:     839555 HIT:     837787 MISS:       1768 AVERAGE STALL: 68.9068 AVERAGE FETCH STALL: 28.2704 AVERAGE FETCH QUEUE STALL: 24.0172 AVERAGE DECODE STALL: 15.9211 AVERAGE EXECUTE STALL: 1.0547e+16
L2BTB BRANCH_INDIRECT_CALL	ACCESS:     140879 HIT:     130501 MISS:      10378 AVERAGE STALL: 144.614 AVERAGE FETCH STALL: 12.9385 AVERAGE FETCH QUEUE STALL: 17.5044 AVERAGE DECODE STALL: 12.6206 AVERAGE EXECUTE STALL: 101.056
L2BTB BRANCH_RETURN	ACCESS:     824645 HIT:     783496 MISS:      41149 AVERAGE STALL: 51.1093 AVERAGE FETCH STALL: 17.8912 AVERAGE FETCH QUEUE STALL: 5.79882 AVERAGE DECODE STALL: 6.04926 AVERAGE EXECUTE STALL: 4.335e+14
L2BTB BRANCH_OTHER ACCESS:          0 HIT:          0 MISS:          0 AVERAGE STALL: -nan AVERAGE FETCH STALL: -nan AVERAGE FETCH QUEUE STALL: -nan AVERAGE DECODE STALL: -nan AVERAGE EXECUTE STALL: -nan
L2BTB TOTAL ROB OCCUPANCY AT BTB MISS: 149.153

L2C TOTAL     ACCESS:    4483410  HIT:    3989214  MISS:     494196  HIT %:    88.9772  MISS %:    11.0228   MPKI: 9.88392
L2C LOAD INSTRUCTION	ACCESS:    2761631  HIT:    2493578  MISS:     268053  HIT %:    90.2937  MISS %:    9.70633  MPKI: 5.36106
L2C LOAD TRANSLATION INSTRUCTION	ACCESS:        252  HIT:         72  MISS:        180  HIT %:    28.5714  MISS %:    71.4286  MPKI: 0.0036
L2C LOAD DATA	ACCESS:     724928  HIT:     642623  MISS:      82305  HIT %:    88.6465  MISS %:    11.3535  MPKI: 1.6461
L2C RFO DATA	ACCESS:     284195  HIT:     235157  MISS:      49038  HIT %:    82.7449  MISS %:    17.2551  MPKI: 0.98076
L2C PREFETCH DATA	ACCESS:     191370  HIT:     115117  MISS:      76253  HIT %:    60.1542  MISS %:    39.8458  MPKI: 1.52506
L2C WRITEBACK DATA	ACCESS:     519207  HIT:     502090  MISS:      17117  HIT %:    96.7032  MISS %:    3.29676  MPKI: 0.34234
L2C LOAD TRANSLATION DATA	ACCESS:       1780  HIT:        544  MISS:       1236  HIT %:    30.5618  MISS %:    69.4382  MPKI: 0.02472
L2C TRANSLATION FROM L1D PREFETCHER DATA	ACCESS:         47  HIT:         33  MISS:         14  HIT %:    70.2128  MISS %:    29.7872  MPKI: 0.00028

L2C PREFETCH  REQUESTED:      96979  ISSUED:      96979  USEFUL:       8599  USELESS:      68133
L2C USEFUL LOAD PREFETCHES:       8599 PREFETCH ISSUED TO LOWER LEVEL:      76752  ACCURACY: 11.2036
 TIMELY PREFETCHES:       8599 LATE PREFETCHES: 499 DROPPED PREFETCHES: 0
L2C AVERAGE MISS LATENCY: 37.6892 cycles
L2C RQ	ACCESS:    3772882	FORWARD:          0	MERGED:          0	TO_CACHE:    3772837
L2C WQ	ACCESS:     519207	FORWARD:         46	MERGED:          0	TO_CACHE:     519207
L2C PQ	ACCESS:     199353	FORWARD:          0	MERGED:       3467	TO_CACHE:     195885

L2C Dense regions hint from L2: 0
PSCL5 TOTAL     ACCESS:       3980  HIT:       1990  MISS:       1990  HIT %:         50  MISS %:         50   MPKI: 0.0398
PSCL5 LOAD TRANSLATION INSTRUCTION	ACCESS:       3886  HIT:       1943  MISS:       1943  HIT %:         50  MISS %:         50  MPKI: 0.03886
PSCL5 TRANSLATION FROM L1D PREFETCHER INSTRUCTION	ACCESS:         94  HIT:         47  MISS:         47  HIT %:         50  MISS %:         50  MPKI: 0.00094


PSCL4 TOTAL     ACCESS:       3899  HIT:       1949  MISS:       1950  HIT %:    49.9872  MISS %:    50.0128   MPKI: 0.039
PSCL4 LOAD TRANSLATION INSTRUCTION	ACCESS:       3676  HIT:       1902  MISS:       1774  HIT %:     51.741  MISS %:     48.259  MPKI: 0.03548
PSCL4 TRANSLATION FROM L1D PREFETCHER INSTRUCTION	ACCESS:         94  HIT:         47  MISS:         47  HIT %:         50  MISS %:         50  MPKI: 0.00094
PSCL4 LOAD TRANSLATION DATA	ACCESS:        129  HIT:          0  MISS:        129  HIT %:          0  MISS %:        100  MPKI: 0.00258


PSCL3 TOTAL     ACCESS:       3905  HIT:       1950  MISS:       1955  HIT %:     49.936  MISS %:     50.064   MPKI: 0.0391
PSCL3 LOAD TRANSLATION INSTRUCTION	ACCESS:       3577  HIT:       1911  MISS:       1666  HIT %:    53.4247  MISS %:    46.5753  MPKI: 0.03332
PSCL3 TRANSLATION FROM L1D PREFETCHER INSTRUCTION	ACCESS:         78  HIT:         39  MISS:         39  HIT %:         50  MISS %:         50  MPKI: 0.00078
PSCL3 LOAD TRANSLATION DATA	ACCESS:        250  HIT:          0  MISS:        250  HIT %:          0  MISS %:        100  MPKI: 0.005


PSCL2 TOTAL     ACCESS:       3897  HIT:       1907  MISS:       1990  HIT %:    48.9351  MISS %:    51.0649   MPKI: 0.0398
PSCL2 LOAD TRANSLATION INSTRUCTION	ACCESS:       2083  HIT:       1860  MISS:        223  HIT %:    89.2943  MISS %:    10.7057  MPKI: 0.00446
PSCL2 TRANSLATION FROM L1D PREFETCHER INSTRUCTION	ACCESS:         47  HIT:         47  MISS:          0  HIT %:        100  MISS %:          0  MPKI: 0
PSCL2 LOAD TRANSLATION DATA	ACCESS:       1720  HIT:          0  MISS:       1720  HIT %:          0  MISS %:        100  MPKI: 0.0344
PSCL2 TRANSLATION FROM L1D PREFETCHER DATA	ACCESS:         47  HIT:          0  MISS:         47  HIT %:          0  MISS %:        100  MPKI: 0.00094


LLC TOTAL     ACCESS:     549947  HIT:     522332  MISS:      27615  HIT %:    94.9786  MISS %:    5.02139   MPKI: 0.5523
LLC LOAD INSTRUCTION	ACCESS:     268054  HIT:     267387  MISS:        667  HIT %:    99.7512  MISS %:    0.24883  MPKI: 0.01334
LLC LOAD TRANSLATION INSTRUCTION	ACCESS:        180  HIT:        146  MISS:         34  HIT %:    81.1111  MISS %:    18.8889  MPKI: 0.00068
LLC LOAD DATA	ACCESS:      81811  HIT:      78314  MISS:       3497  HIT %:    95.7255  MISS %:    4.27449  MPKI: 0.06994
LLC RFO DATA	ACCESS:      49018  HIT:      35772  MISS:      13246  HIT %:    72.9773  MISS %:    27.0227  MPKI: 0.26492
LLC PREFETCH DATA	ACCESS:      76752  HIT:      66961  MISS:       9791  HIT %:    87.2433  MISS %:    12.7567  MPKI: 0.19582
LLC WRITEBACK DATA	ACCESS:      72882  HIT:      72578  MISS:        304  HIT %:    99.5829  MISS %:   0.417113  MPKI: 0.00608
LLC LOAD TRANSLATION DATA	ACCESS:       1236  HIT:       1162  MISS:         74  HIT %:    94.0129  MISS %:    5.98706  MPKI: 0.00148
LLC TRANSLATION FROM L1D PREFETCHER DATA	ACCESS:         14  HIT:         12  MISS:          2  HIT %:    85.7143  MISS %:    14.2857  MPKI: 4e-05

LLC AVERAGE MISS LATENCY: 155.139 cycles
LLC RQ	ACCESS:     400329	FORWARD:          0	MERGED:          0	TO_CACHE:     400314
LLC WQ	ACCESS:      72883	FORWARD:         15	MERGED:          0	TO_CACHE:      72883
LLC PQ	ACCESS:      76752	FORWARD:          0	MERGED:          0	TO_CACHE:      76752

LLC Dense regions hint to LLC: 0

RAW hits: 1949473
Loads Generated: 12632452
Loads sent to L1D: 10682980
Stores Generated: 6946333
Stores sent to L1D: 6946339
Major fault: 0 Minor fault: 2580
Allocated PAGES: 2580

stream: 
stream:times selected: 1185066
stream:pref_filled: 123267
stream:pref_useful: 24409
stream:pref_late: 6813
stream:misses: 8138
stream:misses_by_poll: 0

CS: 
CS:times selected: 178494
CS:pref_filled: 60061
CS:pref_useful: 36724
CS:pref_late: 7002
CS:misses: 16006
CS:misses_by_poll: 4

CPLX: 
CPLX:times selected: 1005263
CPLX:pref_filled: 19344
CPLX:pref_useful: 4470
CPLX:pref_late: 3142
CPLX:misses: 92673
CPLX:misses_by_poll: 0

NL_L1: 
NL:times selected: 21206
NL:pref_filled: 798
NL:pref_useful: 388
NL:pref_late: 281
NL:misses: 1752
NL:misses_by_poll: 0

total selections: 2390029
total_filled: 94237
total_useful: 33645
total_late: 18641
total_polluted: 4
total_misses_after_warmup: 766922
conflicts: 5512815

test: 115510

DRAM Statistics
 CHANNEL 0
 RQ ROW_BUFFER_HIT:      10035  ROW_BUFFER_MISS:      17274
 DBUS_CONGESTED:         12
 WQ ROW_BUFFER_HIT:       1307  ROW_BUFFER_MISS:      12317  FULL:          0

 AVG_CONGESTED_CYCLE: 6

CPU 0 Branch Prediction Accuracy: 99.8226% MPKI: 0.32462 Average ROB Occupancy at Mispredict: 195.415
Branch types
NOT_BRANCH: 40851640 81.7033%
BRANCH_DIRECT_JUMP: 548144 1.09629%
BRANCH_INDIRECT: 182904 0.365808%
BRANCH_CONDITIONAL: 6181957 12.3639%
BRANCH_DIRECT_CALL: 945714 1.89143%
BRANCH_INDIRECT_CALL: 171889 0.343778%
BRANCH_RETURN: 1117606 2.23521%
BRANCH_OTHER: 0 0%

DRAM PAGES: 1048576
Allocated PAGES: 2580
Average_ROB_Occupancy: 249.417
Average_Decode_Occupancy: 38.2319
Average_FTQ_Occupancy: 14.9478
Indirect max targets: 14 Average targets: 1.14765
Branch_type:  BRANCH_DIRECT_JUMP:  Count Percentage: 2.9132 6.78799 2.96082 4.81234 1.69935 6.83158 1.25434 72.7404 
Branch_type:  BRANCH_INDIRECT:  Count Percentage: 11.7687 3.42617 2.55218 13.3424 3.34572 4.81924 2.00491 58.7407 
Branch_type:  BRANCH_CONDITIONAL:  Count Percentage: 21.1775 2.89347 1.67272 3.20137 1.14122 5.4399 0.739576 63.7342 
Branch_type:  BRANCH_DIRECT_CALL:  Count Percentage: 0.754181 1.26362 1.13011 2.91894 1.99551 3.1892 0.769904 87.9785 
Branch_type:  BRANCH_INDIRECT_CALL:  Count Percentage: 9.52312 0.571736 2.9835 4.83546 0.00029096 3.77666 0.995665 77.3136 
Branch_type:  BRANCH_RETURN:  Count Percentage: 4.18932 0.696273 2.26755 3.59728 2.05752 5.61867 1.15793 80.4154 
Branch_type:  BRANCH_DIRECT_JUMP:  Total Count: 31874 74269 32395 52653 18593 74746 13724 795870 
Branch_type:  BRANCH_INDIRECT:  Total Count: 43009 12521 9327 48760 12227 17612 7327 214669 
Branch_type:  BRANCH_CONDITIONAL:  Total Count: 2616062 357431 206632 395466 140975 671992 91360 7873100 
Branch_type:  BRANCH_DIRECT_CALL:  Total Count: 14246 23869 21347 55137 37694 60242 14543 1661858 
Branch_type:  BRANCH_INDIRECT_CALL:  Total Count: 32730 1965 10254 16619 1 12980 3422 265719 
Branch_type:  BRANCH_RETURN:  Total Count: 93567 15551 50645 80344 45954 125491 25862 1796049 
Number of unique branch instructions: 10072
Upper 32 bits: 
aaaa
ffff
ffff0000
Unique upper 32 bits: 3
Unique upper 36 bits: 3
Unique upper 40 bits: 5
Unique upper 44 bits: 32
Unique upper 48 bits: 154
Variant_0 : 1384 0.337891
Variant_1 : 2659 0.64917
Variant_2 : 0 0
Variant_3 : 0 0
Offset_3 4161
Offset_4 250
Offset_5 458
Offset_6 516
Offset_7 596
Offset_8 524
Offset_9 477
Offset_10 388
Offset_11 321
Offset_12 273
Offset_13 213
Offset_14 227
Offset_15 197
Offset_16 230
Offset_17 151
Offset_18 128
Offset_19 246
Offset_20 142
Offset_21 235
Offset_22 398
Offset_23 241
Offset_24 338
Offset_25 88
Offset_47 82
decode_dispatch_called: 26425312 73.3636
Dispatch_width: 0 14335952 54.2508 39.8004
Dispatch_width: 1 1012626 3.83203 2.81132
Dispatch_width: 2 837415 3.16899 2.32489
Dispatch_width: 3 493472 1.86742 1.37001
Dispatch_width: 4 6269134 23.724 17.4048
Dispatch_width: 5 104724 0.396302 0.290741
Dispatch_width: 6 3371989 12.7605 9.36153
Empty_decode_cycles: 9594317 26.6364
ROB_full_cycles: 10070713 27.959
Starvation_cycles_per_kilo_instr: 225.769
Starvation_cycles_per_kilo_instr_3: 162.031
Starvation_cycles_per_kilo_instr_0: 138.596
Branch_type_1  (3,1)  (4,9)  (5,37)  (6,72)  (7,118)  (8,130)  (9,125)  (10,99)  (11,72)  (12,44)  (13,8)  (14,2)  (15,3)  (16,4)  (18,1)  (19,4)  (20,2)  (21,1)  (22,3)  (23,2)  (24,10)  (25,12) 
Branch_type_2  (3,1)  (5,1)  (8,3)  (9,3)  (12,1)  (13,1)  (14,1)  (16,3)  (17,2)  (20,2)  (21,2)  (23,5)  (24,1)  (47,38) 
Branch_type_3  (3,4159)  (4,241)  (5,416)  (6,428)  (7,446)  (8,328)  (9,263)  (10,158)  (11,133)  (12,51)  (13,7) 
Branch_type_4  (6,4)  (7,8)  (8,26)  (9,54)  (10,62)  (11,60)  (12,98)  (13,90)  (14,100)  (15,94)  (16,104)  (17,66)  (18,58)  (19,120)  (20,74)  (21,124)  (22,212)  (23,136)  (24,198)  (25,72) 
Branch_type_5  (8,2)  (9,1)  (10,3)  (11,5)  (12,3)  (13,14)  (14,16)  (15,11)  (16,20)  (17,13)  (18,16)  (19,12)  (20,10)  (21,13)  (22,42)  (23,26)  (24,37) 
Branch_type_6  (5,4)  (6,12)  (7,24)  (8,35)  (9,31)  (10,66)  (11,51)  (12,76)  (13,93)  (14,108)  (15,89)  (16,99)  (17,70)  (18,53)  (19,110)  (20,54)  (21,95)  (22,141)  (23,72)  (24,92)  (25,4)  (47,44) 
Unique trigger count: 
Variant_0_evicts_0 : 0
Variant_0_evicts_1 : 0
Variant_0_evicts_2 : 0
Variant_0_evicts_3 : 0
Variant_1_evicts_0 : 0
Variant_1_evicts_1 : 0
Variant_1_evicts_2 : 0
Variant_1_evicts_3 : 0
Variant_2_evicts_0 : 0
Variant_2_evicts_1 : 0
Variant_2_evicts_2 : 0
Variant_2_evicts_3 : 0
Variant_3_evicts_0 : 0
Variant_3_evicts_1 : 0
Variant_3_evicts_2 : 0
Variant_3_evicts_3 : 0
BTB PER SET UNIQUE ADDR: 10 13 9 12 8 12 7 10 7 14 10 12 11 10 11 6 10 11 13 10 8 9 15 12 8 11 8 7 13 10 11 11 11 10 8 10 11 14 10 12 12 8 11 12 10 13 10 8 9 13 15 11 8 16 8 7 8 9 8 15 5 12 15 11 12 7 13 8 14 12 17 13 11 9 9 12 5 12 11 15 9 10 9 12 11 11 10 8 8 14 10 9 10 11 8 15 6 11 13 12 15 10 12 7 10 11 7 11 8 10 10 12 9 11 8 5 12 10 9 11 11 11 12 8 10 11 5 13 11 9 7 11 11 11 14 11 10 15 11 14 9 8 11 8 13 11 14 7 11 13 11 13 8 11 7 9 10 9 11 11 14 10 14 13 9 13 15 9 13 10 7 13 11 11 12 6 9 8 8 9 10 9 11 13 13 14 6 9 9 9 7 9 7 18 11 7 11 9 11 11 9 9 7 9 9 10 9 6 7 11 8 15 13 11 11 14 9 13 11 16 8 17 9 11 6 11 12 12 5 13 6 5 11 10 12 10 15 9 14 8 9 13 9 13 9 11 11 6 10 6 9 10 10 8 15 16 7 9 7 10 10 8 5 13 12 6 10 7 10 10 8 16 7 4 7 10 11 11 11 12 11 8 10 10 11 10 11 13 12 15 9 9 11 10 11 12 13 11 11 9 10 14 6 15 9 8 9 8 12 15 9 15 6 16 11 8 9 8 11 14 10 11 11 8 12 14 9 6 8 7 6 11 7 12 8 11 8 10 8 15 8 12 7 12 12 10 10 7 11 9 12 9 6 13 12 8 6 8 7 10 11 19 6 8 10 14 9 11 11 7 8 4 9 10 10 15 13 12 12 11 6 8 8 12 10 11 12 11 12 13 11 6 16 15 10 9 12 13 11 11 7 10 11 12 13 10 8 14 10 9 8 8 7 13 12 6 8 11 15 14 10 12 8 15 16 5 9 11 12 8 15 15 9 12 13 11 12 10 8 9 12 9 11 16 18 8 9 12 13 13 11 15 11 9 11 13 13 11 8 12 14 11 10 12 11 9 12 8 8 11 15 10 10 8 9 11 9 15 9 11 13 12 8 7 8 14 16 12 12 10 10 11 8 9 11 10 13 11 8 10 11 13 9 14 10 10 9 9 12 11 12 14 13 8 13 14 10 14 7 8 7 10 8 9 12 9 10 9 10 12 9 8 13 10 11 16 10 12 12 11 12 10 11 12 12 12 7 12 9 11 12 13 10 10 10 13 10 10 15 10 8 12 9 9 8 12 10 6 8 13 13 13 8 10 10 14 11 15 10 9 9 11 8 11 14 8 7 11 9 14 8 8 9 9 10 13 10 9 6 8 11 9 8 7 10 10 13 9 10 6 10 13 9 9 8 14 10 13 15 11 13 9 7 9 10 11 6 12 8 9 8 16 9 10 10 10 11 9 10 12 9 13 10 10 10 10 10 10 16 8 10 9 7 11 13 10 10 9 10 8 12 9 10 13 11 8 9 12 10 10 11 9 11 12 8 10 13 9 10 13 5 11 11 14 13 12 8 10 11 10 14 15 12 6 9 12 9 16 11 19 9 12 11 9 7 12 11 6 9 7 8 8 13 12 9 6 10 10 9 10 12 10 11 11 10 8 11 6 9 10 6 14 12 8 10 8 9 15 13 10 7 9 10 13 11 9 9 10 12 7 13 9 10 13 7 9 14 10 10 9 16 9 7 10 14 10 10 14 7 11 10 12 8 9 13 9 11 14 13 9 11 11 10 10 13 11 8 10 8 6 7 7 11 9 11 8 9 10 15 7 16 14 15 16 16 8 13 9 13 12 8 10 12 15 9 10 13 14 7 13 8 9 12 8 14 13 10 9 12 11 10 9 12 10 7 12 8 7 12 8 9 11 8 10 9 11 9 17 11 9 8 6 11 13 11 19 12 11 8 12 11 9 8 6 15 8 7 8 12 10 7 13 9 11 10 8 9 13 8 13 13 5 12 12 10 11 12 12 9 9 12 9 11 12 8 9 12 7 9 9 10 12 13 13 7 11 10 11 12 14 8 11 9 14 11 11 10 8 8 9 10 11 9 10 9 8 7 12 10 7 9 10 12 11 9 8 11 8 11 14 8 18 8 12 9 12 9 14 9 16 9 11 8 10 6 13 10 10 10 10 8 8 8 10 8 12 11 9 9 13 8 9 9 12 12 10 15 15 11 11 10 10 11 9 8 17 11 9 14 7 12 12 8 11 8 6 11 13 16 12 13 12 10 13 13 10 9 15 9 16 7 15 9 7 11 11 7 10 8 9 9 17 11 8 
BTB PER SET COUNT: 11 13 1978 15 9 13 1245 10 1472 17 15 1473 20545 1478 13 8 1477 16 457 10 9 727 794 18 10 11 8 7 401 304 12 11 14 11 11 14 21 18 11 1936 14 9 15 889 12 17 13 8 216 151 23 427 12 26 8 381 12 12 489 17 5 136 422 14 17 12 22 11 21 15 29 997 16 13 10 18 5 20 18 15 991 13 179 13 13 19 24 9 13 15 14 857 17 509 10 15 988 985 14 365 18 509 15 8 1984 18 7 11 993 10 11 18 953 13 8 6 13 11 13 798 29 14 15 9 11 107 5 18 16 991 7 75 16 12 18 15 218 21 12 24 11 14 12 9 19 395 468 8 13 33 11 298 961 15 8 11 984 10 13 13 17 141 320 13 9 940 27 9 14 293 9 16 12 18 15 308 11 10 9 519 515 136 623 23 17 692 7 10 11 9 9 12 7 28 12 138 14 993 15 13 10 14 9 10 11 12 11 500 7 15 13 32 16 14656 25 105 14 20 13 23 14 33 12 11 6 17 14 151 5 15 6 5 13 11 971 12 54 9 215 8 9 19 11 19 13 1309 1316 6 12 6 11 17 11 11 17 28 7 11 7 10 11 8 5 16 15 6 11 8 12 12 8 420 7 4 7 16 17 20 17 16 19 9 12 225 13 16 13 16 13 21 10 9 14 13 12 15 57 12 14 15 13 20 6 20 11 13 12 9 13 34 10 19 6 20 1623 10 11 13 15 17 12 5358 15 11 32 614 9 6 11 9 6 18 44 16 9 12 10 19 8 19 8 46 10 15 15 12 11 7 17 91 15 9 6 21 14 8 7 8 7 12 14 27 7 12 12 607 10 12 13 7 11 385 10 18 987 18 15 15 20 17 988 8 10 14 10 13 1417 14 12 937 13 6 23 388 11 11 14 21 17 1404 7 10 635 14 18 14 10 21 17 14 9 9 9 444 17 10 10 100 24 18 11 12 10 16 19 5 1028 11 14 1383 21 17 10 14 371 16 15 13 8 9 15 10 14 16 78 10 833 14 15 14 13 25 14 12 13 932 13 13 9 15 30 14 10 13 11 10 21 11 9 12 23 10 12 8 9 11 11 31 12 11 21 12 8 8 12 20 20 13 15 10 13 14 972 9 16 12 447 989 13 10 13 18 12 17 18 12 13 13 16 12 16 352 15 498 16 17 12 23 14 10 9 17 8 9 18 10 48 11 12 20 13 8 19 11 11 31 12 999 22 11 13 10 13 15 19 15 7 14 10 888 17 18 976 11 11 17 14 14 26 11 10 39 11 11 9 16 11 6 10 1038 18 16 8 11 1474 17 12 453 14 10 10 15 8 2949 17 9 9 13 10 17 8 11 13 12 21 18 13 1161 112 9 16 14 8 11 14 15 14 1017 11 7 12 19 17 16 9 15 11 18 804 307 17 11 9 10 11 13 6 289 1471 9 9 24 691 18 13 10 16 9 11 16 9 15 10 14 1447 168 506 10 32 8 12 11 8 13 24 502 10 10 14 12 16 11 13 18 12 12 11 950 2424 15 19 11 551 15 8 310 19 14 16 17 5 19 13 209 1991 15 9 12 13 13 21 19 14 6 2450 13 10 64 16 21 11 22 14 11 7 16 19 9 12 7 9 9 1047 17 20 6 995 14 19 17 456 84 13 471 11 8 14 9 80 2809 6 19 130 10 15 17 12 17 15 11 571 19 430 20 13 9 996 13 13 7 1482 11 39 978 7 11 18 279 14 10 22 12 7 362 2684 10 11 447 9 19 11 111 11 12 15 10 14 602 19 11 1479 14 994 11 14 13 8 13 9 6 9 980 14 10 454 10 211 15 18 1470 21 18 18 27 504 13 15 9 15 63 9 5861 15 73 248 12 15 2455 9 15 11 1192 20 10 607 15 12 10 15 13 12 13 13 15 31 12 9 8 16 8 11 837 9 12 624 14 10 22 11 11 1433 441 18 19 71 27 16 12 16 12 14 9 8 6 22 26 7 12 14 10 8 22 14 13 14 8 14 18 9 16 15 5 15 137 12 1967 12 19 13 14 15 9 12 1857 10 15 17 7 12 13 15 15 25 360 7 18 12 12 122 16 9 18 13 21 15 11 49 419 8 11 14 990 9 1016 15 932 9 14 11 15 9 12 1274 11 13 298 15 9 317 22 8 665 16 15 9 12 77 17 9 19 104 988 8 17 7 16 159 17 140 1945 564 11 768 12 10 17 12 12 11 17 11 11 10 15 16 11 21 16 506 459 995 11 18 305 9 26 1371 994 19 8 18 16 16 90 9 6 12 1484 27 15 18 103 12 18 14 11 15 25 9 16 42 242 10 9 11 18 8 14 9 13 10 364 14 9 
To predecode: 0
Predecoding something: 0
Predecode request dropped: 0
sizeofblock_0 0
sizeofblock_1 51211
sizeofblock_2 86212
sizeofblock_3 0
sizeofblock_4 0
sizeofblock_5 0
sizeofblock_6 0
sizeofblock_7 0
sizeofblock_8 0
Variant_0 Correct: 1612196 Incorrect: 0 Accuracy: 1
Variant_1 Correct: 5729573 Incorrect: 0 Accuracy: 1
Variant_2 Correct: 0 Incorrect: 0 Accuracy: -nan
Variant_3 Correct: 0 Incorrect: 0 Accuracy: -nan
