
*** ChampSim Multicore Out-of-Order Simulator ***

Warmup Instructions: 50000000
Simulation Instructions: 50000000
Number of CPUs: 1
LLC sets: 2048
LLC ways: 16
Off-chip DRAM Size: 4096 MB Channels: 1 Width: 64-bit Data Rate: 6400 MT/s
CPU 0 runs ./micro_traces/srv193.trace.gz
.gz
ITLB has LRU replacement policy
DTLB has LRU replacement policy
STLB has LRU replacement policy
FDIP Prefetcher at L1I
L1I has LRU replacement policy
L1D has LRU replacement policy
Initialize SRRIP state for L2C
Initialize DRRIP state for LLC
Heartbeat_Variant_0 : 578 0.282227 per_variant_size: 0 578 0 0 0 0 0 0 0 
Heartbeat_Variant_1 : 1470 0.717773 per_variant_size: 0 146 1324 0 0 0 0 0 0 
Heartbeat_Variant_2 : 0 0 per_variant_size: 0 0 0 0 0 0 0 0 0 
Heartbeat_Variant_3 : 0 0 per_variant_size: 0 0 0 0 0 0 0 0 0 
Heartbeat_Variant_0_evicts 0 : 30478 1 : 59016 2 : 0 3 : 0 
Heartbeat_Variant_1_evicts 0 : 59090 1 : 0 2 : 0 3 : 0 
Heartbeat_Variant_2_evicts 0 : 0 1 : 0 2 : 0 3 : 0 
Heartbeat_Variant_3_evicts 0 : 0 1 : 0 2 : 0 3 : 0 
Heartbeat CPU 0 instructions: 10000002 cycles: 2794983 heartbeat IPC: 3.57784 cumulative IPC: 3.57784 (Simulation time: 0 hr 2 min 17 sec) 
Heartbeat_Variant_0 : 584 0.285156 per_variant_size: 0 584 0 0 0 0 0 0 0 
Heartbeat_Variant_1 : 1464 0.714844 per_variant_size: 0 160 1304 0 0 0 0 0 0 
Heartbeat_Variant_2 : 0 0 per_variant_size: 0 0 0 0 0 0 0 0 0 
Heartbeat_Variant_3 : 0 0 per_variant_size: 0 0 0 0 0 0 0 0 0 
Heartbeat_Variant_0_evicts 0 : 30632 1 : 58568 2 : 0 3 : 0 
Heartbeat_Variant_1_evicts 0 : 58562 1 : 0 2 : 0 3 : 0 
Heartbeat_Variant_2_evicts 0 : 0 1 : 0 2 : 0 3 : 0 
Heartbeat_Variant_3_evicts 0 : 0 1 : 0 2 : 0 3 : 0 
Heartbeat CPU 0 instructions: 20000001 cycles: 5589830 heartbeat IPC: 3.57801 cumulative IPC: 3.57793 (Simulation time: 0 hr 4 min 33 sec) 
Heartbeat_Variant_0 : 654 0.319336 per_variant_size: 0 654 0 0 0 0 0 0 0 
Heartbeat_Variant_1 : 1394 0.680664 per_variant_size: 0 114 1280 0 0 0 0 0 0 
Heartbeat_Variant_2 : 0 0 per_variant_size: 0 0 0 0 0 0 0 0 0 
Heartbeat_Variant_3 : 0 0 per_variant_size: 0 0 0 0 0 0 0 0 0 
Heartbeat_Variant_0_evicts 0 : 30109 1 : 58233 2 : 0 3 : 0 
Heartbeat_Variant_1_evicts 0 : 58163 1 : 0 2 : 0 3 : 0 
Heartbeat_Variant_2_evicts 0 : 0 1 : 0 2 : 0 3 : 0 
Heartbeat_Variant_3_evicts 0 : 0 1 : 0 2 : 0 3 : 0 
Heartbeat CPU 0 instructions: 30000001 cycles: 8384459 heartbeat IPC: 3.57829 cumulative IPC: 3.57805 (Simulation time: 0 hr 6 min 45 sec) 
Heartbeat_Variant_0 : 626 0.305664 per_variant_size: 0 626 0 0 0 0 0 0 0 
Heartbeat_Variant_1 : 1422 0.694336 per_variant_size: 0 151 1271 0 0 0 0 0 0 
Heartbeat_Variant_2 : 0 0 per_variant_size: 0 0 0 0 0 0 0 0 0 
Heartbeat_Variant_3 : 0 0 per_variant_size: 0 0 0 0 0 0 0 0 0 
Heartbeat_Variant_0_evicts 0 : 30696 1 : 59861 2 : 0 3 : 0 
Heartbeat_Variant_1_evicts 0 : 59889 1 : 0 2 : 0 3 : 0 
Heartbeat_Variant_2_evicts 0 : 0 1 : 0 2 : 0 3 : 0 
Heartbeat_Variant_3_evicts 0 : 0 1 : 0 2 : 0 3 : 0 
Heartbeat CPU 0 instructions: 40000001 cycles: 11178667 heartbeat IPC: 3.57883 cumulative IPC: 3.57824 (Simulation time: 0 hr 8 min 53 sec) 
Heartbeat_Variant_0 : 621 0.303223 per_variant_size: 0 621 0 0 0 0 0 0 0 
Heartbeat_Variant_1 : 1427 0.696777 per_variant_size: 0 139 1288 0 0 0 0 0 0 
Heartbeat_Variant_2 : 0 0 per_variant_size: 0 0 0 0 0 0 0 0 0 
Heartbeat_Variant_3 : 0 0 per_variant_size: 0 0 0 0 0 0 0 0 0 
Heartbeat_Variant_0_evicts 0 : 30606 1 : 58765 2 : 0 3 : 0 
Heartbeat_Variant_1_evicts 0 : 58770 1 : 0 2 : 0 3 : 0 
Heartbeat_Variant_2_evicts 0 : 0 1 : 0 2 : 0 3 : 0 
Heartbeat_Variant_3_evicts 0 : 0 1 : 0 2 : 0 3 : 0 
Heartbeat CPU 0 instructions: 50000002 cycles: 13974552 heartbeat IPC: 3.57669 cumulative IPC: 3.57793 (Simulation time: 0 hr 11 min 7 sec) 

Warmup complete CPU 0 instructions: 50000002 cycles: 13974552 (Simulation time: 0 hr 11 min 7 sec) 

Cycle: 20000000 FTQ IN: 54494529 FTQ occupancy: 17.1524 DECODE IN: 54494516 DECODE occupancy: 43.9698 ROB IN: 54494511 ROB occupancy: 261.057 ROB OUT: 54494454
*** Reached end of trace for Core: 0 Repeating trace: ./micro_traces/srv193.trace.gz
Heartbeat_Variant_0 : 595 0.290527 per_variant_size: 0 595 0 0 0 0 0 0 0 
Heartbeat_Variant_1 : 1453 0.709473 per_variant_size: 0 120 1333 0 0 0 0 0 0 
Heartbeat_Variant_2 : 0 0 per_variant_size: 0 0 0 0 0 0 0 0 0 
Heartbeat_Variant_3 : 0 0 per_variant_size: 0 0 0 0 0 0 0 0 0 
Heartbeat_Variant_0_evicts 0 : 30932 1 : 58301 2 : 0 3 : 0 
Heartbeat_Variant_1_evicts 0 : 58327 1 : 0 2 : 0 3 : 0 
Heartbeat_Variant_2_evicts 0 : 0 1 : 0 2 : 0 3 : 0 
Heartbeat_Variant_3_evicts 0 : 0 1 : 0 2 : 0 3 : 0 
Heartbeat CPU 0 instructions: 60000002 cycles: 27414387 heartbeat IPC: 0.744057 cumulative IPC: 0.744057 (Simulation time: 0 hr 12 min 47 sec) 
Cycle: 30000000 FTQ IN: 7478561 FTQ occupancy: 3.75606 DECODE IN: 7478562 DECODE occupancy: 7.06685 ROB IN: 7478567 ROB occupancy: 60.5661 ROB OUT: 7478624
Cycle: 40000000 FTQ IN: 7465161 FTQ occupancy: 3.59876 DECODE IN: 7465173 DECODE occupancy: 6.77354 ROB IN: 7465173 ROB occupancy: 57.2746 ROB OUT: 7465163
Heartbeat_Variant_0 : 643 0.313965 per_variant_size: 0 643 0 0 0 0 0 0 0 
Heartbeat_Variant_1 : 1405 0.686035 per_variant_size: 0 144 1261 0 0 0 0 0 0 
Heartbeat_Variant_2 : 0 0 per_variant_size: 0 0 0 0 0 0 0 0 0 
Heartbeat_Variant_3 : 0 0 per_variant_size: 0 0 0 0 0 0 0 0 0 
Heartbeat_Variant_0_evicts 0 : 30885 1 : 59200 2 : 0 3 : 0 
Heartbeat_Variant_1_evicts 0 : 59152 1 : 0 2 : 0 3 : 0 
Heartbeat_Variant_2_evicts 0 : 0 1 : 0 2 : 0 3 : 0 
Heartbeat_Variant_3_evicts 0 : 0 1 : 0 2 : 0 3 : 0 
Heartbeat CPU 0 instructions: 70000001 cycles: 40745378 heartbeat IPC: 0.750132 cumulative IPC: 0.747082 (Simulation time: 0 hr 14 min 40 sec) 
Cycle: 50000000 FTQ IN: 7563643 FTQ occupancy: 3.60701 DECODE IN: 7563637 DECODE occupancy: 6.80046 ROB IN: 7563628 ROB occupancy: 58.3922 ROB OUT: 7563635
Heartbeat_Variant_0 : 641 0.312988 per_variant_size: 0 641 0 0 0 0 0 0 0 
Heartbeat_Variant_1 : 1407 0.687012 per_variant_size: 0 126 1281 0 0 0 0 0 0 
Heartbeat_Variant_2 : 0 0 per_variant_size: 0 0 0 0 0 0 0 0 0 
Heartbeat_Variant_3 : 0 0 per_variant_size: 0 0 0 0 0 0 0 0 0 
Heartbeat_Variant_0_evicts 0 : 30341 1 : 58189 2 : 0 3 : 0 
Heartbeat_Variant_1_evicts 0 : 58191 1 : 0 2 : 0 3 : 0 
Heartbeat_Variant_2_evicts 0 : 0 1 : 0 2 : 0 3 : 0 
Heartbeat_Variant_3_evicts 0 : 0 1 : 0 2 : 0 3 : 0 
Heartbeat CPU 0 instructions: 80000000 cycles: 53877304 heartbeat IPC: 0.761503 cumulative IPC: 0.751828 (Simulation time: 0 hr 16 min 19 sec) 
Cycle: 60000000 FTQ IN: 7487960 FTQ occupancy: 3.68171 DECODE IN: 7487959 DECODE occupancy: 6.90945 ROB IN: 7487968 ROB occupancy: 59.2372 ROB OUT: 7487971
Heartbeat_Variant_0 : 640 0.3125 per_variant_size: 0 640 0 0 0 0 0 0 0 
Heartbeat_Variant_1 : 1408 0.6875 per_variant_size: 0 152 1256 0 0 0 0 0 0 
Heartbeat_Variant_2 : 0 0 per_variant_size: 0 0 0 0 0 0 0 0 0 
Heartbeat_Variant_3 : 0 0 per_variant_size: 0 0 0 0 0 0 0 0 0 
Heartbeat_Variant_0_evicts 0 : 30140 1 : 58789 2 : 0 3 : 0 
Heartbeat_Variant_1_evicts 0 : 58790 1 : 0 2 : 0 3 : 0 
Heartbeat_Variant_2_evicts 0 : 0 1 : 0 2 : 0 3 : 0 
Heartbeat_Variant_3_evicts 0 : 0 1 : 0 2 : 0 3 : 0 
Heartbeat CPU 0 instructions: 90000002 cycles: 67298540 heartbeat IPC: 0.745088 cumulative IPC: 0.750131 (Simulation time: 0 hr 18 min 2 sec) 
Cycle: 70000000 FTQ IN: 7526193 FTQ occupancy: 3.57938 DECODE IN: 7526174 DECODE occupancy: 6.67867 ROB IN: 7526174 ROB occupancy: 57.5075 ROB OUT: 7526141
Cycle: 80000000 FTQ IN: 7468453 FTQ occupancy: 3.58019 DECODE IN: 7468473 DECODE occupancy: 6.71251 ROB IN: 7468473 ROB occupancy: 57.4249 ROB OUT: 7468493
Heartbeat_Variant_0 : 593 0.289551 per_variant_size: 0 593 0 0 0 0 0 0 0 
Heartbeat_Variant_1 : 1455 0.710449 per_variant_size: 0 151 1304 0 0 0 0 0 0 
Heartbeat_Variant_2 : 0 0 per_variant_size: 0 0 0 0 0 0 0 0 0 
Heartbeat_Variant_3 : 0 0 per_variant_size: 0 0 0 0 0 0 0 0 0 
Heartbeat_Variant_0_evicts 0 : 31061 1 : 59666 2 : 0 3 : 0 
Heartbeat_Variant_1_evicts 0 : 59713 1 : 0 2 : 0 3 : 0 
Heartbeat_Variant_2_evicts 0 : 0 1 : 0 2 : 0 3 : 0 
Heartbeat_Variant_3_evicts 0 : 0 1 : 0 2 : 0 3 : 0 
Heartbeat CPU 0 instructions: 100000001 cycles: 80678948 heartbeat IPC: 0.747361 cumulative IPC: 0.749576 (Simulation time: 0 hr 20 min 2 sec) 
Finished CPU 0 instructions: 50000003 cycles: 66704397 cumulative IPC: 0.749576 (Simulation time: 0 hr 20 min 2 sec) 

ChampSim completed all CPUs

Region of Interest Statistics

CPU 0 cumulative IPC: 0.749576 instructions: 50000003 cycles: 66704397
 Fetch stage stalled: 81.7019  Sim cycles: 66704397 fetch stall cycle: 54498722
 Empty decode stage: 67.089  Sim cycles: 66704397 fetch stall cycle: 44751309
ITLB TOTAL     ACCESS:    5656991  HIT:    5165935  MISS:     491056  HIT %:    91.3195  MISS %:    8.68052   MPKI: 9.82112
ITLB LOAD TRANSLATION INSTRUCTION	ACCESS:    5581177  HIT:    5090121  MISS:     491056  HIT %:    91.2016  MISS %:    8.79843  MPKI: 9.82112
ITLB TRANSLATION FROM L1D PREFETCHER INSTRUCTION	ACCESS:      75814  HIT:      75814  MISS:          0  HIT %:        100  MISS %:          0  MPKI: 0

ITLB AVERAGE MISS LATENCY: 9.05684 cycles
ITLB RQ	ACCESS:    7126316	FORWARD:          0	MERGED:    1037196	TO_CACHE:    6089120

DTLB TOTAL     ACCESS:   10015459  HIT:    9536803  MISS:     478656  HIT %:    95.2208  MISS %:    4.77917   MPKI: 9.57312
DTLB LOAD TRANSLATION DATA	ACCESS:   10015459  HIT:    9536803  MISS:     478656  HIT %:    95.2208  MISS %:    4.77917  MPKI: 9.57312

DTLB AVERAGE MISS LATENCY: 9.29777 cycles
DTLB RQ	ACCESS:   14081743	FORWARD:          0	MERGED:    4037540	TO_CACHE:   10044203

STLB TOTAL     ACCESS:    1225731  HIT:    1223481  MISS:       2250  HIT %:    99.8164  MISS %:   0.183564   MPKI: 0.045
STLB LOAD TRANSLATION INSTRUCTION	ACCESS:     491056  HIT:     490743  MISS:        313  HIT %:    99.9363  MISS %:  0.0637402  MPKI: 0.00626
STLB LOAD TRANSLATION DATA	ACCESS:     478290  HIT:     476381  MISS:       1909  HIT %:    99.6009  MISS %:    0.39913  MPKI: 0.03818
STLB TRANSLATION FROM L1D PREFETCHER DATA	ACCESS:     256385  HIT:     256357  MISS:         28  HIT %:    99.9891  MISS %:  0.0109211  MPKI: 0.00056

STLB AVERAGE MISS LATENCY: 67.836 cycles
STLB RQ	ACCESS:    1375263	FORWARD:          0	MERGED:     149486	TO_CACHE:    1225777

STLB Hit, L1D data hit: 0
STLB Hit, L2C data hit: 0
STLB Hit, LLC data hit: 0
STLB Hit, LLC data miss: 0
STLB STLB hints to L2: 0
L1D TOTAL     ACCESS:   13886728  HIT:   12719166  MISS:    1167562  HIT %:    91.5922  MISS %:    8.40775   MPKI: 23.3512
L1D LOAD DATA	ACCESS:    7285600  HIT:    6517932  MISS:     767668  HIT %:    89.4632  MISS %:    10.5368  MPKI: 15.3534
L1D RFO DATA	ACCESS:    6260541  HIT:    5966339  MISS:     294202  HIT %:    95.3007  MISS %:    4.69931  MPKI: 5.88404
L1D PREFETCH DATA	ACCESS:     340587  HIT:     234895  MISS:     105692  HIT %:    68.9677  MISS %:    31.0323  MPKI: 2.11384

L1D PREFETCH  REQUESTED:     811249  ISSUED:     811249  USEFUL:      48340  USELESS:      70476
L1D USEFUL LOAD PREFETCHES:      48340 PREFETCH ISSUED TO LOWER LEVEL:     118848  ACCURACY: 40.6738
 TIMELY PREFETCHES:      48340 LATE PREFETCHES: 13116 DROPPED PREFETCHES: 5
L1D AVERAGE MISS LATENCY: 511807 cycles
L1D RQ	ACCESS:   11241663	FORWARD:          0	MERGED:    3767653	TO_CACHE:    7311401
L1D WQ	ACCESS:    6906510	FORWARD:     162756	MERGED:     136168	TO_CACHE:    6770342
L1D PQ	ACCESS:     405698	FORWARD:          0	MERGED:          0	TO_CACHE:     405551

L1D UNIQUE REGIONS ACCESSED: 0
L1D REGIONS CONFLICTS: 0
L1D Cross Page Prefetch Requests: 8000
L1D Same Page Prefetch Requests: 814770
L1D ROI Sum of L1D PQ occupancy: 5177260
L1D PREFETCHES PUSHED FROM L2C: 0
L1I TOTAL     ACCESS:    6986238  HIT:    4233163  MISS:    2753075  HIT %:    60.5929  MISS %:    39.4071   MPKI: 55.0615
L1I LOAD INSTRUCTION	ACCESS:    6667833  HIT:    3914758  MISS:    2753075  HIT %:    58.7111  MISS %:    41.2889  MPKI: 55.0615
L1I PREFETCH INSTRUCTION	ACCESS:     318405  HIT:     318405  MISS:          0  HIT %:        100  MISS %:          0  MPKI: 0

L1I PREFETCH  REQUESTED:     558696  ISSUED:     558696  USEFUL:          0  USELESS:          0
L1I USEFUL LOAD PREFETCHES:          0 PREFETCH ISSUED TO LOWER LEVEL:          0  ACCURACY: -nan
 TIMELY PREFETCHES:          0 LATE PREFETCHES: 0 DROPPED PREFETCHES: 0
L1I AVERAGE MISS LATENCY: 16.9104 cycles
L1I RQ	ACCESS:    9461141	FORWARD:          0	MERGED:    2714779	TO_CACHE:    6746362
L1I PQ	ACCESS:     558696	FORWARD:          0	MERGED:     178742	TO_CACHE:     379954

L1BTB TOTAL     ACCESS:    5683153  HIT:    2072556  MISS:    3610597  HIT %:    36.4684  MISS %:    63.5316   MPKI: 72.2119
L1BTB BRANCH_DIRECT_JUMP	ACCESS:     543933 HIT:     143542 MISS:     400391 AVERAGE STALL: 28.1324 AVERAGE FETCH STALL: 19.1773 AVERAGE FETCH QUEUE STALL: 2.9567 AVERAGE DECODE STALL: 5.15073 AVERAGE EXECUTE STALL: 1.12139e+14
L1BTB BRANCH_INDIRECT	ACCESS:     181518 HIT:      65568 MISS:     115950 AVERAGE STALL: 67.728 AVERAGE FETCH STALL: 16.581 AVERAGE FETCH QUEUE STALL: 3.67163 AVERAGE DECODE STALL: 5.15853 AVERAGE EXECUTE STALL: 41.3719
L1BTB BRANCH_CONDITIONAL	ACCESS:    2736607 HIT:    1450074 MISS:    1286533 AVERAGE STALL: 28.5081 AVERAGE FETCH STALL: 20.0178 AVERAGE FETCH QUEUE STALL: 2.64833 AVERAGE DECODE STALL: 5.09695 AVERAGE EXECUTE STALL: 3.65335e+13
L1BTB BRANCH_DIRECT_CALL	ACCESS:     940042 HIT:     103444 MISS:     836598 AVERAGE STALL: 28.9614 AVERAGE FETCH STALL: 20.4628 AVERAGE FETCH QUEUE STALL: 2.52531 AVERAGE DECODE STALL: 5.21926 AVERAGE EXECUTE STALL: 4.03641e+13
L1BTB BRANCH_INDIRECT_CALL	ACCESS:     170502 HIT:      20993 MISS:     149509 AVERAGE STALL: 89.4399 AVERAGE FETCH STALL: 18.6686 AVERAGE FETCH QUEUE STALL: 2.75851 AVERAGE DECODE STALL: 5.28497 AVERAGE EXECUTE STALL: 62.1654
L1BTB BRANCH_RETURN	ACCESS:    1110551 HIT:     288935 MISS:     821616 AVERAGE STALL: 28.8264 AVERAGE FETCH STALL: 18.4338 AVERAGE FETCH QUEUE STALL: 2.78682 AVERAGE DECODE STALL: 5.27464 AVERAGE EXECUTE STALL: 6.29276e+13
L1BTB BRANCH_OTHER ACCESS:          0 HIT:          0 MISS:          0 AVERAGE STALL: -nan AVERAGE FETCH STALL: -nan AVERAGE FETCH QUEUE STALL: -nan AVERAGE DECODE STALL: -nan AVERAGE EXECUTE STALL: -nan
L1BTB TOTAL ROB OCCUPANCY AT BTB MISS: 20.3342

L2BTB TOTAL     ACCESS:    3585641  HIT:    2067075  MISS:    1518566  HIT %:    57.6487  MISS %:    42.3513   MPKI: 30.3713
L2BTB BRANCH_DIRECT_JUMP	ACCESS:     396313 HIT:     235864 MISS:     160449 AVERAGE STALL: 28.1324 AVERAGE FETCH STALL: 19.1773 AVERAGE FETCH QUEUE STALL: 2.9567 AVERAGE DECODE STALL: 5.15073 AVERAGE EXECUTE STALL: 1.12139e+14
L2BTB BRANCH_INDIRECT	ACCESS:     105728 HIT:      81900 MISS:      23828 AVERAGE STALL: 67.728 AVERAGE FETCH STALL: 16.581 AVERAGE FETCH QUEUE STALL: 3.67163 AVERAGE DECODE STALL: 5.15853 AVERAGE EXECUTE STALL: 41.3719
L2BTB BRANCH_CONDITIONAL	ACCESS:    1286533 HIT:     779138 MISS:     507395 AVERAGE STALL: 28.5081 AVERAGE FETCH STALL: 20.0178 AVERAGE FETCH QUEUE STALL: 2.64833 AVERAGE DECODE STALL: 5.09695 AVERAGE EXECUTE STALL: 3.65335e+13
L2BTB BRANCH_DIRECT_CALL	ACCESS:     836598 HIT:     379510 MISS:     457088 AVERAGE STALL: 28.9614 AVERAGE FETCH STALL: 20.4628 AVERAGE FETCH QUEUE STALL: 2.52531 AVERAGE DECODE STALL: 5.21926 AVERAGE EXECUTE STALL: 4.03641e+13
L2BTB BRANCH_INDIRECT_CALL	ACCESS:     140075 HIT:      62259 MISS:      77816 AVERAGE STALL: 89.4399 AVERAGE FETCH STALL: 18.6686 AVERAGE FETCH QUEUE STALL: 2.75851 AVERAGE DECODE STALL: 5.28497 AVERAGE EXECUTE STALL: 62.1654
L2BTB BRANCH_RETURN	ACCESS:     820394 HIT:     528404 MISS:     291990 AVERAGE STALL: 28.8264 AVERAGE FETCH STALL: 18.4338 AVERAGE FETCH QUEUE STALL: 2.78682 AVERAGE DECODE STALL: 5.27464 AVERAGE EXECUTE STALL: 6.29276e+13
L2BTB BRANCH_OTHER ACCESS:          0 HIT:          0 MISS:          0 AVERAGE STALL: -nan AVERAGE FETCH STALL: -nan AVERAGE FETCH QUEUE STALL: -nan AVERAGE DECODE STALL: -nan AVERAGE EXECUTE STALL: -nan
L2BTB TOTAL ROB OCCUPANCY AT BTB MISS: 48.3474

L2C TOTAL     ACCESS:    4544624  HIT:    4068628  MISS:     475996  HIT %:    89.5262  MISS %:    10.4738   MPKI: 9.51992
L2C LOAD INSTRUCTION	ACCESS:    2753075  HIT:    2519339  MISS:     233736  HIT %:      91.51  MISS %:       8.49  MPKI: 4.67472
L2C LOAD TRANSLATION INSTRUCTION	ACCESS:        370  HIT:         97  MISS:        273  HIT %:    26.2162  MISS %:    73.7838  MPKI: 0.00546
L2C LOAD DATA	ACCESS:     754526  HIT:     674724  MISS:      79802  HIT %:    89.4236  MISS %:    10.5764  MPKI: 1.59604
L2C RFO DATA	ACCESS:     294147  HIT:     227116  MISS:      67031  HIT %:    77.2117  MISS %:    22.7883  MPKI: 1.34062
L2C PREFETCH DATA	ACCESS:     208246  HIT:     131614  MISS:      76632  HIT %:    63.2012  MISS %:    36.7988  MPKI: 1.53264
L2C WRITEBACK DATA	ACCESS:     532154  HIT:     515213  MISS:      16941  HIT %:    96.8165  MISS %:    3.18348  MPKI: 0.33882
L2C LOAD TRANSLATION DATA	ACCESS:       2064  HIT:        493  MISS:       1571  HIT %:    23.8857  MISS %:    76.1143  MPKI: 0.03142
L2C TRANSLATION FROM L1D PREFETCHER DATA	ACCESS:         42  HIT:         32  MISS:         10  HIT %:    76.1905  MISS %:    23.8095  MPKI: 0.0002

L2C PREFETCH  REQUESTED:      97364  ISSUED:      97364  USEFUL:       9613  USELESS:      67698
L2C USEFUL LOAD PREFETCHES:       9613 PREFETCH ISSUED TO LOWER LEVEL:      77152  ACCURACY: 12.4598
 TIMELY PREFETCHES:       9613 LATE PREFETCHES: 520 DROPPED PREFETCHES: 0
L2C AVERAGE MISS LATENCY: 41.7843 cycles
L2C RQ	ACCESS:    3804265	FORWARD:          0	MERGED:          0	TO_CACHE:    3804224
L2C WQ	ACCESS:     532154	FORWARD:         41	MERGED:          0	TO_CACHE:     532154
L2C PQ	ACCESS:     216212	FORWARD:          0	MERGED:       3511	TO_CACHE:     212701

L2C Dense regions hint from L2: 0
PSCL5 TOTAL     ACCESS:       4510  HIT:       2255  MISS:       2255  HIT %:         50  MISS %:         50   MPKI: 0.0451
PSCL5 LOAD TRANSLATION INSTRUCTION	ACCESS:       4426  HIT:       2213  MISS:       2213  HIT %:         50  MISS %:         50  MPKI: 0.04426
PSCL5 TRANSLATION FROM L1D PREFETCHER INSTRUCTION	ACCESS:         84  HIT:         42  MISS:         42  HIT %:         50  MISS %:         50  MPKI: 0.00084


PSCL4 TOTAL     ACCESS:       4292  HIT:       2141  MISS:       2151  HIT %:    49.8835  MISS %:    50.1165   MPKI: 0.04302
PSCL4 LOAD TRANSLATION INSTRUCTION	ACCESS:       3672  HIT:       2099  MISS:       1573  HIT %:    57.1623  MISS %:    42.8377  MPKI: 0.03146
PSCL4 TRANSLATION FROM L1D PREFETCHER INSTRUCTION	ACCESS:         82  HIT:         42  MISS:         40  HIT %:    51.2195  MISS %:    48.7805  MPKI: 0.0008
PSCL4 LOAD TRANSLATION DATA	ACCESS:        536  HIT:          0  MISS:        536  HIT %:          0  MISS %:        100  MPKI: 0.01072
PSCL4 TRANSLATION FROM L1D PREFETCHER DATA	ACCESS:          2  HIT:          0  MISS:          2  HIT %:          0  MISS %:        100  MPKI: 4e-05


PSCL3 TOTAL     ACCESS:       4303  HIT:       2139  MISS:       2164  HIT %:    49.7095  MISS %:    50.2905   MPKI: 0.04328
PSCL3 LOAD TRANSLATION INSTRUCTION	ACCESS:       2783  HIT:       2113  MISS:        670  HIT %:    75.9253  MISS %:    24.0747  MPKI: 0.0134
PSCL3 TRANSLATION FROM L1D PREFETCHER INSTRUCTION	ACCESS:         39  HIT:         26  MISS:         13  HIT %:    66.6667  MISS %:    33.3333  MPKI: 0.00026
PSCL3 LOAD TRANSLATION DATA	ACCESS:       1468  HIT:          0  MISS:       1468  HIT %:          0  MISS %:        100  MPKI: 0.02936
PSCL3 TRANSLATION FROM L1D PREFETCHER DATA	ACCESS:         13  HIT:          0  MISS:         13  HIT %:          0  MISS %:        100  MPKI: 0.00026


PSCL2 TOTAL     ACCESS:       4324  HIT:       2069  MISS:       2255  HIT %:    47.8492  MISS %:    52.1508   MPKI: 0.0451
PSCL2 LOAD TRANSLATION INSTRUCTION	ACCESS:       2341  HIT:       2027  MISS:        314  HIT %:    86.5869  MISS %:    13.4131  MPKI: 0.00628
PSCL2 TRANSLATION FROM L1D PREFETCHER INSTRUCTION	ACCESS:         42  HIT:         42  MISS:          0  HIT %:        100  MISS %:          0  MPKI: 0
PSCL2 LOAD TRANSLATION DATA	ACCESS:       1899  HIT:          0  MISS:       1899  HIT %:          0  MISS %:        100  MPKI: 0.03798
PSCL2 TRANSLATION FROM L1D PREFETCHER DATA	ACCESS:         42  HIT:          0  MISS:         42  HIT %:          0  MISS %:        100  MPKI: 0.00084


LLC TOTAL     ACCESS:     548971  HIT:     519197  MISS:      29774  HIT %:    94.5764  MISS %:     5.4236   MPKI: 0.59548
LLC LOAD INSTRUCTION	ACCESS:     233736  HIT:     232773  MISS:        963  HIT %:     99.588  MISS %:   0.412003  MPKI: 0.01926
LLC LOAD TRANSLATION INSTRUCTION	ACCESS:        273  HIT:        239  MISS:         34  HIT %:    87.5458  MISS %:    12.4542  MPKI: 0.00068
LLC LOAD DATA	ACCESS:      79301  HIT:      75839  MISS:       3462  HIT %:    95.6344  MISS %:    4.36564  MPKI: 0.06924
LLC RFO DATA	ACCESS:      66991  HIT:      52547  MISS:      14444  HIT %:    78.4389  MISS %:    21.5611  MPKI: 0.28888
LLC PREFETCH DATA	ACCESS:      77150  HIT:      66611  MISS:      10539  HIT %:    86.3396  MISS %:    13.6604  MPKI: 0.21078
LLC WRITEBACK DATA	ACCESS:      89939  HIT:      89709  MISS:        230  HIT %:    99.7443  MISS %:   0.255729  MPKI: 0.0046
LLC LOAD TRANSLATION DATA	ACCESS:       1571  HIT:       1470  MISS:        101  HIT %:     93.571  MISS %:    6.42903  MPKI: 0.00202
LLC TRANSLATION FROM L1D PREFETCHER DATA	ACCESS:         10  HIT:          9  MISS:          1  HIT %:         90  MISS %:         10  MPKI: 2e-05

LLC AVERAGE MISS LATENCY: 205.471 cycles
LLC RQ	ACCESS:     381903	FORWARD:          0	MERGED:          0	TO_CACHE:     381882
LLC WQ	ACCESS:      89939	FORWARD:         23	MERGED:          0	TO_CACHE:      89939
LLC PQ	ACCESS:      77152	FORWARD:          0	MERGED:          0	TO_CACHE:      77150

LLC Dense regions hint to LLC: 0

RAW hits: 1359372
Loads Generated: 12601035
Loads sent to L1D: 11241663
Stores Generated: 6906488
Stores sent to L1D: 6906510
Major fault: 0 Minor fault: 2387
Allocated PAGES: 2387

stream: 
stream:times selected: 1244363
stream:pref_filled: 127155
stream:pref_useful: 28800
stream:pref_late: 9381
stream:misses: 10798
stream:misses_by_poll: 0

CS: 
CS:times selected: 195858
CS:pref_filled: 76114
CS:pref_useful: 52212
CS:pref_late: 9500
CS:misses: 23864
CS:misses_by_poll: 4

CPLX: 
CPLX:times selected: 1047392
CPLX:pref_filled: 25702
CPLX:pref_useful: 8004
CPLX:pref_late: 4006
CPLX:misses: 132512
CPLX:misses_by_poll: 0

NL_L1: 
NL:times selected: 21532
NL:pref_filled: 1163
NL:pref_useful: 485
NL:pref_late: 816
NL:misses: 3210
NL:misses_by_poll: 0

total selections: 2509145
total_filled: 105692
total_useful: 48340
total_late: 26055
total_polluted: 4
total_misses_after_warmup: 793468
conflicts: 5845844

test: 117543

DRAM Statistics
 CHANNEL 0
 RQ ROW_BUFFER_HIT:      11049  ROW_BUFFER_MISS:      18491
 DBUS_CONGESTED:         10
 WQ ROW_BUFFER_HIT:       2091  ROW_BUFFER_MISS:      13967  FULL:          0

 AVG_CONGESTED_CYCLE: 4

CPU 0 Branch Prediction Accuracy: 99.8222% MPKI: 0.32582 Average ROB Occupancy at Mispredict: 101.92
Branch types
NOT_BRANCH: 40836292 81.6726%
BRANCH_DIRECT_JUMP: 543933 1.08787%
BRANCH_INDIRECT: 181518 0.363036%
BRANCH_CONDITIONAL: 6216723 12.4334%
BRANCH_DIRECT_CALL: 940042 1.88008%
BRANCH_INDIRECT_CALL: 170502 0.341004%
BRANCH_RETURN: 1110551 2.2211%
BRANCH_OTHER: 0 0%

DRAM PAGES: 1048576
Allocated PAGES: 2387
Average_ROB_Occupancy: 59.1295
Average_Decode_Occupancy: 6.81164
Average_FTQ_Occupancy: 3.62982
Indirect max targets: 14 Average targets: 1.15563
Branch_type:  BRANCH_DIRECT_JUMP:  Count Percentage: 4.13897 5.12003 3.97698 8.46497 2.40668 6.32723 1.55263 68.0125 
Branch_type:  BRANCH_INDIRECT:  Count Percentage: 6.11547 3.5335 8.13044 9.6837 3.33862 2.80497 3.87916 62.5142 
Branch_type:  BRANCH_CONDITIONAL:  Count Percentage: 22.8198 2.76049 1.65328 7.56648 2.91522 3.56899 2.10113 56.6146 
Branch_type:  BRANCH_DIRECT_CALL:  Count Percentage: 0.391088 1.25531 0.737936 4.49539 2.99524 2.60553 3.03655 84.483 
Branch_type:  BRANCH_INDIRECT_CALL:  Count Percentage: 9.54825 0 3.00303 0.00410892 0.999935 1.71137 4.985 79.7483 
Branch_type:  BRANCH_RETURN:  Count Percentage: 4.2587 4.66016 1.24136 4.75129 5.54164 3.53597 2.69881 73.3121 
Branch_type:  BRANCH_DIRECT_JUMP:  Total Count: 44969 55628 43209 91970 26148 68744 16869 738941 
Branch_type:  BRANCH_INDIRECT:  Total Count: 22186 12819 29496 35131 12112 10176 14073 226792 
Branch_type:  BRANCH_CONDITIONAL:  Total Count: 2834992 342947 205394 940013 362169 443389 261031 7033453 
Branch_type:  BRANCH_DIRECT_CALL:  Total Count: 7346 23579 13861 84439 56261 48941 57037 1586884 
Branch_type:  BRANCH_INDIRECT_CALL:  Total Count: 32533 0 10232 14 3407 5831 16985 271720 
Branch_type:  BRANCH_RETURN:  Total Count: 94539 103451 27557 105474 123019 78495 59911 1627455 
Number of unique branch instructions: 10480
Upper 32 bits: 
aaaa
ffff
ffff0000
Unique upper 32 bits: 3
Unique upper 36 bits: 3
Unique upper 40 bits: 5
Unique upper 44 bits: 32
Unique upper 48 bits: 159
Variant_0 : 593 0.289551
Variant_1 : 1455 0.710449
Variant_2 : 0 0
Variant_3 : 0 0
Offset_3 4329
Offset_4 269
Offset_5 477
Offset_6 537
Offset_7 614
Offset_8 534
Offset_9 506
Offset_10 415
Offset_11 342
Offset_12 277
Offset_13 218
Offset_14 228
Offset_15 203
Offset_16 234
Offset_17 165
Offset_18 135
Offset_19 254
Offset_20 145
Offset_21 267
Offset_22 403
Offset_23 241
Offset_24 348
Offset_25 88
Offset_47 84
decode_dispatch_called: 20340948 30.4942
Dispatch_width: 0 9942677 48.8801 14.9056
Dispatch_width: 1 645371 3.17277 0.967509
Dispatch_width: 2 923147 4.53837 1.38394
Dispatch_width: 3 638132 3.13718 0.956657
Dispatch_width: 4 1546159 7.60121 2.31793
Dispatch_width: 5 463750 2.27988 0.695232
Dispatch_width: 6 6181712 30.3905 9.26732
Empty_decode_cycles: 46363449 69.5058
ROB_full_cycles: 1390623 2.08475
Starvation_cycles_per_kilo_instr: 591.321
Starvation_cycles_per_kilo_instr_3: 571.222
Starvation_cycles_per_kilo_instr_0: 549.155
Branch_type_1  (3,1)  (4,8)  (5,39)  (6,77)  (7,121)  (8,130)  (9,134)  (10,108)  (11,79)  (12,43)  (13,7)  (14,2)  (15,3)  (16,4)  (18,1)  (19,4)  (20,2)  (21,1)  (22,3)  (23,2)  (24,10)  (25,12) 
Branch_type_2  (3,1)  (5,1)  (8,3)  (9,3)  (12,1)  (13,1)  (14,1)  (16,3)  (17,2)  (20,2)  (21,2)  (23,5)  (24,1)  (47,38) 
Branch_type_3  (3,4327)  (4,261)  (5,433)  (6,444)  (7,460)  (8,342)  (9,281)  (10,173)  (11,136)  (12,49)  (13,7) 
Branch_type_4  (6,4)  (7,8)  (8,26)  (9,53)  (10,62)  (11,64)  (12,100)  (13,94)  (14,101)  (15,98)  (16,106)  (17,76)  (18,62)  (19,122)  (20,74)  (21,144)  (22,217)  (23,136)  (24,199)  (25,72) 
Branch_type_5  (8,2)  (9,1)  (10,4)  (11,6)  (12,3)  (13,14)  (14,16)  (15,11)  (16,20)  (17,12)  (18,16)  (19,13)  (20,11)  (21,13)  (22,42)  (23,26)  (24,40) 
Branch_type_6  (5,4)  (6,12)  (7,25)  (8,31)  (9,34)  (10,68)  (11,57)  (12,81)  (13,95)  (14,108)  (15,91)  (16,101)  (17,75)  (18,56)  (19,115)  (20,56)  (21,107)  (22,141)  (23,72)  (24,98)  (25,4)  (47,46) 
Unique trigger count: 
Variant_0_evicts_0 : 0
Variant_0_evicts_1 : 0
Variant_0_evicts_2 : 0
Variant_0_evicts_3 : 0
Variant_1_evicts_0 : 0
Variant_1_evicts_1 : 0
Variant_1_evicts_2 : 0
Variant_1_evicts_3 : 0
Variant_2_evicts_0 : 0
Variant_2_evicts_1 : 0
Variant_2_evicts_2 : 0
Variant_2_evicts_3 : 0
Variant_3_evicts_0 : 0
Variant_3_evicts_1 : 0
Variant_3_evicts_2 : 0
Variant_3_evicts_3 : 0
BTB PER SET UNIQUE ADDR: 44 53 49 51 52 42 55 45 45 46 59 46 45 48 45 38 38 41 47 48 55 56 33 39 45 40 58 51 52 42 46 45 48 38 48 48 47 39 49 52 49 45 40 55 44 50 50 37 42 38 59 53 48 46 51 54 44 50 48 42 50 48 47 61 49 53 48 51 50 38 48 62 50 48 60 48 42 40 50 51 50 33 50 31 38 56 54 55 54 52 53 41 59 42 51 59 41 50 60 61 63 59 46 47 46 49 50 41 48 43 51 47 53 59 37 54 56 37 49 56 63 51 51 66 48 50 63 50 53 52 58 44 51 45 46 45 51 55 46 65 50 44 46 48 48 55 47 53 43 43 60 47 54 53 52 42 46 34 50 55 53 43 45 48 47 54 54 47 43 39 46 40 48 45 61 58 62 48 50 59 40 53 44 39 43 48 51 46 44 51 46 42 39 39 53 51 58 47 48 51 55 43 56 45 42 43 58 47 46 51 45 44 51 51 35 65 48 41 43 39 45 41 54 43 49 41 50 47 56 46 36 46 67 58 45 46 40 46 51 47 42 56 62 52 42 61 42 49 48 39 52 43 57 39 58 33 52 50 49 44 53 48 59 54 47 42 49 47 54 57 40 42 54 44 60 54 51 41 49 50 53 38 49 60 43 41 26 52 41 54 64 46 36 47 41 51 48 48 54 45 56 43 59 48 50 50 47 42 43 44 41 51 33 50 47 52 43 46 45 47 35 45 45 51 54 65 61 67 44 65 51 37 54 46 57 48 46 59 54 56 56 44 49 46 52 43 51 57 44 49 49 49 45 63 56 47 49 61 52 47 45 34 45 40 53 52 37 48 50 50 60 51 48 53 58 47 52 46 41 42 48 53 62 43 42 47 53 51 39 53 52 60 53 52 52 42 42 46 61 54 37 49 49 43 52 51 53 48 43 43 48 43 51 39 55 52 55 45 54 58 52 57 55 53 58 40 46 52 57 47 48 62 48 45 45 53 52 53 54 53 52 45 47 41 40 54 45 48 52 53 58 39 54 50 46 67 60 38 43 42 39 42 63 46 67 34 59 48 60 59 49 52 41 51 50 42 39 40 52 56 48 54 55 71 50 41 55 48 56 39 42 46 42 48 49 50 39 45 42 30 50 48 56 38 45 52 62 42 53 55 47 45 
BTB PER SET COUNT: 5176 5257 5603 7105 5838 5028 6872 4976 3955 6105 8463 5148 4914 5677 5707 3786 3938 5649 5919 4989 5578 6339 3402 4207 6648 5693 7566 7108 6181 4650 5871 5459 5658 7808 5742 5716 5523 3380 5331 6623 6092 5211 5480 6369 4735 6712 6253 4063 4976 5289 7368 6103 5216 4859 5778 7101 4143 6786 6222 3571 6864 5603 4888 7421 6044 6861 6147 6383 7757 3437 4986 6656 5712 4807 6199 6309 5250 4711 6682 7223 6643 3664 5455 3991 4835 6817 6919 7399 7586 6619 6015 4580 7803 4972 5507 7397 4203 6294 7395 7751 7195 8030 6322 6827 5258 5247 7095 4705 5331 5832 6395 6187 6051 7520 4803 6916 7247 4155 6136 7331 6526 5353 7383 11048 6983 7532 7351 5558 6804 7072 8658 8877 6962 4596 5780 7027 5746 6606 4810 7948 6430 5521 5886 5925 6402 7610 6893 6566 4982 3954 7865 4993 5918 5351 7062 4452 6066 3475 6110 7377 5714 3661 5026 10043 5078 8265 8050 6215 3694 4139 4909 3541 5794 4278 8222 7416 7153 6322 6895 6638 5158 6810 5399 4744 5849 5333 6164 6374 6129 6589 7425 4618 5107 5015 7078 6476 7818 5089 5954 4847 7317 4188 8721 5243 4308 4429 7516 6004 4630 5909 6398 4616 7132 5336 4528 7769 5136 5601 4256 4096 5235 5970 6664 4812 6704 4960 6245 5653 8251 6135 4332 5601 8238 6421 5453 5568 4596 5185 6917 5219 4607 7642 6131 6606 4944 9458 4169 5778 7058 5165 5879 4072 7110 3921 6735 3012 7791 6319 5799 5991 6966 5769 6161 6547 5885 5169 6378 5862 7652 7820 5251 4499 7134 5700 7297 5783 5856 5071 5748 6591 5697 4062 5432 8605 5372 4373 2473 6723 5703 5890 7191 5981 3803 5488 4214 7042 5904 6334 6675 6257 6989 5032 6089 5373 5600 6165 13128 3849 5299 5482 5782 7269 4426 6520 5007 6992 4901 5041 5839 5903 4422 5692 5514 11247 4822 9616 9176 9821 4151 7265 6530 4470 6467 5710 8672 5466 5007 7555 8130 5885 7539 5226 5762 5615 6908 5852 6911 7094 5317 6391 6857 5872 5073 9310 8533 5544 5889 8194 6710 5778 4973 3747 4920 4528 8409 6345 5398 6080 5543 6641 8795 6637 5827 5914 7385 4353 7654 5131 4892 4389 6775 7251 7030 5983 4820 5280 6189 7674 3875 6659 6414 6619 5343 5405 6190 5221 5392 4970 7607 7031 4009 5728 5400 4368 5905 6540 6371 5889 4459 5509 5919 4026 6057 3553 7316 5431 5458 6309 7595 7270 6102 7346 6964 11606 7415 4378 4808 6267 7724 5483 10829 7847 6313 6014 6498 6065 6478 6565 7240 7316 5972 6427 5561 5535 5925 6964 5248 5609 6705 6899 6594 4709 7131 6260 4746 7431 8522 5160 4642 4360 4307 5605 7027 5553 13149 3152 7380 6663 7075 8032 6267 6462 3791 5838 6688 7884 5856 4383 5766 6392 7427 6485 6721 9509 4673 5460 6837 5171 7372 4868 5065 4106 4934 5043 5161 6023 4636 4775 4098 3379 5242 5308 5439 3694 5743 6501 7514 4565 7109 6099 6092 6294 
To predecode: 0
Predecoding something: 0
Predecode request dropped: 0
sizeofblock_0 0
sizeofblock_1 619850
sizeofblock_2 1577988
sizeofblock_3 0
sizeofblock_4 0
sizeofblock_5 0
sizeofblock_6 0
sizeofblock_7 0
sizeofblock_8 0
Variant_0 Correct: 747812 Incorrect: 0 Accuracy: 1
Variant_1 Correct: 3563517 Incorrect: 0 Accuracy: 1
Variant_2 Correct: 0 Incorrect: 0 Accuracy: -nan
Variant_3 Correct: 0 Incorrect: 0 Accuracy: -nan
