
*** ChampSim Multicore Out-of-Order Simulator ***

Warmup Instructions: 50000000
Simulation Instructions: 50000000
Number of CPUs: 1
LLC sets: 2048
LLC ways: 16
Off-chip DRAM Size: 4096 MB Channels: 1 Width: 64-bit Data Rate: 6400 MT/s
CPU 0 runs ./micro_traces/srv178.trace.gz
.gz
ITLB has LRU replacement policy
DTLB has LRU replacement policy
STLB has LRU replacement policy
FDIP Prefetcher at L1I
L1I has LRU replacement policy
L1D has LRU replacement policy
Initialize SRRIP state for L2C
Initialize DRRIP state for LLC
Heartbeat_Variant_0 : 1177 0.287354 per_variant_size: 0 1177 0 0 0 0 0 0 0 
Heartbeat_Variant_1 : 1150 0.280762 per_variant_size: 0 490 660 0 0 0 0 0 0 
Heartbeat_Variant_2 : 999 0.243896 per_variant_size: 0 254 305 246 194 0 0 0 0 
Heartbeat_Variant_3 : 0 0 per_variant_size: 0 0 0 0 0 0 0 0 0 
Heartbeat_Variant_0_evicts 0 : 18400 1 : 7364 2 : 7183 3 : 0 
Heartbeat_Variant_1_evicts 0 : 7237 1 : 0 2 : 4502 3 : 0 
Heartbeat_Variant_2_evicts 0 : 7228 1 : 4254 2 : 0 3 : 0 
Heartbeat_Variant_3_evicts 0 : 0 1 : 0 2 : 0 3 : 0 
Heartbeat CPU 0 instructions: 10000003 cycles: 2797715 heartbeat IPC: 3.57435 cumulative IPC: 3.57435 (Simulation time: 0 hr 1 min 54 sec) 
Heartbeat_Variant_0 : 1176 0.287109 per_variant_size: 0 1176 0 0 0 0 0 0 0 
Heartbeat_Variant_1 : 1185 0.289307 per_variant_size: 0 510 675 0 0 0 0 0 0 
Heartbeat_Variant_2 : 1005 0.245361 per_variant_size: 0 258 294 252 201 0 0 0 0 
Heartbeat_Variant_3 : 0 0 per_variant_size: 0 0 0 0 0 0 0 0 0 
Heartbeat_Variant_0_evicts 0 : 18285 1 : 7422 2 : 7129 3 : 0 
Heartbeat_Variant_1_evicts 0 : 7398 1 : 0 2 : 4352 3 : 0 
Heartbeat_Variant_2_evicts 0 : 7165 1 : 4310 2 : 0 3 : 0 
Heartbeat_Variant_3_evicts 0 : 0 1 : 0 2 : 0 3 : 0 
Heartbeat CPU 0 instructions: 20000001 cycles: 5593451 heartbeat IPC: 3.57687 cumulative IPC: 3.57561 (Simulation time: 0 hr 4 min 4 sec) 
Heartbeat_Variant_0 : 1192 0.291016 per_variant_size: 0 1192 0 0 0 0 0 0 0 
Heartbeat_Variant_1 : 1172 0.286133 per_variant_size: 0 503 669 0 0 0 0 0 0 
Heartbeat_Variant_2 : 1003 0.244873 per_variant_size: 0 255 301 245 202 0 0 0 0 
Heartbeat_Variant_3 : 0 0 per_variant_size: 0 0 0 0 0 0 0 0 0 
Heartbeat_Variant_0_evicts 0 : 18387 1 : 7439 2 : 7173 3 : 0 
Heartbeat_Variant_1_evicts 0 : 7394 1 : 0 2 : 4398 3 : 0 
Heartbeat_Variant_2_evicts 0 : 7202 1 : 4366 2 : 0 3 : 0 
Heartbeat_Variant_3_evicts 0 : 0 1 : 0 2 : 0 3 : 0 
Heartbeat CPU 0 instructions: 30000000 cycles: 8389892 heartbeat IPC: 3.57597 cumulative IPC: 3.57573 (Simulation time: 0 hr 6 min 11 sec) 
Heartbeat_Variant_0 : 1174 0.286621 per_variant_size: 0 1174 0 0 0 0 0 0 0 
Heartbeat_Variant_1 : 1175 0.286865 per_variant_size: 0 488 687 0 0 0 0 0 0 
Heartbeat_Variant_2 : 1018 0.248535 per_variant_size: 0 258 302 244 214 0 0 0 0 
Heartbeat_Variant_3 : 0 0 per_variant_size: 0 0 0 0 0 0 0 0 0 
Heartbeat_Variant_0_evicts 0 : 18284 1 : 7324 2 : 7043 3 : 0 
Heartbeat_Variant_1_evicts 0 : 7292 1 : 0 2 : 4272 3 : 0 
Heartbeat_Variant_2_evicts 0 : 7093 1 : 4237 2 : 0 3 : 0 
Heartbeat_Variant_3_evicts 0 : 0 1 : 0 2 : 0 3 : 0 
Heartbeat CPU 0 instructions: 40000003 cycles: 11187724 heartbeat IPC: 3.5742 cumulative IPC: 3.57535 (Simulation time: 0 hr 8 min 24 sec) 
Heartbeat_Variant_0 : 1170 0.285645 per_variant_size: 0 1170 0 0 0 0 0 0 0 
Heartbeat_Variant_1 : 1184 0.289062 per_variant_size: 0 502 682 0 0 0 0 0 0 
Heartbeat_Variant_2 : 1014 0.247559 per_variant_size: 0 256 300 252 206 0 0 0 0 
Heartbeat_Variant_3 : 0 0 per_variant_size: 0 0 0 0 0 0 0 0 0 
Heartbeat_Variant_0_evicts 0 : 18815 1 : 7561 2 : 7376 3 : 0 
Heartbeat_Variant_1_evicts 0 : 7543 1 : 0 2 : 4387 3 : 0 
Heartbeat_Variant_2_evicts 0 : 7398 1 : 4361 2 : 0 3 : 0 
Heartbeat_Variant_3_evicts 0 : 0 1 : 0 2 : 0 3 : 0 
Heartbeat CPU 0 instructions: 50000000 cycles: 13984232 heartbeat IPC: 3.57589 cumulative IPC: 3.57546 (Simulation time: 0 hr 10 min 28 sec) 

Warmup complete CPU 0 instructions: 50000004 cycles: 13984233 (Simulation time: 0 hr 10 min 28 sec) 

Cycle: 20000000 FTQ IN: 56527590 FTQ occupancy: 18.0348 DECODE IN: 56527576 DECODE occupancy: 46.1137 ROB IN: 56527576 ROB occupancy: 278.471 ROB OUT: 56527576
Heartbeat_Variant_0 : 1211 0.295654 per_variant_size: 0 1211 0 0 0 0 0 0 0 
Heartbeat_Variant_1 : 1216 0.296875 per_variant_size: 0 492 724 0 0 0 0 0 0 
Heartbeat_Variant_2 : 1030 0.251465 per_variant_size: 0 254 292 259 225 0 0 0 0 
Heartbeat_Variant_3 : 0 0 per_variant_size: 0 0 0 0 0 0 0 0 0 
Heartbeat_Variant_0_evicts 0 : 18640 1 : 7403 2 : 7316 3 : 0 
Heartbeat_Variant_1_evicts 0 : 7427 1 : 0 2 : 4541 3 : 0 
Heartbeat_Variant_2_evicts 0 : 7282 1 : 4567 2 : 0 3 : 0 
Heartbeat_Variant_3_evicts 0 : 0 1 : 0 2 : 0 3 : 0 
Heartbeat CPU 0 instructions: 60000000 cycles: 23073674 heartbeat IPC: 1.10018 cumulative IPC: 1.10018 (Simulation time: 0 hr 12 min 16 sec) 
Cycle: 30000000 FTQ IN: 11303890 FTQ occupancy: 6.42747 DECODE IN: 11303873 DECODE occupancy: 13.8001 ROB IN: 11303866 ROB occupancy: 116.363 ROB OUT: 11303852
Heartbeat_Variant_0 : 1214 0.296387 per_variant_size: 0 1214 0 0 0 0 0 0 0 
Heartbeat_Variant_1 : 1224 0.298828 per_variant_size: 0 504 720 0 0 0 0 0 0 
Heartbeat_Variant_2 : 1019 0.248779 per_variant_size: 0 253 283 263 220 0 0 0 0 
Heartbeat_Variant_3 : 0 0 per_variant_size: 0 0 0 0 0 0 0 0 0 
Heartbeat_Variant_0_evicts 0 : 18905 1 : 7456 2 : 7378 3 : 0 
Heartbeat_Variant_1_evicts 0 : 7420 1 : 0 2 : 4648 3 : 0 
Heartbeat_Variant_2_evicts 0 : 7411 1 : 4604 2 : 0 3 : 0 
Heartbeat_Variant_3_evicts 0 : 0 1 : 0 2 : 0 3 : 0 
Heartbeat CPU 0 instructions: 70000003 cycles: 31925322 heartbeat IPC: 1.12973 cumulative IPC: 1.11476 (Simulation time: 0 hr 13 min 57 sec) 
Cycle: 40000000 FTQ IN: 11191190 FTQ occupancy: 6.60522 DECODE IN: 11191155 DECODE occupancy: 14.107 ROB IN: 11191162 ROB occupancy: 117.613 ROB OUT: 11190908
Heartbeat_Variant_0 : 1211 0.295654 per_variant_size: 0 1211 0 0 0 0 0 0 0 
Heartbeat_Variant_1 : 1229 0.300049 per_variant_size: 0 510 719 0 0 0 0 0 0 
Heartbeat_Variant_2 : 1026 0.250488 per_variant_size: 0 255 287 265 219 0 0 0 0 
Heartbeat_Variant_3 : 0 0 per_variant_size: 0 0 0 0 0 0 0 0 0 
Heartbeat_Variant_0_evicts 0 : 18382 1 : 7249 2 : 7191 3 : 0 
Heartbeat_Variant_1_evicts 0 : 7315 1 : 0 2 : 4355 3 : 0 
Heartbeat_Variant_2_evicts 0 : 7130 1 : 4420 2 : 0 3 : 0 
Heartbeat_Variant_3_evicts 0 : 0 1 : 0 2 : 0 3 : 0 
Heartbeat CPU 0 instructions: 80000001 cycles: 40858471 heartbeat IPC: 1.11943 cumulative IPC: 1.11631 (Simulation time: 0 hr 15 min 51 sec) 
Heartbeat_Variant_0 : 1222 0.29834 per_variant_size: 0 1222 0 0 0 0 0 0 0 
Heartbeat_Variant_1 : 1220 0.297852 per_variant_size: 0 499 721 0 0 0 0 0 0 
Heartbeat_Variant_2 : 1024 0.25 per_variant_size: 0 248 292 259 225 0 0 0 0 
Heartbeat_Variant_3 : 0 0 per_variant_size: 0 0 0 0 0 0 0 0 0 
Heartbeat_Variant_0_evicts 0 : 18583 1 : 7211 2 : 7293 3 : 0 
Heartbeat_Variant_1_evicts 0 : 7300 1 : 0 2 : 4318 3 : 0 
Heartbeat_Variant_2_evicts 0 : 7193 1 : 4416 2 : 0 3 : 0 
Heartbeat_Variant_3_evicts 0 : 0 1 : 0 2 : 0 3 : 0 
Heartbeat CPU 0 instructions: 90000000 cycles: 49650927 heartbeat IPC: 1.13734 cumulative IPC: 1.12149 (Simulation time: 0 hr 17 min 37 sec) 
Cycle: 50000000 FTQ IN: 11371482 FTQ occupancy: 6.48112 DECODE IN: 11371477 DECODE occupancy: 13.8957 ROB IN: 11371477 ROB occupancy: 117.279 ROB OUT: 11371606
Heartbeat_Variant_0 : 1233 0.301025 per_variant_size: 0 1233 0 0 0 0 0 0 0 
Heartbeat_Variant_1 : 1216 0.296875 per_variant_size: 0 488 728 0 0 0 0 0 0 
Heartbeat_Variant_2 : 1028 0.250977 per_variant_size: 0 247 289 267 225 0 0 0 0 
Heartbeat_Variant_3 : 0 0 per_variant_size: 0 0 0 0 0 0 0 0 0 
Heartbeat_Variant_0_evicts 0 : 18367 1 : 7181 2 : 7150 3 : 0 
Heartbeat_Variant_1_evicts 0 : 7244 1 : 0 2 : 4276 3 : 0 
Heartbeat_Variant_2_evicts 0 : 7080 1 : 4346 2 : 0 3 : 0 
Heartbeat_Variant_3_evicts 0 : 0 1 : 0 2 : 0 3 : 0 
Heartbeat CPU 0 instructions: 100000002 cycles: 58573878 heartbeat IPC: 1.12071 cumulative IPC: 1.12134 (Simulation time: 0 hr 19 min 15 sec) 
Finished CPU 0 instructions: 50000001 cycles: 44589646 cumulative IPC: 1.12134 (Simulation time: 0 hr 19 min 15 sec) 

ChampSim completed all CPUs

Region of Interest Statistics

CPU 0 cumulative IPC: 1.12134 instructions: 50000001 cycles: 44589646
 Fetch stage stalled: 71.1176  Sim cycles: 44589646 fetch stall cycle: 31711071
 Empty decode stage: 63.7401  Sim cycles: 44589646 fetch stall cycle: 28421506
ITLB TOTAL     ACCESS:    5778789  HIT:    5283221  MISS:     495568  HIT %:    91.4244  MISS %:    8.57564   MPKI: 9.91136
ITLB LOAD TRANSLATION INSTRUCTION	ACCESS:    5676380  HIT:    5180812  MISS:     495568  HIT %:    91.2696  MISS %:    8.73035  MPKI: 9.91136
ITLB TRANSLATION FROM L1D PREFETCHER INSTRUCTION	ACCESS:     102409  HIT:     102409  MISS:          0  HIT %:        100  MISS %:          0  MPKI: 0

ITLB AVERAGE MISS LATENCY: 9.07264 cycles
ITLB RQ	ACCESS:    7596250	FORWARD:          0	MERGED:    1383062	TO_CACHE:    6213188

DTLB TOTAL     ACCESS:    9346112  HIT:    8870100  MISS:     476012  HIT %:    94.9068  MISS %:    5.09316   MPKI: 9.52024
DTLB LOAD TRANSLATION DATA	ACCESS:    9346112  HIT:    8870100  MISS:     476012  HIT %:    94.9068  MISS %:    5.09316  MPKI: 9.52024

DTLB AVERAGE MISS LATENCY: 9.35174 cycles
DTLB RQ	ACCESS:   13632101	FORWARD:          0	MERGED:    4251695	TO_CACHE:    9380406

STLB TOTAL     ACCESS:    1219119  HIT:    1216510  MISS:       2609  HIT %:     99.786  MISS %:   0.214007   MPKI: 0.05218
STLB LOAD TRANSLATION INSTRUCTION	ACCESS:     495568  HIT:     495017  MISS:        551  HIT %:    99.8888  MISS %:   0.111186  MPKI: 0.01102
STLB LOAD TRANSLATION DATA	ACCESS:     475747  HIT:     473723  MISS:       2024  HIT %:    99.5746  MISS %:   0.425436  MPKI: 0.04048
STLB TRANSLATION FROM L1D PREFETCHER DATA	ACCESS:     247804  HIT:     247770  MISS:         34  HIT %:    99.9863  MISS %:  0.0137205  MPKI: 0.00068

STLB AVERAGE MISS LATENCY: 68.1706 cycles
STLB RQ	ACCESS:    1335754	FORWARD:          0	MERGED:     116593	TO_CACHE:    1219161

STLB Hit, L1D data hit: 0
STLB Hit, L2C data hit: 0
STLB Hit, LLC data hit: 0
STLB Hit, LLC data miss: 0
STLB STLB hints to L2: 0
L1D TOTAL     ACCESS:   13393014  HIT:   12275920  MISS:    1117094  HIT %:    91.6591  MISS %:    8.34087   MPKI: 22.3419
L1D LOAD DATA	ACCESS:    6814012  HIT:    6079398  MISS:     734614  HIT %:    89.2191  MISS %:    10.7809  MPKI: 14.6923
L1D RFO DATA	ACCESS:    6253065  HIT:    5964133  MISS:     288932  HIT %:    95.3794  MISS %:    4.62065  MPKI: 5.77864
L1D PREFETCH DATA	ACCESS:     325937  HIT:     232389  MISS:      93548  HIT %:    71.2987  MISS %:    28.7013  MPKI: 1.87096

L1D PREFETCH  REQUESTED:     728673  ISSUED:     728673  USEFUL:      33670  USELESS:      67260
L1D USEFUL LOAD PREFETCHES:      33670 PREFETCH ISSUED TO LOWER LEVEL:     101028  ACCURACY: 33.3274
 TIMELY PREFETCHES:      33670 LATE PREFETCHES: 7390 DROPPED PREFETCHES: 11
L1D AVERAGE MISS LATENCY: 241804 cycles
L1D RQ	ACCESS:   10905928	FORWARD:          0	MERGED:    3897713	TO_CACHE:    6846360
L1D WQ	ACCESS:    6958357	FORWARD:     162180	MERGED:     172616	TO_CACHE:    6785741
L1D PQ	ACCESS:     364499	FORWARD:          0	MERGED:          0	TO_CACHE:     364174

L1D UNIQUE REGIONS ACCESSED: 0
L1D REGIONS CONFLICTS: 0
L1D Cross Page Prefetch Requests: 6056
L1D Same Page Prefetch Requests: 742377
L1D ROI Sum of L1D PQ occupancy: 4638648
L1D PREFETCHES PUSHED FROM L2C: 0
L1I TOTAL     ACCESS:    7094658  HIT:    4324095  MISS:    2770563  HIT %:    60.9486  MISS %:    39.0514   MPKI: 55.4113
L1I LOAD INSTRUCTION	ACCESS:    6588179  HIT:    3817616  MISS:    2770563  HIT %:    57.9465  MISS %:    42.0535  MPKI: 55.4113
L1I PREFETCH INSTRUCTION	ACCESS:     506479  HIT:     506479  MISS:          0  HIT %:        100  MISS %:          0  MPKI: 0

L1I PREFETCH  REQUESTED:    1077921  ISSUED:    1077921  USEFUL:          0  USELESS:          0
L1I USEFUL LOAD PREFETCHES:          0 PREFETCH ISSUED TO LOWER LEVEL:          0  ACCURACY: -nan
 TIMELY PREFETCHES:          0 LATE PREFETCHES: 0 DROPPED PREFETCHES: 0
L1I AVERAGE MISS LATENCY: 16.672 cycles
L1I RQ	ACCESS:    9450560	FORWARD:          0	MERGED:    2625627	TO_CACHE:    6824933
L1I PQ	ACCESS:    1077921	FORWARD:          0	MERGED:     306604	TO_CACHE:     771317

L1BTB TOTAL     ACCESS:    5667899  HIT:    2031530  MISS:    3636369  HIT %:    35.8427  MISS %:    64.1573   MPKI: 72.7274
L1BTB BRANCH_DIRECT_JUMP	ACCESS:     548633  HIT:     144523  MISS:     404110	AVERAGE STALL: 35.5041
L1BTB BRANCH_INDIRECT	ACCESS:     182860  HIT:      65732  MISS:     117128	AVERAGE STALL: 80.4534
L1BTB BRANCH_CONDITIONAL	ACCESS:    2702408  HIT:    1407689  MISS:    1294719	AVERAGE STALL: 35.4661
L1BTB BRANCH_DIRECT_CALL	ACCESS:     945272  HIT:     104017  MISS:     841255	AVERAGE STALL: 36.244
L1BTB BRANCH_INDIRECT_CALL	ACCESS:     171743  HIT:      20894  MISS:     150849	AVERAGE STALL: 105.02
L1BTB BRANCH_RETURN	ACCESS:    1116983  HIT:     288675  MISS:     828308	AVERAGE STALL: 36.3032
L1BTB BRANCH_OTHER ACCESS:          0  HIT:          0  MISS:          0	AVERAGE STALL: -nan
L1BTB TOTAL ROB OCCUPANCY AT BTB MISS: 12.8989

L2BTB TOTAL     ACCESS:    3610926  HIT:    3143472  MISS:     467454  HIT %:    87.0545  MISS %:    12.9455   MPKI: 9.34908
L2BTB BRANCH_DIRECT_JUMP	ACCESS:     399954  HIT:     356086  MISS:      43868	AVERAGE STALL: 35.5041
L2BTB BRANCH_INDIRECT	ACCESS:     106795  HIT:      99728  MISS:       7067	AVERAGE STALL: 80.4534
L2BTB BRANCH_CONDITIONAL	ACCESS:    1294719  HIT:    1142959  MISS:     151760	AVERAGE STALL: 35.4661
L2BTB BRANCH_DIRECT_CALL	ACCESS:     841255  HIT:     700211  MISS:     141044	AVERAGE STALL: 36.244
L2BTB BRANCH_INDIRECT_CALL	ACCESS:     141302  HIT:     112609  MISS:      28693	AVERAGE STALL: 105.02
L2BTB BRANCH_RETURN	ACCESS:     826901  HIT:     731879  MISS:      95022	AVERAGE STALL: 36.3032
L2BTB BRANCH_OTHER ACCESS:          0  HIT:          0  MISS:          0	AVERAGE STALL: -nan
L2BTB TOTAL ROB OCCUPANCY AT BTB MISS: 100.342

L2C TOTAL     ACCESS:    4493597  HIT:    4078227  MISS:     415370  HIT %:    90.7564  MISS %:     9.2436   MPKI: 8.3074
L2C LOAD INSTRUCTION	ACCESS:    2770563  HIT:    2559485  MISS:     211078  HIT %:    92.3814  MISS %:     7.6186  MPKI: 4.22156
L2C LOAD TRANSLATION INSTRUCTION	ACCESS:        603  HIT:        228  MISS:        375  HIT %:    37.8109  MISS %:    62.1891  MPKI: 0.0075
L2C LOAD DATA	ACCESS:     727191  HIT:     656515  MISS:      70676  HIT %:     90.281  MISS %:    9.71904  MPKI: 1.41352
L2C RFO DATA	ACCESS:     288816  HIT:     239437  MISS:      49379  HIT %:     82.903  MISS %:     17.097  MPKI: 0.98758
L2C PREFETCH DATA	ACCESS:     179233  HIT:     109765  MISS:      69468  HIT %:    61.2415  MISS %:    38.7585  MPKI: 1.38936
L2C WRITEBACK DATA	ACCESS:     524996  HIT:     512136  MISS:      12860  HIT %:    97.5505  MISS %:    2.44954  MPKI: 0.2572
L2C LOAD TRANSLATION DATA	ACCESS:       2136  HIT:        617  MISS:       1519  HIT %:    28.8858  MISS %:    71.1142  MPKI: 0.03038
L2C TRANSLATION FROM L1D PREFETCHER DATA	ACCESS:         59  HIT:         44  MISS:         15  HIT %:    74.5763  MISS %:    25.4237  MPKI: 0.0003

L2C PREFETCH  REQUESTED:      86015  ISSUED:      86015  USEFUL:       7880  USELESS:      62145
L2C USEFUL LOAD PREFETCHES:       7880 PREFETCH ISSUED TO LOWER LEVEL:      69994  ACCURACY: 11.2581
 TIMELY PREFETCHES:       7880 LATE PREFETCHES: 526 DROPPED PREFETCHES: 0
L2C AVERAGE MISS LATENCY: 41.0232 cycles
L2C RQ	ACCESS:    3789429	FORWARD:          0	MERGED:          0	TO_CACHE:    3789371
L2C WQ	ACCESS:     524997	FORWARD:         58	MERGED:          0	TO_CACHE:     524997
L2C PQ	ACCESS:     187043	FORWARD:          0	MERGED:       3719	TO_CACHE:     183324

L2C Dense regions hint from L2: 0
PSCL5 TOTAL     ACCESS:       5246  HIT:       2623  MISS:       2623  HIT %:         50  MISS %:         50   MPKI: 0.05246
PSCL5 LOAD TRANSLATION INSTRUCTION	ACCESS:       5128  HIT:       2564  MISS:       2564  HIT %:         50  MISS %:         50  MPKI: 0.05128
PSCL5 TRANSLATION FROM L1D PREFETCHER INSTRUCTION	ACCESS:        118  HIT:         59  MISS:         59  HIT %:         50  MISS %:         50  MPKI: 0.00118


PSCL4 TOTAL     ACCESS:       3364  HIT:       1676  MISS:       1688  HIT %:    49.8216  MISS %:    50.1784   MPKI: 0.03376
PSCL4 LOAD TRANSLATION INSTRUCTION	ACCESS:       2382  HIT:       1639  MISS:        743  HIT %:    68.8077  MISS %:    31.1923  MPKI: 0.01486
PSCL4 TRANSLATION FROM L1D PREFETCHER INSTRUCTION	ACCESS:         57  HIT:         37  MISS:         20  HIT %:    64.9123  MISS %:    35.0877  MPKI: 0.0004
PSCL4 LOAD TRANSLATION DATA	ACCESS:        908  HIT:          0  MISS:        908  HIT %:          0  MISS %:        100  MPKI: 0.01816
PSCL4 TRANSLATION FROM L1D PREFETCHER DATA	ACCESS:         17  HIT:          0  MISS:         17  HIT %:          0  MISS %:        100  MPKI: 0.00034


PSCL3 TOTAL     ACCESS:       5011  HIT:       2495  MISS:       2516  HIT %:    49.7905  MISS %:    50.2095   MPKI: 0.05032
PSCL3 LOAD TRANSLATION INSTRUCTION	ACCESS:       3438  HIT:       2451  MISS:        987  HIT %:    71.2914  MISS %:    28.7086  MPKI: 0.01974
PSCL3 TRANSLATION FROM L1D PREFETCHER INSTRUCTION	ACCESS:         58  HIT:         44  MISS:         14  HIT %:    75.8621  MISS %:    24.1379  MPKI: 0.00028
PSCL3 LOAD TRANSLATION DATA	ACCESS:       1485  HIT:          0  MISS:       1485  HIT %:          0  MISS %:        100  MPKI: 0.0297
PSCL3 TRANSLATION FROM L1D PREFETCHER DATA	ACCESS:         30  HIT:          0  MISS:         30  HIT %:          0  MISS %:        100  MPKI: 0.0006


PSCL2 TOTAL     ACCESS:       5100  HIT:       2477  MISS:       2623  HIT %:    48.5686  MISS %:    51.4314   MPKI: 0.05246
PSCL2 LOAD TRANSLATION INSTRUCTION	ACCESS:       2974  HIT:       2418  MISS:        556  HIT %:    81.3046  MISS %:    18.6954  MPKI: 0.01112
PSCL2 TRANSLATION FROM L1D PREFETCHER INSTRUCTION	ACCESS:         59  HIT:         59  MISS:          0  HIT %:        100  MISS %:          0  MPKI: 0
PSCL2 LOAD TRANSLATION DATA	ACCESS:       2008  HIT:          0  MISS:       2008  HIT %:          0  MISS %:        100  MPKI: 0.04016
PSCL2 TRANSLATION FROM L1D PREFETCHER DATA	ACCESS:         59  HIT:          0  MISS:         59  HIT %:          0  MISS %:        100  MPKI: 0.00118


LLC TOTAL     ACCESS:     473579  HIT:     442084  MISS:      31495  HIT %:    93.3496  MISS %:    6.65042   MPKI: 0.6299
LLC LOAD INSTRUCTION	ACCESS:     211078  HIT:     209729  MISS:       1349  HIT %:    99.3609  MISS %:     0.6391  MPKI: 0.02698
LLC LOAD TRANSLATION INSTRUCTION	ACCESS:        375  HIT:        331  MISS:         44  HIT %:    88.2667  MISS %:    11.7333  MPKI: 0.00088
LLC LOAD DATA	ACCESS:      70165  HIT:      66434  MISS:       3731  HIT %:    94.6825  MISS %:    5.31747  MPKI: 0.07462
LLC RFO DATA	ACCESS:      49354  HIT:      33862  MISS:      15492  HIT %:    68.6104  MISS %:    31.3896  MPKI: 0.30984
LLC PREFETCH DATA	ACCESS:      69993  HIT:      59649  MISS:      10344  HIT %:    85.2214  MISS %:    14.7786  MPKI: 0.20688
LLC WRITEBACK DATA	ACCESS:      71080  HIT:      70626  MISS:        454  HIT %:    99.3613  MISS %:   0.638717  MPKI: 0.00908
LLC LOAD TRANSLATION DATA	ACCESS:       1519  HIT:       1438  MISS:         81  HIT %:    94.6675  MISS %:    5.33246  MPKI: 0.00162
LLC TRANSLATION FROM L1D PREFETCHER DATA	ACCESS:         15  HIT:         15  MISS:          0  HIT %:        100  MISS %:          0  MPKI: 0

LLC AVERAGE MISS LATENCY: 156.196 cycles
LLC RQ	ACCESS:     332516	FORWARD:          0	MERGED:          0	TO_CACHE:     332506
LLC WQ	ACCESS:      71082	FORWARD:         11	MERGED:          0	TO_CACHE:      71082
LLC PQ	ACCESS:      69994	FORWARD:          0	MERGED:          0	TO_CACHE:      69993

LLC Dense regions hint to LLC: 0

RAW hits: 1738932
Loads Generated: 12644860
Loads sent to L1D: 10905928
Stores Generated: 6958351
Stores sent to L1D: 6958357
Major fault: 0 Minor fault: 2646
Allocated PAGES: 2646

stream: 
stream:times selected: 1180473
stream:pref_filled: 121318
stream:pref_useful: 23688
stream:pref_late: 6603
stream:misses: 6791
stream:misses_by_poll: 0

CS: 
CS:times selected: 178129
CS:pref_filled: 59741
CS:pref_useful: 36414
CS:pref_late: 6317
CS:misses: 15633
CS:misses_by_poll: 5

CPLX: 
CPLX:times selected: 1001321
CPLX:pref_filled: 18831
CPLX:pref_useful: 4326
CPLX:pref_late: 2911
CPLX:misses: 90063
CPLX:misses_by_poll: 0

NL_L1: 
NL:times selected: 20064
NL:pref_filled: 601
NL:pref_useful: 236
NL:pref_late: 194
NL:misses: 1053
NL:misses_by_poll: 0

total selections: 2379987
total_filled: 93548
total_useful: 33670
total_late: 17275
total_polluted: 5
total_misses_after_warmup: 766963
conflicts: 5650362

test: 115672

DRAM Statistics
 CHANNEL 0
 RQ ROW_BUFFER_HIT:      11908  ROW_BUFFER_MISS:      19128
 DBUS_CONGESTED:         11
 WQ ROW_BUFFER_HIT:       1576  ROW_BUFFER_MISS:      13237  FULL:          0

 AVG_CONGESTED_CYCLE: 4

CPU 0 Branch Prediction Accuracy: 99.8088% MPKI: 0.3495 Average ROB Occupancy at Mispredict: 123.291
Branch types
NOT_BRANCH: 40858069 81.7161%
BRANCH_DIRECT_JUMP: 548633 1.09727%
BRANCH_INDIRECT: 182860 0.36572%
BRANCH_CONDITIONAL: 6175962 12.3519%
BRANCH_DIRECT_CALL: 945272 1.89054%
BRANCH_INDIRECT_CALL: 171743 0.343486%
BRANCH_RETURN: 1116983 2.23397%
BRANCH_OTHER: 0 0%

DRAM PAGES: 1048576
Allocated PAGES: 2646
Average_ROB_Occupancy: 118.456
Average_Decode_Occupancy: 13.9645
Average_FTQ_Occupancy: 6.5309
Indirect max targets: 14 Average targets: 1.17778
Branch_type:  BRANCH_DIRECT_JUMP:  Count Percentage: 3.30499 5.44852 4.87371 7.1683 3.47564 6.01704 1.74866 67.9631 
Branch_type:  BRANCH_INDIRECT:  Count Percentage: 6.13629 3.39484 8.16914 9.6806 3.34783 2.81086 3.88344 62.577 
Branch_type:  BRANCH_CONDITIONAL:  Count Percentage: 25.0858 2.46298 2.26188 4.07741 2.33052 4.14494 2.74646 56.89 
Branch_type:  BRANCH_DIRECT_CALL:  Count Percentage: 0.388846 1.27446 0.734298 3.50994 3.15204 2.93523 3.32609 84.6791 
Branch_type:  BRANCH_INDIRECT_CALL:  Count Percentage: 9.574 0 3.0021 0.000874738 0 2.57727 5.00058 79.8452 
Branch_type:  BRANCH_RETURN:  Count Percentage: 7.90705 1.82136 1.14603 3.49522 3.99379 4.57765 3.58495 73.4739 
Branch_type:  BRANCH_DIRECT_JUMP:  Total Count: 36275 59802 53493 78678 38148 66042 19193 745951 
Branch_type:  BRANCH_INDIRECT:  Total Count: 22455 12423 29894 35425 12251 10286 14211 228993 
Branch_type:  BRANCH_CONDITIONAL:  Total Count: 3098226 304191 279354 503581 287831 511922 339202 7026213 
Branch_type:  BRANCH_DIRECT_CALL:  Total Count: 7339 24054 13859 66246 59491 55399 62776 1598218 
Branch_type:  BRANCH_INDIRECT_CALL:  Total Count: 32835 0 10296 3 0 8839 17150 273837 
Branch_type:  BRANCH_RETURN:  Total Count: 176421 40638 25570 77985 89109 102136 79987 1639341 
Number of unique branch instructions: 10788
Upper 32 bits: 
aaaa
ffff
ffff0000
Unique upper 32 bits: 3
Unique upper 36 bits: 3
Unique upper 40 bits: 5
Unique upper 44 bits: 32
Unique upper 48 bits: 158
Variant_0 : 1233 0.301025
Variant_1 : 1216 0.296875
Variant_2 : 1028 0.250977
Variant_3 : 0 0
Offset_3 4463
Offset_4 257
Offset_5 482
Offset_6 538
Offset_7 641
Offset_8 578
Offset_9 520
Offset_10 422
Offset_11 350
Offset_12 326
Offset_13 237
Offset_14 248
Offset_15 187
Offset_16 232
Offset_17 168
Offset_18 153
Offset_19 261
Offset_20 140
Offset_21 235
Offset_22 416
Offset_23 241
Offset_24 351
Offset_25 117
Offset_47 94
Offset_64 1
decode_dispatch_called: 20633869 46.275
Dispatch_width: 0 10597486 51.3597 23.7667
Dispatch_width: 1 557590 2.7023 1.25049
Dispatch_width: 2 660640 3.20173 1.4816
Dispatch_width: 3 462181 2.23991 1.03652
Dispatch_width: 4 1521538 7.37398 3.41231
Dispatch_width: 5 358488 1.73738 0.803971
Dispatch_width: 6 6475946 31.385 14.5234
Empty_decode_cycles: 23955777 53.725
ROB_full_cycles: 2126466 4.76897
Starvation_cycles_per_kilo_instr: 359.872
Starvation_cycles_per_kilo_instr_3: 341.072
Starvation_cycles_per_kilo_instr_0: 324.268
Branch_type_1  (3,1)  (4,9)  (5,39)  (6,73)  (7,126)  (8,149)  (9,136)  (10,111)  (11,79)  (12,55)  (13,11)  (14,2)  (15,3)  (16,4)  (18,1)  (19,5)  (20,2)  (21,1)  (22,3)  (23,2)  (24,10)  (25,12) 
Branch_type_2  (3,1)  (4,1)  (5,1)  (8,4)  (9,4)  (10,1)  (12,1)  (13,1)  (14,1)  (16,3)  (17,2)  (20,2)  (21,2)  (23,5)  (24,1)  (47,43) 
Branch_type_3  (3,4461)  (4,247)  (5,438)  (6,449)  (7,486)  (8,359)  (9,285)  (10,170)  (11,138)  (12,62)  (13,10)  (64,1) 
Branch_type_4  (6,3)  (7,8)  (8,25)  (9,56)  (10,67)  (11,68)  (12,116)  (13,100)  (14,112)  (15,88)  (16,102)  (17,78)  (18,67)  (19,128)  (20,71)  (21,124)  (22,221)  (23,136)  (24,206)  (25,101) 
Branch_type_5  (8,3)  (9,1)  (10,4)  (11,5)  (12,3)  (13,14)  (14,16)  (15,11)  (16,22)  (17,11)  (18,23)  (19,14)  (20,11)  (21,13)  (22,43)  (23,26)  (24,38) 
Branch_type_6  (5,4)  (6,13)  (7,21)  (8,38)  (9,38)  (10,69)  (11,60)  (12,89)  (13,101)  (14,117)  (15,85)  (16,101)  (17,77)  (18,62)  (19,114)  (20,54)  (21,95)  (22,149)  (23,72)  (24,96)  (25,4)  (47,51) 
Unique trigger count: 
Variant_0_evicts_0 : 0
Variant_0_evicts_1 : 0
Variant_0_evicts_2 : 0
Variant_0_evicts_3 : 0
Variant_1_evicts_0 : 0
Variant_1_evicts_1 : 0
Variant_1_evicts_2 : 0
Variant_1_evicts_3 : 0
Variant_2_evicts_0 : 0
Variant_2_evicts_1 : 0
Variant_2_evicts_2 : 0
Variant_2_evicts_3 : 0
Variant_3_evicts_0 : 0
Variant_3_evicts_1 : 0
Variant_3_evicts_2 : 0
Variant_3_evicts_3 : 0
BTB PER SET UNIQUE ADDR: 6 7 6 5 3 5 6 9 10 2 5 2 8 5 3 4 6 4 8 9 5 8 8 8 8 11 1 6 6 6 11 10 6 5 8 4 4 5 7 3 8 5 7 10 9 9 6 12 11 6 5 3 12 2 2 7 5 5 9 8 4 12 5 7 6 9 9 9 6 6 6 2 6 5 6 7 6 15 6 5 8 6 7 6 6 8 7 8 8 10 10 9 9 6 8 5 10 8 5 6 7 7 9 9 7 8 7 8 7 5 7 7 4 8 5 11 3 8 6 2 8 9 4 3 6 4 4 7 11 8 11 3 10 6 9 6 5 3 6 8 7 8 7 6 4 10 5 8 12 8 6 14 6 10 6 9 8 9 6 11 11 8 10 5 12 8 3 4 12 6 5 4 7 7 4 3 6 7 10 5 6 8 10 8 9 11 6 6 6 8 6 7 6 7 6 10 12 4 9 5 4 6 8 4 8 4 5 8 7 2 3 6 9 8 7 6 3 9 7 6 6 4 6 7 6 8 14 7 3 11 13 9 3 5 7 9 11 4 4 5 5 3 10 8 17 10 2 7 6 6 9 9 6 7 5 13 4 8 11 6 8 5 7 4 9 16 7 5 7 5 7 7 4 8 9 8 7 3 3 8 9 5 9 5 9 8 7 7 7 4 5 7 4 10 7 4 6 10 6 6 6 6 5 4 6 5 6 4 13 9 7 4 8 4 6 5 10 14 7 6 7 11 5 8 5 6 6 10 3 3 9 2 6 6 10 5 6 8 8 1 6 6 2 9 7 7 3 8 10 6 5 13 11 6 8 7 7 2 8 5 7 10 6 8 11 8 4 4 4 4 8 4 6 5 8 4 11 7 6 9 9 7 6 12 6 4 8 5 8 4 9 5 8 4 7 4 5 5 2 9 6 5 8 7 5 6 9 6 5 3 5 4 12 7 2 6 8 4 2 7 2 6 7 7 10 9 4 2 4 8 4 4 16 6 8 10 6 6 7 4 5 6 10 4 7 9 6 7 5 4 6 3 5 3 9 3 4 8 9 6 5 4 7 11 5 5 12 3 4 7 2 6 10 7 4 3 10 5 4 3 5 2 3 4 3 7 8 3 7 2 13 4 4 8 1 12 5 7 6 4 11 3 5 3 2 5 6 3 5 6 8 4 8 11 3 5 2 11 6 9 7 5 8 6 10 9 6 9 9 8 8 6 6 7 5 7 7 1 6 4 5 8 11 4 8 5 10 13 14 11 7 9 7 8 2 6 9 3 7 4 10 5 9 5 5 6 10 10 11 7 8 4 11 12 7 7 6 12 3 10 13 5 2 6 5 3 3 15 7 6 8 9 4 7 6 5 9 5 6 5 13 5 11 12 9 6 4 9 7 5 8 8 8 7 7 5 7 5 5 7 9 6 11 4 5 10 8 8 4 6 8 7 7 7 6 9 6 6 6 4 11 8 4 6 3 3 7 8 8 8 7 5 10 3 5 4 11 5 6 8 12 3 6 11 8 8 7 6 6 11 7 8 6 7 11 10 8 6 8 5 9 12 8 5 8 8 7 9 8 6 3 8 3 5 5 7 10 7 7 9 3 12 6 5 7 12 3 4 5 5 7 7 6 5 5 7 11 6 1 8 5 3 5 4 4 3 3 9 2 11 8 11 7 2 7 8 10 3 6 4 5 8 5 10 4 5 6 4 7 7 6 3 4 7 2 5 5 10 9 4 5 6 6 7 7 6 14 6 5 4 8 6 0 5 7 5 5 10 4 3 9 6 4 6 10 9 9 8 2 9 3 9 6 7 6 13 12 5 6 4 13 4 8 4 7 7 7 8 5 7 3 4 6 5 5 6 1 5 5 10 7 4 9 4 5 6 6 4 7 6 7 3 7 4 10 6 4 5 6 4 5 4 7 6 5 8 9 6 6 4 8 8 6 9 6 11 8 5 7 6 7 7 4 4 14 7 6 7 10 10 4 7 6 10 7 2 2 6 7 4 5 6 6 6 9 5 7 5 5 7 8 3 5 8 6 3 9 13 5 3 12 9 5 6 10 7 7 11 6 9 10 7 5 4 3 10 6 7 8 6 9 6 10 6 9 8 6 5 5 13 6 4 11 9 6 8 10 10 3 9 7 9 6 4 6 8 9 7 9 6 9 4 13 7 5 6 9 13 6 9 6 5 11 5 3 9 10 9 10 5 3 5 2 9 12 6 8 5 4 7 13 6 4 5 5 7 4 5 9 7 8 7 7 11 5 11 6 11 4 6 5 5 6 4 7 6 7 6 7 7 9 4 8 6 10 5 9 5 3 8 11 6 13 5 
BTB PER SET COUNT: 9 1473 6 5 3 5 8 1978 7361 2 8 1963 1478 9 3 6 1228 4 38 3436 5 9 13 1316 5890 1487 1 8 1475 6 3928 378 2862 7 13 6 2944 5 13 3 41 5 10 2240 4915 18 6 5155 2924 6 5 3 12380 2 2 1473 6 5 41 135 5 2979 5 7 7 619 2086 39 6 6 1250 2 10 5 983 7 495 7205 989 5 1079 1470 1474 741 862 10 11 22 3919 2640 1480 534 1968 8 9 8 992 12 5 6 7 18 11 1700 10 8 1471 3441 2451 5 1966 9 5 19 5 7123 3 10 6 2 8 35 4 7 1742 5 5 41 5605 1962 1500 3 3443 9 3446 6 6 3 6 16 9 24 9 6 7 2181 7 8 25 2456 9 5546 6 9313 12 16 11 1969 983 994 4984 14 1972 984 1352 2952 3 4 4421 987 5 4 17 177 5 3 6 497 1989 5 6 8 1003 15 20 8832 15 7 2946 8 6 11 6 1963 1471 50 1982 5 40 5 5 6 8 5 14 4 5 2949 9 2 4 7 272 4907 7 7 4 376 40 6 6 4 9 7 6 13 6368 2021 5 2956 8093 9 3 5 24 3932 3435 5 4 5 5 4 5887 15 4385 22 2 7 12 8 10 3784 9 8 5 4154 5 10 1490 9 2391 5 7 7 2682 8264 986 5 2459 6 1961 16 5 8 14 749 11 3 4 2460 17 982 13 5 3684 1477 7 988 9 4 5 3427 983 3933 2940 989 11 4094 6 6 6 7 5 4 6 5 6 4 4655 9 13 4 989 4 6 6 25 2474 1499 9 8 36 5 15 30 11 6 781 4 3 3550 2 8 7 1976 6 2452 14 8 1 8 6 2 2811 991 913 5 12 487 10 5 1067 12 1956 8 16 13 3 5152 41 11 1858 18 2951 2339 14 4 6 7 5 25 12 12 6 79 4 7541 7 6 888 3436 2938 7 8241 10 4 48 5 12 5 2465 7 3919 6 1480 5 1476 6 2 16 13 9 1478 11 752 6 2949 7 5 2322 15 4 3181 11 981 6 234 4 3 1505 2 985 11 39 31 25 11 2 4 21 152 4 5717 8 1821 38 9 6 1964 4 5 9 121 4 13 1041 8 993 5 4 9 3 6 6 238 3 7 9 619 7 985 4 32 239 31 5 3565 3 5 14 2 18 4764 1479 284 3 25383 5 6 3 7 2 3 493 3 19 1484 395 7 2 2326 4 9 16 1 7470 8 10 6 4 39 13 12 3 2 5 26 3 8 13 23 5 11 62 4 5 2 9810 8 993 11 1474 11 427 27 1971 10 9 25 16 16 6 6 10 7 990 11 1 12 4 9 1474 77 9 1967 5 33 135 2975 8328 13 1042 11 16 2 10 1728 3 7 5 7994 1966 2473 6 5 6 55 16 35 988 992 5 1489 4882 1473 2445 7 3936 6 4933 9293 349 3 984 1475 3 3 7403 7 8 15 28 6 1972 987 8 12 5 9 6 39 14 7113 764 2951 2943 4 993 9 7 3919 17 15 7 11 8 1971 8 5 8 14 1714 1851 5 1474 730 34 2465 12 2732 497 1476 8 10 6 25 8 7 10 4 7860 22 6 8 3 3 12 8 1008 12 13 6 10299 3 8 4 44 6 1477 3918 7890 5 17 7243 11 1482 2987 989 28 70 1970 8 9 989 6366 3478 501 6 2463 5 2948 7540 10 986 21082 1492 46 4902 1479 8 3 2246 3 12 5 9 8460 10 22 47 3 2949 6 5 179 2616 4 2455 5 1475 238 7 15 983 984 11 1520 812 1 11 10 4 6 4 1964 5 981 1760 2 9562 1969 1931 1934 2 8 13 1525 5 24 4 9 8 5 10026 4 6 498 5 14 987 8 4 4 872 2 5 5 11 6380 1964 5 8 987 770 3936 6 6201 6 12 4 10 29 0 180 17 1474 8 3343 4 3 2450 35 5 3438 1486 128 13 28 406 987 3 1834 7 7 204 4431 1554 5 7 4 2694 5 384 984 1992 2947 8 12 7 15 3 4 8 495 6 6 2 5 9 3351 18 4 3688 371 1474 6 1965 4 2451 128 1679 3 498 4 7906 989 982 5 6 4 397 4 11 1945 5 21 3461 9 13 4 3429 1714 12 11 13 11720 13 5 11 19 24 2456 6 4 7210 988 13 987 2945 60 5 10 6 98 8 3 3 8 8 4 5 6 12 9 19 9 1480 6 5 1660 8 3 5 1555 6 4 49 3211 6 3 5211 2518 152 44 2685 10 7 3359 6 14 1127 12 5 4 5 21 8 989 3358 2231 13 9 3928 10 40 326 10 6 5 2964 6 495 3509 4396 9 11 3501 1914 4 3435 8 957 9 983 8 15 14 252 11 9 3589 4 8359 7 6 6 1514 11276 13 2944 6 495 8338 5 3 984 48 35 17 5 4 5 2 3314 5865 10 993 5 8 8 1537 7 494 5 5 13 4 8 12 10 1476 988 7 2526 5 1502 7 5648 4 10 7 9 9 4 15 6 1472 12 10 9 6872 4 7214 366 3172 8 2191 5 3 10 3496 10 4282 9 
To predecode: 0
Predecoding something: 0
Predecode request dropped: 0
sizeofblock_0 0
sizeofblock_1 264863
sizeofblock_2 188997
sizeofblock_3 141861
sizeofblock_4 71388
sizeofblock_5 0
sizeofblock_6 0
sizeofblock_7 0
sizeofblock_8 0
Variant_0 Correct: 0 Incorrect: 0 Accuracy: -nan
Variant_1 Correct: 0 Incorrect: 0 Accuracy: -nan
Variant_2 Correct: 0 Incorrect: 0 Accuracy: -nan
Variant_3 Correct: 0 Incorrect: 0 Accuracy: -nan
