
*** ChampSim Multicore Out-of-Order Simulator ***

Warmup Instructions: 50000000
Simulation Instructions: 50000000
Number of CPUs: 1
LLC sets: 2048
LLC ways: 16
Off-chip DRAM Size: 4096 MB Channels: 1 Width: 64-bit Data Rate: 6400 MT/s
CPU 0 runs ./micro_traces/srv183.trace.gz
.gz
ITLB has LRU replacement policy
DTLB has LRU replacement policy
STLB has LRU replacement policy
CPU 0 L1I next line prefetcher
L1I has LRU replacement policy
L1D has LRU replacement policy
Initialize SRRIP state for L2C
Initialize DRRIP state for LLC
Heartbeat CPU 0 instructions: 10000002 cycles: 2798481 heartbeat IPC: 3.57337 cumulative IPC: 3.57337 (Simulation time: 0 hr 1 min 34 sec) 
Heartbeat CPU 0 instructions: 20000003 cycles: 5595184 heartbeat IPC: 3.57564 cumulative IPC: 3.5745 (Simulation time: 0 hr 3 min 11 sec) 
Heartbeat CPU 0 instructions: 30000000 cycles: 8393259 heartbeat IPC: 3.57388 cumulative IPC: 3.5743 (Simulation time: 0 hr 4 min 49 sec) 
Heartbeat CPU 0 instructions: 40000002 cycles: 11189589 heartbeat IPC: 3.57612 cumulative IPC: 3.57475 (Simulation time: 0 hr 6 min 26 sec) 
Heartbeat CPU 0 instructions: 50000003 cycles: 13987836 heartbeat IPC: 3.57367 cumulative IPC: 3.57453 (Simulation time: 0 hr 8 min 3 sec) 

Warmup complete CPU 0 instructions: 50000003 cycles: 13987836 (Simulation time: 0 hr 8 min 3 sec) 

Cycle: 20000000 FTQ IN: 57498969 FTQ occupancy: 17.9979 DECODE IN: 57498959 DECODE occupancy: 47.3781 ROB IN: 57498959 ROB occupancy: 296.504 ROB OUT: 57498959
Heartbeat CPU 0 instructions: 60000002 cycles: 21978340 heartbeat IPC: 1.25149 cumulative IPC: 1.25149 (Simulation time: 0 hr 9 min 31 sec) 
Heartbeat CPU 0 instructions: 70000000 cycles: 29843301 heartbeat IPC: 1.27146 cumulative IPC: 1.26139 (Simulation time: 0 hr 10 min 56 sec) 
Cycle: 30000000 FTQ IN: 12700280 FTQ occupancy: 5.9868 DECODE IN: 12700284 DECODE occupancy: 17.0417 ROB IN: 12700284 ROB occupancy: 173.368 ROB OUT: 12700278
Heartbeat CPU 0 instructions: 80000001 cycles: 37820969 heartbeat IPC: 1.2535 cumulative IPC: 1.25875 (Simulation time: 0 hr 12 min 21 sec) 
Cycle: 40000000 FTQ IN: 12565165 FTQ occupancy: 6.15737 DECODE IN: 12565158 DECODE occupancy: 17.4432 ROB IN: 12565158 ROB occupancy: 174.507 ROB OUT: 12564901
Heartbeat CPU 0 instructions: 90000002 cycles: 45660145 heartbeat IPC: 1.27564 cumulative IPC: 1.26293 (Simulation time: 0 hr 13 min 45 sec) 
Cycle: 50000000 FTQ IN: 12519653 FTQ occupancy: 6.0438 DECODE IN: 12519591 DECODE occupancy: 17.2104 ROB IN: 12519531 ROB occupancy: 174.653 ROB OUT: 12519446
Heartbeat CPU 0 instructions: 100000000 cycles: 53709717 heartbeat IPC: 1.2423 cumulative IPC: 1.25875 (Simulation time: 0 hr 15 min 10 sec) 
Finished CPU 0 instructions: 50000001 cycles: 39721882 cumulative IPC: 1.25875 (Simulation time: 0 hr 15 min 10 sec) 

ChampSim completed all CPUs

Region of Interest Statistics

CPU 0 cumulative IPC: 1.25875 instructions: 50000001 cycles: 39721882
 Fetch stage stalled: 66.5336  Sim cycles: 39721882 fetch stall cycle: 26428404
 Empty decode stage: 49.2552  Sim cycles: 39721882 fetch stall cycle: 19565094
ITLB TOTAL     ACCESS:    7525250  HIT:    6916244  MISS:     609006  HIT %:    91.9072  MISS %:    8.09283   MPKI: 12.1801
ITLB LOAD TRANSLATION INSTRUCTION	ACCESS:    5813707  HIT:    5672382  MISS:     141325  HIT %:    97.5691  MISS %:    2.43089  MPKI: 2.8265
ITLB TRANSLATION FROM L1D PREFETCHER INSTRUCTION	ACCESS:    1711543  HIT:    1243862  MISS:     467681  HIT %:    72.6749  MISS %:    27.3251  MPKI: 9.35362

ITLB AVERAGE MISS LATENCY: 136506 cycles
ITLB RQ	ACCESS:   11342401	FORWARD:          0	MERGED:    3649485	TO_CACHE:    7692916

DTLB TOTAL     ACCESS:    9104006  HIT:    8630979  MISS:     473027  HIT %:    94.8042  MISS %:    5.19581   MPKI: 9.46054
DTLB LOAD TRANSLATION DATA	ACCESS:    9104006  HIT:    8630979  MISS:     473027  HIT %:    94.8042  MISS %:    5.19581  MPKI: 9.46054

DTLB AVERAGE MISS LATENCY: 9.40563 cycles
DTLB RQ	ACCESS:   13444095	FORWARD:          0	MERGED:    4303504	TO_CACHE:    9140591

STLB TOTAL     ACCESS:    1330886  HIT:    1328608  MISS:       2278  HIT %:    99.8288  MISS %:   0.171164   MPKI: 0.04556
STLB LOAD TRANSLATION INSTRUCTION	ACCESS:     138776  HIT:     138558  MISS:        218  HIT %:    99.8429  MISS %:   0.157088  MPKI: 0.00436
STLB TRANSLATION FROM L1D PREFETCHER INSTRUCTION	ACCESS:     470230  HIT:     470138  MISS:         92  HIT %:    99.9804  MISS %:  0.0195649  MPKI: 0.00184
STLB LOAD TRANSLATION DATA	ACCESS:     473027  HIT:     471096  MISS:       1931  HIT %:    99.5918  MISS %:   0.408222  MPKI: 0.03862
STLB TRANSLATION FROM L1D PREFETCHER DATA	ACCESS:     248853  HIT:     248816  MISS:         37  HIT %:    99.9851  MISS %:  0.0148682  MPKI: 0.00074

STLB AVERAGE MISS LATENCY: 86.9091 cycles
STLB RQ	ACCESS:    1457079	FORWARD:          0	MERGED:     122799	TO_CACHE:    1334280

STLB Hit, L1D data hit: 0
STLB Hit, L2C data hit: 0
STLB Hit, LLC data hit: 0
STLB Hit, LLC data miss: 0
STLB STLB hints to L2: 0
L1D TOTAL     ACCESS:   13182237  HIT:   12055554  MISS:    1126683  HIT %:     91.453  MISS %:    8.54698   MPKI: 22.5337
L1D LOAD DATA	ACCESS:    6639366  HIT:    5896346  MISS:     743020  HIT %:    88.8089  MISS %:    11.1911  MPKI: 14.8604
L1D RFO DATA	ACCESS:    6213940  HIT:    5925227  MISS:     288713  HIT %:    95.3538  MISS %:    4.64621  MPKI: 5.77426
L1D PREFETCH DATA	ACCESS:     328931  HIT:     233981  MISS:      94950  HIT %:    71.1338  MISS %:    28.8662  MPKI: 1.899

L1D PREFETCH  REQUESTED:     743790  ISSUED:     743790  USEFUL:      35466  USELESS:      68506
L1D USEFUL LOAD PREFETCHES:      35466 PREFETCH ISSUED TO LOWER LEVEL:     104069  ACCURACY: 34.0793
 TIMELY PREFETCHES:      35466 LATE PREFETCHES: 9063 DROPPED PREFETCHES: 8
L1D AVERAGE MISS LATENCY: 271075 cycles
L1D RQ	ACCESS:   10757704	FORWARD:          0	MERGED:    3914388	TO_CACHE:    6679606
L1D WQ	ACCESS:    6954528	FORWARD:     164112	MERGED:     190039	TO_CACHE:    6764489
L1D PQ	ACCESS:     372096	FORWARD:          0	MERGED:          0	TO_CACHE:     371694

L1D UNIQUE REGIONS ACCESSED: 0
L1D REGIONS CONFLICTS: 0
L1D Cross Page Prefetch Requests: 6879
L1D Same Page Prefetch Requests: 750337
L1D ROI Sum of L1D PQ occupancy: 4733909
L1D PREFETCHES PUSHED FROM L2C: 0
L1I TOTAL     ACCESS:   10927877  HIT:    7325442  MISS:    3602435  HIT %:    67.0344  MISS %:    32.9656   MPKI: 72.0487
L1I LOAD INSTRUCTION	ACCESS:    6571013  HIT:    5937898  MISS:     633115  HIT %:     90.365  MISS %:    9.63497  MPKI: 12.6623
L1I PREFETCH INSTRUCTION	ACCESS:    4356864  HIT:    1387544  MISS:    2969320  HIT %:    31.8473  MISS %:    68.1527  MPKI: 59.3864

L1I PREFETCH  REQUESTED:    5075818  ISSUED:    5075297  USEFUL:    2321998  USELESS:     742324
L1I USEFUL LOAD PREFETCHES:    2321998 PREFETCH ISSUED TO LOWER LEVEL:    3064301  ACCURACY: 75.7758
 TIMELY PREFETCHES:    2321998 LATE PREFETCHES: 94987 DROPPED PREFETCHES: 9917
L1I AVERAGE MISS LATENCY: 882360 cycles
L1I RQ	ACCESS:    9440652	FORWARD:          0	MERGED:    2825955	TO_CACHE:    6614697
L1I PQ	ACCESS:    5075297	FORWARD:          0	MERGED:     347593	TO_CACHE:    4727704

L1BTB TOTAL     ACCESS:    5670114  HIT:    2034348  MISS:    3635766  HIT %:    35.8784  MISS %:    64.1216   MPKI: 72.7153
L1BTB BRANCH_DIRECT_JUMP	ACCESS:     546741  HIT:     143376  MISS:     403365	AVERAGE STALL: 26.1484
L1BTB BRANCH_INDIRECT	ACCESS:     182459  HIT:      65645  MISS:     116814	AVERAGE STALL: 110.567
L1BTB BRANCH_CONDITIONAL	ACCESS:    2705154  HIT:    1411025  MISS:    1294129	AVERAGE STALL: 27.6545
L1BTB BRANCH_DIRECT_CALL	ACCESS:     946771  HIT:     104164  MISS:     842607	AVERAGE STALL: 29.4728
L1BTB BRANCH_INDIRECT_CALL	ACCESS:     171107  HIT:      20719  MISS:     150388	AVERAGE STALL: 125.669
L1BTB BRANCH_RETURN	ACCESS:    1117882  HIT:     289419  MISS:     828463	AVERAGE STALL: 30.7333
L1BTB BRANCH_OTHER ACCESS:          0  HIT:          0  MISS:          0	AVERAGE STALL: -nan
L1BTB TOTAL ROB OCCUPANCY AT BTB MISS: 16.3622

L2BTB1 TOTAL     ACCESS:    3610375  HIT:    3209651  MISS:     400724  HIT %:    88.9008  MISS %:    11.0992   MPKI: 8.01448
L2BTB1 BRANCH_DIRECT_JUMP	ACCESS:     399221  HIT:     363617  MISS:      35604	AVERAGE STALL: 26.1484
L2BTB1 BRANCH_INDIRECT	ACCESS:     106497  HIT:      84312  MISS:      22185	AVERAGE STALL: 110.567
L2BTB1 BRANCH_CONDITIONAL	ACCESS:    1294129  HIT:    1187831  MISS:     106298	AVERAGE STALL: 27.6545
L2BTB1 BRANCH_DIRECT_CALL	ACCESS:     842607  HIT:     730136  MISS:     112471	AVERAGE STALL: 29.4728
L2BTB1 BRANCH_INDIRECT_CALL	ACCESS:     140889  HIT:     116947  MISS:      23942	AVERAGE STALL: 125.669
L2BTB1 BRANCH_RETURN	ACCESS:     827032  HIT:     726808  MISS:     100224	AVERAGE STALL: 30.7333
L2BTB1 BRANCH_OTHER ACCESS:          0  HIT:          0  MISS:          0	AVERAGE STALL: -nan
L2BTB1 TOTAL ROB OCCUPANCY AT BTB MISS: 148.454

L2C TOTAL     ACCESS:    6552011  HIT:    5603369  MISS:     948642  HIT %:    85.5214  MISS %:    14.4786   MPKI: 18.9728
L2C LOAD INSTRUCTION	ACCESS:     538128  HIT:     441589  MISS:      96539  HIT %:    82.0602  MISS %:    17.9398  MPKI: 1.93078
L2C PREFETCH INSTRUCTION	ACCESS:    3064306  HIT:    2726748  MISS:     337558  HIT %:    88.9842  MISS %:    11.0158  MPKI: 6.75116
L2C LOAD TRANSLATION INSTRUCTION	ACCESS:        248  HIT:         83  MISS:        165  HIT %:    33.4677  MISS %:    66.5323  MPKI: 0.0033
L2C TRANSLATION FROM L1D PREFETCHER INSTRUCTION	ACCESS:       4940  HIT:       4838  MISS:        102  HIT %:    97.9352  MISS %:    2.06478  MPKI: 0.00204
L2C LOAD DATA	ACCESS:     733923  HIT:     596903  MISS:     137020  HIT %:    81.3305  MISS %:    18.6695  MPKI: 2.7404
L2C RFO DATA	ACCESS:     288630  HIT:     200577  MISS:      88053  HIT %:    69.4928  MISS %:    30.5072  MPKI: 1.76106
L2C PREFETCH DATA	ACCESS:    1392924  HIT:    1142800  MISS:     250124  HIT %:    82.0432  MISS %:    17.9568  MPKI: 5.00248
L2C WRITEBACK DATA	ACCESS:     526796  HIT:     489310  MISS:      37486  HIT %:    92.8842  MISS %:    7.11585  MPKI: 0.74972
L2C LOAD TRANSLATION DATA	ACCESS:       2053  HIT:        479  MISS:       1574  HIT %:    23.3317  MISS %:    76.6683  MPKI: 0.03148
L2C TRANSLATION FROM L1D PREFETCHER DATA	ACCESS:         63  HIT:         42  MISS:         21  HIT %:    66.6667  MISS %:    33.3333  MPKI: 0.00042

L2C PREFETCH  REQUESTED:    3169431  ISSUED:    3169431  USEFUL:      31734  USELESS:     558110
L2C USEFUL LOAD PREFETCHES:      31734 PREFETCH ISSUED TO LOWER LEVEL:     589205  ACCURACY: 5.3859
 TIMELY PREFETCHES:      31734 LATE PREFETCHES: 1523 DROPPED PREFETCHES: 0
L2C AVERAGE MISS LATENCY: 34.682 cycles
L2C RQ	ACCESS:    1568047	FORWARD:          0	MERGED:          0	TO_CACHE:    1567986
L2C WQ	ACCESS:     526796	FORWARD:         64	MERGED:          0	TO_CACHE:     526796
L2C PQ	ACCESS:    6337801	FORWARD:          0	MERGED:    1861497	TO_CACHE:    4476301

L2C Dense regions hint from L2: 0
PSCL5 TOTAL     ACCESS:      11284  HIT:       5642  MISS:       5642  HIT %:         50  MISS %:         50   MPKI: 0.11284
PSCL5 LOAD TRANSLATION INSTRUCTION	ACCESS:       4272  HIT:       2136  MISS:       2136  HIT %:         50  MISS %:         50  MPKI: 0.04272
PSCL5 TRANSLATION FROM L1D PREFETCHER INSTRUCTION	ACCESS:       7012  HIT:       3506  MISS:       3506  HIT %:         50  MISS %:         50  MPKI: 0.07012


PSCL4 TOTAL     ACCESS:      11059  HIT:       5523  MISS:       5536  HIT %:    49.9412  MISS %:    50.0588   MPKI: 0.11072
PSCL4 LOAD TRANSLATION INSTRUCTION	ACCESS:       3756  HIT:       2050  MISS:       1706  HIT %:    54.5793  MISS %:    45.4207  MPKI: 0.03412
PSCL4 TRANSLATION FROM L1D PREFETCHER INSTRUCTION	ACCESS:       6923  HIT:       3473  MISS:       3450  HIT %:    50.1661  MISS %:    49.8339  MPKI: 0.069
PSCL4 LOAD TRANSLATION DATA	ACCESS:        357  HIT:          0  MISS:        357  HIT %:          0  MISS %:        100  MPKI: 0.00714
PSCL4 TRANSLATION FROM L1D PREFETCHER DATA	ACCESS:         23  HIT:          0  MISS:         23  HIT %:          0  MISS %:        100  MPKI: 0.00046


PSCL3 TOTAL     ACCESS:      11157  HIT:       5572  MISS:       5585  HIT %:    49.9417  MISS %:    50.0583   MPKI: 0.1117
PSCL3 LOAD TRANSLATION INSTRUCTION	ACCESS:       3805  HIT:       2099  MISS:       1706  HIT %:    55.1643  MISS %:    44.8357  MPKI: 0.03412
PSCL3 TRANSLATION FROM L1D PREFETCHER INSTRUCTION	ACCESS:       6923  HIT:       3473  MISS:       3450  HIT %:    50.1661  MISS %:    49.8339  MPKI: 0.069
PSCL3 LOAD TRANSLATION DATA	ACCESS:        406  HIT:          0  MISS:        406  HIT %:          0  MISS %:        100  MPKI: 0.00812
PSCL3 TRANSLATION FROM L1D PREFETCHER DATA	ACCESS:         23  HIT:          0  MISS:         23  HIT %:          0  MISS %:        100  MPKI: 0.00046


PSCL2 TOTAL     ACCESS:       8211  HIT:       4020  MISS:       4191  HIT %:    48.9587  MISS %:    51.0413   MPKI: 0.08382
PSCL2 LOAD TRANSLATION INSTRUCTION	ACCESS:       2239  HIT:       1985  MISS:        254  HIT %:    88.6556  MISS %:    11.3444  MPKI: 0.00508
PSCL2 TRANSLATION FROM L1D PREFETCHER INSTRUCTION	ACCESS:       4009  HIT:       2035  MISS:       1974  HIT %:    50.7608  MISS %:    49.2392  MPKI: 0.03948
PSCL2 LOAD TRANSLATION DATA	ACCESS:       1902  HIT:          0  MISS:       1902  HIT %:          0  MISS %:        100  MPKI: 0.03804
PSCL2 TRANSLATION FROM L1D PREFETCHER DATA	ACCESS:         61  HIT:          0  MISS:         61  HIT %:          0  MISS %:        100  MPKI: 0.00122


LLC TOTAL     ACCESS:    1039237  HIT:    1005522  MISS:      33715  HIT %:    96.7558  MISS %:    3.24421   MPKI: 0.6743
LLC LOAD INSTRUCTION	ACCESS:      95700  HIT:      94852  MISS:        848  HIT %:    99.1139  MISS %:   0.886102  MPKI: 0.01696
LLC PREFETCH INSTRUCTION	ACCESS:     335322  HIT:     334693  MISS:        629  HIT %:    99.8124  MISS %:   0.187581  MPKI: 0.01258
LLC LOAD TRANSLATION INSTRUCTION	ACCESS:        165  HIT:        123  MISS:         42  HIT %:    74.5455  MISS %:    25.4545  MPKI: 0.00084
LLC TRANSLATION FROM L1D PREFETCHER INSTRUCTION	ACCESS:        102  HIT:         90  MISS:         12  HIT %:    88.2353  MISS %:    11.7647  MPKI: 0.00024
LLC LOAD DATA	ACCESS:     136342  HIT:     132082  MISS:       4260  HIT %:    96.8755  MISS %:     3.1245  MPKI: 0.0852
LLC RFO DATA	ACCESS:      88030  HIT:      72302  MISS:      15728  HIT %:    82.1334  MISS %:    17.8666  MPKI: 0.31456
LLC PREFETCH DATA	ACCESS:     253883  HIT:     242219  MISS:      11664  HIT %:    95.4058  MISS %:    4.59424  MPKI: 0.23328
LLC WRITEBACK DATA	ACCESS:     128098  HIT:     127727  MISS:        371  HIT %:    99.7104  MISS %:   0.289622  MPKI: 0.00742
LLC LOAD TRANSLATION DATA	ACCESS:       1574  HIT:       1413  MISS:        161  HIT %:    89.7713  MISS %:    10.2287  MPKI: 0.00322
LLC TRANSLATION FROM L1D PREFETCHER DATA	ACCESS:         21  HIT:         21  MISS:          0  HIT %:        100  MISS %:          0  MPKI: 0

LLC AVERAGE MISS LATENCY: 163.826 cycles
LLC RQ	ACCESS:     321951	FORWARD:          0	MERGED:          0	TO_CACHE:     321934
LLC WQ	ACCESS:     128098	FORWARD:         17	MERGED:          0	TO_CACHE:     128098
LLC PQ	ACCESS:     589205	FORWARD:          0	MERGED:          0	TO_CACHE:     589205

LLC Dense regions hint to LLC: 0

RAW hits: 1881060
Loads Generated: 12638764
Loads sent to L1D: 10757704
Stores Generated: 6954524
Stores sent to L1D: 6954528
Major fault: 0 Minor fault: 2672
Allocated PAGES: 2672
I-Shadow cache 408 bytes
Touched + WorthPF tables 12288 bytes 
MMA filter 174 bytes 
FNL filter 272 bytes 
TOTAL PREFETCHER STORAGE SIZE: 31318 bytes
CPU 0 L1I next line prefetcher final stats

stream: 
stream:times selected: 1187131
stream:pref_filled: 117497
stream:pref_useful: 22644
stream:pref_late: 7738
stream:misses: 8318
stream:misses_by_poll: 0

CS: 
CS:times selected: 177617
CS:pref_filled: 54050
CS:pref_useful: 30543
CS:pref_late: 13536
CS:misses: 22923
CS:misses_by_poll: 12

CPLX: 
CPLX:times selected: 1008254
CPLX:pref_filled: 19699
CPLX:pref_useful: 4036
CPLX:pref_late: 3266
CPLX:misses: 95350
CPLX:misses_by_poll: 5

NL_L1: 
NL:times selected: 21238
NL:pref_filled: 528
NL:pref_useful: 214
NL:pref_late: 407
NL:misses: 1709
NL:misses_by_poll: 0

total selections: 2394240
total_filled: 94950
total_useful: 35466
total_late: 26677
total_polluted: 17
total_misses_after_warmup: 783262
conflicts: 5567121

test: 116381

DRAM Statistics
 CHANNEL 0
 RQ ROW_BUFFER_HIT:      11329  ROW_BUFFER_MISS:      21994
 DBUS_CONGESTED:          5
 WQ ROW_BUFFER_HIT:       1949  ROW_BUFFER_MISS:      14568  FULL:          0

 AVG_CONGESTED_CYCLE: 4

CPU 0 Branch Prediction Accuracy: 99.7901% MPKI: 0.3838 Average ROB Occupancy at Mispredict: 156.312
Branch types
NOT_BRANCH: 40858509 81.717%
BRANCH_DIRECT_JUMP: 546741 1.09348%
BRANCH_INDIRECT: 182459 0.364918%
BRANCH_CONDITIONAL: 6176362 12.3527%
BRANCH_DIRECT_CALL: 946771 1.89354%
BRANCH_INDIRECT_CALL: 171107 0.342214%
BRANCH_RETURN: 1117882 2.23576%
BRANCH_OTHER: 0 0%

DRAM PAGES: 1048576
Allocated PAGES: 2672
Average_ROB_Occupancy: 175.593
Average_Decode_Occupancy: 17.3437
Average_FTQ_Occupancy: 6.09943
Indirect max targets: 14 Average targets: 1.18266
Branch_type:  BRANCH_DIRECT_JUMP:  Count Percentage: 2.117 7.16124 4.13221 8.54388 9.65519 4.36118 0.902892 63.1264 
Branch_type:  BRANCH_INDIRECT:  Count Percentage: 11.7457 3.43481 2.55791 0 16.6757 9.68397 2.27217 53.6298 
Branch_type:  BRANCH_CONDITIONAL:  Count Percentage: 25.1104 2.75397 1.7048 5.2575 4.90107 4.53204 0.510391 55.2299 
Branch_type:  BRANCH_DIRECT_CALL:  Count Percentage: 0.774726 1.29441 1.37467 3.9975 4.18531 0.988976 0.938116 86.4463 
Branch_type:  BRANCH_INDIRECT_CALL:  Count Percentage: 9.56615 0 2.99692 8.72297 2.42915 0.00292668 1.28862 74.9933 
Branch_type:  BRANCH_RETURN:  Count Percentage: 8.40549 1.09493 1.32088 5.8674 6.58122 5.20846 1.47697 70.0447 
Branch_type:  BRANCH_DIRECT_JUMP:  Total Count: 23189 78442 45263 93587 105760 47771 9890 691467 
Branch_type:  BRANCH_INDIRECT:  Total Count: 42916 12550 9346 0 60929 35383 8302 195951 
Branch_type:  BRANCH_CONDITIONAL:  Total Count: 3103774 340405 210722 649855 605798 560185 63087 6826709 
Branch_type:  BRANCH_DIRECT_CALL:  Total Count: 14623 24432 25947 75453 78998 18667 17707 1631680 
Branch_type:  BRANCH_INDIRECT_CALL:  Total Count: 32686 0 10240 29805 8300 10 4403 256240 
Branch_type:  BRANCH_RETURN:  Total Count: 187451 24418 29457 130849 146768 116154 32938 1562068 
Number of unique branch instructions: 11118
Upper 32 bits: 
aaaa
ffff
ffff0000
Unique upper 32 bits: 3
Unique upper 36 bits: 3
Unique upper 40 bits: 5
Unique upper 44 bits: 32
Unique upper 48 bits: 160
Offset_3 4608
Offset_4 284
Offset_5 501
Offset_6 557
Offset_7 661
Offset_8 615
Offset_9 547
Offset_10 433
Offset_11 357
Offset_12 336
Offset_13 248
Offset_14 252
Offset_15 203
Offset_16 234
Offset_17 178
Offset_18 152
Offset_19 270
Offset_20 148
Offset_21 262
Offset_22 412
Offset_23 245
Offset_24 373
Offset_25 117
Offset_47 100
Offset_64 21
decode_dispatch_called: 21732248 54.711
Dispatch_width: 0 10807657 49.731 27.2083
Dispatch_width: 1 733727 3.37621 1.84716
Dispatch_width: 2 900646 4.14428 2.26738
Dispatch_width: 3 604236 2.78037 1.52117
Dispatch_width: 4 3039034 13.984 7.65078
Dispatch_width: 5 385600 1.77432 0.97075
Dispatch_width: 6 5261348 24.2099 13.2455
Empty_decode_cycles: 17989634 45.289
ROB_full_cycles: 4587343 11.5487
Starvation_cycles_per_kilo_instr: 298.732
Starvation_cycles_per_kilo_instr_3: 264.486
Starvation_cycles_per_kilo_instr_0: 242.099
Branch_type_1  (3,1)  (4,10)  (5,41)  (6,75)  (7,129)  (8,159)  (9,144)  (10,113)  (11,79)  (12,55)  (13,11)  (14,2)  (15,3)  (16,4)  (18,1)  (19,5)  (20,2)  (21,1)  (22,3)  (23,2)  (24,10)  (25,12)  (64,2) 
Branch_type_2  (3,1)  (4,1)  (5,1)  (8,4)  (9,4)  (10,1)  (12,1)  (13,1)  (14,1)  (16,3)  (17,2)  (20,2)  (21,2)  (23,5)  (24,1)  (47,46) 
Branch_type_3  (3,4606)  (4,273)  (5,455)  (6,464)  (7,498)  (8,381)  (9,302)  (10,175)  (11,138)  (12,62)  (13,10)  (24,3)  (64,15) 
Branch_type_4  (6,4)  (7,8)  (8,30)  (9,58)  (10,68)  (11,73)  (12,121)  (13,106)  (14,113)  (15,97)  (16,103)  (17,84)  (18,65)  (19,130)  (20,74)  (21,141)  (22,218)  (23,138)  (24,216)  (25,101)  (64,2) 
Branch_type_5  (8,3)  (9,1)  (10,4)  (11,5)  (12,3)  (13,14)  (14,16)  (15,11)  (16,22)  (17,11)  (18,23)  (19,15)  (20,12)  (21,13)  (22,43)  (23,26)  (24,42)  (64,1) 
Branch_type_6  (5,4)  (6,14)  (7,26)  (8,38)  (9,38)  (10,72)  (11,62)  (12,94)  (13,106)  (14,120)  (15,92)  (16,102)  (17,81)  (18,63)  (19,120)  (20,58)  (21,105)  (22,148)  (23,74)  (24,101)  (25,4)  (47,54)  (64,1) 
Unique trigger count: 
L2BTB1 768 4
L2BTB2 768 4
L2BTB3 768 4
L2BTB4 112 4
