
*** ChampSim Multicore Out-of-Order Simulator ***

Warmup Instructions: 50000000
Simulation Instructions: 50000000
Number of CPUs: 1
LLC sets: 2048
LLC ways: 16
Off-chip DRAM Size: 4096 MB Channels: 1 Width: 64-bit Data Rate: 6400 MT/s
CPU 0 runs ./micro_traces/srv189.trace.gz
.gz
ITLB has LRU replacement policy
DTLB has LRU replacement policy
STLB has LRU replacement policy
FDIP Prefetcher at L1I
L1I has LRU replacement policy
L1D has LRU replacement policy
Initialize SRRIP state for L2C
Initialize DRRIP state for LLC
Heartbeat_Variant_0 : 1055 0.343424 per_variant_size: 0 1055 0 0 0 0 0 0 0 
Heartbeat_Variant_1 : 971 0.316081 per_variant_size: 0 410 561 0 0 0 0 0 0 
Heartbeat_Variant_2 : 1040 0.338542 per_variant_size: 0 373 283 186 198 0 0 0 0 
Heartbeat_Variant_3 : 0 0 per_variant_size: 0 0 0 0 0 0 0 0 0 
Heartbeat_Variant_0_evicts 0 : 15959 1 : 9642 2 : 9676 3 : 0 
Heartbeat_Variant_1_evicts 0 : 9587 1 : 0 2 : 8829 3 : 0 
Heartbeat_Variant_2_evicts 0 : 9671 1 : 8795 2 : 0 3 : 0 
Heartbeat_Variant_3_evicts 0 : 0 1 : 0 2 : 0 3 : 0 
Heartbeat CPU 0 instructions: 10000001 cycles: 2798379 heartbeat IPC: 3.5735 cumulative IPC: 3.5735 (Simulation time: 0 hr 2 min 7 sec) 
Heartbeat_Variant_0 : 1079 0.351237 per_variant_size: 0 1079 0 0 0 0 0 0 0 
Heartbeat_Variant_1 : 945 0.307617 per_variant_size: 0 411 534 0 0 0 0 0 0 
Heartbeat_Variant_2 : 1043 0.339518 per_variant_size: 0 383 292 195 173 0 0 0 0 
Heartbeat_Variant_3 : 0 0 per_variant_size: 0 0 0 0 0 0 0 0 0 
Heartbeat_Variant_0_evicts 0 : 15713 1 : 9451 2 : 9479 3 : 0 
Heartbeat_Variant_1_evicts 0 : 9411 1 : 0 2 : 8598 3 : 0 
Heartbeat_Variant_2_evicts 0 : 9495 1 : 8584 2 : 0 3 : 0 
Heartbeat_Variant_3_evicts 0 : 0 1 : 0 2 : 0 3 : 0 
Heartbeat CPU 0 instructions: 20000001 cycles: 5595192 heartbeat IPC: 3.5755 cumulative IPC: 3.5745 (Simulation time: 0 hr 4 min 9 sec) 
Heartbeat_Variant_0 : 1064 0.346354 per_variant_size: 0 1064 0 0 0 0 0 0 0 
Heartbeat_Variant_1 : 968 0.315104 per_variant_size: 0 411 557 0 0 0 0 0 0 
Heartbeat_Variant_2 : 1035 0.336914 per_variant_size: 0 349 280 206 200 0 0 0 0 
Heartbeat_Variant_3 : 0 0 per_variant_size: 0 0 0 0 0 0 0 0 0 
Heartbeat_Variant_0_evicts 0 : 15704 1 : 9536 2 : 9761 3 : 0 
Heartbeat_Variant_1_evicts 0 : 9539 1 : 0 2 : 8734 3 : 0 
Heartbeat_Variant_2_evicts 0 : 9773 1 : 8714 2 : 0 3 : 0 
Heartbeat_Variant_3_evicts 0 : 0 1 : 0 2 : 0 3 : 0 
Heartbeat CPU 0 instructions: 30000002 cycles: 8392694 heartbeat IPC: 3.57462 cumulative IPC: 3.57454 (Simulation time: 0 hr 6 min 3 sec) 
Heartbeat_Variant_0 : 1065 0.34668 per_variant_size: 0 1065 0 0 0 0 0 0 0 
Heartbeat_Variant_1 : 948 0.308594 per_variant_size: 0 402 546 0 0 0 0 0 0 
Heartbeat_Variant_2 : 1054 0.343099 per_variant_size: 0 382 280 203 189 0 0 0 0 
Heartbeat_Variant_3 : 0 0 per_variant_size: 0 0 0 0 0 0 0 0 0 
Heartbeat_Variant_0_evicts 0 : 14945 1 : 8913 2 : 8923 3 : 0 
Heartbeat_Variant_1_evicts 0 : 8928 1 : 0 2 : 7884 3 : 0 
Heartbeat_Variant_2_evicts 0 : 8907 1 : 7919 2 : 0 3 : 0 
Heartbeat_Variant_3_evicts 0 : 0 1 : 0 2 : 0 3 : 0 
Heartbeat CPU 0 instructions: 40000001 cycles: 11188803 heartbeat IPC: 3.5764 cumulative IPC: 3.575 (Simulation time: 0 hr 7 min 54 sec) 
Heartbeat_Variant_0 : 1073 0.349284 per_variant_size: 0 1073 0 0 0 0 0 0 0 
Heartbeat_Variant_1 : 949 0.308919 per_variant_size: 0 395 554 0 0 0 0 0 0 
Heartbeat_Variant_2 : 1046 0.340495 per_variant_size: 0 363 285 205 193 0 0 0 0 
Heartbeat_Variant_3 : 0 0 per_variant_size: 0 0 0 0 0 0 0 0 0 
Heartbeat_Variant_0_evicts 0 : 15389 1 : 9347 2 : 9182 3 : 0 
Heartbeat_Variant_1_evicts 0 : 9327 1 : 0 2 : 8477 3 : 0 
Heartbeat_Variant_2_evicts 0 : 9194 1 : 8457 2 : 0 3 : 0 
Heartbeat_Variant_3_evicts 0 : 0 1 : 0 2 : 0 3 : 0 
Heartbeat CPU 0 instructions: 50000002 cycles: 13985346 heartbeat IPC: 3.57584 cumulative IPC: 3.57517 (Simulation time: 0 hr 10 min 1 sec) 

Warmup complete CPU 0 instructions: 50000002 cycles: 13985346 (Simulation time: 0 hr 10 min 1 sec) 

Cycle: 20000000 FTQ IN: 56582129 FTQ occupancy: 17.9293 DECODE IN: 56582058 DECODE occupancy: 45.8803 ROB IN: 56582058 ROB occupancy: 277.674 ROB OUT: 56582026
Heartbeat_Variant_0 : 1089 0.354492 per_variant_size: 0 1089 0 0 0 0 0 0 0 
Heartbeat_Variant_1 : 957 0.311523 per_variant_size: 0 388 569 0 0 0 0 0 0 
Heartbeat_Variant_2 : 1022 0.332682 per_variant_size: 0 340 272 218 192 0 0 0 0 
Heartbeat_Variant_3 : 0 0 per_variant_size: 0 0 0 0 0 0 0 0 0 
Heartbeat_Variant_0_evicts 0 : 15215 1 : 9052 2 : 9060 3 : 0 
Heartbeat_Variant_1_evicts 0 : 9016 1 : 0 2 : 7996 3 : 0 
Heartbeat_Variant_2_evicts 0 : 9080 1 : 7952 2 : 0 3 : 0 
Heartbeat_Variant_3_evicts 0 : 0 1 : 0 2 : 0 3 : 0 
Heartbeat CPU 0 instructions: 60000000 cycles: 23142973 heartbeat IPC: 1.09199 cumulative IPC: 1.09199 (Simulation time: 0 hr 11 min 51 sec) 
Cycle: 30000000 FTQ IN: 10674314 FTQ occupancy: 6.21764 DECODE IN: 10674313 DECODE occupancy: 12.8949 ROB IN: 10674309 ROB occupancy: 108.821 ROB OUT: 10674331
Heartbeat_Variant_0 : 1058 0.344401 per_variant_size: 0 1058 0 0 0 0 0 0 0 
Heartbeat_Variant_1 : 956 0.311198 per_variant_size: 0 408 548 0 0 0 0 0 0 
Heartbeat_Variant_2 : 1055 0.343424 per_variant_size: 0 379 270 211 195 0 0 0 0 
Heartbeat_Variant_3 : 0 0 per_variant_size: 0 0 0 0 0 0 0 0 0 
Heartbeat_Variant_0_evicts 0 : 15663 1 : 9346 2 : 9482 3 : 0 
Heartbeat_Variant_1_evicts 0 : 9372 1 : 0 2 : 8604 3 : 0 
Heartbeat_Variant_2_evicts 0 : 9487 1 : 8632 2 : 0 3 : 0 
Heartbeat_Variant_3_evicts 0 : 0 1 : 0 2 : 0 3 : 0 
Heartbeat CPU 0 instructions: 70000002 cycles: 32573495 heartbeat IPC: 1.06039 cumulative IPC: 1.07595 (Simulation time: 0 hr 13 min 52 sec) 
Cycle: 40000000 FTQ IN: 10803802 FTQ occupancy: 6.10546 DECODE IN: 10803860 DECODE occupancy: 12.7752 ROB IN: 10803854 ROB occupancy: 109.115 ROB OUT: 10803863
Heartbeat_Variant_0 : 1062 0.345703 per_variant_size: 0 1062 0 0 0 0 0 0 0 
Heartbeat_Variant_1 : 947 0.308268 per_variant_size: 0 390 557 0 0 0 0 0 0 
Heartbeat_Variant_2 : 1060 0.345052 per_variant_size: 0 400 270 206 184 0 0 0 0 
Heartbeat_Variant_3 : 0 0 per_variant_size: 0 0 0 0 0 0 0 0 0 
Heartbeat_Variant_0_evicts 0 : 15540 1 : 9335 2 : 9322 3 : 0 
Heartbeat_Variant_1_evicts 0 : 9254 1 : 0 2 : 8487 3 : 0 
Heartbeat_Variant_2_evicts 0 : 9399 1 : 8415 2 : 0 3 : 0 
Heartbeat_Variant_3_evicts 0 : 0 1 : 0 2 : 0 3 : 0 
Heartbeat CPU 0 instructions: 80000001 cycles: 41801072 heartbeat IPC: 1.08371 cumulative IPC: 1.07853 (Simulation time: 0 hr 15 min 43 sec) 
Cycle: 50000000 FTQ IN: 10649975 FTQ occupancy: 6.19997 DECODE IN: 10649933 DECODE occupancy: 12.8345 ROB IN: 10649943 ROB occupancy: 108.662 ROB OUT: 10649944
Heartbeat_Variant_0 : 1053 0.342773 per_variant_size: 0 1053 0 0 0 0 0 0 0 
Heartbeat_Variant_1 : 979 0.318685 per_variant_size: 0 415 564 0 0 0 0 0 0 
Heartbeat_Variant_2 : 1037 0.337565 per_variant_size: 0 357 282 212 186 0 0 0 0 
Heartbeat_Variant_3 : 0 0 per_variant_size: 0 0 0 0 0 0 0 0 0 
Heartbeat_Variant_0_evicts 0 : 15770 1 : 9298 2 : 9220 3 : 0 
Heartbeat_Variant_1_evicts 0 : 9321 1 : 0 2 : 8553 3 : 0 
Heartbeat_Variant_2_evicts 0 : 9206 1 : 8544 2 : 0 3 : 0 
Heartbeat_Variant_3_evicts 0 : 0 1 : 0 2 : 0 3 : 0 
Heartbeat CPU 0 instructions: 90000000 cycles: 51210123 heartbeat IPC: 1.06281 cumulative IPC: 1.07455 (Simulation time: 0 hr 17 min 27 sec) 
Cycle: 60000000 FTQ IN: 10724873 FTQ occupancy: 6.01738 DECODE IN: 10724908 DECODE occupancy: 12.4144 ROB IN: 10724908 ROB occupancy: 106.131 ROB OUT: 10724892
Heartbeat_Variant_0 : 1061 0.345378 per_variant_size: 0 1061 0 0 0 0 0 0 0 
Heartbeat_Variant_1 : 970 0.315755 per_variant_size: 0 411 559 0 0 0 0 0 0 
Heartbeat_Variant_2 : 1038 0.337891 per_variant_size: 0 350 296 202 190 0 0 0 0 
Heartbeat_Variant_3 : 0 0 per_variant_size: 0 0 0 0 0 0 0 0 0 
Heartbeat_Variant_0_evicts 0 : 15766 1 : 9391 2 : 9564 3 : 0 
Heartbeat_Variant_1_evicts 0 : 9443 1 : 0 2 : 8589 3 : 0 
Heartbeat_Variant_2_evicts 0 : 9504 1 : 8650 2 : 0 3 : 0 
Heartbeat_Variant_3_evicts 0 : 0 1 : 0 2 : 0 3 : 0 
Heartbeat CPU 0 instructions: 100000003 cycles: 60505288 heartbeat IPC: 1.07583 cumulative IPC: 1.07481 (Simulation time: 0 hr 19 min 11 sec) 
Finished CPU 0 instructions: 50000001 cycles: 46519942 cumulative IPC: 1.07481 (Simulation time: 0 hr 19 min 11 sec) 

ChampSim completed all CPUs

Region of Interest Statistics

CPU 0 cumulative IPC: 1.07481 instructions: 50000001 cycles: 46519942
 Fetch stage stalled: 72.9253  Sim cycles: 46519942 fetch stall cycle: 33924809
 Empty decode stage: 64.9985  Sim cycles: 46519942 fetch stall cycle: 30237260
ITLB TOTAL     ACCESS:    5732161  HIT:    5238872  MISS:     493289  HIT %:    91.3944  MISS %:    8.60564   MPKI: 9.86578
ITLB LOAD TRANSLATION INSTRUCTION	ACCESS:    5630260  HIT:    5136971  MISS:     493289  HIT %:    91.2386  MISS %:    8.76139  MPKI: 9.86578
ITLB TRANSLATION FROM L1D PREFETCHER INSTRUCTION	ACCESS:     101901  HIT:     101901  MISS:          0  HIT %:        100  MISS %:          0  MPKI: 0

ITLB AVERAGE MISS LATENCY: 9.03535 cycles
ITLB RQ	ACCESS:    7521970	FORWARD:          0	MERGED:    1353870	TO_CACHE:    6168100

DTLB TOTAL     ACCESS:    9419365  HIT:    8947039  MISS:     472326  HIT %:    94.9856  MISS %:    5.01441   MPKI: 9.44652
DTLB LOAD TRANSLATION DATA	ACCESS:    9419365  HIT:    8947039  MISS:     472326  HIT %:    94.9856  MISS %:    5.01441  MPKI: 9.44652

DTLB AVERAGE MISS LATENCY: 9.30784 cycles
DTLB RQ	ACCESS:   13688054	FORWARD:          0	MERGED:    4235777	TO_CACHE:    9452277

STLB TOTAL     ACCESS:    1215612  HIT:    1213627  MISS:       1985  HIT %:    99.8367  MISS %:   0.163292   MPKI: 0.0397
STLB LOAD TRANSLATION INSTRUCTION	ACCESS:     493289  HIT:     493073  MISS:        216  HIT %:    99.9562  MISS %:  0.0437877  MPKI: 0.00432
STLB LOAD TRANSLATION DATA	ACCESS:     471958  HIT:     470223  MISS:       1735  HIT %:    99.6324  MISS %:   0.367617  MPKI: 0.0347
STLB TRANSLATION FROM L1D PREFETCHER DATA	ACCESS:     250365  HIT:     250331  MISS:         34  HIT %:    99.9864  MISS %:  0.0135802  MPKI: 0.00068

STLB AVERAGE MISS LATENCY: 69.8297 cycles
STLB RQ	ACCESS:    1336114	FORWARD:          0	MERGED:     120460	TO_CACHE:    1215654

STLB Hit, L1D data hit: 0
STLB Hit, L2C data hit: 0
STLB Hit, LLC data hit: 0
STLB Hit, LLC data miss: 0
STLB STLB hints to L2: 0
L1D TOTAL     ACCESS:   13459142  HIT:   12345809  MISS:    1113333  HIT %:    91.7281  MISS %:    8.27195   MPKI: 22.2667
L1D LOAD DATA	ACCESS:    6879720  HIT:    6145520  MISS:     734200  HIT %:    89.3281  MISS %:    10.6719  MPKI: 14.684
L1D RFO DATA	ACCESS:    6249399  HIT:    5963354  MISS:     286045  HIT %:    95.4228  MISS %:    4.57716  MPKI: 5.7209
L1D PREFETCH DATA	ACCESS:     330023  HIT:     236935  MISS:      93088  HIT %:    71.7935  MISS %:    28.2065  MPKI: 1.86176

L1D PREFETCH  REQUESTED:     741268  ISSUED:     741268  USEFUL:      33415  USELESS:      67679
L1D USEFUL LOAD PREFETCHES:      33415 PREFETCH ISSUED TO LOWER LEVEL:     101172  ACCURACY: 33.0279
 TIMELY PREFETCHES:      33415 LATE PREFETCHES: 8008 DROPPED PREFETCHES: 12
L1D AVERAGE MISS LATENCY: 267773 cycles
L1D RQ	ACCESS:   10935050	FORWARD:          0	MERGED:    3859732	TO_CACHE:    6912615
L1D WQ	ACCESS:    6945323	FORWARD:     162973	MERGED:     169884	TO_CACHE:    6775439
L1D PQ	ACCESS:     370769	FORWARD:          0	MERGED:          0	TO_CACHE:     370499

L1D UNIQUE REGIONS ACCESSED: 0
L1D REGIONS CONFLICTS: 0
L1D Cross Page Prefetch Requests: 7086
L1D Same Page Prefetch Requests: 753402
L1D ROI Sum of L1D PQ occupancy: 4699182
L1D PREFETCHES PUSHED FROM L2C: 0
L1I TOTAL     ACCESS:    7025603  HIT:    4264764  MISS:    2760839  HIT %:    60.7032  MISS %:    39.2968   MPKI: 55.2168
L1I LOAD INSTRUCTION	ACCESS:    6544183  HIT:    3783344  MISS:    2760839  HIT %:    57.8123  MISS %:    42.1877  MPKI: 55.2168
L1I PREFETCH INSTRUCTION	ACCESS:     481420  HIT:     481420  MISS:          0  HIT %:        100  MISS %:          0  MPKI: 0

L1I PREFETCH  REQUESTED:    1051401  ISSUED:    1051401  USEFUL:          0  USELESS:          0
L1I USEFUL LOAD PREFETCHES:          0 PREFETCH ISSUED TO LOWER LEVEL:          0  ACCURACY: -nan
 TIMELY PREFETCHES:          0 LATE PREFETCHES: 0 DROPPED PREFETCHES: 0
L1I AVERAGE MISS LATENCY: 17.37 cycles
L1I RQ	ACCESS:    9435542	FORWARD:          0	MERGED:    2660205	TO_CACHE:    6775337
L1I PQ	ACCESS:    1051401	FORWARD:          0	MERGED:     304768	TO_CACHE:     746633

L1BTB TOTAL     ACCESS:    5672309  HIT:    2046415  MISS:    3625894  HIT %:    36.0773  MISS %:    63.9227   MPKI: 72.5179
L1BTB BRANCH_DIRECT_JUMP	ACCESS:     548976  HIT:     145255  MISS:     403721	AVERAGE STALL: 34.5704
L1BTB BRANCH_INDIRECT	ACCESS:     183386  HIT:      66229  MISS:     117157	AVERAGE STALL: 80.2731
L1BTB BRANCH_CONDITIONAL	ACCESS:    2711725  HIT:    1419600  MISS:    1292125	AVERAGE STALL: 35.5294
L1BTB BRANCH_DIRECT_CALL	ACCESS:     943067  HIT:     104845  MISS:     838222	AVERAGE STALL: 36.753
L1BTB BRANCH_INDIRECT_CALL	ACCESS:     171046  HIT:      20770  MISS:     150276	AVERAGE STALL: 107.646
L1BTB BRANCH_RETURN	ACCESS:    1114109  HIT:     289716  MISS:     824393	AVERAGE STALL: 36.1076
L1BTB BRANCH_OTHER ACCESS:          0  HIT:          0  MISS:          0	AVERAGE STALL: -nan
L1BTB TOTAL ROB OCCUPANCY AT BTB MISS: 12.8736

L2BTB TOTAL     ACCESS:    3600427  HIT:    3077371  MISS:     523056  HIT %:    85.4724  MISS %:    14.5276   MPKI: 10.4611
L2BTB BRANCH_DIRECT_JUMP	ACCESS:     399531  HIT:     343606  MISS:      55925	AVERAGE STALL: 34.5704
L2BTB BRANCH_INDIRECT	ACCESS:     106854  HIT:      98110  MISS:       8744	AVERAGE STALL: 80.2731
L2BTB BRANCH_CONDITIONAL	ACCESS:    1292125  HIT:    1132526  MISS:     159599	AVERAGE STALL: 35.5294
L2BTB BRANCH_DIRECT_CALL	ACCESS:     838222  HIT:     682132  MISS:     156090	AVERAGE STALL: 36.753
L2BTB BRANCH_INDIRECT_CALL	ACCESS:     140702  HIT:     107528  MISS:      33174	AVERAGE STALL: 107.646
L2BTB BRANCH_RETURN	ACCESS:     822993  HIT:     713469  MISS:     109524	AVERAGE STALL: 36.1076
L2BTB BRANCH_OTHER ACCESS:          0  HIT:          0  MISS:          0	AVERAGE STALL: -nan
L2BTB TOTAL ROB OCCUPANCY AT BTB MISS: 89.2412

L2C TOTAL     ACCESS:    4481548  HIT:    3982683  MISS:     498865  HIT %:    88.8685  MISS %:    11.1315   MPKI: 9.9773
L2C LOAD INSTRUCTION	ACCESS:    2760839  HIT:    2482833  MISS:     278006  HIT %:    89.9304  MISS %:    10.0696  MPKI: 5.56012
L2C LOAD TRANSLATION INSTRUCTION	ACCESS:        245  HIT:         56  MISS:        189  HIT %:    22.8571  MISS %:    77.1429  MPKI: 0.00378
L2C LOAD DATA	ACCESS:     726173  HIT:     650923  MISS:      75250  HIT %:    89.6375  MISS %:    10.3625  MPKI: 1.505
L2C RFO DATA	ACCESS:     285935  HIT:     232029  MISS:      53906  HIT %:    81.1475  MISS %:    18.8525  MPKI: 1.07812
L2C PREFETCH DATA	ACCESS:     186142  HIT:     110867  MISS:      75275  HIT %:    59.5604  MISS %:    40.4396  MPKI: 1.5055
L2C WRITEBACK DATA	ACCESS:     520354  HIT:     505488  MISS:      14866  HIT %:    97.1431  MISS %:     2.8569  MPKI: 0.29732
L2C LOAD TRANSLATION DATA	ACCESS:       1800  HIT:        442  MISS:       1358  HIT %:    24.5556  MISS %:    75.4444  MPKI: 0.02716
L2C TRANSLATION FROM L1D PREFETCHER DATA	ACCESS:         60  HIT:         45  MISS:         15  HIT %:         75  MISS %:         25  MPKI: 0.0003

L2C PREFETCH  REQUESTED:      92930  ISSUED:      92930  USEFUL:       9120  USELESS:      66765
L2C USEFUL LOAD PREFETCHES:       9120 PREFETCH ISSUED TO LOWER LEVEL:      75752  ACCURACY: 12.0393
 TIMELY PREFETCHES:       9120 LATE PREFETCHES: 477 DROPPED PREFETCHES: 0
L2C AVERAGE MISS LATENCY: 37.7124 cycles
L2C RQ	ACCESS:    3775108	FORWARD:          0	MERGED:          0	TO_CACHE:    3775056
L2C WQ	ACCESS:     520354	FORWARD:         53	MERGED:          0	TO_CACHE:     520354
L2C PQ	ACCESS:     194102	FORWARD:          0	MERGED:       3717	TO_CACHE:     190384

L2C Dense regions hint from L2: 0
PSCL5 TOTAL     ACCESS:       3998  HIT:       1999  MISS:       1999  HIT %:         50  MISS %:         50   MPKI: 0.03998
PSCL5 LOAD TRANSLATION INSTRUCTION	ACCESS:       3878  HIT:       1939  MISS:       1939  HIT %:         50  MISS %:         50  MPKI: 0.03878
PSCL5 TRANSLATION FROM L1D PREFETCHER INSTRUCTION	ACCESS:        120  HIT:         60  MISS:         60  HIT %:         50  MISS %:         50  MPKI: 0.0012


PSCL4 TOTAL     ACCESS:       3901  HIT:       1947  MISS:       1954  HIT %:    49.9103  MISS %:    50.0897   MPKI: 0.03908
PSCL4 LOAD TRANSLATION INSTRUCTION	ACCESS:       3466  HIT:       1888  MISS:       1578  HIT %:     54.472  MISS %:     45.528  MPKI: 0.03156
PSCL4 TRANSLATION FROM L1D PREFETCHER INSTRUCTION	ACCESS:        118  HIT:         59  MISS:         59  HIT %:         50  MISS %:         50  MPKI: 0.00118
PSCL4 LOAD TRANSLATION DATA	ACCESS:        317  HIT:          0  MISS:        317  HIT %:          0  MISS %:        100  MPKI: 0.00634


PSCL3 TOTAL     ACCESS:       3957  HIT:       1975  MISS:       1982  HIT %:    49.9115  MISS %:    50.0885   MPKI: 0.03964
PSCL3 LOAD TRANSLATION INSTRUCTION	ACCESS:       3494  HIT:       1916  MISS:       1578  HIT %:    54.8369  MISS %:    45.1631  MPKI: 0.03156
PSCL3 TRANSLATION FROM L1D PREFETCHER INSTRUCTION	ACCESS:        118  HIT:         59  MISS:         59  HIT %:         50  MISS %:         50  MPKI: 0.00118
PSCL3 LOAD TRANSLATION DATA	ACCESS:        345  HIT:          0  MISS:        345  HIT %:          0  MISS %:        100  MPKI: 0.0069


PSCL2 TOTAL     ACCESS:       3905  HIT:       1906  MISS:       1999  HIT %:    48.8092  MISS %:    51.1908   MPKI: 0.03998
PSCL2 LOAD TRANSLATION INSTRUCTION	ACCESS:       2063  HIT:       1846  MISS:        217  HIT %:    89.4813  MISS %:    10.5187  MPKI: 0.00434
PSCL2 TRANSLATION FROM L1D PREFETCHER INSTRUCTION	ACCESS:         60  HIT:         60  MISS:          0  HIT %:        100  MISS %:          0  MPKI: 0
PSCL2 LOAD TRANSLATION DATA	ACCESS:       1722  HIT:          0  MISS:       1722  HIT %:          0  MISS %:        100  MPKI: 0.03444
PSCL2 TRANSLATION FROM L1D PREFETCHER DATA	ACCESS:         60  HIT:          0  MISS:         60  HIT %:          0  MISS %:        100  MPKI: 0.0012


LLC TOTAL     ACCESS:     561640  HIT:     534335  MISS:      27305  HIT %:    95.1383  MISS %:    4.86166   MPKI: 0.5461
LLC LOAD INSTRUCTION	ACCESS:     278007  HIT:     277253  MISS:        754  HIT %:    99.7288  MISS %:   0.271216  MPKI: 0.01508
LLC LOAD TRANSLATION INSTRUCTION	ACCESS:        189  HIT:        169  MISS:         20  HIT %:     89.418  MISS %:     10.582  MPKI: 0.0004
LLC LOAD DATA	ACCESS:      74826  HIT:      71610  MISS:       3216  HIT %:     95.702  MISS %:    4.29797  MPKI: 0.06432
LLC RFO DATA	ACCESS:      53849  HIT:      40443  MISS:      13406  HIT %:    75.1045  MISS %:    24.8955  MPKI: 0.26812
LLC PREFETCH DATA	ACCESS:      75752  HIT:      66184  MISS:       9568  HIT %:    87.3693  MISS %:    12.6307  MPKI: 0.19136
LLC WRITEBACK DATA	ACCESS:      77644  HIT:      77377  MISS:        267  HIT %:    99.6561  MISS %:   0.343877  MPKI: 0.00534
LLC LOAD TRANSLATION DATA	ACCESS:       1358  HIT:       1284  MISS:         74  HIT %:    94.5508  MISS %:    5.44919  MPKI: 0.00148
LLC TRANSLATION FROM L1D PREFETCHER DATA	ACCESS:         15  HIT:         15  MISS:          0  HIT %:        100  MISS %:          0  MPKI: 0

LLC AVERAGE MISS LATENCY: 155.907 cycles
LLC RQ	ACCESS:     408250	FORWARD:          0	MERGED:          0	TO_CACHE:     408246
LLC WQ	ACCESS:      77644	FORWARD:          4	MERGED:          0	TO_CACHE:      77644
LLC PQ	ACCESS:      75752	FORWARD:          0	MERGED:          0	TO_CACHE:      75752

LLC Dense regions hint to LLC: 0

RAW hits: 1699515
Loads Generated: 12634564
Loads sent to L1D: 10935050
Stores Generated: 6945327
Stores sent to L1D: 6945323
Major fault: 0 Minor fault: 2570
Allocated PAGES: 2570

stream: 
stream:times selected: 1192716
stream:pref_filled: 120635
stream:pref_useful: 24132
stream:pref_late: 6781
stream:misses: 8093
stream:misses_by_poll: 0

CS: 
CS:times selected: 178852
CS:pref_filled: 60123
CS:pref_useful: 36841
CS:pref_late: 6926
CS:misses: 15850
CS:misses_by_poll: 5

CPLX: 
CPLX:times selected: 1012771
CPLX:pref_filled: 19562
CPLX:pref_useful: 4754
CPLX:pref_late: 2985
CPLX:misses: 92851
CPLX:misses_by_poll: 4

NL_L1: 
NL:times selected: 20908
NL:pref_filled: 767
NL:pref_useful: 398
NL:pref_late: 277
NL:misses: 1801
NL:misses_by_poll: 0

total selections: 2405247
total_filled: 93088
total_useful: 33415
total_late: 18268
total_polluted: 9
total_misses_after_warmup: 767098
conflicts: 5669611

test: 117167

DRAM Statistics
 CHANNEL 0
 RQ ROW_BUFFER_HIT:       9936  ROW_BUFFER_MISS:      17098
 DBUS_CONGESTED:         12
 WQ ROW_BUFFER_HIT:       1252  ROW_BUFFER_MISS:      12215  FULL:          0

 AVG_CONGESTED_CYCLE: 6

CPU 0 Branch Prediction Accuracy: 99.821% MPKI: 0.32738 Average ROB Occupancy at Mispredict: 124.403
Branch types
NOT_BRANCH: 40853330 81.7067%
BRANCH_DIRECT_JUMP: 548976 1.09795%
BRANCH_INDIRECT: 183386 0.366772%
BRANCH_CONDITIONAL: 6185673 12.3713%
BRANCH_DIRECT_CALL: 943067 1.88613%
BRANCH_INDIRECT_CALL: 171046 0.342092%
BRANCH_RETURN: 1114109 2.22822%
BRANCH_OTHER: 0 0%

DRAM PAGES: 1048576
Allocated PAGES: 2570
Average_ROB_Occupancy: 109.858
Average_Decode_Occupancy: 12.7687
Average_FTQ_Occupancy: 6.14025
Indirect max targets: 14 Average targets: 1.15017
Branch_type:  BRANCH_DIRECT_JUMP:  Count Percentage: 3.32081 5.83787 4.10525 8.79818 2.41135 6.33571 2.15008 67.0407 
Branch_type:  BRANCH_INDIRECT:  Count Percentage: 6.15279 3.45228 8.1678 9.69318 3.33717 2.80252 3.86527 62.529 
Branch_type:  BRANCH_CONDITIONAL:  Count Percentage: 25.0011 3.37071 1.52679 4.33431 2.09338 3.67673 2.5112 57.4858 
Branch_type:  BRANCH_DIRECT_CALL:  Count Percentage: 0.390424 1.7551 0.756095 4.1871 2.53675 2.74158 3.39738 84.2356 
Branch_type:  BRANCH_INDIRECT_CALL:  Count Percentage: 9.56474 0 2.9992 0 0 2.03047 5.00949 80.3961 
Branch_type:  BRANCH_RETURN:  Count Percentage: 7.54089 1.80349 1.03903 3.70719 3.80556 3.55907 3.34849 75.1963 
Branch_type:  BRANCH_DIRECT_JUMP:  Total Count: 36441 64062 45049 96547 26461 69525 23594 735673 
Branch_type:  BRANCH_INDIRECT:  Total Count: 22556 12656 29943 35535 12234 10274 14170 229230 
Branch_type:  BRANCH_CONDITIONAL:  Total Count: 3091156 416758 188774 535898 258827 454594 310487 7107599 
Branch_type:  BRANCH_DIRECT_CALL:  Total Count: 7350 33041 14234 78825 47756 51612 63958 1585791 
Branch_type:  BRANCH_INDIRECT_CALL:  Total Count: 32701 0 10254 0 0 6942 17127 274867 
Branch_type:  BRANCH_RETURN:  Total Count: 167803 40132 23121 82494 84683 79198 74512 1673299 
Number of unique branch instructions: 9834
Upper 32 bits: 
aaaa
ffff
ffff0000
Unique upper 32 bits: 3
Unique upper 36 bits: 3
Unique upper 40 bits: 5
Unique upper 44 bits: 32
Unique upper 48 bits: 153
Variant_0 : 1061 0.345378
Variant_1 : 970 0.315755
Variant_2 : 1038 0.337891
Variant_3 : 0 0
Offset_3 4049
Offset_4 243
Offset_5 448
Offset_6 501
Offset_7 579
Offset_8 510
Offset_9 465
Offset_10 375
Offset_11 313
Offset_12 284
Offset_13 199
Offset_14 228
Offset_15 189
Offset_16 219
Offset_17 142
Offset_18 126
Offset_19 235
Offset_20 139
Offset_21 235
Offset_22 390
Offset_23 241
Offset_24 324
Offset_25 88
Offset_47 80
decode_dispatch_called: 20295984 43.6286
Dispatch_width: 0 10216717 50.3386 21.962
Dispatch_width: 1 550222 2.71099 1.18277
Dispatch_width: 2 710643 3.5014 1.52761
Dispatch_width: 3 475761 2.34411 1.0227
Dispatch_width: 4 1543353 7.60423 3.31762
Dispatch_width: 5 368194 1.81412 0.791476
Dispatch_width: 6 6431094 31.6865 13.8244
Empty_decode_cycles: 26223958 56.3714
ROB_full_cycles: 1914081 4.11454
Starvation_cycles_per_kilo_instr: 381.748
Starvation_cycles_per_kilo_instr_3: 362.632
Starvation_cycles_per_kilo_instr_0: 345.266
Branch_type_1  (3,1)  (4,7)  (5,36)  (6,70)  (7,114)  (8,127)  (9,124)  (10,98)  (11,70)  (12,51)  (13,5)  (14,2)  (15,3)  (16,4)  (18,1)  (19,4)  (20,2)  (21,1)  (22,3)  (23,2)  (24,10)  (25,12) 
Branch_type_2  (3,1)  (5,1)  (8,3)  (9,3)  (12,1)  (13,1)  (14,1)  (16,3)  (17,2)  (20,2)  (21,2)  (23,5)  (24,1)  (47,36) 
Branch_type_3  (3,4047)  (4,236)  (5,407)  (6,415)  (7,434)  (8,319)  (9,255)  (10,150)  (11,128)  (12,59)  (13,4) 
Branch_type_4  (6,4)  (7,8)  (8,26)  (9,51)  (10,60)  (11,59)  (12,95)  (13,86)  (14,101)  (15,89)  (16,98)  (17,63)  (18,57)  (19,114)  (20,72)  (21,124)  (22,207)  (23,136)  (24,186)  (25,72) 
Branch_type_5  (8,2)  (9,1)  (10,3)  (11,5)  (12,3)  (13,14)  (14,16)  (15,11)  (16,20)  (17,11)  (18,16)  (19,12)  (20,10)  (21,13)  (22,42)  (23,26)  (24,36) 
Branch_type_6  (5,4)  (6,12)  (7,23)  (8,33)  (9,31)  (10,64)  (11,51)  (12,75)  (13,89)  (14,108)  (15,86)  (16,94)  (17,66)  (18,52)  (19,105)  (20,53)  (21,95)  (22,138)  (23,72)  (24,91)  (25,4)  (47,44) 
Unique trigger count: 
Variant_0_evicts_0 : 0
Variant_0_evicts_1 : 0
Variant_0_evicts_2 : 0
Variant_0_evicts_3 : 0
Variant_1_evicts_0 : 0
Variant_1_evicts_1 : 0
Variant_1_evicts_2 : 0
Variant_1_evicts_3 : 0
Variant_2_evicts_0 : 0
Variant_2_evicts_1 : 0
Variant_2_evicts_2 : 0
Variant_2_evicts_3 : 0
Variant_3_evicts_0 : 0
Variant_3_evicts_1 : 0
Variant_3_evicts_2 : 0
Variant_3_evicts_3 : 0
BTB PER SET UNIQUE ADDR: 45 49 41 54 44 38 39 39 44 44 43 56 39 43 45 39 44 43 42 50 44 30 37 37 45 52 45 56 43 41 46 46 60 40 46 50 57 43 37 41 41 38 45 59 45 41 43 42 57 48 40 46 44 58 37 37 45 40 36 46 45 58 45 49 47 47 40 43 51 45 48 42 55 39 37 38 36 51 40 62 44 38 44 46 42 41 51 50 45 69 45 42 48 41 31 49 46 37 50 47 64 47 41 47 47 38 44 35 35 38 38 51 52 34 38 40 52 46 52 47 47 37 44 30 42 39 31 48 61 43 36 47 42 48 40 52 27 53 40 61 40 58 39 44 44 47 49 46 45 44 46 52 39 43 33 57 45 44 38 52 40 39 53 55 48 41 44 46 44 40 45 51 40 52 47 41 45 42 42 54 39 47 42 50 49 52 33 50 51 39 48 40 41 51 46 45 47 40 50 47 46 50 42 45 46 42 49 43 51 46 47 60 37 50 49 46 41 54 50 53 39 46 45 48 44 47 51 44 39 54 48 35 50 58 38 48 52 46 37 49 41 47 57 48 42 37 40 42 34 39 39 40 42 46 47 42 19 16 19 21 24 18 8 22 21 15 20 19 18 20 21 22 17 14 16 14 22 25 21 22 17 24 16 18 24 18 16 32 30 24 25 18 23 26 18 29 23 25 24 21 20 19 19 36 22 29 26 21 31 22 22 26 19 33 24 14 28 19 20 28 18 27 17 23 28 30 23 17 21 15 21 29 17 20 20 24 18 17 18 36 24 24 15 24 28 26 17 22 21 23 24 22 25 22 20 26 23 27 18 16 20 29 19 30 23 25 12 23 24 25 24 16 22 25 17 31 24 27 20 25 22 21 16 17 15 22 27 28 23 23 28 14 25 29 17 16 17 18 30 23 20 20 24 22 29 26 23 27 22 22 27 17 17 28 21 21 20 30 38 28 18 27 22 25 26 19 25 18 24 20 28 20 19 24 29 26 26 19 19 25 25 19 18 28 33 19 16 23 28 24 27 35 26 18 28 28 25 27 16 32 16 21 19 26 31 20 22 22 25 26 23 26 27 23 22 35 25 33 16 24 35 27 20 22 14 25 34 29 27 22 19 25 18 15 17 20 24 26 21 25 20 28 19 35 20 18 18 30 25 26 23 33 20 22 21 25 22 29 19 17 15 21 21 16 22 32 35 15 14 33 28 23 23 24 26 31 20 24 27 22 26 18 26 24 27 31 16 24 17 22 23 30 22 22 19 22 23 24 30 26 21 31 22 21 23 28 23 30 23 29 27 23 27 36 22 28 27 30 21 23 26 25 13 23 26 25 20 24 33 25 19 21 26 15 26 19 15 21 22 20 23 21 22 13 22 24 34 21 21 24 31 25 20 17 10 27 14 28 20 26 28 24 16 18 20 32 19 29 18 24 18 27 29 24 21 19 26 26 18 27 22 25 26 26 26 25 19 24 33 16 16 23 18 18 29 23 23 24 26 22 21 14 26 31 21 25 17 19 19 20 23 19 18 25 33 20 25 25 28 31 21 30 16 24 25 22 20 21 27 27 23 24 21 16 16 22 18 26 19 26 15 26 27 33 13 27 21 17 15 13 22 22 17 21 17 20 33 25 19 27 24 23 20 21 20 21 22 22 18 20 25 20 22 19 22 25 22 30 34 20 19 17 21 24 30 31 20 22 21 18 24 19 23 21 18 22 31 23 20 16 22 13 14 24 24 26 16 23 
BTB PER SET COUNT: 2084 2146 3532 2624 2635 1696 1719 1695 2040 2203 1538 2967 17432 3047 2265 1564 2210 2098 2000 2292 2058 1219 1960 2117 1804 2733 2181 2923 2167 2084 2290 2933 2815 1627 2233 2685 2606 2080 1478 2499 1545 1587 1714 4435 2297 1866 2316 2765 3369 2783 2190 2841 2235 2763 1619 1625 2261 1623 1696 2082 2176 3597 2275 2487 2388 2328 1441 2954 2552 2159 2559 2415 2678 2010 1572 1766 1907 2624 1648 2778 2325 3743 2633 2340 1599 2844 2475 2343 2517 3308 2301 2053 2747 2336 1262 1987 2385 1589 2264 3680 3494 2447 1770 2370 3239 1394 2106 1246 1668 1954 2675 2990 2957 1436 2057 2047 2303 2731 3523 2431 2406 1660 2217 1603 2376 2364 1208 2498 3398 1961 1927 3052 2142 2263 2057 2743 1534 2258 1640 2775 1947 2607 1811 1658 1977 2245 2642 2071 2630 2534 1838 2251 2018 2231 854 2848 2069 2501 1288 3060 1798 1879 2901 2820 2717 2356 1609 3134 2111 1733 2612 2391 1552 3170 2362 1628 1987 1703 2148 2800 1703 2407 2650 3157 2261 3635 1135 2187 2756 1734 2246 1918 2037 2604 2298 1977 2237 1715 2420 2080 2101 2302 2157 2642 1763 2116 3140 2097 2681 2329 2826 3114 1848 3823 2273 3423 1712 3266 3290 2807 1676 2146 2225 2767 2105 2093 2321 2297 1860 2897 1981 1739 2392 3556 1618 4012 2186 2278 2155 2153 2068 2691 3455 2909 2138 1895 1909 2157 1359 1565 1577 1543 1591 2607 2284 2294 655 755 625 738 930 576 150 1007 589 351 774 623 1387 710 618 762 482 286 570 328 982 965 663 1017 276 1046 828 759 815 659 335 1687 1237 875 828 458 601 1421 454 1184 1765 1060 664 1119 551 624 303 1501 585 1216 946 735 1471 1365 979 1074 596 1310 2544 701 1127 964 762 1355 462 2417 378 707 1189 1821 1082 501 657 413 805 1175 505 557 623 1035 449 1406 325 1599 786 1850 442 1043 1134 777 471 823 576 893 1030 501 886 634 574 760 704 1332 467 549 654 1219 571 1157 611 1956 252 890 958 818 775 592 937 945 750 1094 773 980 637 1059 961 639 632 359 511 502 3073 1087 733 1337 1200 375 878 1584 458 554 569 775 1394 1222 719 718 831 575 1151 948 1048 887 757 996 1151 315 504 1291 642 820 752 2665 1822 1050 684 851 863 871 767 578 1513 580 841 982 1277 822 645 742 1556 1162 905 915 545 768 1605 689 534 1184 1925 767 811 1119 1149 1025 1755 2701 955 520 1127 1967 1001 956 601 1214 485 628 699 1511 1431 791 4842 643 913 1052 991 1062 705 893 648 1369 813 1721 600 1082 1652 1407 554 784 850 1042 1493 1157 1878 747 1007 745 4783 525 418 806 1361 2137 789 681 656 1232 695 1299 739 407 631 1558 1019 813 975 2563 1611 1281 708 1328 507 1178 594 805 370 842 774 732 943 1436 2023 971 643 2116 1468 1023 877 752 1214 1308 1165 1603 902 841 1058 662 783 1099 927 1358 286 769 513 1148 856 1393 1196 977 563 475 920 643 1330 998 422 1423 785 834 1255 1041 876 1223 958 1225 1546 954 908 1395 2702 930 1108 1470 956 926 1064 1059 409 2468 911 1238 1133 735 1686 1032 1001 621 907 394 1071 520 1052 1409 783 436 429 937 767 340 1019 834 1243 3198 455 809 1284 1480 1372 358 233 1020 274 954 1029 1153 1310 762 427 762 565 1094 590 1291 1894 690 376 1575 1328 749 806 980 918 1517 434 1343 866 1006 1043 829 1324 980 1012 1215 1669 399 356 904 432 696 2213 923 746 700 1185 1365 654 239 1419 1186 3501 894 570 1506 1641 762 690 660 615 855 1616 836 838 889 1028 1263 804 1037 904 687 1635 648 663 747 1191 1024 606 762 774 437 2641 728 874 2121 772 722 1333 1170 1284 1201 240 1044 683 619 312 406 844 1023 823 615 831 571 1517 807 653 1248 985 1096 659 1167 1931 689 681 918 1181 981 1031 7602 713 509 598 820 1145 1185 1456 514 1084 414 808 918 1325 957 1611 524 852 656 1920 639 1240 2605 1344 724 1246 1204 621 481 948 452 286 894 1521 1293 405 1287 
To predecode: 0
Predecoding something: 0
Predecode request dropped: 0
sizeofblock_0 0
sizeofblock_1 382565
sizeofblock_2 246687
sizeofblock_3 89112
sizeofblock_4 49318
sizeofblock_5 0
sizeofblock_6 0
sizeofblock_7 0
sizeofblock_8 0
Variant_0 Correct: 1323301 Incorrect: 0 Accuracy: 1
Variant_1 Correct: 1793786 Incorrect: 0 Accuracy: 1
Variant_2 Correct: 3280645 Incorrect: 0 Accuracy: 1
Variant_3 Correct: 0 Incorrect: 0 Accuracy: -nan
