
*** ChampSim Multicore Out-of-Order Simulator ***

Warmup Instructions: 50000000
Simulation Instructions: 50000000
Number of CPUs: 1
LLC sets: 2048
LLC ways: 16
Off-chip DRAM Size: 4096 MB Channels: 1 Width: 64-bit Data Rate: 6400 MT/s
CPU 0 runs ./micro_traces/srv109.trace.gz
.gz
ITLB has LRU replacement policy
DTLB has LRU replacement policy
STLB has LRU replacement policy
FDIP Prefetcher at L1I
L1I has LRU replacement policy
L1D has LRU replacement policy
Initialize SRRIP state for L2C
Initialize DRRIP state for LLC
Heartbeat_Variant_0 : 1184 0.289062 per_variant_size: 0 1184 0 0 0 0 0 0 0 
Heartbeat_Variant_1 : 1152 0.28125 per_variant_size: 0 492 660 0 0 0 0 0 0 
Heartbeat_Variant_2 : 1010 0.246582 per_variant_size: 0 263 299 242 206 0 0 0 0 
Heartbeat_Variant_3 : 0 0 per_variant_size: 0 0 0 0 0 0 0 0 0 
Heartbeat_Variant_0_evicts 0 : 17050 1 : 6533 2 : 6533 3 : 0 
Heartbeat_Variant_1_evicts 0 : 6543 1 : 0 2 : 4097 3 : 0 
Heartbeat_Variant_2_evicts 0 : 6445 1 : 3959 2 : 0 3 : 0 
Heartbeat_Variant_3_evicts 0 : 0 1 : 0 2 : 0 3 : 0 
Heartbeat CPU 0 instructions: 10000001 cycles: 2797499 heartbeat IPC: 3.57462 cumulative IPC: 3.57462 (Simulation time: 0 hr 1 min 56 sec) 
Heartbeat_Variant_0 : 1167 0.284912 per_variant_size: 0 1167 0 0 0 0 0 0 0 
Heartbeat_Variant_1 : 1171 0.285889 per_variant_size: 0 501 670 0 0 0 0 0 0 
Heartbeat_Variant_2 : 1008 0.246094 per_variant_size: 0 267 296 247 198 0 0 0 0 
Heartbeat_Variant_3 : 0 0 per_variant_size: 0 0 0 0 0 0 0 0 0 
Heartbeat_Variant_0_evicts 0 : 17917 1 : 7040 2 : 6752 3 : 0 
Heartbeat_Variant_1_evicts 0 : 6844 1 : 0 2 : 4084 3 : 0 
Heartbeat_Variant_2_evicts 0 : 6965 1 : 3869 2 : 0 3 : 0 
Heartbeat_Variant_3_evicts 0 : 0 1 : 0 2 : 0 3 : 0 
Heartbeat CPU 0 instructions: 20000003 cycles: 5593406 heartbeat IPC: 3.57666 cumulative IPC: 3.57564 (Simulation time: 0 hr 3 min 50 sec) 
Heartbeat_Variant_0 : 1177 0.287354 per_variant_size: 0 1177 0 0 0 0 0 0 0 
Heartbeat_Variant_1 : 1197 0.292236 per_variant_size: 0 489 708 0 0 0 0 0 0 
Heartbeat_Variant_2 : 1013 0.247314 per_variant_size: 0 254 288 262 209 0 0 0 0 
Heartbeat_Variant_3 : 0 0 per_variant_size: 0 0 0 0 0 0 0 0 0 
Heartbeat_Variant_0_evicts 0 : 17443 1 : 6802 2 : 6500 3 : 0 
Heartbeat_Variant_1_evicts 0 : 6631 1 : 0 2 : 4053 3 : 0 
Heartbeat_Variant_2_evicts 0 : 6675 1 : 3873 2 : 0 3 : 0 
Heartbeat_Variant_3_evicts 0 : 0 1 : 0 2 : 0 3 : 0 
Heartbeat CPU 0 instructions: 30000001 cycles: 8390564 heartbeat IPC: 3.57506 cumulative IPC: 3.57545 (Simulation time: 0 hr 5 min 46 sec) 
Heartbeat_Variant_0 : 1192 0.291016 per_variant_size: 0 1192 0 0 0 0 0 0 0 
Heartbeat_Variant_1 : 1184 0.289062 per_variant_size: 0 485 699 0 0 0 0 0 0 
Heartbeat_Variant_2 : 1014 0.247559 per_variant_size: 0 248 301 248 217 0 0 0 0 
Heartbeat_Variant_3 : 0 0 per_variant_size: 0 0 0 0 0 0 0 0 0 
Heartbeat_Variant_0_evicts 0 : 17376 1 : 6825 2 : 6543 3 : 0 
Heartbeat_Variant_1_evicts 0 : 6610 1 : 0 2 : 4081 3 : 0 
Heartbeat_Variant_2_evicts 0 : 6743 1 : 3880 2 : 0 3 : 0 
Heartbeat_Variant_3_evicts 0 : 0 1 : 0 2 : 0 3 : 0 
Heartbeat CPU 0 instructions: 40000003 cycles: 11187300 heartbeat IPC: 3.5756 cumulative IPC: 3.57548 (Simulation time: 0 hr 7 min 48 sec) 
Heartbeat_Variant_0 : 1195 0.291748 per_variant_size: 0 1195 0 0 0 0 0 0 0 
Heartbeat_Variant_1 : 1181 0.28833 per_variant_size: 0 484 697 0 0 0 0 0 0 
Heartbeat_Variant_2 : 1014 0.247559 per_variant_size: 0 249 300 249 216 0 0 0 0 
Heartbeat_Variant_3 : 0 0 per_variant_size: 0 0 0 0 0 0 0 0 0 
Heartbeat_Variant_0_evicts 0 : 18166 1 : 7110 2 : 6999 3 : 0 
Heartbeat_Variant_1_evicts 0 : 7086 1 : 0 2 : 4010 3 : 0 
Heartbeat_Variant_2_evicts 0 : 7020 1 : 3989 2 : 0 3 : 0 
Heartbeat_Variant_3_evicts 0 : 0 1 : 0 2 : 0 3 : 0 
Heartbeat CPU 0 instructions: 50000000 cycles: 13984962 heartbeat IPC: 3.57441 cumulative IPC: 3.57527 (Simulation time: 0 hr 9 min 50 sec) 

Warmup complete CPU 0 instructions: 50000004 cycles: 13984963 (Simulation time: 0 hr 9 min 50 sec) 

Cycle: 20000000 FTQ IN: 56678583 FTQ occupancy: 18.0833 DECODE IN: 56678443 DECODE occupancy: 46.2532 ROB IN: 56678383 ROB occupancy: 278.384 ROB OUT: 56678298
Heartbeat_Variant_0 : 1194 0.291504 per_variant_size: 0 1194 0 0 0 0 0 0 0 
Heartbeat_Variant_1 : 1194 0.291504 per_variant_size: 0 496 698 0 0 0 0 0 0 
Heartbeat_Variant_2 : 1020 0.249023 per_variant_size: 0 250 299 261 210 0 0 0 0 
Heartbeat_Variant_3 : 0 0 per_variant_size: 0 0 0 0 0 0 0 0 0 
Heartbeat_Variant_0_evicts 0 : 17724 1 : 7055 2 : 6790 3 : 0 
Heartbeat_Variant_1_evicts 0 : 6964 1 : 0 2 : 4106 3 : 0 
Heartbeat_Variant_2_evicts 0 : 6886 1 : 4008 2 : 0 3 : 0 
Heartbeat_Variant_3_evicts 0 : 0 1 : 0 2 : 0 3 : 0 
Heartbeat CPU 0 instructions: 60000000 cycles: 22978359 heartbeat IPC: 1.11193 cumulative IPC: 1.11193 (Simulation time: 0 hr 11 min 50 sec) 
Cycle: 30000000 FTQ IN: 11046062 FTQ occupancy: 6.80181 DECODE IN: 11046083 DECODE occupancy: 14.4107 ROB IN: 11046143 ROB occupancy: 115.945 ROB OUT: 11046150
Heartbeat_Variant_0 : 1198 0.29248 per_variant_size: 0 1198 0 0 0 0 0 0 0 
Heartbeat_Variant_1 : 1194 0.291504 per_variant_size: 0 496 698 0 0 0 0 0 0 
Heartbeat_Variant_2 : 1016 0.248047 per_variant_size: 0 245 298 254 219 0 0 0 0 
Heartbeat_Variant_3 : 0 0 per_variant_size: 0 0 0 0 0 0 0 0 0 
Heartbeat_Variant_0_evicts 0 : 18213 1 : 7332 2 : 6932 3 : 0 
Heartbeat_Variant_1_evicts 0 : 7272 1 : 0 2 : 4160 3 : 0 
Heartbeat_Variant_2_evicts 0 : 6988 1 : 4100 2 : 0 3 : 0 
Heartbeat_Variant_3_evicts 0 : 0 1 : 0 2 : 0 3 : 0 
Heartbeat CPU 0 instructions: 70000001 cycles: 32033474 heartbeat IPC: 1.10435 cumulative IPC: 1.10812 (Simulation time: 0 hr 13 min 30 sec) 
Cycle: 40000000 FTQ IN: 11143206 FTQ occupancy: 6.62984 DECODE IN: 11143316 DECODE occupancy: 13.962 ROB IN: 11143307 ROB occupancy: 112.955 ROB OUT: 11143222
Heartbeat_Variant_0 : 1195 0.291748 per_variant_size: 0 1195 0 0 0 0 0 0 0 
Heartbeat_Variant_1 : 1196 0.291992 per_variant_size: 0 486 710 0 0 0 0 0 0 
Heartbeat_Variant_2 : 1017 0.248291 per_variant_size: 0 246 300 258 213 0 0 0 0 
Heartbeat_Variant_3 : 0 0 per_variant_size: 0 0 0 0 0 0 0 0 0 
Heartbeat_Variant_0_evicts 0 : 18609 1 : 7499 2 : 7260 3 : 0 
Heartbeat_Variant_1_evicts 0 : 7507 1 : 0 2 : 4189 3 : 0 
Heartbeat_Variant_2_evicts 0 : 7255 1 : 4195 2 : 0 3 : 0 
Heartbeat_Variant_3_evicts 0 : 0 1 : 0 2 : 0 3 : 0 
Heartbeat CPU 0 instructions: 80000002 cycles: 41023622 heartbeat IPC: 1.11233 cumulative IPC: 1.10952 (Simulation time: 0 hr 15 min 18 sec) 
Cycle: 50000000 FTQ IN: 11032470 FTQ occupancy: 6.76116 DECODE IN: 11032479 DECODE occupancy: 14.2985 ROB IN: 11032484 ROB occupancy: 115.014 ROB OUT: 11032461
Heartbeat_Variant_0 : 1182 0.288574 per_variant_size: 0 1182 0 0 0 0 0 0 0 
Heartbeat_Variant_1 : 1202 0.293457 per_variant_size: 0 491 711 0 0 0 0 0 0 
Heartbeat_Variant_2 : 1025 0.250244 per_variant_size: 0 243 303 256 223 0 0 0 0 
Heartbeat_Variant_3 : 0 0 per_variant_size: 0 0 0 0 0 0 0 0 0 
Heartbeat_Variant_0_evicts 0 : 18435 1 : 7362 2 : 7166 3 : 0 
Heartbeat_Variant_1_evicts 0 : 7384 1 : 0 2 : 4130 3 : 0 
Heartbeat_Variant_2_evicts 0 : 7157 1 : 4146 2 : 0 3 : 0 
Heartbeat_Variant_3_evicts 0 : 0 1 : 0 2 : 0 3 : 0 
Heartbeat CPU 0 instructions: 90000002 cycles: 50085018 heartbeat IPC: 1.10358 cumulative IPC: 1.10803 (Simulation time: 0 hr 17 min 4 sec) 
Heartbeat_Variant_0 : 1196 0.291992 per_variant_size: 0 1196 0 0 0 0 0 0 0 
Heartbeat_Variant_1 : 1201 0.293213 per_variant_size: 0 493 708 0 0 0 0 0 0 
Heartbeat_Variant_2 : 1019 0.248779 per_variant_size: 0 252 297 255 215 0 0 0 0 
Heartbeat_Variant_3 : 0 0 per_variant_size: 0 0 0 0 0 0 0 0 0 
Heartbeat_Variant_0_evicts 0 : 18655 1 : 7445 2 : 7253 3 : 0 
Heartbeat_Variant_1_evicts 0 : 7391 1 : 0 2 : 4249 3 : 0 
Heartbeat_Variant_2_evicts 0 : 7295 1 : 4199 2 : 0 3 : 0 
Heartbeat_Variant_3_evicts 0 : 0 1 : 0 2 : 0 3 : 0 
Heartbeat CPU 0 instructions: 100000001 cycles: 59076263 heartbeat IPC: 1.11219 cumulative IPC: 1.10886 (Simulation time: 0 hr 18 min 49 sec) 
Finished CPU 0 instructions: 50000001 cycles: 45091301 cumulative IPC: 1.10886 (Simulation time: 0 hr 18 min 49 sec) 

ChampSim completed all CPUs

Region of Interest Statistics

CPU 0 cumulative IPC: 1.10886 instructions: 50000001 cycles: 45091301
 Fetch stage stalled: 71.3422  Sim cycles: 45091301 fetch stall cycle: 32169125
 Empty decode stage: 63.4441  Sim cycles: 45091301 fetch stall cycle: 28607780
ITLB TOTAL     ACCESS:    5779376  HIT:    5285592  MISS:     493784  HIT %:    91.4561  MISS %:     8.5439   MPKI: 9.87568
ITLB LOAD TRANSLATION INSTRUCTION	ACCESS:    5680541  HIT:    5186757  MISS:     493784  HIT %:    91.3074  MISS %:    8.69255  MPKI: 9.87568
ITLB TRANSLATION FROM L1D PREFETCHER INSTRUCTION	ACCESS:      98835  HIT:      98835  MISS:          0  HIT %:        100  MISS %:          0  MPKI: 0

ITLB AVERAGE MISS LATENCY: 9.05175 cycles
ITLB RQ	ACCESS:    7601992	FORWARD:          0	MERGED:    1390488	TO_CACHE:    6211504

DTLB TOTAL     ACCESS:    9370134  HIT:    8895816  MISS:     474318  HIT %:     94.938  MISS %:    5.06202   MPKI: 9.48636
DTLB LOAD TRANSLATION DATA	ACCESS:    9370134  HIT:    8895816  MISS:     474318  HIT %:     94.938  MISS %:    5.06202  MPKI: 9.48636

DTLB AVERAGE MISS LATENCY: 9.33684 cycles
DTLB RQ	ACCESS:   13669182	FORWARD:          0	MERGED:    4262619	TO_CACHE:    9406563

STLB TOTAL     ACCESS:    1215893  HIT:    1213704  MISS:       2189  HIT %:      99.82  MISS %:   0.180032   MPKI: 0.04378
STLB LOAD TRANSLATION INSTRUCTION	ACCESS:     493784  HIT:     493512  MISS:        272  HIT %:    99.9449  MISS %:  0.0550848  MPKI: 0.00544
STLB LOAD TRANSLATION DATA	ACCESS:     474003  HIT:     472112  MISS:       1891  HIT %:    99.6011  MISS %:   0.398943  MPKI: 0.03782
STLB TRANSLATION FROM L1D PREFETCHER DATA	ACCESS:     248106  HIT:     248080  MISS:         26  HIT %:    99.9895  MISS %:  0.0104794  MPKI: 0.00052

STLB AVERAGE MISS LATENCY: 72.7675 cycles
STLB RQ	ACCESS:    1333572	FORWARD:          0	MERGED:     117635	TO_CACHE:    1215937

STLB Hit, L1D data hit: 0
STLB Hit, L2C data hit: 0
STLB Hit, LLC data hit: 0
STLB Hit, LLC data miss: 0
STLB STLB hints to L2: 0
L1D TOTAL     ACCESS:   13443451  HIT:   12332096  MISS:    1111355  HIT %:    91.7331  MISS %:    8.26689   MPKI: 22.2271
L1D LOAD DATA	ACCESS:    6860419  HIT:    6128163  MISS:     732256  HIT %:    89.3264  MISS %:    10.6736  MPKI: 14.6451
L1D RFO DATA	ACCESS:    6254782  HIT:    5968531  MISS:     286251  HIT %:    95.4235  MISS %:    4.57651  MPKI: 5.72502
L1D PREFETCH DATA	ACCESS:     328250  HIT:     235402  MISS:      92848  HIT %:    71.7142  MISS %:    28.2858  MPKI: 1.85696

L1D PREFETCH  REQUESTED:     731236  ISSUED:     731236  USEFUL:      32602  USELESS:      67394
L1D USEFUL LOAD PREFETCHES:      32602 PREFETCH ISSUED TO LOWER LEVEL:     100085  ACCURACY: 32.5743
 TIMELY PREFETCHES:      32602 LATE PREFETCHES: 7157 DROPPED PREFETCHES: 8
L1D AVERAGE MISS LATENCY: 237865 cycles
L1D RQ	ACCESS:   10905918	FORWARD:          0	MERGED:    3852761	TO_CACHE:    6891139
L1D WQ	ACCESS:    6947098	FORWARD:     162312	MERGED:     169055	TO_CACHE:    6778043
L1D PQ	ACCESS:     365765	FORWARD:          0	MERGED:          0	TO_CACHE:     365471

L1D UNIQUE REGIONS ACCESSED: 0
L1D REGIONS CONFLICTS: 0
L1D Cross Page Prefetch Requests: 6133
L1D Same Page Prefetch Requests: 741675
L1D ROI Sum of L1D PQ occupancy: 4649861
L1D PREFETCHES PUSHED FROM L2C: 0
L1I TOTAL     ACCESS:    7089058  HIT:    4324486  MISS:    2764572  HIT %:    61.0023  MISS %:    38.9977   MPKI: 55.2914
L1I LOAD INSTRUCTION	ACCESS:    6584420  HIT:    3819848  MISS:    2764572  HIT %:    58.0134  MISS %:    41.9866  MPKI: 55.2914
L1I PREFETCH INSTRUCTION	ACCESS:     504638  HIT:     504638  MISS:          0  HIT %:        100  MISS %:          0  MPKI: 0

L1I PREFETCH  REQUESTED:    1082866  ISSUED:    1082866  USEFUL:          0  USELESS:          0
L1I USEFUL LOAD PREFETCHES:          0 PREFETCH ISSUED TO LOWER LEVEL:          0  ACCURACY: -nan
 TIMELY PREFETCHES:          0 LATE PREFETCHES: 0 DROPPED PREFETCHES: 0
L1I AVERAGE MISS LATENCY: 17.4607 cycles
L1I RQ	ACCESS:    9448800	FORWARD:          0	MERGED:    2622653	TO_CACHE:    6826147
L1I PQ	ACCESS:    1082866	FORWARD:          0	MERGED:     307021	TO_CACHE:     775845

L1BTB TOTAL     ACCESS:    5674913  HIT:    2046121  MISS:    3628792  HIT %:    36.0555  MISS %:    63.9445   MPKI: 72.5758
L1BTB BRANCH_DIRECT_JUMP	ACCESS:     549424  HIT:     145001  MISS:     404423	AVERAGE STALL: 36.7639
L1BTB BRANCH_INDIRECT	ACCESS:     183349  HIT:      66300  MISS:     117049	AVERAGE STALL: 81.02
L1BTB BRANCH_CONDITIONAL	ACCESS:    2714158  HIT:    1420531  MISS:    1293627	AVERAGE STALL: 37.1185
L1BTB BRANCH_DIRECT_CALL	ACCESS:     942884  HIT:     104285  MISS:     838599	AVERAGE STALL: 37.9588
L1BTB BRANCH_INDIRECT_CALL	ACCESS:     171110  HIT:      20857  MISS:     150253	AVERAGE STALL: 106.385
L1BTB BRANCH_RETURN	ACCESS:    1113988  HIT:     289147  MISS:     824841	AVERAGE STALL: 36.9639
L1BTB BRANCH_OTHER ACCESS:          0  HIT:          0  MISS:          0	AVERAGE STALL: -nan
L1BTB TOTAL ROB OCCUPANCY AT BTB MISS: 12.1906

L2BTB TOTAL     ACCESS:    3603272  HIT:    3142281  MISS:     460991  HIT %:    87.2063  MISS %:    12.7937   MPKI: 9.21982
L2BTB BRANCH_DIRECT_JUMP	ACCESS:     400231  HIT:     356613  MISS:      43618	AVERAGE STALL: 36.7639
L2BTB BRANCH_INDIRECT	ACCESS:     106754  HIT:      99390  MISS:       7364	AVERAGE STALL: 81.02
L2BTB BRANCH_CONDITIONAL	ACCESS:    1293626  HIT:    1143797  MISS:     149829	AVERAGE STALL: 37.1185
L2BTB BRANCH_DIRECT_CALL	ACCESS:     838598  HIT:     700318  MISS:     138280	AVERAGE STALL: 37.9588
L2BTB BRANCH_INDIRECT_CALL	ACCESS:     140661  HIT:     111940  MISS:      28721	AVERAGE STALL: 106.385
L2BTB BRANCH_RETURN	ACCESS:     823402  HIT:     730223  MISS:      93179	AVERAGE STALL: 36.9639
L2BTB BRANCH_OTHER ACCESS:          0  HIT:          0  MISS:          0	AVERAGE STALL: -nan
L2BTB TOTAL ROB OCCUPANCY AT BTB MISS: 95.9613

L2C TOTAL     ACCESS:    4493051  HIT:    3983879  MISS:     509172  HIT %:    88.6676  MISS %:    11.3324   MPKI: 10.1834
L2C LOAD INSTRUCTION	ACCESS:    2764572  HIT:    2479027  MISS:     285545  HIT %:    89.6713  MISS %:    10.3287  MPKI: 5.7109
L2C LOAD TRANSLATION INSTRUCTION	ACCESS:        306  HIT:         66  MISS:        240  HIT %:    21.5686  MISS %:    78.4314  MPKI: 0.0048
L2C LOAD DATA	ACCESS:     725084  HIT:     642469  MISS:      82615  HIT %:    88.6061  MISS %:    11.3939  MPKI: 1.6523
L2C RFO DATA	ACCESS:     286146  HIT:     239208  MISS:      46938  HIT %:    83.5965  MISS %:    16.4035  MPKI: 0.93876
L2C PREFETCH DATA	ACCESS:     191177  HIT:     112350  MISS:      78827  HIT %:    58.7675  MISS %:    41.2325  MPKI: 1.57654
L2C WRITEBACK DATA	ACCESS:     523737  HIT:     510275  MISS:      13462  HIT %:    97.4296  MISS %:    2.57037  MPKI: 0.26924
L2C LOAD TRANSLATION DATA	ACCESS:       1977  HIT:        449  MISS:       1528  HIT %:    22.7112  MISS %:    77.2888  MPKI: 0.03056
L2C TRANSLATION FROM L1D PREFETCHER DATA	ACCESS:         52  HIT:         35  MISS:         17  HIT %:    67.3077  MISS %:    32.6923  MPKI: 0.00034

L2C PREFETCH  REQUESTED:      99254  ISSUED:      99254  USEFUL:       9839  USELESS:      69664
L2C USEFUL LOAD PREFETCHES:       9839 PREFETCH ISSUED TO LOWER LEVEL:      79366  ACCURACY: 12.397
 TIMELY PREFETCHES:       9839 LATE PREFETCHES: 539 DROPPED PREFETCHES: 0
L2C AVERAGE MISS LATENCY: 38.0933 cycles
L2C RQ	ACCESS:    3778177	FORWARD:          0	MERGED:          0	TO_CACHE:    3778137
L2C WQ	ACCESS:     523737	FORWARD:         43	MERGED:          0	TO_CACHE:     523737
L2C PQ	ACCESS:     199339	FORWARD:          0	MERGED:       3705	TO_CACHE:     195631

L2C Dense regions hint from L2: 0
PSCL5 TOTAL     ACCESS:       4404  HIT:       2202  MISS:       2202  HIT %:         50  MISS %:         50   MPKI: 0.04404
PSCL5 LOAD TRANSLATION INSTRUCTION	ACCESS:       4300  HIT:       2150  MISS:       2150  HIT %:         50  MISS %:         50  MPKI: 0.043
PSCL5 TRANSLATION FROM L1D PREFETCHER INSTRUCTION	ACCESS:        104  HIT:         52  MISS:         52  HIT %:         50  MISS %:         50  MPKI: 0.00104


PSCL4 TOTAL     ACCESS:       4234  HIT:       2111  MISS:       2123  HIT %:    49.8583  MISS %:    50.1417   MPKI: 0.04246
PSCL4 LOAD TRANSLATION INSTRUCTION	ACCESS:       2153  HIT:       2059  MISS:         94  HIT %:     95.634  MISS %:      4.366  MPKI: 0.00188
PSCL4 TRANSLATION FROM L1D PREFETCHER INSTRUCTION	ACCESS:         52  HIT:         52  MISS:          0  HIT %:        100  MISS %:          0  MPKI: 0
PSCL4 LOAD TRANSLATION DATA	ACCESS:       1977  HIT:          0  MISS:       1977  HIT %:          0  MISS %:        100  MPKI: 0.03954
PSCL4 TRANSLATION FROM L1D PREFETCHER DATA	ACCESS:         52  HIT:          0  MISS:         52  HIT %:          0  MISS %:        100  MPKI: 0.00104


PSCL3 TOTAL     ACCESS:       4302  HIT:       2145  MISS:       2157  HIT %:    49.8605  MISS %:    50.1395   MPKI: 0.04314
PSCL3 LOAD TRANSLATION INSTRUCTION	ACCESS:       2187  HIT:       2093  MISS:         94  HIT %:    95.7019  MISS %:    4.29813  MPKI: 0.00188
PSCL3 TRANSLATION FROM L1D PREFETCHER INSTRUCTION	ACCESS:         52  HIT:         52  MISS:          0  HIT %:        100  MISS %:          0  MPKI: 0
PSCL3 LOAD TRANSLATION DATA	ACCESS:       2011  HIT:          0  MISS:       2011  HIT %:          0  MISS %:        100  MPKI: 0.04022
PSCL3 TRANSLATION FROM L1D PREFETCHER DATA	ACCESS:         52  HIT:          0  MISS:         52  HIT %:          0  MISS %:        100  MPKI: 0.00104


PSCL2 TOTAL     ACCESS:       4294  HIT:       2092  MISS:       2202  HIT %:    48.7191  MISS %:    51.2809   MPKI: 0.04404
PSCL2 LOAD TRANSLATION INSTRUCTION	ACCESS:       2310  HIT:       2040  MISS:        270  HIT %:    88.3117  MISS %:    11.6883  MPKI: 0.0054
PSCL2 TRANSLATION FROM L1D PREFETCHER INSTRUCTION	ACCESS:         52  HIT:         52  MISS:          0  HIT %:        100  MISS %:          0  MPKI: 0
PSCL2 LOAD TRANSLATION DATA	ACCESS:       1880  HIT:          0  MISS:       1880  HIT %:          0  MISS %:        100  MPKI: 0.0376
PSCL2 TRANSLATION FROM L1D PREFETCHER DATA	ACCESS:         52  HIT:          0  MISS:         52  HIT %:          0  MISS %:        100  MPKI: 0.00104


LLC TOTAL     ACCESS:     569648  HIT:     541000  MISS:      28648  HIT %:    94.9709  MISS %:    5.02907   MPKI: 0.57296
LLC LOAD INSTRUCTION	ACCESS:     285545  HIT:     284623  MISS:        922  HIT %:    99.6771  MISS %:   0.322891  MPKI: 0.01844
LLC LOAD TRANSLATION INSTRUCTION	ACCESS:        240  HIT:        199  MISS:         41  HIT %:    82.9167  MISS %:    17.0833  MPKI: 0.00082
LLC LOAD DATA	ACCESS:      82094  HIT:      78631  MISS:       3463  HIT %:    95.7817  MISS %:    4.21834  MPKI: 0.06926
LLC RFO DATA	ACCESS:      46917  HIT:      33367  MISS:      13550  HIT %:    71.1192  MISS %:    28.8808  MPKI: 0.271
LLC PREFETCH DATA	ACCESS:      79364  HIT:      69089  MISS:      10275  HIT %:    87.0533  MISS %:    12.9467  MPKI: 0.2055
LLC WRITEBACK DATA	ACCESS:      73943  HIT:      73627  MISS:        316  HIT %:    99.5726  MISS %:   0.427356  MPKI: 0.00632
LLC LOAD TRANSLATION DATA	ACCESS:       1528  HIT:       1447  MISS:         81  HIT %:     94.699  MISS %:    5.30105  MPKI: 0.00162
LLC TRANSLATION FROM L1D PREFETCHER DATA	ACCESS:         17  HIT:         17  MISS:          0  HIT %:        100  MISS %:          0  MPKI: 0

LLC AVERAGE MISS LATENCY: 156.779 cycles
LLC RQ	ACCESS:     416344	FORWARD:          0	MERGED:          0	TO_CACHE:     416341
LLC WQ	ACCESS:      73943	FORWARD:          5	MERGED:          0	TO_CACHE:      73943
LLC PQ	ACCESS:      79366	FORWARD:          0	MERGED:          0	TO_CACHE:      79364

LLC Dense regions hint to LLC: 0

RAW hits: 1729607
Loads Generated: 12635525
Loads sent to L1D: 10905918
Stores Generated: 6947086
Stores sent to L1D: 6947098
Major fault: 0 Minor fault: 2601
Allocated PAGES: 2601

stream: 
stream:times selected: 1175685
stream:pref_filled: 121749
stream:pref_useful: 24365
stream:pref_late: 6674
stream:misses: 6856
stream:misses_by_poll: 0

CS: 
CS:times selected: 176024
CS:pref_filled: 59722
CS:pref_useful: 37021
CS:pref_late: 6039
CS:misses: 14941
CS:misses_by_poll: 4

CPLX: 
CPLX:times selected: 998414
CPLX:pref_filled: 19649
CPLX:pref_useful: 4795
CPLX:pref_late: 2838
CPLX:misses: 90098
CPLX:misses_by_poll: 1

NL_L1: 
NL:times selected: 19857
NL:pref_filled: 708
NL:pref_useful: 332
NL:pref_late: 213
NL:misses: 1092
NL:misses_by_poll: 0

total selections: 2369980
total_filled: 92848
total_useful: 32602
total_late: 16908
total_polluted: 5
total_misses_after_warmup: 762982
conflicts: 5672869

test: 114687

DRAM Statistics
 CHANNEL 0
 RQ ROW_BUFFER_HIT:      10405  ROW_BUFFER_MISS:      17925
 DBUS_CONGESTED:         13
 WQ ROW_BUFFER_HIT:       1401  ROW_BUFFER_MISS:      12757  FULL:          0

 AVG_CONGESTED_CYCLE: 4

CPU 0 Branch Prediction Accuracy: 99.8092% MPKI: 0.34894 Average ROB Occupancy at Mispredict: 124.636
Branch types
NOT_BRANCH: 40857279 81.7146%
BRANCH_DIRECT_JUMP: 549424 1.09885%
BRANCH_INDIRECT: 183349 0.366698%
BRANCH_CONDITIONAL: 6181908 12.3638%
BRANCH_DIRECT_CALL: 942884 1.88577%
BRANCH_INDIRECT_CALL: 171110 0.34222%
BRANCH_RETURN: 1113988 2.22798%
BRANCH_OTHER: 0 0%

DRAM PAGES: 1048576
Allocated PAGES: 2601
Average_ROB_Occupancy: 115.546
Average_Decode_Occupancy: 14.1552
Average_FTQ_Occupancy: 6.69374
Indirect max targets: 14 Average targets: 1.1505
Branch_type:  BRANCH_DIRECT_JUMP:  Count Percentage: 3.24829 5.53099 5.12363 9.12238 1.74016 5.96783 0.891939 68.3748 
Branch_type:  BRANCH_INDIRECT:  Count Percentage: 11.7458 3.46491 2.55452 0 2.5452 9.67468 19.2228 50.7921 
Branch_type:  BRANCH_CONDITIONAL:  Count Percentage: 21.4516 2.58987 1.84245 8.41923 1.23162 5.06895 1.95747 57.4388 
Branch_type:  BRANCH_DIRECT_CALL:  Count Percentage: 0.257349 1.79076 1.44555 4.83602 2.15601 2.75191 0.751905 86.0105 
Branch_type:  BRANCH_INDIRECT_CALL:  Count Percentage: 9.53326 0.571582 2.98674 4.83994 0.000291475 2.01875 1.28307 78.7664 
Branch_type:  BRANCH_RETURN:  Count Percentage: 3.18859 1.30476 1.27108 9.31576 2.84213 6.55351 3.12936 72.3948 
Branch_type:  BRANCH_DIRECT_JUMP:  Total Count: 35588 60597 56134 99944 19065 65383 9772 749108 
Branch_type:  BRANCH_INDIRECT:  Total Count: 42886 12651 9327 0 9293 35324 70186 185451 
Branch_type:  BRANCH_CONDITIONAL:  Total Count: 2648867 319799 227508 1039615 152082 625919 241710 7092595 
Branch_type:  BRANCH_DIRECT_CALL:  Total Count: 4868 33874 27344 91478 40783 52055 14223 1626970 
Branch_type:  BRANCH_INDIRECT_CALL:  Total Count: 32707 1961 10247 16605 1 6926 4402 270234 
Branch_type:  BRANCH_RETURN:  Total Count: 71281 29168 28415 208254 63536 146504 69957 1618388 
Number of unique branch instructions: 10308
Upper 32 bits: 
aaaa
ffff
ffff0000
Unique upper 32 bits: 3
Unique upper 36 bits: 3
Unique upper 40 bits: 5
Unique upper 44 bits: 32
Unique upper 48 bits: 154
Variant_0 : 1196 0.291992
Variant_1 : 1201 0.293213
Variant_2 : 1019 0.248779
Variant_3 : 0 0
Offset_3 4268
Offset_4 260
Offset_5 469
Offset_6 531
Offset_7 612
Offset_8 540
Offset_9 491
Offset_10 399
Offset_11 338
Offset_12 297
Offset_13 225
Offset_14 232
Offset_15 201
Offset_16 230
Offset_17 162
Offset_18 128
Offset_19 252
Offset_20 144
Offset_21 236
Offset_22 404
Offset_23 245
Offset_24 346
Offset_25 88
Offset_47 84
Offset_64 21
decode_dispatch_called: 20524018 45.5166
Dispatch_width: 0 10508710 51.202 23.3054
Dispatch_width: 1 555349 2.70585 1.23161
Dispatch_width: 2 644004 3.13781 1.42822
Dispatch_width: 3 440729 2.14738 0.977415
Dispatch_width: 4 1537917 7.49325 3.41067
Dispatch_width: 5 341065 1.66178 0.756388
Dispatch_width: 6 6496244 31.6519 14.4069
Empty_decode_cycles: 24567283 54.4834
ROB_full_cycles: 2102288 4.66229
Starvation_cycles_per_kilo_instr: 364.928
Starvation_cycles_per_kilo_instr_3: 346.138
Starvation_cycles_per_kilo_instr_0: 329.737
Branch_type_1  (3,1)  (4,9)  (5,37)  (6,73)  (7,118)  (8,138)  (9,129)  (10,102)  (11,76)  (12,51)  (13,8)  (14,2)  (15,3)  (16,4)  (18,1)  (19,4)  (20,2)  (21,1)  (22,3)  (23,2)  (24,10)  (25,12)  (64,3) 
Branch_type_2  (3,1)  (5,1)  (8,3)  (9,3)  (12,1)  (13,1)  (14,1)  (16,3)  (17,2)  (20,2)  (21,2)  (23,5)  (24,1)  (47,39) 
Branch_type_3  (3,4266)  (4,251)  (5,427)  (6,441)  (7,460)  (8,333)  (9,270)  (10,164)  (11,140)  (12,58)  (13,7)  (24,3)  (64,11) 
Branch_type_4  (6,4)  (7,8)  (8,30)  (9,54)  (10,63)  (11,63)  (12,105)  (13,96)  (14,102)  (15,96)  (16,104)  (17,73)  (18,58)  (19,124)  (20,74)  (21,124)  (22,215)  (23,138)  (24,202)  (25,72)  (64,4) 
Branch_type_5  (8,2)  (9,1)  (10,3)  (11,5)  (12,3)  (13,14)  (14,16)  (15,11)  (16,20)  (17,13)  (18,16)  (19,12)  (20,11)  (21,13)  (22,42)  (23,26)  (24,37) 
Branch_type_6  (5,4)  (6,13)  (7,26)  (8,34)  (9,34)  (10,67)  (11,54)  (12,79)  (13,99)  (14,111)  (15,91)  (16,99)  (17,74)  (18,53)  (19,112)  (20,55)  (21,96)  (22,144)  (23,74)  (24,93)  (25,4)  (47,45)  (64,3) 
Unique trigger count: 
Variant_0_evicts_0 : 0
Variant_0_evicts_1 : 0
Variant_0_evicts_2 : 0
Variant_0_evicts_3 : 0
Variant_1_evicts_0 : 0
Variant_1_evicts_1 : 0
Variant_1_evicts_2 : 0
Variant_1_evicts_3 : 0
Variant_2_evicts_0 : 0
Variant_2_evicts_1 : 0
Variant_2_evicts_2 : 0
Variant_2_evicts_3 : 0
Variant_3_evicts_0 : 0
Variant_3_evicts_1 : 0
Variant_3_evicts_2 : 0
Variant_3_evicts_3 : 0
BTB PER SET UNIQUE ADDR: 4 8 6 5 3 3 6 9 10 2 5 2 8 6 4 4 6 4 8 8 6 8 7 8 8 11 2 7 7 6 9 10 6 4 7 4 4 6 8 3 7 5 6 10 9 7 6 11 11 6 6 4 12 2 2 7 5 5 10 8 4 11 5 7 6 10 8 7 5 7 6 2 6 4 6 7 6 14 7 4 9 6 7 6 8 7 7 8 8 11 10 8 9 6 7 4 11 7 4 6 8 5 9 10 6 7 7 8 7 5 7 4 4 8 5 11 3 8 6 2 7 8 4 2 6 4 4 6 10 7 10 3 10 6 8 5 5 2 6 8 8 7 6 7 4 10 4 8 10 6 6 11 7 10 4 8 6 8 7 9 9 6 11 5 11 5 3 4 12 4 6 3 7 7 3 2 5 6 9 4 6 6 9 7 6 11 5 6 6 8 5 8 6 6 6 11 12 3 10 7 4 6 9 3 8 4 5 7 6 2 3 6 9 9 6 6 5 9 8 6 6 2 6 6 6 8 13 7 2 9 14 8 4 2 6 8 11 6 3 4 5 3 9 7 14 11 2 5 5 5 8 10 6 6 5 12 4 7 9 5 8 5 7 4 9 15 6 4 7 5 7 6 4 9 10 8 6 4 4 8 7 4 10 5 10 9 7 7 7 4 5 7 4 12 6 4 6 10 6 6 6 6 4 4 8 5 6 4 11 9 6 3 8 3 6 4 9 14 7 4 6 11 5 8 5 5 5 9 3 2 7 2 6 7 10 5 6 9 7 1 6 6 2 9 7 6 3 9 10 5 4 10 9 7 8 7 7 2 7 5 6 11 6 8 10 8 4 3 4 5 8 4 7 5 7 4 11 7 6 8 10 7 7 13 6 5 9 5 5 4 9 6 8 4 6 4 5 6 2 9 5 4 7 6 5 5 8 5 5 3 4 5 10 5 2 5 10 4 2 6 2 5 5 7 11 6 4 2 4 8 4 4 15 5 8 11 6 6 6 4 3 6 8 4 6 8 4 7 5 4 6 3 5 2 9 3 5 8 11 5 5 4 6 11 6 5 12 4 6 8 2 6 9 8 5 3 9 5 2 3 5 2 3 4 3 7 8 3 8 2 12 5 5 9 2 13 4 7 6 5 10 4 4 4 3 5 5 3 3 6 9 4 6 10 2 3 2 10 5 8 6 5 7 5 10 9 4 10 9 7 5 6 5 7 5 7 3 2 6 4 4 8 9 4 8 5 10 13 12 11 5 8 7 7 2 6 9 3 6 4 10 4 8 4 5 5 9 8 9 7 8 4 9 12 7 7 7 10 3 10 12 5 1 6 4 3 3 13 7 6 7 8 4 5 4 5 8 6 6 5 9 6 9 12 9 4 5 9 7 5 8 6 8 6 7 4 7 5 5 7 8 7 10 4 5 11 7 8 4 6 8 7 7 6 7 6 5 5 5 4 10 9 4 6 2 3 6 7 8 7 8 5 10 3 5 2 10 5 6 8 14 3 7 11 9 8 8 6 5 11 8 6 6 7 14 9 8 6 8 5 9 12 7 6 10 9 7 8 8 6 3 8 3 4 4 6 10 7 7 8 3 11 4 6 7 11 4 4 5 5 7 7 6 6 5 7 10 7 1 8 4 3 5 4 4 1 4 9 2 11 7 10 7 3 6 7 8 3 7 5 4 9 5 10 4 4 6 3 6 6 7 3 5 6 2 5 5 10 10 4 4 7 6 7 7 6 14 6 6 4 9 7 0 5 7 5 5 10 3 3 8 5 4 6 11 9 9 7 2 9 3 9 5 6 7 12 11 4 5 6 12 4 10 3 8 6 7 9 6 6 3 5 6 4 4 7 1 5 5 10 6 4 10 4 5 4 7 3 7 6 7 3 7 4 10 5 4 4 6 3 5 3 6 6 4 9 9 5 6 6 8 7 6 8 5 10 7 4 8 6 7 7 4 4 15 5 6 8 10 8 5 6 6 10 8 2 2 6 8 4 5 6 7 5 9 6 7 4 5 8 8 3 7 8 7 4 10 11 5 4 12 9 6 5 8 6 6 11 6 8 10 6 4 3 2 7 6 4 7 6 10 6 10 5 8 9 6 5 6 11 5 4 11 10 5 9 10 12 2 9 7 8 4 4 6 7 9 6 7 3 10 3 13 8 3 6 9 12 6 9 6 7 11 5 3 9 10 8 8 4 3 6 2 9 11 6 8 5 4 7 12 6 5 7 5 7 4 4 9 6 8 7 7 11 6 11 7 11 5 6 3 5 7 5 8 6 7 4 7 5 8 4 9 6 11 5 9 4 3 7 10 6 12 5 
BTB PER SET COUNT: 4 1451 6 5 3 3 8 1855 6835 6 7 1933 1513 10 4 4 1248 6 47 3393 7 10 10 1040 5578 1320 2 7 1503 6 4407 563 2647 4 9 4 2933 7 44 3 26 10 9 2357 5290 12 8 4947 2772 8 7 6 11999 2 2 1382 8 5 47 131 5 3228 6 9 6 1015 2119 26 5 7 1295 2 10 4 987 12 501 7319 1028 4 1104 1272 1588 794 854 14 12 19 3637 2461 1278 495 1828 7 10 6 883 10 6 7 14 7 11 979 11 10 1304 3804 2357 26 1875 10 4 12 9 7048 4 10 6 2 18 36 4 3 1790 4 4 474 5310 1740 1591 3 3443 7 3378 5 6 2 8 469 12 14 6 9 5 2083 4 10 23 2289 9 3962 15 9056 4 38 9 1965 1201 995 5013 25 1978 949 1071 2917 4 16 4362 987 6 3 19 104 3 2 5 499 1913 4 7 7 1222 59 6 8282 6 7 2819 10 6 133 7 1452 1394 38 1957 3 46 7 5 10 12 6 16 7 5 2545 8 2 3 7 306 4859 11 9 5 352 36 8 6 2 6 6 6 9 6067 2003 2 2919 7534 24 4 6 19 3670 3255 7 3 4 8 3 5621 8 4656 25 2 5 7 5 11 3273 11 6 8 3862 5 12 1403 5 2367 5 7 7 2637 8322 981 6 2430 5 2031 10 4 11 29 944 8 4 6 2388 32 984 22 5 3424 1462 11 1032 7 4 5 2392 965 4027 2926 994 11 3983 6 10 7 7 4 69 15 7 6 4 4539 10 19 3 1061 3 6 6 15 2943 1666 6 12 120 6 8 87 11 5 698 3 3 3560 2 9 11 1951 6 2376 13 12 1 8 6 3 2655 993 1091 3 13 486 7 4 1030 9 1836 8 16 11 2 4921 52 28 1522 15 2983 2348 13 5 4 6 7 37 8 30 9 8 5 7214 9 6 924 3305 2657 11 8038 6 7 52 5 5 4 2294 11 3674 7 1542 7 1468 104 4 24 6 4 1314 6 826 5 2936 5 5 2479 4 5 2387 11 975 5 202 4 2 1668 2 983 7 26 38 7 11 2 4 12 134 4 5665 8 10 51 11 8 1836 5 5 10 8 4 10 1022 4 980 5 4 6 6 9 2 229 3 5 10 658 8 910 6 24 89 35 5 3357 4 8 9 2 24 4695 1407 133 3 25112 5 2 3 10 2 3 498 4 14 1530 401 12 2 147 5 7 31 2 6977 53 10 6 5 34 13 5 4 4 6 5 3 3 13 18 4 6 25 5 3 2 9282 7 974 7 1471 8 434 41 1816 4 12 20 16 5 10 6 16 9 1201 3 2 77 4 8 1365 40 11 1932 6 19 175 2960 8089 9 938 15 48 2 10 1651 6 6 4 6461 1941 2288 4 5 5 36 12 13 993 963 6 1462 4695 1330 2267 12 3819 26 4608 9189 261 1 1007 1470 3 5 6765 12 12 9 267 6 1923 977 6 10 8 8 6 25 29 6728 798 2873 2945 5 1364 8 5 2994 13 12 10 9 5 2196 8 6 9 9 2016 2453 4 1471 27 7 2386 11 2583 502 1472 7 11 7 15 5 5 5 4 7650 36 4 7 2 7 7 10 952 10 14 5 9803 3 10 19 14 8 1485 3775 7852 5 27 7179 13 1481 2975 990 26 54 2311 11 30 969 6084 3424 607 9 2256 5 2687 7065 19 989 20878 1008 41 4818 1477 136 6 2164 7 27 4 6 8005 9 19 52 3 4400 4 8 501 2551 6 2400 5 1468 242 10 15 897 984 11 1496 738 1 12 4 5 6 4 1819 1 983 1739 2 9000 1927 2107 1945 3 9 8 17 5 18 8 71 18 7 9562 4 5 628 4 7 911 72 4 5 855 2 5 5 15 5958 1870 4 7 977 799 3710 6 6094 6 11 5 18 24 0 192 23 1468 17 3382 3 3 2419 22 7 3619 1484 111 18 19 418 964 5 1846 208 6 228 4531 1622 4 5 6 3008 12 248 950 1989 3055 9 60 8 18 3 9 6 605 6 9 1 5 7 3346 11 4 3578 407 1398 5 1892 3 2279 113 1777 3 532 4 7542 1009 1055 4 9 4 352 4 6 1475 4 23 3585 5 12 6 3409 1581 15 13 5 10913 10 4 35 14 38 9 4 22 6915 980 53 918 2908 25 5 8 6 1218 10 2 3 6 13 4 9 10 277 7 22 15 1544 4 5 1494 14 3 8 1628 7 7 35 3307 5 4 5124 2262 154 83 2602 6 6 3437 6 11 1369 11 13 3 2 9 8 925 3313 2334 23 8 3767 28 41 263 17 5 6 2941 5 501 3730 1422 7 27 3594 1922 3 3320 8 917 4 973 71 56 41 252 8 3 3389 3 8116 16 3 11 1388 10983 9 2855 6 629 8386 6 3 1104 49 10 8 6 3 6 2 3302 5585 10 1099 7 8 8 2171 8 498 10 5 16 4 7 15 6 1400 991 7 2611 6 1813 9 5566 8 13 3 9 14 5 10 9 1326 53 12 5 6702 4 7299 539 2938 7 2363 6 3 9 2849 6 4090 10 
To predecode: 0
Predecoding something: 0
Predecode request dropped: 0
sizeofblock_0 0
sizeofblock_1 257738
sizeofblock_2 188372
sizeofblock_3 134385
sizeofblock_4 65632
sizeofblock_5 0
sizeofblock_6 0
sizeofblock_7 0
sizeofblock_8 0
Variant_0 Correct: 0 Incorrect: 0 Accuracy: -nan
Variant_1 Correct: 0 Incorrect: 0 Accuracy: -nan
Variant_2 Correct: 0 Incorrect: 0 Accuracy: -nan
Variant_3 Correct: 0 Incorrect: 0 Accuracy: -nan
