
*** ChampSim Multicore Out-of-Order Simulator ***

Warmup Instructions: 50000000
Simulation Instructions: 50000000
Number of CPUs: 1
LLC sets: 2048
LLC ways: 16
Off-chip DRAM Size: 4096 MB Channels: 1 Width: 64-bit Data Rate: 6400 MT/s
CPU 0 runs ./micro_traces/srv191.trace.gz
.gz
ITLB has LRU replacement policy
DTLB has LRU replacement policy
STLB has LRU replacement policy
FDIP Prefetcher at L1I
L1I has LRU replacement policy
L1D has LRU replacement policy
Initialize SRRIP state for L2C
Initialize DRRIP state for LLC
Heartbeat_Variant_0 : 1302 0.317871 per_variant_size: 0 1302 0 0 0 0 0 0 0 
Heartbeat_Variant_1 : 2479 0.605225 per_variant_size: 0 589 1890 0 0 0 0 0 0 
Heartbeat_Variant_2 : 0 0 per_variant_size: 0 0 0 0 0 0 0 0 0 
Heartbeat_Variant_3 : 0 0 per_variant_size: 0 0 0 0 0 0 0 0 0 
Heartbeat_Variant_0_evicts 0 : 5531 1 : 345 2 : 0 3 : 0 
Heartbeat_Variant_1_evicts 0 : 301 1 : 0 2 : 0 3 : 0 
Heartbeat_Variant_2_evicts 0 : 0 1 : 0 2 : 0 3 : 0 
Heartbeat_Variant_3_evicts 0 : 0 1 : 0 2 : 0 3 : 0 
Heartbeat CPU 0 instructions: 10000002 cycles: 2791377 heartbeat IPC: 3.58246 cumulative IPC: 3.58246 (Simulation time: 0 hr 1 min 45 sec) 
Heartbeat_Variant_0 : 1349 0.329346 per_variant_size: 0 1349 0 0 0 0 0 0 0 
Heartbeat_Variant_1 : 2582 0.630371 per_variant_size: 0 526 2056 0 0 0 0 0 0 
Heartbeat_Variant_2 : 0 0 per_variant_size: 0 0 0 0 0 0 0 0 0 
Heartbeat_Variant_3 : 0 0 per_variant_size: 0 0 0 0 0 0 0 0 0 
Heartbeat_Variant_0_evicts 0 : 5536 1 : 329 2 : 0 3 : 0 
Heartbeat_Variant_1_evicts 0 : 319 1 : 0 2 : 0 3 : 0 
Heartbeat_Variant_2_evicts 0 : 0 1 : 0 2 : 0 3 : 0 
Heartbeat_Variant_3_evicts 0 : 0 1 : 0 2 : 0 3 : 0 
Heartbeat CPU 0 instructions: 20000000 cycles: 5582013 heartbeat IPC: 3.58341 cumulative IPC: 3.58294 (Simulation time: 0 hr 3 min 23 sec) 
Heartbeat_Variant_0 : 1356 0.331055 per_variant_size: 0 1356 0 0 0 0 0 0 0 
Heartbeat_Variant_1 : 2587 0.631592 per_variant_size: 0 518 2069 0 0 0 0 0 0 
Heartbeat_Variant_2 : 0 0 per_variant_size: 0 0 0 0 0 0 0 0 0 
Heartbeat_Variant_3 : 0 0 per_variant_size: 0 0 0 0 0 0 0 0 0 
Heartbeat_Variant_0_evicts 0 : 5425 1 : 86 2 : 0 3 : 0 
Heartbeat_Variant_1_evicts 0 : 80 1 : 0 2 : 0 3 : 0 
Heartbeat_Variant_2_evicts 0 : 0 1 : 0 2 : 0 3 : 0 
Heartbeat_Variant_3_evicts 0 : 0 1 : 0 2 : 0 3 : 0 
Heartbeat CPU 0 instructions: 30000002 cycles: 8372799 heartbeat IPC: 3.58322 cumulative IPC: 3.58303 (Simulation time: 0 hr 5 min 1 sec) 
Heartbeat_Variant_0 : 1366 0.333496 per_variant_size: 0 1366 0 0 0 0 0 0 0 
Heartbeat_Variant_1 : 2624 0.640625 per_variant_size: 0 502 2122 0 0 0 0 0 0 
Heartbeat_Variant_2 : 0 0 per_variant_size: 0 0 0 0 0 0 0 0 0 
Heartbeat_Variant_3 : 0 0 per_variant_size: 0 0 0 0 0 0 0 0 0 
Heartbeat_Variant_0_evicts 0 : 5422 1 : 201 2 : 0 3 : 0 
Heartbeat_Variant_1_evicts 0 : 205 1 : 0 2 : 0 3 : 0 
Heartbeat_Variant_2_evicts 0 : 0 1 : 0 2 : 0 3 : 0 
Heartbeat_Variant_3_evicts 0 : 0 1 : 0 2 : 0 3 : 0 
Heartbeat CPU 0 instructions: 40000000 cycles: 11162559 heartbeat IPC: 3.58454 cumulative IPC: 3.58341 (Simulation time: 0 hr 6 min 40 sec) 
Heartbeat_Variant_0 : 1368 0.333984 per_variant_size: 0 1368 0 0 0 0 0 0 0 
Heartbeat_Variant_1 : 2641 0.644775 per_variant_size: 0 504 2137 0 0 0 0 0 0 
Heartbeat_Variant_2 : 0 0 per_variant_size: 0 0 0 0 0 0 0 0 0 
Heartbeat_Variant_3 : 0 0 per_variant_size: 0 0 0 0 0 0 0 0 0 
Heartbeat_Variant_0_evicts 0 : 5466 1 : 171 2 : 0 3 : 0 
Heartbeat_Variant_1_evicts 0 : 172 1 : 0 2 : 0 3 : 0 
Heartbeat_Variant_2_evicts 0 : 0 1 : 0 2 : 0 3 : 0 
Heartbeat_Variant_3_evicts 0 : 0 1 : 0 2 : 0 3 : 0 
Heartbeat CPU 0 instructions: 50000000 cycles: 13954449 heartbeat IPC: 3.5818 cumulative IPC: 3.58309 (Simulation time: 0 hr 8 min 19 sec) 

Warmup complete CPU 0 instructions: 50000004 cycles: 13954450 (Simulation time: 0 hr 8 min 19 sec) 

Cycle: 20000000 FTQ IN: 58476928 FTQ occupancy: 20.0628 DECODE IN: 58476886 DECODE occupancy: 52.5273 ROB IN: 58476872 ROB occupancy: 315.996 ROB OUT: 58476524
Heartbeat_Variant_0 : 1374 0.335449 per_variant_size: 0 1374 0 0 0 0 0 0 0 
Heartbeat_Variant_1 : 2636 0.643555 per_variant_size: 0 503 2133 0 0 0 0 0 0 
Heartbeat_Variant_2 : 0 0 per_variant_size: 0 0 0 0 0 0 0 0 0 
Heartbeat_Variant_3 : 0 0 per_variant_size: 0 0 0 0 0 0 0 0 0 
Heartbeat_Variant_0_evicts 0 : 5411 1 : 17 2 : 0 3 : 0 
Heartbeat_Variant_1_evicts 0 : 11 1 : 0 2 : 0 3 : 0 
Heartbeat_Variant_2_evicts 0 : 0 1 : 0 2 : 0 3 : 0 
Heartbeat_Variant_3_evicts 0 : 0 1 : 0 2 : 0 3 : 0 
Heartbeat CPU 0 instructions: 60000001 cycles: 21170076 heartbeat IPC: 1.38588 cumulative IPC: 1.38588 (Simulation time: 0 hr 10 min 12 sec) 
Heartbeat_Variant_0 : 1374 0.335449 per_variant_size: 0 1374 0 0 0 0 0 0 0 
Heartbeat_Variant_1 : 2645 0.645752 per_variant_size: 0 505 2140 0 0 0 0 0 0 
Heartbeat_Variant_2 : 0 0 per_variant_size: 0 0 0 0 0 0 0 0 0 
Heartbeat_Variant_3 : 0 0 per_variant_size: 0 0 0 0 0 0 0 0 0 
Heartbeat_Variant_0_evicts 0 : 5521 1 : 123 2 : 0 3 : 0 
Heartbeat_Variant_1_evicts 0 : 125 1 : 0 2 : 0 3 : 0 
Heartbeat_Variant_2_evicts 0 : 0 1 : 0 2 : 0 3 : 0 
Heartbeat_Variant_3_evicts 0 : 0 1 : 0 2 : 0 3 : 0 
Heartbeat CPU 0 instructions: 70000003 cycles: 28312014 heartbeat IPC: 1.40018 cumulative IPC: 1.39299 (Simulation time: 0 hr 12 min 2 sec) 
Cycle: 30000000 FTQ IN: 13873105 FTQ occupancy: 13.3936 DECODE IN: 13873116 DECODE occupancy: 35.0218 ROB IN: 13873130 ROB occupancy: 240.092 ROB OUT: 13873455
Heartbeat_Variant_0 : 1370 0.334473 per_variant_size: 0 1370 0 0 0 0 0 0 0 
Heartbeat_Variant_1 : 2652 0.647461 per_variant_size: 0 506 2146 0 0 0 0 0 0 
Heartbeat_Variant_2 : 0 0 per_variant_size: 0 0 0 0 0 0 0 0 0 
Heartbeat_Variant_3 : 0 0 per_variant_size: 0 0 0 0 0 0 0 0 0 
Heartbeat_Variant_0_evicts 0 : 5440 1 : 102 2 : 0 3 : 0 
Heartbeat_Variant_1_evicts 0 : 106 1 : 0 2 : 0 3 : 0 
Heartbeat_Variant_2_evicts 0 : 0 1 : 0 2 : 0 3 : 0 
Heartbeat_Variant_3_evicts 0 : 0 1 : 0 2 : 0 3 : 0 
Heartbeat CPU 0 instructions: 80000003 cycles: 35596730 heartbeat IPC: 1.37274 cumulative IPC: 1.38618 (Simulation time: 0 hr 13 min 56 sec) 
Cycle: 40000000 FTQ IN: 13813816 FTQ occupancy: 13.3753 DECODE IN: 13813725 DECODE occupancy: 34.8676 ROB IN: 13813665 ROB occupancy: 239.649 ROB OUT: 13813336
Heartbeat_Variant_0 : 1379 0.33667 per_variant_size: 0 1379 0 0 0 0 0 0 0 
Heartbeat_Variant_1 : 2647 0.64624 per_variant_size: 0 489 2158 0 0 0 0 0 0 
Heartbeat_Variant_2 : 0 0 per_variant_size: 0 0 0 0 0 0 0 0 0 
Heartbeat_Variant_3 : 0 0 per_variant_size: 0 0 0 0 0 0 0 0 0 
Heartbeat_Variant_0_evicts 0 : 5519 1 : 91 2 : 0 3 : 0 
Heartbeat_Variant_1_evicts 0 : 83 1 : 0 2 : 0 3 : 0 
Heartbeat_Variant_2_evicts 0 : 0 1 : 0 2 : 0 3 : 0 
Heartbeat_Variant_3_evicts 0 : 0 1 : 0 2 : 0 3 : 0 
Heartbeat CPU 0 instructions: 90000000 cycles: 42827587 heartbeat IPC: 1.38296 cumulative IPC: 1.38537 (Simulation time: 0 hr 15 min 47 sec) 
Heartbeat_Variant_0 : 1386 0.338379 per_variant_size: 0 1386 0 0 0 0 0 0 0 
Heartbeat_Variant_1 : 2647 0.64624 per_variant_size: 0 476 2171 0 0 0 0 0 0 
Heartbeat_Variant_2 : 0 0 per_variant_size: 0 0 0 0 0 0 0 0 0 
Heartbeat_Variant_3 : 0 0 per_variant_size: 0 0 0 0 0 0 0 0 0 
Heartbeat_Variant_0_evicts 0 : 5460 1 : 60 2 : 0 3 : 0 
Heartbeat_Variant_1_evicts 0 : 55 1 : 0 2 : 0 3 : 0 
Heartbeat_Variant_2_evicts 0 : 0 1 : 0 2 : 0 3 : 0 
Heartbeat_Variant_3_evicts 0 : 0 1 : 0 2 : 0 3 : 0 
Heartbeat CPU 0 instructions: 100000000 cycles: 49977009 heartbeat IPC: 1.39871 cumulative IPC: 1.38802 (Simulation time: 0 hr 17 min 41 sec) 
Finished CPU 0 instructions: 50000001 cycles: 36022598 cumulative IPC: 1.38802 (Simulation time: 0 hr 17 min 41 sec) 

ChampSim completed all CPUs

Region of Interest Statistics

CPU 0 cumulative IPC: 1.38802 instructions: 50000001 cycles: 36022598
 Fetch stage stalled: 51.7139  Sim cycles: 36022598 fetch stall cycle: 18628682
 Empty decode stage: 32.5186  Sim cycles: 36022598 fetch stall cycle: 11714058
ITLB TOTAL     ACCESS:    5856628  HIT:    5410649  MISS:     445979  HIT %:    92.3851  MISS %:    7.61494   MPKI: 8.91958
ITLB LOAD TRANSLATION INSTRUCTION	ACCESS:    5718107  HIT:    5272128  MISS:     445979  HIT %:    92.2006  MISS %:    7.79942  MPKI: 8.91958
ITLB TRANSLATION FROM L1D PREFETCHER INSTRUCTION	ACCESS:     138521  HIT:     138521  MISS:          0  HIT %:        100  MISS %:          0  MPKI: 0

ITLB AVERAGE MISS LATENCY: 9.07637 cycles
ITLB RQ	ACCESS:    7858332	FORWARD:          0	MERGED:    1598833	TO_CACHE:    6259499

DTLB TOTAL     ACCESS:    8832556  HIT:    8366527  MISS:     466029  HIT %:    94.7237  MISS %:    5.27626   MPKI: 9.32058
DTLB LOAD TRANSLATION DATA	ACCESS:    8832556  HIT:    8366527  MISS:     466029  HIT %:    94.7237  MISS %:    5.27626  MPKI: 9.32058

DTLB AVERAGE MISS LATENCY: 9.39203 cycles
DTLB RQ	ACCESS:   13140256	FORWARD:          0	MERGED:    4269948	TO_CACHE:    8870308

STLB TOTAL     ACCESS:    1210528  HIT:    1207659  MISS:       2869  HIT %:     99.763  MISS %:   0.237004   MPKI: 0.05738
STLB LOAD TRANSLATION INSTRUCTION	ACCESS:     445979  HIT:     445478  MISS:        501  HIT %:    99.8877  MISS %:   0.112337  MPKI: 0.01002
STLB LOAD TRANSLATION DATA	ACCESS:     466025  HIT:     463685  MISS:       2340  HIT %:    99.4979  MISS %:   0.502119  MPKI: 0.0468
STLB TRANSLATION FROM L1D PREFETCHER DATA	ACCESS:     298524  HIT:     298496  MISS:         28  HIT %:    99.9906  MISS %: 0.00937948  MPKI: 0.00056

STLB AVERAGE MISS LATENCY: 64.9265 cycles
STLB RQ	ACCESS:    1388195	FORWARD:          0	MERGED:     177603	TO_CACHE:    1210592

STLB Hit, L1D data hit: 0
STLB Hit, L2C data hit: 0
STLB Hit, LLC data hit: 0
STLB Hit, LLC data miss: 0
STLB STLB hints to L2: 0
L1D TOTAL     ACCESS:   12985814  HIT:   11890059  MISS:    1095755  HIT %:    91.5619  MISS %:    8.43809   MPKI: 21.9151
L1D LOAD DATA	ACCESS:    6511429  HIT:    5803643  MISS:     707786  HIT %:    89.1301  MISS %:    10.8699  MPKI: 14.1557
L1D RFO DATA	ACCESS:    6076453  HIT:    5799664  MISS:     276789  HIT %:    95.4449  MISS %:    4.55511  MPKI: 5.53578
L1D PREFETCH DATA	ACCESS:     397932  HIT:     286752  MISS:     111180  HIT %:    72.0606  MISS %:    27.9394  MPKI: 2.2236

L1D PREFETCH  REQUESTED:     952800  ISSUED:     952800  USEFUL:      56865  USELESS:      72624
L1D USEFUL LOAD PREFETCHES:      56865 PREFETCH ISSUED TO LOWER LEVEL:     129527  ACCURACY: 43.902
 TIMELY PREFETCHES:      56865 LATE PREFETCHES: 18305 DROPPED PREFETCHES: 29
L1D AVERAGE MISS LATENCY: 537817 cycles
L1D RQ	ACCESS:   10625732	FORWARD:          0	MERGED:    3922880	TO_CACHE:    6551633
L1D WQ	ACCESS:    6768845	FORWARD:     151645	MERGED:     180222	TO_CACHE:    6588623
L1D PQ	ACCESS:     476613	FORWARD:          0	MERGED:          0	TO_CACHE:     476187

L1D UNIQUE REGIONS ACCESSED: 0
L1D REGIONS CONFLICTS: 0
L1D Cross Page Prefetch Requests: 10617
L1D Same Page Prefetch Requests: 958612
L1D ROI Sum of L1D PQ occupancy: 6046271
L1D PREFETCHES PUSHED FROM L2C: 0
L1I TOTAL     ACCESS:    7085148  HIT:    4572374  MISS:    2512774  HIT %:    64.5346  MISS %:    35.4654   MPKI: 50.2555
L1I LOAD INSTRUCTION	ACCESS:    6390003  HIT:    3877229  MISS:    2512774  HIT %:    60.6765  MISS %:    39.3235  MPKI: 50.2555
L1I PREFETCH INSTRUCTION	ACCESS:     695145  HIT:     695145  MISS:          0  HIT %:        100  MISS %:          0  MPKI: 0

L1I PREFETCH  REQUESTED:    1607708  ISSUED:    1607708  USEFUL:          0  USELESS:          0
L1I USEFUL LOAD PREFETCHES:          0 PREFETCH ISSUED TO LOWER LEVEL:          0  ACCURACY: -nan
 TIMELY PREFETCHES:          0 LATE PREFETCHES: 0 DROPPED PREFETCHES: 0
L1I AVERAGE MISS LATENCY: 17.4189 cycles
L1I RQ	ACCESS:    9488967	FORWARD:          0	MERGED:    2793889	TO_CACHE:    6695078
L1I PQ	ACCESS:    1607708	FORWARD:          0	MERGED:     444454	TO_CACHE:    1163254

L1BTB TOTAL     ACCESS:    5845020  HIT:    2451425  MISS:    3393595  HIT %:    41.9404  MISS %:    58.0596   MPKI: 67.8719
L1BTB BRANCH_DIRECT_JUMP	ACCESS:     590788 HIT:     198016 MISS:     392772 AVERAGE STALL: 44.0106 AVERAGE FETCH STALL: 13.8377 AVERAGE FETCH QUEUE STALL: 12.2904 AVERAGE DECODE STALL: 16.951 AVERAGE EXECUTE STALL: 2.07921e+15
L1BTB BRANCH_INDIRECT	ACCESS:     172329 HIT:      56750 MISS:     115579 AVERAGE STALL: 104.84 AVERAGE FETCH STALL: 10.6586 AVERAGE FETCH QUEUE STALL: 14.8058 AVERAGE DECODE STALL: 11.0992 AVERAGE EXECUTE STALL: 67.3319
L1BTB BRANCH_CONDITIONAL	ACCESS:    2995467 HIT:    1783505 MISS:    1211962 AVERAGE STALL: 66.9975 AVERAGE FETCH STALL: 25.1903 AVERAGE FETCH QUEUE STALL: 23.2461 AVERAGE DECODE STALL: 17.8383 AVERAGE EXECUTE STALL: 3.89995e+15
L1BTB BRANCH_DIRECT_CALL	ACCESS:     883444 HIT:     106633 MISS:     776811 AVERAGE STALL: 70.1306 AVERAGE FETCH STALL: 24.1221 AVERAGE FETCH QUEUE STALL: 28.5284 AVERAGE DECODE STALL: 16.9454 AVERAGE EXECUTE STALL: 9.87513e+15
L1BTB BRANCH_INDIRECT_CALL	ACCESS:     159773 HIT:      20316 MISS:     139457 AVERAGE STALL: 126.149 AVERAGE FETCH STALL: 12.375 AVERAGE FETCH QUEUE STALL: 10.2917 AVERAGE DECODE STALL: 10.2091 AVERAGE EXECUTE STALL: 92.8552
L1BTB BRANCH_RETURN	ACCESS:    1043219 HIT:     286205 MISS:     757014 AVERAGE STALL: 49.1735 AVERAGE FETCH STALL: 17.8351 AVERAGE FETCH QUEUE STALL: 5.78563 AVERAGE DECODE STALL: 6.37365 AVERAGE EXECUTE STALL: 5.61152e+14
L1BTB BRANCH_OTHER ACCESS:          0 HIT:          0 MISS:          0 AVERAGE STALL: -nan AVERAGE FETCH STALL: -nan AVERAGE FETCH QUEUE STALL: -nan AVERAGE DECODE STALL: -nan AVERAGE EXECUTE STALL: -nan
L1BTB TOTAL ROB OCCUPANCY AT BTB MISS: 2.55404

L2BTB TOTAL     ACCESS:    3368194  HIT:    3313839  MISS:      54355  HIT %:    98.3862  MISS %:    1.61377   MPKI: 1.0871
L2BTB BRANCH_DIRECT_JUMP	ACCESS:     387696 HIT:     383899 MISS:       3797 AVERAGE STALL: 44.0106 AVERAGE FETCH STALL: 13.8377 AVERAGE FETCH QUEUE STALL: 12.2904 AVERAGE DECODE STALL: 16.951 AVERAGE EXECUTE STALL: 2.07921e+15
L2BTB BRANCH_INDIRECT	ACCESS:     105766 HIT:     103305 MISS:       2461 AVERAGE STALL: 104.84 AVERAGE FETCH STALL: 10.6586 AVERAGE FETCH QUEUE STALL: 14.8058 AVERAGE DECODE STALL: 11.0992 AVERAGE EXECUTE STALL: 67.3319
L2BTB BRANCH_CONDITIONAL	ACCESS:    1211962 HIT:    1207195 MISS:       4767 AVERAGE STALL: 66.9975 AVERAGE FETCH STALL: 25.1903 AVERAGE FETCH QUEUE STALL: 23.2461 AVERAGE DECODE STALL: 17.8383 AVERAGE EXECUTE STALL: 3.89995e+15
L2BTB BRANCH_DIRECT_CALL	ACCESS:     776811 HIT:     774930 MISS:       1881 AVERAGE STALL: 70.1306 AVERAGE FETCH STALL: 24.1221 AVERAGE FETCH QUEUE STALL: 28.5284 AVERAGE DECODE STALL: 16.9454 AVERAGE EXECUTE STALL: 9.87513e+15
L2BTB BRANCH_INDIRECT_CALL	ACCESS:     129979 HIT:     120386 MISS:       9593 AVERAGE STALL: 126.149 AVERAGE FETCH STALL: 12.375 AVERAGE FETCH QUEUE STALL: 10.2917 AVERAGE DECODE STALL: 10.2091 AVERAGE EXECUTE STALL: 92.8552
L2BTB BRANCH_RETURN	ACCESS:     755980 HIT:     724124 MISS:      31856 AVERAGE STALL: 49.1735 AVERAGE FETCH STALL: 17.8351 AVERAGE FETCH QUEUE STALL: 5.78563 AVERAGE DECODE STALL: 6.37365 AVERAGE EXECUTE STALL: 5.61152e+14
L2BTB BRANCH_OTHER ACCESS:          0 HIT:          0 MISS:          0 AVERAGE STALL: -nan AVERAGE FETCH STALL: -nan AVERAGE FETCH QUEUE STALL: -nan AVERAGE DECODE STALL: -nan AVERAGE EXECUTE STALL: -nan
L2BTB TOTAL ROB OCCUPANCY AT BTB MISS: 159.459

L2C TOTAL     ACCESS:    4182302  HIT:    3676260  MISS:     506042  HIT %:    87.9004  MISS %:    12.0996   MPKI: 10.1208
L2C LOAD INSTRUCTION	ACCESS:    2512774  HIT:    2260314  MISS:     252460  HIT %:    89.9529  MISS %:    10.0471  MPKI: 5.0492
L2C LOAD TRANSLATION INSTRUCTION	ACCESS:        556  HIT:        227  MISS:        329  HIT %:    40.8273  MISS %:    59.1727  MPKI: 0.00658
L2C LOAD DATA	ACCESS:     689331  HIT:     596746  MISS:      92585  HIT %:    86.5689  MISS %:    13.4311  MPKI: 1.8517
L2C RFO DATA	ACCESS:     276715  HIT:     220399  MISS:      56316  HIT %:    79.6484  MISS %:    20.3516  MPKI: 1.12632
L2C PREFETCH DATA	ACCESS:     217206  HIT:     127319  MISS:      89887  HIT %:    58.6167  MISS %:    41.3833  MPKI: 1.79774
L2C WRITEBACK DATA	ACCESS:     483162  HIT:     470520  MISS:      12642  HIT %:    97.3835  MISS %:    2.61651  MPKI: 0.25284
L2C LOAD TRANSLATION DATA	ACCESS:       2492  HIT:        710  MISS:       1782  HIT %:    28.4912  MISS %:    71.5088  MPKI: 0.03564
L2C TRANSLATION FROM L1D PREFETCHER DATA	ACCESS:         66  HIT:         25  MISS:         41  HIT %:    37.8788  MISS %:    62.1212  MPKI: 0.00082

L2C PREFETCH  REQUESTED:      97712  ISSUED:      97712  USEFUL:      11053  USELESS:      79531
L2C USEFUL LOAD PREFETCHES:      11053 PREFETCH ISSUED TO LOWER LEVEL:      90470  ACCURACY: 12.2173
 TIMELY PREFETCHES:      11053 LATE PREFETCHES: 583 DROPPED PREFETCHES: 0
L2C AVERAGE MISS LATENCY: 41.7935 cycles
L2C RQ	ACCESS:    3482120	FORWARD:          0	MERGED:          0	TO_CACHE:    3481938
L2C WQ	ACCESS:     483163	FORWARD:        183	MERGED:          0	TO_CACHE:     483163
L2C PQ	ACCESS:     227239	FORWARD:          0	MERGED:       4311	TO_CACHE:     222927

L2C Dense regions hint from L2: 0
PSCL5 TOTAL     ACCESS:       5796  HIT:       2898  MISS:       2898  HIT %:         50  MISS %:         50   MPKI: 0.05796
PSCL5 LOAD TRANSLATION INSTRUCTION	ACCESS:       5668  HIT:       2834  MISS:       2834  HIT %:         50  MISS %:         50  MPKI: 0.05668
PSCL5 TRANSLATION FROM L1D PREFETCHER INSTRUCTION	ACCESS:        128  HIT:         64  MISS:         64  HIT %:         50  MISS %:         50  MPKI: 0.00128


PSCL4 TOTAL     ACCESS:       5771  HIT:       2885  MISS:       2886  HIT %:    49.9913  MISS %:    50.0087   MPKI: 0.05772
PSCL4 LOAD TRANSLATION INSTRUCTION	ACCESS:       2984  HIT:       2821  MISS:        163  HIT %:    94.5375  MISS %:    5.46247  MPKI: 0.00326
PSCL4 TRANSLATION FROM L1D PREFETCHER INSTRUCTION	ACCESS:         64  HIT:         64  MISS:          0  HIT %:        100  MISS %:          0  MPKI: 0
PSCL4 LOAD TRANSLATION DATA	ACCESS:       2659  HIT:          0  MISS:       2659  HIT %:          0  MISS %:        100  MPKI: 0.05318
PSCL4 TRANSLATION FROM L1D PREFETCHER DATA	ACCESS:         64  HIT:          0  MISS:         64  HIT %:          0  MISS %:        100  MPKI: 0.00128


PSCL3 TOTAL     ACCESS:       5771  HIT:       2885  MISS:       2886  HIT %:    49.9913  MISS %:    50.0087   MPKI: 0.05772
PSCL3 LOAD TRANSLATION INSTRUCTION	ACCESS:       2984  HIT:       2821  MISS:        163  HIT %:    94.5375  MISS %:    5.46247  MPKI: 0.00326
PSCL3 TRANSLATION FROM L1D PREFETCHER INSTRUCTION	ACCESS:         64  HIT:         64  MISS:          0  HIT %:        100  MISS %:          0  MPKI: 0
PSCL3 LOAD TRANSLATION DATA	ACCESS:       2659  HIT:          0  MISS:       2659  HIT %:          0  MISS %:        100  MPKI: 0.05318
PSCL3 TRANSLATION FROM L1D PREFETCHER DATA	ACCESS:         64  HIT:          0  MISS:         64  HIT %:          0  MISS %:        100  MPKI: 0.00128


PSCL2 TOTAL     ACCESS:       5581  HIT:       2684  MISS:       2897  HIT %:    48.0917  MISS %:    51.9083   MPKI: 0.05794
PSCL2 LOAD TRANSLATION INSTRUCTION	ACCESS:       3122  HIT:       2622  MISS:        500  HIT %:    83.9846  MISS %:    16.0154  MPKI: 0.01
PSCL2 TRANSLATION FROM L1D PREFETCHER INSTRUCTION	ACCESS:         62  HIT:         62  MISS:          0  HIT %:        100  MISS %:          0  MPKI: 0
PSCL2 LOAD TRANSLATION DATA	ACCESS:       2335  HIT:          0  MISS:       2335  HIT %:          0  MISS %:        100  MPKI: 0.0467
PSCL2 TRANSLATION FROM L1D PREFETCHER DATA	ACCESS:         62  HIT:          0  MISS:         62  HIT %:          0  MISS %:        100  MPKI: 0.00124


LLC TOTAL     ACCESS:     576645  HIT:     537428  MISS:      39217  HIT %:    93.1991  MISS %:    6.80089   MPKI: 0.78434
LLC LOAD INSTRUCTION	ACCESS:     252460  HIT:     251311  MISS:       1149  HIT %:    99.5449  MISS %:   0.455122  MPKI: 0.02298
LLC LOAD TRANSLATION INSTRUCTION	ACCESS:        329  HIT:        295  MISS:         34  HIT %:    89.6657  MISS %:    10.3343  MPKI: 0.00068
LLC LOAD DATA	ACCESS:      92017  HIT:      86917  MISS:       5100  HIT %:    94.4575  MISS %:    5.54245  MPKI: 0.102
LLC RFO DATA	ACCESS:      56284  HIT:      37412  MISS:      18872  HIT %:      66.47  MISS %:      33.53  MPKI: 0.37744
LLC PREFETCH DATA	ACCESS:      90470  HIT:      76855  MISS:      13615  HIT %:    84.9508  MISS %:    15.0492  MPKI: 0.2723
LLC WRITEBACK DATA	ACCESS:      83262  HIT:      82915  MISS:        347  HIT %:    99.5832  MISS %:   0.416757  MPKI: 0.00694
LLC LOAD TRANSLATION DATA	ACCESS:       1782  HIT:       1686  MISS:         96  HIT %:    94.6128  MISS %:    5.38721  MPKI: 0.00192
LLC TRANSLATION FROM L1D PREFETCHER DATA	ACCESS:         41  HIT:         37  MISS:          4  HIT %:    90.2439  MISS %:     9.7561  MPKI: 8e-05

LLC AVERAGE MISS LATENCY: 161.08 cycles
LLC RQ	ACCESS:     402930	FORWARD:          0	MERGED:          0	TO_CACHE:     402913
LLC WQ	ACCESS:      83262	FORWARD:         17	MERGED:          0	TO_CACHE:      83262
LLC PQ	ACCESS:      90470	FORWARD:          0	MERGED:          0	TO_CACHE:      90470

LLC Dense regions hint to LLC: 0

RAW hits: 1829712
Loads Generated: 12455444
Loads sent to L1D: 10625732
Stores Generated: 6768846
Stores sent to L1D: 6768845
Major fault: 0 Minor fault: 2501
Allocated PAGES: 2501

stream: 
stream:times selected: 1492686
stream:pref_filled: 126692
stream:pref_useful: 29303
stream:pref_late: 10157
stream:misses: 13047
stream:misses_by_poll: 0

CS: 
CS:times selected: 237057
CS:pref_filled: 85021
CS:pref_useful: 60020
CS:pref_late: 10735
CS:misses: 28742
CS:misses_by_poll: 8

CPLX: 
CPLX:times selected: 1253482
CPLX:pref_filled: 28523
CPLX:pref_useful: 9058
CPLX:pref_late: 5088
CPLX:misses: 146786
CPLX:misses_by_poll: 1

NL_L1: 
NL:times selected: 29629
NL:pref_filled: 1866
NL:pref_useful: 880
NL:pref_late: 787
NL:misses: 3824
NL:misses_by_poll: 0

total selections: 3012854
total_filled: 111180
total_useful: 56865
total_late: 30046
total_polluted: 9
total_misses_after_warmup: 747991
conflicts: 5217013

test: 179594

DRAM Statistics
 CHANNEL 0
 RQ ROW_BUFFER_HIT:      13860  ROW_BUFFER_MISS:      25006
 DBUS_CONGESTED:         13
 WQ ROW_BUFFER_HIT:       2288  ROW_BUFFER_MISS:      18700  FULL:          0

 AVG_CONGESTED_CYCLE: 6

CPU 0 Branch Prediction Accuracy: 99.7649% MPKI: 0.4307 Average ROB Occupancy at Mispredict: 185.751
Branch types
NOT_BRANCH: 40840071 81.6801%
BRANCH_DIRECT_JUMP: 590788 1.18158%
BRANCH_INDIRECT: 172329 0.344658%
BRANCH_CONDITIONAL: 6310324 12.6206%
BRANCH_DIRECT_CALL: 883444 1.76689%
BRANCH_INDIRECT_CALL: 159773 0.319546%
BRANCH_RETURN: 1043219 2.08644%
BRANCH_OTHER: 0 0%

DRAM PAGES: 1048576
Allocated PAGES: 2501
Average_ROB_Occupancy: 241.145
Average_Decode_Occupancy: 34.9538
Average_FTQ_Occupancy: 13.3654
Indirect max targets: 14 Average targets: 1.14626
Branch_type:  BRANCH_DIRECT_JUMP:  Count Percentage: 8.89503 5.97182 4.49273 11.4118 1.74309 4.40078 1.66028 61.4244 
Branch_type:  BRANCH_INDIRECT:  Count Percentage: 5.47426 1.18803 3.76243 3.51341 1.37045 0 3.90894 80.7825 
Branch_type:  BRANCH_CONDITIONAL:  Count Percentage: 25.8239 2.42373 2.46594 5.45136 1.33318 5.21568 3.08549 54.2007 
Branch_type:  BRANCH_DIRECT_CALL:  Count Percentage: 0.344157 1.52674 1.69165 5.75772 1.96458 1.87186 3.14337 83.6999 
Branch_type:  BRANCH_INDIRECT_CALL:  Count Percentage: 8.70415 0 2.96305 11.2417 0 2.46571 5.35099 69.2744 
Branch_type:  BRANCH_RETURN:  Count Percentage: 4.71225 1.36448 0.87391 7.64569 2.03093 6.06335 4.80106 72.5083 
Branch_type:  BRANCH_DIRECT_JUMP:  Total Count: 105056 70531 53062 134781 20587 51976 19609 725462 
Branch_type:  BRANCH_INDIRECT:  Total Count: 18906 4103 12994 12134 4733 0 13500 278992 
Branch_type:  BRANCH_CONDITIONAL:  Total Count: 3257822 305766 311091 687717 168188 657985 389251 6837694 
Branch_type:  BRANCH_DIRECT_CALL:  Total Count: 6073 26941 29851 101601 34667 33031 55468 1476972 
Branch_type:  BRANCH_INDIRECT_CALL:  Total Count: 27757 0 9449 35849 0 7863 17064 220912 
Branch_type:  BRANCH_RETURN:  Total Count: 98218 28440 18215 159360 42331 126379 100069 1511299 
Number of unique branch instructions: 9878
Upper 32 bits: 
aaaa
ffff
ffff0000
Unique upper 32 bits: 3
Unique upper 36 bits: 3
Unique upper 40 bits: 5
Unique upper 44 bits: 32
Unique upper 48 bits: 153
Variant_0 : 1386 0.338379
Variant_1 : 2647 0.64624
Variant_2 : 0 0
Variant_3 : 0 0
Offset_3 4067
Offset_4 238
Offset_5 460
Offset_6 501
Offset_7 585
Offset_8 501
Offset_9 471
Offset_10 368
Offset_11 328
Offset_12 289
Offset_13 205
Offset_14 227
Offset_15 188
Offset_16 222
Offset_17 145
Offset_18 123
Offset_19 229
Offset_20 138
Offset_21 239
Offset_22 394
Offset_23 241
Offset_24 333
Offset_25 88
Offset_47 82
Offset_64 1
decode_dispatch_called: 25593514 71.0485
Dispatch_width: 0 13758380 53.7573 38.1937
Dispatch_width: 1 951679 3.71844 2.64189
Dispatch_width: 2 846624 3.30796 2.35026
Dispatch_width: 3 488900 1.91025 1.3572
Dispatch_width: 4 5626784 21.9852 15.6202
Dispatch_width: 5 145644 0.569066 0.404313
Dispatch_width: 6 3775503 14.7518 10.4809
Empty_decode_cycles: 10429084 28.9515
ROB_full_cycles: 9009832 25.0116
Starvation_cycles_per_kilo_instr: 232.373
Starvation_cycles_per_kilo_instr_3: 174.648
Starvation_cycles_per_kilo_instr_0: 151.776
Branch_type_1  (3,1)  (4,8)  (5,35)  (6,68)  (7,115)  (8,129)  (9,123)  (10,89)  (11,74)  (12,52)  (13,6)  (14,2)  (15,3)  (16,4)  (18,1)  (19,4)  (20,2)  (21,1)  (22,3)  (23,2)  (24,10)  (25,12) 
Branch_type_2  (3,1)  (5,1)  (8,2)  (9,3)  (12,1)  (13,1)  (14,1)  (16,3)  (17,2)  (20,2)  (21,2)  (23,5)  (24,1)  (47,38) 
Branch_type_3  (3,4065)  (4,230)  (5,420)  (6,418)  (7,440)  (8,311)  (9,262)  (10,151)  (11,136)  (12,62)  (13,5)  (64,1) 
Branch_type_4  (6,3)  (7,8)  (8,25)  (9,50)  (10,60)  (11,60)  (12,96)  (13,88)  (14,103)  (15,89)  (16,99)  (17,65)  (18,57)  (19,112)  (20,71)  (21,127)  (22,209)  (23,136)  (24,194)  (25,72) 
Branch_type_5  (8,2)  (9,1)  (10,3)  (11,5)  (12,3)  (13,14)  (14,16)  (15,11)  (16,20)  (17,11)  (18,16)  (19,12)  (20,10)  (21,13)  (22,42)  (23,26)  (24,36) 
Branch_type_6  (5,4)  (6,12)  (7,22)  (8,32)  (9,32)  (10,65)  (11,53)  (12,75)  (13,91)  (14,105)  (15,85)  (16,96)  (17,67)  (18,49)  (19,101)  (20,53)  (21,96)  (22,140)  (23,72)  (24,92)  (25,4)  (47,44) 
Unique trigger count: 
Variant_0_evicts_0 : 0
Variant_0_evicts_1 : 0
Variant_0_evicts_2 : 0
Variant_0_evicts_3 : 0
Variant_1_evicts_0 : 0
Variant_1_evicts_1 : 0
Variant_1_evicts_2 : 0
Variant_1_evicts_3 : 0
Variant_2_evicts_0 : 0
Variant_2_evicts_1 : 0
Variant_2_evicts_2 : 0
Variant_2_evicts_3 : 0
Variant_3_evicts_0 : 0
Variant_3_evicts_1 : 0
Variant_3_evicts_2 : 0
Variant_3_evicts_3 : 0
BTB PER SET UNIQUE ADDR: 13 11 9 8 12 10 9 10 6 12 8 10 11 12 6 8 11 10 11 12 9 11 12 11 7 10 15 11 12 11 11 9 10 8 7 8 12 11 5 6 9 10 11 18 7 13 9 9 11 10 14 9 13 10 11 7 6 9 8 7 11 12 12 9 13 11 13 7 12 6 12 11 13 8 11 6 7 12 9 11 13 8 7 14 11 10 12 10 8 12 10 8 10 8 10 11 7 7 14 11 16 11 9 10 12 10 10 12 6 9 7 10 9 7 7 7 10 13 7 6 13 7 10 10 12 9 8 8 13 11 7 13 9 13 11 10 11 14 9 16 9 8 10 9 9 10 7 9 8 9 9 9 7 10 11 10 11 11 15 10 8 8 10 12 9 9 12 8 12 7 9 12 11 11 12 6 10 9 10 12 8 8 8 12 12 17 5 9 9 9 10 9 5 13 11 10 10 8 8 9 9 11 11 11 7 5 12 8 11 12 12 8 12 8 7 13 10 13 11 10 7 9 9 9 7 12 10 13 6 9 9 8 10 11 6 11 9 7 11 7 9 8 8 9 8 10 7 8 14 8 10 10 12 9 11 13 7 9 8 12 12 7 8 9 10 9 11 8 10 10 11 12 8 6 11 7 8 10 13 9 9 12 7 10 14 4 8 10 11 13 8 8 8 11 8 13 11 10 9 8 8 10 6 12 13 12 9 12 12 8 8 14 8 16 10 7 13 12 6 9 8 9 9 11 11 12 9 7 10 10 11 13 8 10 11 12 8 9 6 15 8 13 6 12 9 10 10 9 11 11 14 11 11 12 9 7 7 10 6 8 10 16 6 12 7 9 7 9 8 11 5 9 9 9 11 9 13 12 9 11 12 4 9 13 11 12 12 12 9 9 7 10 13 16 8 9 8 6 12 11 7 12 11 9 13 15 13 15 11 13 11 8 9 14 10 12 9 12 11 9 8 16 11 12 9 10 8 12 9 9 12 12 8 7 14 14 12 7 10 9 12 9 9 15 13 12 10 9 10 10 8 9 11 11 11 12 10 9 8 11 8 9 10 10 12 9 10 12 11 12 12 12 9 10 11 12 12 11 9 5 10 13 10 8 8 14 17 12 10 14 9 10 10 7 9 11 13 14 9 12 11 12 11 8 10 8 10 11 10 12 12 11 9 7 8 10 9 14 7 9 6 5 11 10 12 13 12 10 8 12 12 10 12 8 14 12 5 11 11 11 13 10 10 7 10 11 9 12 9 10 10 10 10 11 11 9 15 9 14 13 9 18 10 10 10 16 10 11 6 17 10 11 11 11 10 12 10 13 7 9 8 10 7 10 12 9 7 8 9 7 10 13 12 11 8 10 10 13 10 14 10 13 9 5 12 10 14 11 11 12 11 8 7 10 7 11 9 10 6 10 16 10 7 8 10 12 7 10 7 12 10 9 9 15 6 9 8 13 7 8 9 7 11 10 9 9 10 8 14 7 8 9 7 6 14 11 9 13 9 14 12 6 11 11 9 10 8 14 5 7 8 10 12 10 11 12 15 10 9 9 6 7 10 15 11 11 9 9 8 12 12 13 11 8 8 8 10 12 11 13 7 16 13 8 5 14 11 11 10 8 11 10 9 13 8 8 12 10 11 10 10 10 9 11 9 12 9 6 8 11 12 8 10 8 10 9 7 11 10 11 9 8 12 11 8 11 12 9 12 7 14 13 10 10 8 7 10 10 8 9 13 5 7 9 11 8 8 10 8 11 11 11 7 8 13 8 8 10 12 9 7 9 9 8 7 8 11 10 7 6 6 5 10 8 12 12 9 10 14 8 17 12 11 13 9 10 15 10 11 7 9 16 11 10 10 12 12 8 8 11 10 11 6 10 13 11 6 12 13 9 8 12 10 9 9 13 14 11 7 11 13 10 11 10 9 17 12 12 8 10 12 7 11 11 12 12 9 8 8 12 11 8 9 7 11 5 11 4 13 12 7 13 10 8 13 5 10 10 8 8 11 9 9 12 8 10 11 11 10 12 13 7 7 8 9 13 12 12 13 9 11 13 9 11 4 8 8 9 10 12 13 9 8 10 11 12 13 9 11 9 9 12 11 8 7 9 6 6 8 13 9 12 10 10 8 12 10 16 14 13 7 14 11 6 10 12 13 13 6 12 11 9 9 12 8 14 10 11 17 12 10 11 11 12 6 10 14 10 8 10 10 7 12 12 12 12 12 10 11 11 9 15 9 9 10 15 12 9 10 9 13 9 7 12 9 7 8 11 15 10 12 15 11 7 10 10 5 12 11 10 9 7 7 6 9 8 3 11 5 9 11 14 11 9 
BTB PER SET COUNT: 1387 14 2106 9 685 13 674 12 1092 12 9 10 150 16 6 8 42 10 14 17 11 16 384 15 12 12 22 12 254 15 14 9 12 12 7 11 20 11 5 6 11 14 16 31 1053 18 10 9 14 335 25 313 18 18 18 285 8 10 310 7 11 12 21 9 32 15 15 11 13 6 1105 13 15 11 12 7 13 1274 15 12 1384 10 9 21 18 10 16 12 949 15 10 10 10 15 14 11 1426 8 15 13 20 12 10 17 1351 12 12 14 6 24 7 20 13 11 7 1780 10 17 1093 672 17 7 13 11 12 87 10 10 16 801 10 4070 14 23 13 13 13 19 33 21 25 8 16 9 10 16 8 11 10 11 13 9 614 12 19 14 12 11 15 12 9 11 13 13 876 14 22 8 16 1371 15 17 13 22 16 6 11 11 10 14 10 9 852 15 48 18 7 10 78 236 14 16 6 17 12 14 14 819 8 9 14 12 677 14 7 5 15 338 98 15 12 10 17 8243 10 18 14 356 2099 27 9 11 149 9 8 17 13 17 6 12 12 9 11 13 6 16013 84 7 14 8 13 8 10 11 12 13 7 9 155 9 17 10 14 9 18 18 80 10 8 16 14 7 10 62 10 10 14 8 567 15 12 15 118 6 15 1935 9 10 14 144 10 16 10 741 15 4 8 10 12 16 11 9 12 488 23 23 440 10 9 739 8 11 6 15 16 199 9 62 16 1377 676 22 9 35 1478 12 16 22 6 17 14 1574 10 15 13 591 10 10 12 16 12 31 61 13 14 16 9 100 8 22 12 216 7 372 11 14 10 14 13 163 16 54 17 16 10 8 7 12 7 25 11 19 6 17 7 58 7 10 11 17 5 288 11 9 99 9 17 13 13 13 861 4 13 17 14 12 18 15 10 12 8 10 16 1249 13 737 10 8 943 15 15 15 11 12 16 21 15 71 15 19 1102 9 9 361 10 15 11 2917 15 11 8 20 60 15 9 10 9 16 10 9 15 15 12 9 18 24 14 32 11 13 234 12 13 17 25 280 378 12 14 10 11 3457 11 13 13 2096 12 15 1142 16 24 9 12 21 17 64 2645 14 13 13 15 16 12 12 11 13 17 14 12 12 11 427 13 14 469 492 19 16 15 19 10 13 679 8 9 31 423 96 9 14 18 17 16 10 14 8 53 14 13 12 454 14 9 347 8 11 10 15 8 69 6 5 12 11 14 14 1817 1105 10 1933 14 10 39 9 20 21 6 15 24 798 17 13 47 11 15 11 11 16 13 1950 11 13 677 12 14 10 19 9 17 28 9 72 11 23 10 23 11 14 6 23 10 11 13 14 10 15 14 20 7 13 8 12 7 2176 13 11 9 8 10 9 15 16 14 15 8 11 1732 36 184 18 13 17 12 6 33 13 22 15 11 14 21 1098 10 15 9 17 9 13 8 11 30 14 7 9 12 12 7 11 7 609 16 12 9 20 6 10 10 1251 9 8 9 7 11 97 192 10 390 10 21 7 9 10 9 6 20 14 9 15 10 106 14 6 13 11 14 14 12 1068 1093 9 9 20 280 11 20 481 25 14 9 10 6 11 12 30 2757 13 11 10 8 41 19 15 11 15 1704 10 11 209 15 13 587 24 22 12 7 16 14 19 12 13 48 13 979 17 10 85 847 16 14 14 12 185 10 1736 9 17 9 6 275 179 17 9 13 131 13 1141 429 13 16 21 9 19 432 18 9 14 2718 10 15 7 18 16 923 1101 9 7 12 1098 12 11 16 6 7 11 29 13 8 13 13 290 12 12 9 8 17 8 10 10 16 11 1737 10 10 8 8 10 15 10 8 12 6 254 12 9 801 18 9 11 17 827 19 18 47 13 314 12 23 14 14 51 9 9546 16 12 13 16 434 10 13 14 10 11 35 11 20 15 10 12 15 13 10 17 11 11 75 19 18 11 8 338 15 910 12 12 1339 25 19 22 9 12 298 167 16 14 16 17 11 11 13 16 1382 8 12 7 586 7 12 4 19 17 7 18 11 11 92 5 17 12 9 11 11 9 92 13 8 90 12 16 14 19 14 2057 19 18 10 18 17 22 21 11 14 17 9 212 4 10 8 9 119 13 173 9 9 15 17 538 17 14 13 15 10 872 14 11 9 15 9 6 8 19 10 14 13 21 8 656 11 71 1103 24 7 178 11 7 11 386 14 18 6 14 14 13 13 19 8 20 11 12 43 22 100 20 390 14 6 34 18 10 8 10 10 9 18 14 21 13 23 12 401 13 9 1985 11 681 10 38 16 14 15 10 18 1079 7 1585 1104 7 13 1065 19 12 16 24 19 11 30 14 5 13 18 589 17 7 11 7 9 11 3 12 5 12 11 331 13 11 
To predecode: 0
Predecoding something: 0
Predecode request dropped: 0
sizeofblock_0 0
sizeofblock_1 57067
sizeofblock_2 61470
sizeofblock_3 0
sizeofblock_4 0
sizeofblock_5 0
sizeofblock_6 0
sizeofblock_7 0
sizeofblock_8 0
Variant_0 Correct: 1523905 Incorrect: 0 Accuracy: 1
Variant_1 Correct: 5315232 Incorrect: 0 Accuracy: 1
Variant_2 Correct: 0 Incorrect: 0 Accuracy: -nan
Variant_3 Correct: 0 Incorrect: 0 Accuracy: -nan
