
*** ChampSim Multicore Out-of-Order Simulator ***

Warmup Instructions: 50000000
Simulation Instructions: 50000000
Number of CPUs: 1
LLC sets: 2048
LLC ways: 16
Off-chip DRAM Size: 4096 MB Channels: 1 Width: 64-bit Data Rate: 6400 MT/s
CPU 0 runs ./micro_traces/srv109.trace.gz
.gz
ITLB has LRU replacement policy
DTLB has LRU replacement policy
STLB has LRU replacement policy
FDIP Prefetcher at L1I
L1I has LRU replacement policy
L1D has LRU replacement policy
Initialize SRRIP state for L2C
Initialize DRRIP state for LLC
Heartbeat_Variant_0 : 1078 0.263184 per_variant_size: 0 1078 0 0 0 0 0 0 0 
Heartbeat_Variant_1 : 1200 0.292969 per_variant_size: 0 832 368 0 0 0 0 0 0 
Heartbeat_Variant_2 : 1562 0.381348 per_variant_size: 0 914 421 160 67 0 0 0 0 
Heartbeat_Variant_3 : 0 0 per_variant_size: 0 0 0 0 0 0 0 0 0 
Heartbeat_Variant_0_evicts 0 : 13149 1 : 9384 2 : 11479 3 : 0 
Heartbeat_Variant_1_evicts 0 : 9355 1 : 0 2 : 11179 3 : 0 
Heartbeat_Variant_2_evicts 0 : 11448 1 : 11155 2 : 0 3 : 0 
Heartbeat_Variant_3_evicts 0 : 0 1 : 0 2 : 0 3 : 0 
Heartbeat CPU 0 instructions: 10000001 cycles: 2797554 heartbeat IPC: 3.57455 cumulative IPC: 3.57455 (Simulation time: 0 hr 2 min 6 sec) 
Heartbeat_Variant_0 : 1063 0.259521 per_variant_size: 0 1063 0 0 0 0 0 0 0 
Heartbeat_Variant_1 : 1251 0.30542 per_variant_size: 0 865 386 0 0 0 0 0 0 
Heartbeat_Variant_2 : 1531 0.373779 per_variant_size: 0 897 412 155 67 0 0 0 0 
Heartbeat_Variant_3 : 0 0 per_variant_size: 0 0 0 0 0 0 0 0 0 
Heartbeat_Variant_0_evicts 0 : 13662 1 : 9408 2 : 11677 3 : 0 
Heartbeat_Variant_1_evicts 0 : 9358 1 : 0 2 : 10805 3 : 0 
Heartbeat_Variant_2_evicts 0 : 11742 1 : 10705 2 : 0 3 : 0 
Heartbeat_Variant_3_evicts 0 : 0 1 : 0 2 : 0 3 : 0 
Heartbeat CPU 0 instructions: 20000003 cycles: 5593496 heartbeat IPC: 3.57661 cumulative IPC: 3.57558 (Simulation time: 0 hr 4 min 0 sec) 
Heartbeat_Variant_0 : 1052 0.256836 per_variant_size: 0 1052 0 0 0 0 0 0 0 
Heartbeat_Variant_1 : 1246 0.304199 per_variant_size: 0 838 408 0 0 0 0 0 0 
Heartbeat_Variant_2 : 1565 0.38208 per_variant_size: 0 882 455 152 76 0 0 0 0 
Heartbeat_Variant_3 : 0 0 per_variant_size: 0 0 0 0 0 0 0 0 0 
Heartbeat_Variant_0_evicts 0 : 13519 1 : 9505 2 : 11448 3 : 0 
Heartbeat_Variant_1_evicts 0 : 9525 1 : 0 2 : 11261 3 : 0 
Heartbeat_Variant_2_evicts 0 : 11441 1 : 11296 2 : 0 3 : 0 
Heartbeat_Variant_3_evicts 0 : 0 1 : 0 2 : 0 3 : 0 
Heartbeat CPU 0 instructions: 30000001 cycles: 8390619 heartbeat IPC: 3.5751 cumulative IPC: 3.57542 (Simulation time: 0 hr 5 min 56 sec) 
Heartbeat_Variant_0 : 1050 0.256348 per_variant_size: 0 1050 0 0 0 0 0 0 0 
Heartbeat_Variant_1 : 1243 0.303467 per_variant_size: 0 839 404 0 0 0 0 0 0 
Heartbeat_Variant_2 : 1573 0.384033 per_variant_size: 0 919 431 160 63 0 0 0 0 
Heartbeat_Variant_3 : 0 0 per_variant_size: 0 0 0 0 0 0 0 0 0 
Heartbeat_Variant_0_evicts 0 : 13301 1 : 9589 2 : 11545 3 : 0 
Heartbeat_Variant_1_evicts 0 : 9541 1 : 0 2 : 11067 3 : 0 
Heartbeat_Variant_2_evicts 0 : 11595 1 : 11022 2 : 0 3 : 0 
Heartbeat_Variant_3_evicts 0 : 0 1 : 0 2 : 0 3 : 0 
Heartbeat CPU 0 instructions: 40000001 cycles: 11187355 heartbeat IPC: 3.5756 cumulative IPC: 3.57547 (Simulation time: 0 hr 7 min 55 sec) 
Heartbeat_Variant_0 : 1064 0.259766 per_variant_size: 0 1064 0 0 0 0 0 0 0 
Heartbeat_Variant_1 : 1217 0.297119 per_variant_size: 0 813 404 0 0 0 0 0 0 
Heartbeat_Variant_2 : 1587 0.387451 per_variant_size: 0 925 438 158 66 0 0 0 0 
Heartbeat_Variant_3 : 0 0 per_variant_size: 0 0 0 0 0 0 0 0 0 
Heartbeat_Variant_0_evicts 0 : 13496 1 : 9494 2 : 11671 3 : 0 
Heartbeat_Variant_1_evicts 0 : 9478 1 : 0 2 : 11007 3 : 0 
Heartbeat_Variant_2_evicts 0 : 11673 1 : 11019 2 : 0 3 : 0 
Heartbeat_Variant_3_evicts 0 : 0 1 : 0 2 : 0 3 : 0 
Heartbeat CPU 0 instructions: 50000000 cycles: 13985059 heartbeat IPC: 3.57436 cumulative IPC: 3.57524 (Simulation time: 0 hr 9 min 57 sec) 

Warmup complete CPU 0 instructions: 50000004 cycles: 13985060 (Simulation time: 0 hr 9 min 57 sec) 

Cycle: 20000000 FTQ IN: 56490049 FTQ occupancy: 17.9636 DECODE IN: 56490029 DECODE occupancy: 45.8866 ROB IN: 56490029 ROB occupancy: 276.263 ROB OUT: 56490025
Heartbeat_Variant_0 : 1065 0.26001 per_variant_size: 0 1065 0 0 0 0 0 0 0 
Heartbeat_Variant_1 : 1254 0.306152 per_variant_size: 0 858 396 0 0 0 0 0 0 
Heartbeat_Variant_2 : 1561 0.381104 per_variant_size: 0 901 429 167 64 0 0 0 0 
Heartbeat_Variant_3 : 0 0 per_variant_size: 0 0 0 0 0 0 0 0 0 
Heartbeat_Variant_0_evicts 0 : 13490 1 : 9652 2 : 11666 3 : 0 
Heartbeat_Variant_1_evicts 0 : 9625 1 : 0 2 : 11481 3 : 0 
Heartbeat_Variant_2_evicts 0 : 11694 1 : 11424 2 : 0 3 : 0 
Heartbeat_Variant_3_evicts 0 : 0 1 : 0 2 : 0 3 : 0 
Heartbeat CPU 0 instructions: 60000000 cycles: 23227639 heartbeat IPC: 1.08195 cumulative IPC: 1.08195 (Simulation time: 0 hr 11 min 41 sec) 
Cycle: 30000000 FTQ IN: 10827532 FTQ occupancy: 6.43339 DECODE IN: 10827487 DECODE occupancy: 13.3906 ROB IN: 10827487 ROB occupancy: 112.036 ROB OUT: 10827401
Heartbeat_Variant_0 : 1062 0.259277 per_variant_size: 0 1062 0 0 0 0 0 0 0 
Heartbeat_Variant_1 : 1259 0.307373 per_variant_size: 0 842 417 0 0 0 0 0 0 
Heartbeat_Variant_2 : 1561 0.381104 per_variant_size: 0 884 441 163 73 0 0 0 0 
Heartbeat_Variant_3 : 0 0 per_variant_size: 0 0 0 0 0 0 0 0 0 
Heartbeat_Variant_0_evicts 0 : 13509 1 : 9763 2 : 11846 3 : 0 
Heartbeat_Variant_1_evicts 0 : 9788 1 : 0 2 : 11227 3 : 0 
Heartbeat_Variant_2_evicts 0 : 11824 1 : 11247 2 : 0 3 : 0 
Heartbeat_Variant_3_evicts 0 : 0 1 : 0 2 : 0 3 : 0 
Heartbeat CPU 0 instructions: 70000001 cycles: 32500922 heartbeat IPC: 1.07837 cumulative IPC: 1.08015 (Simulation time: 0 hr 13 min 27 sec) 
Cycle: 40000000 FTQ IN: 10818597 FTQ occupancy: 6.241 DECODE IN: 10818652 DECODE occupancy: 12.8817 ROB IN: 10818652 ROB occupancy: 106.459 ROB OUT: 10818588
Heartbeat_Variant_0 : 1049 0.256104 per_variant_size: 0 1049 0 0 0 0 0 0 0 
Heartbeat_Variant_1 : 1257 0.306885 per_variant_size: 0 846 411 0 0 0 0 0 0 
Heartbeat_Variant_2 : 1578 0.385254 per_variant_size: 0 913 435 164 66 0 0 0 0 
Heartbeat_Variant_3 : 0 0 per_variant_size: 0 0 0 0 0 0 0 0 0 
Heartbeat_Variant_0_evicts 0 : 14133 1 : 10015 2 : 12248 3 : 0 
Heartbeat_Variant_1_evicts 0 : 9988 1 : 0 2 : 11743 3 : 0 
Heartbeat_Variant_2_evicts 0 : 12288 1 : 11719 2 : 0 3 : 0 
Heartbeat_Variant_3_evicts 0 : 0 1 : 0 2 : 0 3 : 0 
Heartbeat CPU 0 instructions: 80000002 cycles: 41729113 heartbeat IPC: 1.08364 cumulative IPC: 1.08131 (Simulation time: 0 hr 15 min 15 sec) 
Cycle: 50000000 FTQ IN: 10756343 FTQ occupancy: 6.42711 DECODE IN: 10756353 DECODE occupancy: 13.3259 ROB IN: 10756353 ROB occupancy: 108.746 ROB OUT: 10756296
Heartbeat_Variant_0 : 1050 0.256348 per_variant_size: 0 1050 0 0 0 0 0 0 0 
Heartbeat_Variant_1 : 1242 0.303223 per_variant_size: 0 836 406 0 0 0 0 0 0 
Heartbeat_Variant_2 : 1594 0.38916 per_variant_size: 0 922 444 161 67 0 0 0 0 
Heartbeat_Variant_3 : 0 0 per_variant_size: 0 0 0 0 0 0 0 0 0 
Heartbeat_Variant_0_evicts 0 : 13875 1 : 9912 2 : 11972 3 : 0 
Heartbeat_Variant_1_evicts 0 : 9876 1 : 0 2 : 11493 3 : 0 
Heartbeat_Variant_2_evicts 0 : 12007 1 : 11474 2 : 0 3 : 0 
Heartbeat_Variant_3_evicts 0 : 0 1 : 0 2 : 0 3 : 0 
Heartbeat CPU 0 instructions: 90000002 cycles: 51024604 heartbeat IPC: 1.07579 cumulative IPC: 1.07993 (Simulation time: 0 hr 17 min 12 sec) 
Cycle: 60000000 FTQ IN: 10882984 FTQ occupancy: 6.22861 DECODE IN: 10882984 DECODE occupancy: 12.9368 ROB IN: 10882982 ROB occupancy: 108.054 ROB OUT: 10882995
Heartbeat_Variant_0 : 1077 0.262939 per_variant_size: 0 1077 0 0 0 0 0 0 0 
Heartbeat_Variant_1 : 1263 0.30835 per_variant_size: 0 850 413 0 0 0 0 0 0 
Heartbeat_Variant_2 : 1549 0.378174 per_variant_size: 0 872 434 183 60 0 0 0 0 
Heartbeat_Variant_3 : 0 0 per_variant_size: 0 0 0 0 0 0 0 0 0 
Heartbeat_Variant_0_evicts 0 : 13842 1 : 10196 2 : 12127 3 : 0 
Heartbeat_Variant_1_evicts 0 : 10080 1 : 0 2 : 11609 3 : 0 
Heartbeat_Variant_2_evicts 0 : 12216 1 : 11474 2 : 0 3 : 0 
Heartbeat_Variant_3_evicts 0 : 0 1 : 0 2 : 0 3 : 0 
Heartbeat CPU 0 instructions: 100000001 cycles: 60238525 heartbeat IPC: 1.08531 cumulative IPC: 1.081 (Simulation time: 0 hr 18 min 59 sec) 
Finished CPU 0 instructions: 50000001 cycles: 46253466 cumulative IPC: 1.081 (Simulation time: 0 hr 18 min 59 sec) 

ChampSim completed all CPUs

Region of Interest Statistics

CPU 0 cumulative IPC: 1.081 instructions: 50000001 cycles: 46253466
 Fetch stage stalled: 72.6726  Sim cycles: 46253466 fetch stall cycle: 33613592
 Empty decode stage: 64.1076  Sim cycles: 46253466 fetch stall cycle: 29652003
ITLB TOTAL     ACCESS:    5740603  HIT:    5246632  MISS:     493971  HIT %:    91.3951  MISS %:    8.60486   MPKI: 9.87942
ITLB LOAD TRANSLATION INSTRUCTION	ACCESS:    5638154  HIT:    5144183  MISS:     493971  HIT %:    91.2388  MISS %:    8.76122  MPKI: 9.87942
ITLB TRANSLATION FROM L1D PREFETCHER INSTRUCTION	ACCESS:     102449  HIT:     102449  MISS:          0  HIT %:        100  MISS %:          0  MPKI: 0

ITLB AVERAGE MISS LATENCY: 9.04898 cycles
ITLB RQ	ACCESS:    7543189	FORWARD:          0	MERGED:    1362840	TO_CACHE:    6180349

DTLB TOTAL     ACCESS:    9412644  HIT:    8938210  MISS:     474434  HIT %:    94.9596  MISS %:    5.04039   MPKI: 9.48868
DTLB LOAD TRANSLATION DATA	ACCESS:    9412644  HIT:    8938210  MISS:     474434  HIT %:    94.9596  MISS %:    5.04039  MPKI: 9.48868

DTLB AVERAGE MISS LATENCY: 9.32699 cycles
DTLB RQ	ACCESS:   13702884	FORWARD:          0	MERGED:    4254729	TO_CACHE:    9448155

STLB TOTAL     ACCESS:    1217442  HIT:    1215253  MISS:       2189  HIT %:    99.8202  MISS %:   0.179803   MPKI: 0.04378
STLB LOAD TRANSLATION INSTRUCTION	ACCESS:     493971  HIT:     493699  MISS:        272  HIT %:    99.9449  MISS %:   0.055064  MPKI: 0.00544
STLB LOAD TRANSLATION DATA	ACCESS:     474117  HIT:     472225  MISS:       1892  HIT %:    99.6009  MISS %:   0.399058  MPKI: 0.03784
STLB TRANSLATION FROM L1D PREFETCHER DATA	ACCESS:     249354  HIT:     249329  MISS:         25  HIT %:      99.99  MISS %:  0.0100259  MPKI: 0.0005

STLB AVERAGE MISS LATENCY: 70.608 cycles
STLB RQ	ACCESS:    1336199	FORWARD:          0	MERGED:     118712	TO_CACHE:    1217487

STLB Hit, L1D data hit: 0
STLB Hit, L2C data hit: 0
STLB Hit, LLC data hit: 0
STLB Hit, LLC data miss: 0
STLB STLB hints to L2: 0
L1D TOTAL     ACCESS:   13478124  HIT:   12365325  MISS:    1112799  HIT %:    91.7437  MISS %:    8.25633   MPKI: 22.256
L1D LOAD DATA	ACCESS:    6893459  HIT:    6160742  MISS:     732717  HIT %:    89.3708  MISS %:    10.6292  MPKI: 14.6543
L1D RFO DATA	ACCESS:    6254062  HIT:    5967910  MISS:     286152  HIT %:    95.4245  MISS %:    4.57546  MPKI: 5.72304
L1D PREFETCH DATA	ACCESS:     330603  HIT:     236673  MISS:      93930  HIT %:    71.5883  MISS %:    28.4117  MPKI: 1.8786

L1D PREFETCH  REQUESTED:     735936  ISSUED:     735936  USEFUL:      32519  USELESS:      68513
L1D USEFUL LOAD PREFETCHES:      32519 PREFETCH ISSUED TO LOWER LEVEL:     101134  ACCURACY: 32.1544
 TIMELY PREFETCHES:      32519 LATE PREFETCHES: 7110 DROPPED PREFETCHES: 9
L1D AVERAGE MISS LATENCY: 242001 cycles
L1D RQ	ACCESS:   10921255	FORWARD:          0	MERGED:    3835352	TO_CACHE:    6924490
L1D WQ	ACCESS:    6947098	FORWARD:     161759	MERGED:     168704	TO_CACHE:    6778394
L1D PQ	ACCESS:     368141	FORWARD:          0	MERGED:          0	TO_CACHE:     367795

L1D UNIQUE REGIONS ACCESSED: 0
L1D REGIONS CONFLICTS: 0
L1D Cross Page Prefetch Requests: 6070
L1D Same Page Prefetch Requests: 744355
L1D ROI Sum of L1D PQ occupancy: 4669623
L1D PREFETCHES PUSHED FROM L2C: 0
L1I TOTAL     ACCESS:    7024202  HIT:    4259759  MISS:    2764443  HIT %:     60.644  MISS %:     39.356   MPKI: 55.2889
L1I LOAD INSTRUCTION	ACCESS:    6541657  HIT:    3777214  MISS:    2764443  HIT %:    57.7409  MISS %:    42.2591  MPKI: 55.2889
L1I PREFETCH INSTRUCTION	ACCESS:     482545  HIT:     482545  MISS:          0  HIT %:        100  MISS %:          0  MPKI: 0

L1I PREFETCH  REQUESTED:    1064545  ISSUED:    1064545  USEFUL:          0  USELESS:          0
L1I USEFUL LOAD PREFETCHES:          0 PREFETCH ISSUED TO LOWER LEVEL:          0  ACCURACY: -nan
 TIMELY PREFETCHES:          0 LATE PREFETCHES: 0 DROPPED PREFETCHES: 0
L1I AVERAGE MISS LATENCY: 17.6116 cycles
L1I RQ	ACCESS:    9436546	FORWARD:          0	MERGED:    2652653	TO_CACHE:    6783893
L1I PQ	ACCESS:    1064545	FORWARD:          0	MERGED:     305249	TO_CACHE:     759296

L1BTB TOTAL     ACCESS:    5674975  HIT:    2046173  MISS:    3628802  HIT %:    36.0561  MISS %:    63.9439   MPKI: 72.576
L1BTB BRANCH_DIRECT_JUMP	ACCESS:     549424  HIT:     144996  MISS:     404428	AVERAGE STALL: 36.1766
L1BTB BRANCH_INDIRECT	ACCESS:     183349  HIT:      66299  MISS:     117050	AVERAGE STALL: 84.2165
L1BTB BRANCH_CONDITIONAL	ACCESS:    2714220  HIT:    1420584  MISS:    1293636	AVERAGE STALL: 36.3609
L1BTB BRANCH_DIRECT_CALL	ACCESS:     942884  HIT:     104286  MISS:     838598	AVERAGE STALL: 38.0991
L1BTB BRANCH_INDIRECT_CALL	ACCESS:     171110  HIT:      20858  MISS:     150252	AVERAGE STALL: 108.727
L1BTB BRANCH_RETURN	ACCESS:    1113988  HIT:     289150  MISS:     824838	AVERAGE STALL: 36.59
L1BTB BRANCH_OTHER ACCESS:          0  HIT:          0  MISS:          0	AVERAGE STALL: -nan
L1BTB TOTAL ROB OCCUPANCY AT BTB MISS: 12.3535

L2BTB TOTAL     ACCESS:    3603276  HIT:    3111023  MISS:     492253  HIT %:    86.3387  MISS %:    13.6613   MPKI: 9.84506
L2BTB BRANCH_DIRECT_JUMP	ACCESS:     400226  HIT:     348947  MISS:      51279	AVERAGE STALL: 36.1766
L2BTB BRANCH_INDIRECT	ACCESS:     106756  HIT:      97775  MISS:       8981	AVERAGE STALL: 84.2165
L2BTB BRANCH_CONDITIONAL	ACCESS:    1293635  HIT:    1152057  MISS:     141578	AVERAGE STALL: 36.3609
L2BTB BRANCH_DIRECT_CALL	ACCESS:     838597  HIT:     679880  MISS:     158717	AVERAGE STALL: 38.0991
L2BTB BRANCH_INDIRECT_CALL	ACCESS:     140663  HIT:     107472  MISS:      33191	AVERAGE STALL: 108.727
L2BTB BRANCH_RETURN	ACCESS:     823399  HIT:     724892  MISS:      98507	AVERAGE STALL: 36.59
L2BTB BRANCH_OTHER ACCESS:          0  HIT:          0  MISS:          0	AVERAGE STALL: -nan
L2BTB TOTAL ROB OCCUPANCY AT BTB MISS: 91.0677

L2C TOTAL     ACCESS:    4498571  HIT:    3961747  MISS:     536824  HIT %:    88.0668  MISS %:    11.9332   MPKI: 10.7365
L2C LOAD INSTRUCTION	ACCESS:    2764443  HIT:    2465368  MISS:     299075  HIT %:    89.1814  MISS %:    10.8186  MPKI: 5.9815
L2C LOAD TRANSLATION INSTRUCTION	ACCESS:        306  HIT:         72  MISS:        234  HIT %:    23.5294  MISS %:    76.4706  MPKI: 0.00468
L2C LOAD DATA	ACCESS:     725596  HIT:     639614  MISS:      85982  HIT %:    88.1502  MISS %:    11.8498  MPKI: 1.71964
L2C RFO DATA	ACCESS:     286044  HIT:     236104  MISS:      49940  HIT %:    82.5411  MISS %:    17.4589  MPKI: 0.9988
L2C PREFETCH DATA	ACCESS:     196338  HIT:     113626  MISS:      82712  HIT %:    57.8726  MISS %:    42.1274  MPKI: 1.65424
L2C WRITEBACK DATA	ACCESS:     523815  HIT:     506447  MISS:      17368  HIT %:    96.6843  MISS %:    3.31567  MPKI: 0.34736
L2C LOAD TRANSLATION DATA	ACCESS:       1978  HIT:        483  MISS:       1495  HIT %:    24.4186  MISS %:    75.5814  MPKI: 0.0299
L2C TRANSLATION FROM L1D PREFETCHER DATA	ACCESS:         51  HIT:         33  MISS:         18  HIT %:    64.7059  MISS %:    35.2941  MPKI: 0.00036

L2C PREFETCH  REQUESTED:     102743  ISSUED:     102743  USEFUL:      10080  USELESS:      73106
L2C USEFUL LOAD PREFETCHES:      10080 PREFETCH ISSUED TO LOWER LEVEL:      83084  ACCURACY: 12.1323
 TIMELY PREFETCHES:      10080 LATE PREFETCHES: 372 DROPPED PREFETCHES: 0
L2C AVERAGE MISS LATENCY: 37.5132 cycles
L2C RQ	ACCESS:    3778443	FORWARD:          0	MERGED:          0	TO_CACHE:    3778418
L2C WQ	ACCESS:     523815	FORWARD:         27	MERGED:          0	TO_CACHE:     523815
L2C PQ	ACCESS:     203877	FORWARD:          0	MERGED:       3579	TO_CACHE:     200296

L2C Dense regions hint from L2: 0
PSCL5 TOTAL     ACCESS:       4404  HIT:       2202  MISS:       2202  HIT %:         50  MISS %:         50   MPKI: 0.04404
PSCL5 LOAD TRANSLATION INSTRUCTION	ACCESS:       4302  HIT:       2151  MISS:       2151  HIT %:         50  MISS %:         50  MPKI: 0.04302
PSCL5 TRANSLATION FROM L1D PREFETCHER INSTRUCTION	ACCESS:        102  HIT:         51  MISS:         51  HIT %:         50  MISS %:         50  MPKI: 0.00102


PSCL4 TOTAL     ACCESS:       4236  HIT:       2112  MISS:       2124  HIT %:    49.8584  MISS %:    50.1416   MPKI: 0.04248
PSCL4 LOAD TRANSLATION INSTRUCTION	ACCESS:       2155  HIT:       2061  MISS:         94  HIT %:    95.6381  MISS %:    4.36195  MPKI: 0.00188
PSCL4 TRANSLATION FROM L1D PREFETCHER INSTRUCTION	ACCESS:         51  HIT:         51  MISS:          0  HIT %:        100  MISS %:          0  MPKI: 0
PSCL4 LOAD TRANSLATION DATA	ACCESS:       1979  HIT:          0  MISS:       1979  HIT %:          0  MISS %:        100  MPKI: 0.03958
PSCL4 TRANSLATION FROM L1D PREFETCHER DATA	ACCESS:         51  HIT:          0  MISS:         51  HIT %:          0  MISS %:        100  MPKI: 0.00102


PSCL3 TOTAL     ACCESS:       4304  HIT:       2146  MISS:       2158  HIT %:    49.8606  MISS %:    50.1394   MPKI: 0.04316
PSCL3 LOAD TRANSLATION INSTRUCTION	ACCESS:       2189  HIT:       2095  MISS:         94  HIT %:    95.7058  MISS %:     4.2942  MPKI: 0.00188
PSCL3 TRANSLATION FROM L1D PREFETCHER INSTRUCTION	ACCESS:         51  HIT:         51  MISS:          0  HIT %:        100  MISS %:          0  MPKI: 0
PSCL3 LOAD TRANSLATION DATA	ACCESS:       2013  HIT:          0  MISS:       2013  HIT %:          0  MISS %:        100  MPKI: 0.04026
PSCL3 TRANSLATION FROM L1D PREFETCHER DATA	ACCESS:         51  HIT:          0  MISS:         51  HIT %:          0  MISS %:        100  MPKI: 0.00102


PSCL2 TOTAL     ACCESS:       4294  HIT:       2092  MISS:       2202  HIT %:    48.7191  MISS %:    51.2809   MPKI: 0.04404
PSCL2 LOAD TRANSLATION INSTRUCTION	ACCESS:       2311  HIT:       2041  MISS:        270  HIT %:    88.3167  MISS %:    11.6833  MPKI: 0.0054
PSCL2 TRANSLATION FROM L1D PREFETCHER INSTRUCTION	ACCESS:         51  HIT:         51  MISS:          0  HIT %:        100  MISS %:          0  MPKI: 0
PSCL2 LOAD TRANSLATION DATA	ACCESS:       1881  HIT:          0  MISS:       1881  HIT %:          0  MISS %:        100  MPKI: 0.03762
PSCL2 TRANSLATION FROM L1D PREFETCHER DATA	ACCESS:         51  HIT:          0  MISS:         51  HIT %:          0  MISS %:        100  MPKI: 0.00102


LLC TOTAL     ACCESS:     596266  HIT:     567262  MISS:      29004  HIT %:    95.1357  MISS %:    4.86427   MPKI: 0.58008
LLC LOAD INSTRUCTION	ACCESS:     299075  HIT:     298103  MISS:        972  HIT %:     99.675  MISS %:   0.325002  MPKI: 0.01944
LLC LOAD TRANSLATION INSTRUCTION	ACCESS:        234  HIT:        196  MISS:         38  HIT %:    83.7607  MISS %:    16.2393  MPKI: 0.00076
LLC LOAD DATA	ACCESS:      85656  HIT:      82112  MISS:       3544  HIT %:    95.8625  MISS %:    4.13748  MPKI: 0.07088
LLC RFO DATA	ACCESS:      49890  HIT:      36305  MISS:      13585  HIT %:    72.7701  MISS %:    27.2299  MPKI: 0.2717
LLC PREFETCH DATA	ACCESS:      83082  HIT:      72708  MISS:      10374  HIT %:    87.5135  MISS %:    12.4865  MPKI: 0.20748
LLC WRITEBACK DATA	ACCESS:      76816  HIT:      76410  MISS:        406  HIT %:    99.4715  MISS %:   0.528536  MPKI: 0.00812
LLC LOAD TRANSLATION DATA	ACCESS:       1495  HIT:       1410  MISS:         85  HIT %:    94.3144  MISS %:    5.68562  MPKI: 0.0017
LLC TRANSLATION FROM L1D PREFETCHER DATA	ACCESS:         18  HIT:         18  MISS:          0  HIT %:        100  MISS %:          0  MPKI: 0

LLC AVERAGE MISS LATENCY: 155.659 cycles
LLC RQ	ACCESS:     436372	FORWARD:          0	MERGED:          0	TO_CACHE:     436368
LLC WQ	ACCESS:      76816	FORWARD:          6	MERGED:          0	TO_CACHE:      76816
LLC PQ	ACCESS:      83084	FORWARD:          0	MERGED:          0	TO_CACHE:      83082

LLC Dense regions hint to LLC: 0

RAW hits: 1714270
Loads Generated: 12635525
Loads sent to L1D: 10921255
Stores Generated: 6947086
Stores sent to L1D: 6947098
Major fault: 0 Minor fault: 2601
Allocated PAGES: 2601

stream: 
stream:times selected: 1176974
stream:pref_filled: 122098
stream:pref_useful: 24374
stream:pref_late: 6515
stream:misses: 6811
stream:misses_by_poll: 0

CS: 
CS:times selected: 175745
CS:pref_filled: 59791
CS:pref_useful: 36944
CS:pref_late: 5947
CS:misses: 14932
CS:misses_by_poll: 1

CPLX: 
CPLX:times selected: 1000009
CPLX:pref_filled: 20644
CPLX:pref_useful: 5090
CPLX:pref_late: 2865
CPLX:misses: 89842
CPLX:misses_by_poll: 0

NL_L1: 
NL:times selected: 19897
NL:pref_filled: 725
NL:pref_useful: 331
NL:pref_late: 212
NL:misses: 1040
NL:misses_by_poll: 0

total selections: 2372625
total_filled: 93930
total_useful: 32519
total_late: 16727
total_polluted: 1
total_misses_after_warmup: 763754
conflicts: 5688273

test: 114807

DRAM Statistics
 CHANNEL 0
 RQ ROW_BUFFER_HIT:      10413  ROW_BUFFER_MISS:      18183
 DBUS_CONGESTED:         10
 WQ ROW_BUFFER_HIT:       1382  ROW_BUFFER_MISS:      12573  FULL:          0

 AVG_CONGESTED_CYCLE: 5

CPU 0 Branch Prediction Accuracy: 99.8092% MPKI: 0.34894 Average ROB Occupancy at Mispredict: 120.391
Branch types
NOT_BRANCH: 40857279 81.7146%
BRANCH_DIRECT_JUMP: 549424 1.09885%
BRANCH_INDIRECT: 183349 0.366698%
BRANCH_CONDITIONAL: 6181908 12.3638%
BRANCH_DIRECT_CALL: 942884 1.88577%
BRANCH_INDIRECT_CALL: 171110 0.34222%
BRANCH_RETURN: 1113988 2.22798%
BRANCH_OTHER: 0 0%

DRAM PAGES: 1048576
Allocated PAGES: 2601
Average_ROB_Occupancy: 109.637
Average_Decode_Occupancy: 13.0974
Average_FTQ_Occupancy: 6.31885
Indirect max targets: 14 Average targets: 1.1505
Branch_type:  BRANCH_DIRECT_JUMP:  Count Percentage: 3.24829 5.53099 5.12363 9.12238 1.74016 5.96783 0.891939 68.3748 
Branch_type:  BRANCH_INDIRECT:  Count Percentage: 11.7458 3.46491 2.55452 0 2.5452 9.67468 19.2228 50.7921 
Branch_type:  BRANCH_CONDITIONAL:  Count Percentage: 21.4516 2.58987 1.84245 8.41923 1.23162 5.06895 1.95747 57.4388 
Branch_type:  BRANCH_DIRECT_CALL:  Count Percentage: 0.257349 1.79076 1.44555 4.83602 2.15601 2.75191 0.751905 86.0105 
Branch_type:  BRANCH_INDIRECT_CALL:  Count Percentage: 9.53326 0.571582 2.98674 4.83994 0.000291475 2.01875 1.28307 78.7664 
Branch_type:  BRANCH_RETURN:  Count Percentage: 3.18859 1.30476 1.27108 9.31576 2.84213 6.55351 3.12936 72.3948 
Branch_type:  BRANCH_DIRECT_JUMP:  Total Count: 35588 60597 56134 99944 19065 65383 9772 749108 
Branch_type:  BRANCH_INDIRECT:  Total Count: 42886 12651 9327 0 9293 35324 70186 185451 
Branch_type:  BRANCH_CONDITIONAL:  Total Count: 2648867 319799 227508 1039615 152082 625919 241710 7092595 
Branch_type:  BRANCH_DIRECT_CALL:  Total Count: 4868 33874 27344 91478 40783 52055 14223 1626970 
Branch_type:  BRANCH_INDIRECT_CALL:  Total Count: 32707 1961 10247 16605 1 6926 4402 270234 
Branch_type:  BRANCH_RETURN:  Total Count: 71281 29168 28415 208254 63536 146504 69957 1618388 
Number of unique branch instructions: 10308
Upper 32 bits: 
aaaa
ffff
ffff0000
Unique upper 32 bits: 3
Unique upper 36 bits: 3
Unique upper 40 bits: 5
Unique upper 44 bits: 32
Unique upper 48 bits: 154
Variant_0 : 1077 0.262939
Variant_1 : 1263 0.30835
Variant_2 : 1549 0.378174
Variant_3 : 0 0
Offset_3 4268
Offset_4 260
Offset_5 469
Offset_6 531
Offset_7 612
Offset_8 540
Offset_9 491
Offset_10 399
Offset_11 338
Offset_12 297
Offset_13 225
Offset_14 232
Offset_15 201
Offset_16 230
Offset_17 162
Offset_18 128
Offset_19 252
Offset_20 144
Offset_21 236
Offset_22 404
Offset_23 245
Offset_24 346
Offset_25 88
Offset_47 84
Offset_64 21
decode_dispatch_called: 20212432 43.6993
Dispatch_width: 0 10195201 50.4402 22.042
Dispatch_width: 1 535900 2.65134 1.15862
Dispatch_width: 2 683410 3.38114 1.47753
Dispatch_width: 3 460294 2.27728 0.995156
Dispatch_width: 4 1479524 7.31987 3.19873
Dispatch_width: 5 350315 1.73317 0.757381
Dispatch_width: 6 6507788 32.197 14.0698
Empty_decode_cycles: 26041034 56.3007
ROB_full_cycles: 1843478 3.9856
Starvation_cycles_per_kilo_instr: 379.022
Starvation_cycles_per_kilo_instr_3: 360.724
Starvation_cycles_per_kilo_instr_0: 343.928
Branch_type_1  (3,1)  (4,9)  (5,37)  (6,73)  (7,118)  (8,138)  (9,129)  (10,102)  (11,76)  (12,51)  (13,8)  (14,2)  (15,3)  (16,4)  (18,1)  (19,4)  (20,2)  (21,1)  (22,3)  (23,2)  (24,10)  (25,12)  (64,3) 
Branch_type_2  (3,1)  (5,1)  (8,3)  (9,3)  (12,1)  (13,1)  (14,1)  (16,3)  (17,2)  (20,2)  (21,2)  (23,5)  (24,1)  (47,39) 
Branch_type_3  (3,4266)  (4,251)  (5,427)  (6,441)  (7,460)  (8,333)  (9,270)  (10,164)  (11,140)  (12,58)  (13,7)  (24,3)  (64,11) 
Branch_type_4  (6,4)  (7,8)  (8,30)  (9,54)  (10,63)  (11,63)  (12,105)  (13,96)  (14,102)  (15,96)  (16,104)  (17,73)  (18,58)  (19,124)  (20,74)  (21,124)  (22,215)  (23,138)  (24,202)  (25,72)  (64,4) 
Branch_type_5  (8,2)  (9,1)  (10,3)  (11,5)  (12,3)  (13,14)  (14,16)  (15,11)  (16,20)  (17,13)  (18,16)  (19,12)  (20,11)  (21,13)  (22,42)  (23,26)  (24,37) 
Branch_type_6  (5,4)  (6,13)  (7,26)  (8,34)  (9,34)  (10,67)  (11,54)  (12,79)  (13,99)  (14,111)  (15,91)  (16,99)  (17,74)  (18,53)  (19,112)  (20,55)  (21,96)  (22,144)  (23,74)  (24,93)  (25,4)  (47,45)  (64,3) 
Unique trigger count: 
Variant_0_evicts_0 : 0
Variant_0_evicts_1 : 0
Variant_0_evicts_2 : 0
Variant_0_evicts_3 : 0
Variant_1_evicts_0 : 0
Variant_1_evicts_1 : 0
Variant_1_evicts_2 : 0
Variant_1_evicts_3 : 0
Variant_2_evicts_0 : 0
Variant_2_evicts_1 : 0
Variant_2_evicts_2 : 0
Variant_2_evicts_3 : 0
Variant_3_evicts_0 : 0
Variant_3_evicts_1 : 0
Variant_3_evicts_2 : 0
Variant_3_evicts_3 : 0
BTB PER SET UNIQUE ADDR: 3 7 4 7 5 6 7 7 2 6 5 4 2 5 10 8 5 5 5 2 5 9 7 9 4 6 5 4 6 8 7 4 4 8 6 8 7 3 5 9 5 7 3 3 8 6 3 4 6 7 10 4 7 3 2 8 5 3 8 3 5 8 4 9 7 2 5 5 3 8 6 5 5 7 7 9 3 6 6 8 10 7 6 10 9 3 6 4 5 7 6 8 7 8 4 2 4 3 4 7 5 1 4 7 4 4 4 6 6 10 8 2 3 9 2 5 5 8 4 10 5 4 5 4 9 8 3 6 5 2 5 7 4 4 8 6 6 2 6 5 3 4 9 8 4 9 5 5 6 7 3 2 3 11 2 4 6 3 8 6 1 6 4 6 9 2 1 3 7 10 7 6 6 4 3 5 3 6 5 6 5 5 5 9 6 6 4 5 5 5 5 3 6 7 3 5 6 6 5 4 5 6 3 5 1 9 3 5 7 4 2 2 8 6 5 5 7 4 4 6 6 8 5 8 6 10 8 5 7 10 3 6 6 12 4 6 3 7 5 7 6 6 6 5 7 4 4 5 5 6 3 7 4 4 5 6 3 4 7 1 10 6 7 5 5 3 6 5 8 7 7 9 7 5 5 5 6 2 6 11 9 2 5 8 2 5 11 6 8 6 5 3 10 7 7 5 6 3 7 4 13 2 5 9 4 3 6 7 7 4 7 2 9 6 5 5 5 7 8 3 9 9 3 5 9 6 3 5 2 8 4 10 3 5 5 5 8 8 6 8 3 5 7 3 5 3 4 7 1 4 6 7 5 2 7 5 3 5 5 4 12 6 6 7 6 9 6 8 3 3 9 7 8 4 5 5 7 6 5 1 4 6 5 4 8 3 2 6 5 5 5 2 4 7 4 3 7 3 5 3 7 7 6 4 4 10 11 5 9 3 5 5 1 5 6 3 4 4 4 6 6 2 4 8 7 4 7 10 6 7 8 3 4 5 7 1 4 2 2 5 9 5 2 1 5 1 3 5 6 5 9 2 5 4 6 3 7 2 13 4 5 6 6 12 2 10 5 4 3 7 6 9 3 7 4 8 3 2 5 8 4 3 6 5 4 5 5 6 4 7 8 5 6 5 7 5 7 6 3 8 5 3 3 5 5 6 6 3 2 4 6 3 5 3 5 6 9 6 7 5 6 7 9 3 6 12 2 5 6 3 10 7 6 4 2 5 8 9 5 6 4 8 13 12 6 4 7 10 6 3 4 8 2 6 6 8 8 2 7 4 5 2 6 8 6 3 5 4 10 5 4 4 1 6 2 7 10 2 7 4 2 9 2 8 3 4 3 2 4 8 7 6 6 8 3 7 13 7 5 6 11 3 4 2 5 11 7 1 4 4 4 4 4 6 1 6 10 4 8 8 4 5 5 1 7 7 3 6 3 4 5 7 4 5 6 6 3 9 5 12 3 6 4 4 3 7 7 5 5 5 5 5 5 8 5 7 6 4 2 6 4 5 8 8 4 5 6 10 9 6 7 5 6 4 8 4 4 7 6 8 8 9 3 7 8 8 4 9 8 3 7 2 4 6 4 10 4 7 4 10 6 6 3 4 10 4 3 6 7 8 5 3 2 8 5 5 7 7 5 3 6 8 3 8 7 8 9 7 5 8 5 5 10 6 4 4 9 6 3 9 4 11 5 6 5 3 7 3 4 5 6 4 6 4 8 8 9 1 3 7 7 7 6 7 8 6 7 13 6 5 6 5 1 6 9 6 6 7 4 8 7 4 4 5 8 5 4 9 5 9 8 4 5 5 8 6 8 3 5 5 6 6 7 4 5 3 6 4 5 5 7 2 0 5 9 6 12 3 7 5 8 4 5 4 5 7 8 5 10 5 7 6 5 6 5 5 7 4 2 5 1 10 5 5 6 4 4 5 2 5 5 8 4 4 6 5 9 7 4 4 1 6 4 9 6 7 8 6 5 5 5 6 6 3 2 4 4 7 0 6 6 5 6 4 5 7 7 10 4 0 10 4 4 1 5 7 4 8 8 2 8 3 8 5 4 3 5 7 7 12 8 5 5 8 8 9 6 9 10 6 8 3 7 7 2 2 5 6 5 4 5 8 7 5 5 8 4 6 2 7 7 5 5 2 5 5 4 3 7 4 9 8 6 2 11 5 9 4 5 2 5 3 9 4 5 3 7 6 2 3 5 2 2 7 2 4 3 10 5 6 4 7 7 6 9 3 3 4 5 4 3 5 7 11 8 4 5 5 3 3 8 6 8 6 3 5 5 9 6 6 6 9 12 5 7 3 5 7 3 4 5 3 9 7 9 4 6 7 4 4 5 3 6 5 5 8 8 6 3 4 6 5 5 7 7 5 5 6 3 3 5 5 6 5 3 6 11 8 4 3 6 7 5 5 4 7 9 6 10 7 1 5 2 8 8 4 6 6 6 3 8 2 4 5 8 6 4 3 3 9 8 9 5 5 6 4 5 2 5 3 5 11 7 10 5 6 3 5 3 2 7 6 4 5 9 3 6 6 5 6 6 4 4 8 4 7 6 7 3 3 6 6 7 3 5 4 5 5 3 6 9 11 7 3 5 6 3 6 5 6 6 6 2 5 2 4 5 9 7 5 4 2 9 5 3 4 6 9 8 7 11 6 5 4 5 10 3 8 4 6 8 3 11 4 5 3 8 3 6 8 10 10 4 2 8 4 7 6 4 4 7 3 5 3 7 7 6 3 8 4 5 4 6 7 1 5 8 3 8 7 10 2 6 5 5 7 8 5 5 6 5 3 5 2 8 5 3 6 3 2 5 6 6 6 9 5 9 6 3 7 5 8 3 3 5 2 3 2 2 4 3 4 5 4 5 3 7 6 5 9 6 4 12 3 6 5 5 8 7 3 9 5 9 7 5 6 4 6 11 10 7 5 8 10 4 5 7 6 4 6 2 6 4 8 7 6 8 8 8 11 12 6 5 6 12 7 4 4 4 4 4 7 4 7 7 3 6 4 8 11 5 5 4 7 8 5 7 7 6 6 5 5 7 7 8 13 4 5 9 5 5 4 6 7 5 2 8 2 3 6 4 8 8 8 7 3 4 5 4 7 3 6 4 14 9 10 4 4 2 5 2 5 3 6 4 4 6 4 5 2 2 6 8 8 1 6 7 5 5 4 8 4 11 3 2 4 8 8 5 6 3 5 9 4 9 7 4 2 2 6 8 7 7 11 7 9 6 5 3 7 7 4 7 6 10 6 8 11 6 4 10 7 6 4 5 6 9 3 8 4 4 7 2 6 6 6 5 6 10 6 7 4 6 6 8 6 4 6 3 9 5 5 8 1 4 3 8 6 5 13 5 7 4 7 9 4 7 5 7 5 8 5 5 8 6 11 6 4 7 1 7 4 9 8 8 7 11 5 8 3 6 7 10 4 3 6 7 8 6 11 9 2 5 7 5 4 12 6 7 3 5 6 5 2 5 7 7 6 2 6 5 3 7 5 5 7 3 6 4 2 5 6 5 5 3 5 4 7 5 5 2 9 4 6 4 5 4 9 6 7 6 4 7 4 2 6 5 7 6 2 5 7 4 6 5 6 7 4 4 8 7 5 4 5 7 3 4 6 3 6 6 5 6 6 4 5 11 6 8 7 4 6 8 4 3 6 4 4 8 4 3 10 8 8 5 7 4 2 3 4 4 7 8 4 7 5 9 4 7 6 5 6 9 2 7 7 6 6 4 10 7 5 6 5 7 4 4 5 7 4 3 6 3 6 7 4 5 4 3 2 6 4 5 2 6 6 1 5 5 4 7 4 7 3 1 5 5 6 13 3 4 10 2 4 5 4 1 5 4 4 3 5 4 2 4 6 9 4 4 5 1 2 7 6 5 3 4 7 4 6 1 5 3 9 6 5 7 4 5 3 5 4 4 6 4 5 4 5 7 8 5 3 7 5 3 7 6 9 6 5 7 3 4 4 4 7 2 2 4 5 9 9 3 8 4 8 6 5 8 4 3 4 8 10 1 7 4 9 6 11 5 10 1 7 10 7 7 6 2 6 3 7 3 6 4 6 8 5 5 7 5 6 3 4 2 2 5 2 8 2 7 4 7 2 5 3 3 7 4 6 4 4 6 8 6 7 7 4 6 3 5 8 4 3 6 5 6 4 6 8 5 5 3 3 8 6 4 6 5 8 3 4 5 8 6 3 4 8 6 7 2 4 7 4 4 7 2 6 5 4 3 8 3 7 6 4 4 10 3 10 4 5 3 4 5 10 5 6 3 3 4 3 2 5 3 11 2 5 2 7 4 4 3 4 4 5 2 1 3 8 2 5 5 4 3 7 6 3 4 6 7 7 7 2 4 8 2 5 11 4 1 1 9 10 2 8 7 10 7 6 8 6 8 7 8 8 5 1 5 3 5 8 6 7 8 9 4 4 3 7 3 8 5 7 6 8 6 4 7 9 7 4 5 6 7 4 5 7 3 11 3 9 5 11 7 4 5 9 3 5 5 5 3 3 8 9 3 6 3 6 3 5 7 7 3 4 1 3 6 4 0 3 7 10 3 5 5 8 8 8 5 10 6 5 4 9 5 6 8 3 3 11 3 3 7 5 5 15 4 8 5 7 4 6 3 5 7 6 
BTB PER SET COUNT: 3 2040 605 943 915 327 368 842 2 910 895 350 2 733 1082 218 657 215 1115 3 446 1531 932 509 549 496 294 318 627 822 780 77 219 1157 719 919 769 180 427 1700 19 1572 120 4 2921 1029 205 212 174 1058 1749 516 997 3 2 819 1051 1143 702 36 1129 938 209 324 186 5 286 272 7 1138 684 268 242 701 322 1502 5 929 1222 235 860 398 222 1420 890 137 1008 4 677 1700 721 1217 1038 1265 68 68 289 6 217 659 640 1 362 178 84 171 45 525 686 818 381 2 116 1272 2 244 459 88 503 2637 374 589 1759 315 314 1300 6 417 886 2 75 439 5 315 514 634 252 92 1072 945 6 680 1418 541 4 412 10 536 334 805 273 606 7 923 2 858 189 736 613 321 1 480 4 451 706 73 1 4 288 731 169 706 358 159 372 456 108 267 69 826 118 668 371 609 557 444 6 11 15 178 89 3 977 798 4 365 156 676 1017 5 363 428 128 241 1 1037 3 509 655 4 4 8 930 887 318 463 942 278 348 177 235 887 297 1207 2000 1318 210 129 170 1597 306 202 228 6269 231 673 22 434 441 882 644 234 690 244 496 351 182 649 254 429 49 685 11 210 482 104 221 375 444 1 418 538 459 310 169 600 25 567 754 234 401 608 135 595 548 986 202 316 596 696 666 3 332 1036 2 593 1854 392 594 14 7 4 1384 600 866 230 12 92 488 243 1049 223 1463 726 257 4 647 44 414 38 170 4 906 363 5 420 7 783 329 8 634 464 246 327 1567 348 411 202 2 347 8 1756 188 733 156 236 848 434 314 601 3 387 326 4 719 264 4 741 1 278 315 195 415 2 637 9 413 544 806 209 1857 493 411 1288 351 2986 799 1350 3 4 648 486 3126 10 486 360 573 527 272 2 112 1181 90 464 984 297 2 500 107 266 374 5 693 379 112 3 1364 4 484 62 659 603 362 292 392 1633 2588 751 722 3 216 290 1 561 871 211 466 409 266 668 203 2 8 666 913 769 419 694 1310 441 1566 68 6 407 888 1 388 6 2 139 1965 363 2 1 510 1 4 26 769 472 1598 287 366 375 779 3 683 4 1562 201 1103 387 52 948 7 972 367 343 3 627 360 612 3 460 977 217 156 3 323 685 86 175 195 436 6 449 143 330 246 852 419 516 125 655 779 963 993 477 70 724 9 261 3 276 5 486 366 114 2 65 1015 332 1162 1109 5 490 970 1546 954 570 366 541 1572 3 474 1995 66 69 331 10 2025 805 169 24 2 151 490 591 577 234 303 598 1369 1830 486 1340 1025 1587 811 80 6 1181 981 757 379 675 1251 3 187 127 871 7795 388 938 477 4 1112 163 1975 605 235 372 1 1307 2 1184 1383 2 412 100 5 758 2 922 6 275 248 2 5 2544 765 570 844 1138 229 1743 1077 856 315 258 915 3 555 114 233 758 1082 1 177 233 408 110 1168 414 1 259 1090 362 10057 868 306 314 471 2 742 262 563 236 527 414 494 866 104 872 478 695 3 1113 518 2408 3 356 383 5 4 1017 248 244 203 724 726 346 328 968 179 391 425 287 2 83 460 657 312 141 234 829 6 1862 752 933 412 355 750 265 944 389 332 1320 327 857 1259 715 151 1456 596 1019 403 1255 112 169 608 2 415 898 229 1360 136 1710 301 1637 596 1387 3 10 1275 120 5 408 1479 593 374 7 267 898 113 991 476 446 334 234 389 642 748 764 463 1109 925 789 1014 620 313 306 828 411 10 6 18 536 207 2441 4 1916 212 407 261 6 355 160 4 692 1477 245 264 317 288 713 727 1 4 845 538 353 348 77 300 20 704 2085 658 9 208 416 2 394 759 1039 294 714 318 583 736 121 151 238 777 8 651 645 301 1129 494 452 838 5 151 1025 177 159 269 176 230 30 654 759 312 3 142 5 270 207 461 2 0 269 1050 527 1911 384 890 94 910 314 134 181 458 987 400 577 1691 463 735 501 121 778 28 150 1257 186 2 494 10 1762 397 569 396 9 174 792 4 1078 33 532 39 214 441 51 866 157 232 5 2 503 176 315 500 318 1466 335 827 118 731 199 398 5 2 28 1182 1017 0 1032 486 1049 488 143 13 559 216 1671 60 0 1809 64 118 1 7 704 780 964 821 197 1002 218 747 804 225 164 54 133 346 1058 707 330 632 655 736 990 237 725 1453 936 1631 76 146 638 201 3 1474 376 263 325 196 903 1452 351 219 446 215 148 107 972 894 143 9 2 1085 239 4 42 280 7 1317 1041 541 3 2422 390 1421 4 1888 240 613 117 788 394 314 74 595 456 3 263 10 2 239 1124 3 86 72 1256 444 381 403 329 936 13 735 90 3 989 9 197 5 405 938 1064 437 8 304 1743 3 3 567 309 612 1321 281 16 317 1629 970 499 88 711 1289 374 587 123 238 1206 8 32 439 301 503 208 616 200 815 1253 5 164 768 3 905 598 653 796 564 393 1464 132 463 668 7 485 343 824 621 49 124 3 349 261 261 126 367 7 840 1809 313 6 10 674 419 612 552 649 956 737 520 557 1 442 2 1180 878 232 182 745 327 9 1261 2 182 388 564 370 9 47 48 543 1108 963 544 7 459 510 227 2 284 3 331 2031 743 1723 544 933 7 220 4 196 194 810 141 1245 805 16 9 668 12 323 350 4 422 160 4 710 460 484 3 6 150 549 622 6 499 174 173 717 3 342 910 11313 1431 237 746 86 4 544 40 410 80 477 2 220 2 894 114 1270 1285 136 71 2 650 228 364 12 248 360 310 705 1208 19 415 365 93 1360 5 168 477 658 959 35 1394 336 277 247 241 270 1123 762 1150 666 142 2 1981 145 910 468 672 209 590 24 15 7 743 745 1190 3 944 522 797 6 248 1473 1 231 839 82 668 250 769 9 617 35 383 754 778 189 396 146 5 57 500 2 1191 252 11 446 162 2 447 530 83 329 275 280 46 119 65 403 325 490 3 231 489 2 3 107 2 7 3 232 5 7 595 3 504 198 330 785 423 255 1163 3 209 441 274 1196 716 344 1361 42 163 575 273 608 127 1448 1907 1411 47 697 236 1481 287 666 686 145 351 783 4 291 292 476 977 483 547 1159 862 946 867 142 30 443 898 881 65 153 489 192 7 368 4 521 80 4 114 1627 500 1788 431 418 4 681 490 165 211 1025 475 592 618 637 167 368 981 1047 229 501 1081 597 2394 13 264 225 14 2 666 2 5 343 421 603 907 722 70 4 313 214 214 740 3 211 281 1977 1354 536 365 172 2 863 2 603 254 264 198 208 11 208 313 192 2 194 426 452 1 361 559 43 17 4 943 251 351 54 3 409 1018 199 140 447 3 410 995 93 1346 995 235 247 91 868 1396 424 464 616 354 923 420 86 299 1980 1419 27 450 2103 1044 995 999 541 880 55 421 1284 93 113 350 10 648 3 437 5 4 281 2 758 399 11 6 592 855 337 338 4 33 253 1353 386 226 15 6 1604 157 177 956 1 4 6 362 349 576 1423 177 701 406 529 752 583 62 162 22 221 497 181 397 508 432 1838 685 143 319 1 898 414 601 295 1445 948 985 160 834 95 499 601 1966 324 4 1067 74 706 886 2021 1355 4 122 1256 443 707 1287 486 1252 4 490 37 770 174 146 951 288 607 72 670 7 3 165 241 5 455 477 696 234 2 998 428 281 17 98 326 5 397 109 993 758 872 348 434 354 181 3938 895 398 460 932 16 87 345 3 570 385 1199 112 1460 361 301 104 533 11 356 952 76 177 518 133 312 4 529 444 122 170 716 101 464 259 423 328 601 599 462 1023 113 1291 319 13 652 1205 269 214 185 5 703 818 5 249 707 592 1065 142 812 109 2 4 174 341 560 1270 128 802 576 1441 43 300 6 5 798 562 153 767 747 360 457 27 792 505 238 494 188 75 192 527 606 679 636 436 365 4 143 412 5 942 476 3 283 211 271 12 3 402 418 1 566 5 330 263 4 288 3 1 180 174 498 2657 94 325 1011 2 236 315 10 1 366 536 163 52 337 79 2 17 1001 1025 145 24 50 1 164 586 567 414 219 4 363 421 364 1 289 18 1881 310 486 568 397 179 300 196 98 38 239 195 539 353 6 589 540 180 21 1039 6 121 782 566 1228 285 464 764 6 4 21 140 584 3 3 7 714 541 1155 3 1126 243 461 738 676 1422 409 85 4 425 1220 1 462 78 875 162 2075 447 698 1 798 2611 637 285 259 2 923 3 906 6 338 379 535 479 64 13 478 312 347 5 4 8 2 246 2 839 31 659 529 361 4 158 3 4 338 140 987 150 332 549 992 278 747 852 113 426 92 239 1267 72 638 152 5 336 745 514 1341 302 498 302 316 357 1223 838 561 8 1318 3 309 303 753 14 8 219 920 1797 453 2 80 855 218 425 656 2 852 10828 288 163 1329 266 1283 591 5 399 1257 597 1474 500 485 440 12 593 1416 668 536 62 245 5 3 2 879 14 1011 2 453 660 231 4 301 267 173 163 379 2 1 3 1151 2 119 556 633 81 1311 437 84 203 1235 176 265 814 2 372 1171 3 691 1233 65 2 1 514 708 2 467 606 1221 132 293 592 330 522 118 1194 485 205 1 552 317 384 1164 209 617 1198 307 276 101 9 958 157 552 754 337 454 1597 622 1330 1322 1309 927 176 157 564 3171 780 295 678 513 1705 3 626 373 1568 10 199 487 1263 247 587 519 188 85 100 1018 1534 429 641 69 520 4 301 278 528 3 267 1504 426 577 240 0 96 379 1317 194 204 5 1287 504 730 363 1713 336 833 6 1058 1504 159 825 3 5 1841 68 126 465 512 156 2670 163 1214 130 636 512 7 19 272 772 1004 
To predecode: 0
Predecoding something: 0
Predecode request dropped: 0
sizeofblock_0 0
sizeofblock_1 498124
sizeofblock_2 148450
sizeofblock_3 28610
sizeofblock_4 7331
sizeofblock_5 0
sizeofblock_6 0
sizeofblock_7 0
sizeofblock_8 0
Variant_0 Correct: 1315966 Incorrect: 0 Accuracy: 1
Variant_1 Correct: 1831406 Incorrect: 0 Accuracy: 1
Variant_2 Correct: 3360145 Incorrect: 0 Accuracy: 1
Variant_3 Correct: 0 Incorrect: 0 Accuracy: -nan
