
*** ChampSim Multicore Out-of-Order Simulator ***

Warmup Instructions: 50000000
Simulation Instructions: 50000000
Number of CPUs: 1
LLC sets: 2048
LLC ways: 16
Off-chip DRAM Size: 4096 MB Channels: 1 Width: 64-bit Data Rate: 6400 MT/s
CPU 0 runs ./micro_traces/srv197.trace.gz
.gz
ITLB has LRU replacement policy
DTLB has LRU replacement policy
STLB has LRU replacement policy
CPU 0 L1I next line prefetcher
L1I has LRU replacement policy
L1D has LRU replacement policy
Initialize SRRIP state for L2C
Initialize DRRIP state for LLC
Heartbeat CPU 0 instructions: 10000002 cycles: 2796966 heartbeat IPC: 3.5753 cumulative IPC: 3.5753 (Simulation time: 0 hr 1 min 41 sec) 
Heartbeat CPU 0 instructions: 20000001 cycles: 5594217 heartbeat IPC: 3.57494 cumulative IPC: 3.57512 (Simulation time: 0 hr 3 min 18 sec) 
Heartbeat CPU 0 instructions: 30000003 cycles: 8392037 heartbeat IPC: 3.57421 cumulative IPC: 3.57482 (Simulation time: 0 hr 4 min 56 sec) 
Heartbeat CPU 0 instructions: 40000000 cycles: 11188739 heartbeat IPC: 3.57564 cumulative IPC: 3.57502 (Simulation time: 0 hr 6 min 34 sec) 
Heartbeat CPU 0 instructions: 50000003 cycles: 13985638 heartbeat IPC: 3.57539 cumulative IPC: 3.5751 (Simulation time: 0 hr 8 min 14 sec) 

Warmup complete CPU 0 instructions: 50000003 cycles: 13985638 (Simulation time: 0 hr 8 min 14 sec) 

Cycle: 20000000 FTQ IN: 58071594 FTQ occupancy: 18.6574 DECODE IN: 58071551 DECODE occupancy: 49.8037 ROB IN: 58071547 ROB occupancy: 308.943 ROB OUT: 58071235
Heartbeat CPU 0 instructions: 60000002 cycles: 21426323 heartbeat IPC: 1.34396 cumulative IPC: 1.34396 (Simulation time: 0 hr 9 min 51 sec) 
Heartbeat CPU 0 instructions: 70000001 cycles: 28891709 heartbeat IPC: 1.33952 cumulative IPC: 1.34174 (Simulation time: 0 hr 11 min 26 sec) 
Cycle: 30000000 FTQ IN: 13413621 FTQ occupancy: 8.8258 DECODE IN: 13413664 DECODE occupancy: 26.4168 ROB IN: 13413668 ROB occupancy: 217.871 ROB OUT: 13413811
Heartbeat CPU 0 instructions: 80000003 cycles: 36314506 heartbeat IPC: 1.3472 cumulative IPC: 1.34355 (Simulation time: 0 hr 13 min 5 sec) 
Cycle: 40000000 FTQ IN: 13521620 FTQ occupancy: 8.88508 DECODE IN: 13521605 DECODE occupancy: 26.5854 ROB IN: 13521604 ROB occupancy: 214.248 ROB OUT: 13521454
Heartbeat CPU 0 instructions: 90000001 cycles: 43779214 heartbeat IPC: 1.33964 cumulative IPC: 1.34257 (Simulation time: 0 hr 14 min 41 sec) 
Cycle: 50000000 FTQ IN: 13398018 FTQ occupancy: 8.85709 DECODE IN: 13398000 DECODE occupancy: 26.4772 ROB IN: 13397973 ROB occupancy: 216.682 ROB OUT: 13398050
Heartbeat CPU 0 instructions: 100000001 cycles: 51169611 heartbeat IPC: 1.35311 cumulative IPC: 1.34467 (Simulation time: 0 hr 16 min 9 sec) 
Finished CPU 0 instructions: 50000002 cycles: 37183974 cumulative IPC: 1.34467 (Simulation time: 0 hr 16 min 9 sec) 

ChampSim completed all CPUs

Region of Interest Statistics

CPU 0 cumulative IPC: 1.34467 instructions: 50000002 cycles: 37183974
 Fetch stage stalled: 60.4004  Sim cycles: 37183974 fetch stall cycle: 22459262
 Empty decode stage: 41.2645  Sim cycles: 37183974 fetch stall cycle: 15343767
ITLB TOTAL     ACCESS:    7724783  HIT:    7119050  MISS:     605733  HIT %:    92.1586  MISS %:    7.84142   MPKI: 12.1147
ITLB LOAD TRANSLATION INSTRUCTION	ACCESS:    5993957  HIT:    5871875  MISS:     122082  HIT %:    97.9632  MISS %:    2.03675  MPKI: 2.44164
ITLB TRANSLATION FROM L1D PREFETCHER INSTRUCTION	ACCESS:    1730826  HIT:    1247175  MISS:     483651  HIT %:    72.0566  MISS %:    27.9434  MPKI: 9.67302

ITLB AVERAGE MISS LATENCY: 106165 cycles
ITLB RQ	ACCESS:   11603038	FORWARD:          0	MERGED:    3739790	TO_CACHE:    7863248

DTLB TOTAL     ACCESS:    9004834  HIT:    8534047  MISS:     470787  HIT %:    94.7718  MISS %:    5.22816   MPKI: 9.41574
DTLB LOAD TRANSLATION DATA	ACCESS:    9004834  HIT:    8534047  MISS:     470787  HIT %:    94.7718  MISS %:    5.22816  MPKI: 9.41574

DTLB AVERAGE MISS LATENCY: 9.33457 cycles
DTLB RQ	ACCESS:   13371180	FORWARD:          0	MERGED:    4331702	TO_CACHE:    9039478

STLB TOTAL     ACCESS:    1324675  HIT:    1322707  MISS:       1968  HIT %:    99.8514  MISS %:   0.148565   MPKI: 0.03936
STLB LOAD TRANSLATION INSTRUCTION	ACCESS:     120010  HIT:     119882  MISS:        128  HIT %:    99.8933  MISS %:   0.106658  MPKI: 0.00256
STLB TRANSLATION FROM L1D PREFETCHER INSTRUCTION	ACCESS:     485723  HIT:     485642  MISS:         81  HIT %:    99.9833  MISS %:  0.0166762  MPKI: 0.00162
STLB LOAD TRANSLATION DATA	ACCESS:     470787  HIT:     469053  MISS:       1734  HIT %:    99.6317  MISS %:   0.368319  MPKI: 0.03468
STLB TRANSLATION FROM L1D PREFETCHER DATA	ACCESS:     248155  HIT:     248130  MISS:         25  HIT %:    99.9899  MISS %:  0.0100743  MPKI: 0.0005

STLB AVERAGE MISS LATENCY: 75.9868 cycles
STLB RQ	ACCESS:    1450160	FORWARD:          0	MERGED:     121744	TO_CACHE:    1328416

STLB Hit, L1D data hit: 0
STLB Hit, L2C data hit: 0
STLB Hit, LLC data hit: 0
STLB Hit, LLC data miss: 0
STLB STLB hints to L2: 0
L1D TOTAL     ACCESS:   13109008  HIT:   11997070  MISS:    1111938  HIT %:    91.5178  MISS %:    8.48224   MPKI: 22.2388
L1D LOAD DATA	ACCESS:    6581793  HIT:    5847696  MISS:     734097  HIT %:    88.8465  MISS %:    11.1535  MPKI: 14.6819
L1D RFO DATA	ACCESS:    6199771  HIT:    5915283  MISS:     284488  HIT %:    95.4113  MISS %:    4.58869  MPKI: 5.68976
L1D PREFETCH DATA	ACCESS:     327444  HIT:     234091  MISS:      93353  HIT %:    71.4904  MISS %:    28.5096  MPKI: 1.86706

L1D PREFETCH  REQUESTED:     740311  ISSUED:     740311  USEFUL:      33503  USELESS:      68929
L1D USEFUL LOAD PREFETCHES:      33503 PREFETCH ISSUED TO LOWER LEVEL:     102532  ACCURACY: 32.6757
 TIMELY PREFETCHES:      33503 LATE PREFETCHES: 9091 DROPPED PREFETCHES: 4
L1D AVERAGE MISS LATENCY: 268123 cycles
L1D RQ	ACCESS:   10707277	FORWARD:          0	MERGED:    3924742	TO_CACHE:    6621385
L1D WQ	ACCESS:    6946339	FORWARD:     161585	MERGED:     196544	TO_CACHE:    6749795
L1D PQ	ACCESS:     370373	FORWARD:          0	MERGED:          0	TO_CACHE:     369938

L1D UNIQUE REGIONS ACCESSED: 0
L1D REGIONS CONFLICTS: 0
L1D Cross Page Prefetch Requests: 6841
L1D Same Page Prefetch Requests: 754826
L1D ROI Sum of L1D PQ occupancy: 4726976
L1D PREFETCHES PUSHED FROM L2C: 0
L1I TOTAL     ACCESS:   11184848  HIT:    7552295  MISS:    3632553  HIT %:    67.5226  MISS %:    32.4774   MPKI: 72.6511
L1I LOAD INSTRUCTION	ACCESS:    6716364  HIT:    6145316  MISS:     571048  HIT %:    91.4977  MISS %:    8.50234  MPKI: 11.421
L1I PREFETCH INSTRUCTION	ACCESS:    4468484  HIT:    1406979  MISS:    3061505  HIT %:    31.4867  MISS %:    68.5133  MPKI: 61.2301

L1I PREFETCH  REQUESTED:    5128263  ISSUED:    5128156  USEFUL:    2378188  USELESS:     779660
L1I USEFUL LOAD PREFETCHES:    2378188 PREFETCH ISSUED TO LOWER LEVEL:    3157789  ACCURACY: 75.3118
 TIMELY PREFETCHES:    2378188 LATE PREFETCHES: 96279 DROPPED PREFETCHES: 9799
L1I AVERAGE MISS LATENCY: 845207 cycles
L1I RQ	ACCESS:    9461597	FORWARD:          0	MERGED:    2686572	TO_CACHE:    6775025
L1I PQ	ACCESS:    5128156	FORWARD:          0	MERGED:     300143	TO_CACHE:    4828013

L1BTB TOTAL     ACCESS:    5671366  HIT:    2042276  MISS:    3629090  HIT %:    36.0103  MISS %:    63.9897   MPKI: 72.5818
L1BTB BRANCH_DIRECT_JUMP	ACCESS:     548144  HIT:     144791  MISS:     403353	AVERAGE STALL: 30.4328
L1BTB BRANCH_INDIRECT	ACCESS:     182904  HIT:      65960  MISS:     116944	AVERAGE STALL: 121.852
L1BTB BRANCH_CONDITIONAL	ACCESS:    2705111  HIT:    1412351  MISS:    1292760	AVERAGE STALL: 42.2877
L1BTB BRANCH_DIRECT_CALL	ACCESS:     945713  HIT:     106159  MISS:     839554	AVERAGE STALL: 44.5493
L1BTB BRANCH_INDIRECT_CALL	ACCESS:     171889  HIT:      21466  MISS:     150423	AVERAGE STALL: 146.021
L1BTB BRANCH_RETURN	ACCESS:    1117605  HIT:     291549  MISS:     826056	AVERAGE STALL: 40.2624
L1BTB BRANCH_OTHER ACCESS:          0  HIT:          0  MISS:          0	AVERAGE STALL: -nan
L1BTB TOTAL ROB OCCUPANCY AT BTB MISS: 5.71881

L2BTB1 TOTAL     ACCESS:    3603693  HIT:    3479862  MISS:     123831  HIT %:    96.5638  MISS %:    3.43623   MPKI: 2.47662
L2BTB1 BRANCH_DIRECT_JUMP	ACCESS:     399187  HIT:     390952  MISS:       8235	AVERAGE STALL: 30.4328
L2BTB1 BRANCH_INDIRECT	ACCESS:     106670  HIT:      95723  MISS:      10947	AVERAGE STALL: 121.852
L2BTB1 BRANCH_CONDITIONAL	ACCESS:    1292760  HIT:    1277852  MISS:      14908	AVERAGE STALL: 42.2877
L2BTB1 BRANCH_DIRECT_CALL	ACCESS:     839554  HIT:     816556  MISS:      22998	AVERAGE STALL: 44.5493
L2BTB1 BRANCH_INDIRECT_CALL	ACCESS:     140879  HIT:     127478  MISS:      13401	AVERAGE STALL: 146.021
L2BTB1 BRANCH_RETURN	ACCESS:     824643  HIT:     771301  MISS:      53342	AVERAGE STALL: 40.2624
L2BTB1 BRANCH_OTHER ACCESS:          0  HIT:          0  MISS:          0	AVERAGE STALL: -nan
L2BTB1 TOTAL ROB OCCUPANCY AT BTB MISS: 167.6

L2C TOTAL     ACCESS:    6597670  HIT:    5601122  MISS:     996548  HIT %:    84.8955  MISS %:    15.1045   MPKI: 19.931
L2C LOAD INSTRUCTION	ACCESS:     474769  HIT:     384358  MISS:      90411  HIT %:    80.9568  MISS %:    19.0432  MPKI: 1.80822
L2C PREFETCH INSTRUCTION	ACCESS:    3157784  HIT:    2779837  MISS:     377947  HIT %:    88.0313  MISS %:    11.9687  MPKI: 7.55894
L2C LOAD TRANSLATION INSTRUCTION	ACCESS:        144  HIT:         44  MISS:        100  HIT %:    30.5556  MISS %:    69.4444  MPKI: 0.002
L2C TRANSLATION FROM L1D PREFETCHER INSTRUCTION	ACCESS:       4816  HIT:       4701  MISS:        115  HIT %:    97.6121  MISS %:    2.38787  MPKI: 0.0023
L2C LOAD DATA	ACCESS:     724968  HIT:     574393  MISS:     150575  HIT %:    79.2301  MISS %:    20.7699  MPKI: 3.0115
L2C RFO DATA	ACCESS:     284387  HIT:     208464  MISS:      75923  HIT %:    73.3029  MISS %:    26.6971  MPKI: 1.51846
L2C PREFETCH DATA	ACCESS:    1429712  HIT:    1166792  MISS:     262920  HIT %:    81.6103  MISS %:    18.3897  MPKI: 5.2584
L2C WRITEBACK DATA	ACCESS:     519261  HIT:     482101  MISS:      37160  HIT %:    92.8437  MISS %:    7.15632  MPKI: 0.7432
L2C LOAD TRANSLATION DATA	ACCESS:       1786  HIT:        403  MISS:       1383  HIT %:    22.5644  MISS %:    77.4356  MPKI: 0.02766
L2C TRANSLATION FROM L1D PREFETCHER DATA	ACCESS:         43  HIT:         29  MISS:         14  HIT %:    67.4419  MISS %:    32.5581  MPKI: 0.00028

L2C PREFETCH  REQUESTED:    3269964  ISSUED:    3269964  USEFUL:      32904  USELESS:     610628
L2C USEFUL LOAD PREFETCHES:      32904 PREFETCH ISSUED TO LOWER LEVEL:     642706  ACCURACY: 5.1196
 TIMELY PREFETCHES:      32904 LATE PREFETCHES: 1839 DROPPED PREFETCHES: 0
L2C AVERAGE MISS LATENCY: 33.4755 cycles
L2C RQ	ACCESS:    1490968	FORWARD:          0	MERGED:          0	TO_CACHE:    1490916
L2C WQ	ACCESS:     519261	FORWARD:         52	MERGED:          0	TO_CACHE:     519261
L2C PQ	ACCESS:    6530285	FORWARD:          0	MERGED:    1923251	TO_CACHE:    4607034

L2C Dense regions hint from L2: 0
PSCL5 TOTAL     ACCESS:      11356  HIT:       5678  MISS:       5678  HIT %:         50  MISS %:         50   MPKI: 0.11356
PSCL5 LOAD TRANSLATION INSTRUCTION	ACCESS:       3704  HIT:       1852  MISS:       1852  HIT %:         50  MISS %:         50  MPKI: 0.03704
PSCL5 TRANSLATION FROM L1D PREFETCHER INSTRUCTION	ACCESS:       7652  HIT:       3826  MISS:       3826  HIT %:         50  MISS %:         50  MPKI: 0.07652


PSCL4 TOTAL     ACCESS:      11275  HIT:       5637  MISS:       5638  HIT %:    49.9956  MISS %:    50.0044   MPKI: 0.11276
PSCL4 LOAD TRANSLATION INSTRUCTION	ACCESS:       3356  HIT:       1811  MISS:       1545  HIT %:    53.9631  MISS %:    46.0369  MPKI: 0.0309
PSCL4 TRANSLATION FROM L1D PREFETCHER INSTRUCTION	ACCESS:       7613  HIT:       3826  MISS:       3787  HIT %:    50.2561  MISS %:    49.7439  MPKI: 0.07574
PSCL4 LOAD TRANSLATION DATA	ACCESS:        267  HIT:          0  MISS:        267  HIT %:          0  MISS %:        100  MPKI: 0.00534
PSCL4 TRANSLATION FROM L1D PREFETCHER DATA	ACCESS:         39  HIT:          0  MISS:         39  HIT %:          0  MISS %:        100  MPKI: 0.00078


PSCL3 TOTAL     ACCESS:      11271  HIT:       5633  MISS:       5638  HIT %:    49.9778  MISS %:    50.0222   MPKI: 0.11276
PSCL3 LOAD TRANSLATION INSTRUCTION	ACCESS:       2304  HIT:       1825  MISS:        479  HIT %:    79.2101  MISS %:    20.7899  MPKI: 0.00958
PSCL3 TRANSLATION FROM L1D PREFETCHER INSTRUCTION	ACCESS:       5035  HIT:       3808  MISS:       1227  HIT %:    75.6306  MISS %:    24.3694  MPKI: 0.02454
PSCL3 LOAD TRANSLATION DATA	ACCESS:       1351  HIT:          0  MISS:       1351  HIT %:          0  MISS %:        100  MPKI: 0.02702
PSCL3 TRANSLATION FROM L1D PREFETCHER DATA	ACCESS:       2581  HIT:          0  MISS:       2581  HIT %:          0  MISS %:        100  MPKI: 0.05162


PSCL2 TOTAL     ACCESS:       9228  HIT:       4573  MISS:       4655  HIT %:    49.5557  MISS %:    50.4443   MPKI: 0.0931
PSCL2 LOAD TRANSLATION INSTRUCTION	ACCESS:       1918  HIT:       1780  MISS:        138  HIT %:     92.805  MISS %:    7.19499  MPKI: 0.00276
PSCL2 TRANSLATION FROM L1D PREFETCHER INSTRUCTION	ACCESS:       5542  HIT:       2793  MISS:       2749  HIT %:     50.397  MISS %:     49.603  MPKI: 0.05498
PSCL2 LOAD TRANSLATION DATA	ACCESS:       1724  HIT:          0  MISS:       1724  HIT %:          0  MISS %:        100  MPKI: 0.03448
PSCL2 TRANSLATION FROM L1D PREFETCHER DATA	ACCESS:         44  HIT:          0  MISS:         44  HIT %:          0  MISS %:        100  MPKI: 0.00088


LLC TOTAL     ACCESS:    1079808  HIT:    1051114  MISS:      28694  HIT %:    97.3427  MISS %:    2.65732   MPKI: 0.57388
LLC LOAD INSTRUCTION	ACCESS:      89413  HIT:      89127  MISS:        286  HIT %:    99.6801  MISS %:   0.319864  MPKI: 0.00572
LLC PREFETCH INSTRUCTION	ACCESS:     375900  HIT:     375431  MISS:        469  HIT %:    99.8752  MISS %:   0.124767  MPKI: 0.00938
LLC LOAD TRANSLATION INSTRUCTION	ACCESS:        100  HIT:         75  MISS:         25  HIT %:         75  MISS %:         25  MPKI: 0.0005
LLC TRANSLATION FROM L1D PREFETCHER INSTRUCTION	ACCESS:        115  HIT:        101  MISS:         14  HIT %:    87.8261  MISS %:    12.1739  MPKI: 0.00028
LLC LOAD DATA	ACCESS:     149759  HIT:     146000  MISS:       3759  HIT %:      97.49  MISS %:    2.51003  MPKI: 0.07518
LLC RFO DATA	ACCESS:      75872  HIT:      62562  MISS:      13310  HIT %:    82.4573  MISS %:    17.5427  MPKI: 0.2662
LLC PREFETCH DATA	ACCESS:     266805  HIT:     256303  MISS:      10502  HIT %:    96.0638  MISS %:    3.93621  MPKI: 0.21004
LLC WRITEBACK DATA	ACCESS:     120447  HIT:     120206  MISS:        241  HIT %:    99.7999  MISS %:   0.200088  MPKI: 0.00482
LLC LOAD TRANSLATION DATA	ACCESS:       1383  HIT:       1296  MISS:         87  HIT %:    93.7093  MISS %:    6.29067  MPKI: 0.00174
LLC TRANSLATION FROM L1D PREFETCHER DATA	ACCESS:         14  HIT:         13  MISS:          1  HIT %:    92.8571  MISS %:    7.14286  MPKI: 2e-05

LLC AVERAGE MISS LATENCY: 158.756 cycles
LLC RQ	ACCESS:     316685	FORWARD:          0	MERGED:          0	TO_CACHE:     316659
LLC WQ	ACCESS:     120447	FORWARD:         27	MERGED:          0	TO_CACHE:     120447
LLC PQ	ACCESS:     642706	FORWARD:          0	MERGED:          0	TO_CACHE:     642705

LLC Dense regions hint to LLC: 0

RAW hits: 1925176
Loads Generated: 12632452
Loads sent to L1D: 10707277
Stores Generated: 6946333
Stores sent to L1D: 6946339
Major fault: 0 Minor fault: 2580
Allocated PAGES: 2580
I-Shadow cache 408 bytes
Touched + WorthPF tables 12288 bytes 
MMA filter 174 bytes 
FNL filter 272 bytes 
TOTAL PREFETCHER STORAGE SIZE: 31318 bytes
CPU 0 L1I next line prefetcher final stats

stream: 
stream:times selected: 1186091
stream:pref_filled: 119654
stream:pref_useful: 22421
stream:pref_late: 7831
stream:misses: 8261
stream:misses_by_poll: 0

CS: 
CS:times selected: 177624
CS:pref_filled: 54395
CS:pref_useful: 30581
CS:pref_late: 13211
CS:misses: 22188
CS:misses_by_poll: 7

CPLX: 
CPLX:times selected: 1007166
CPLX:pref_filled: 19675
CPLX:pref_useful: 4134
CPLX:pref_late: 3347
CPLX:misses: 94486
CPLX:misses_by_poll: 0

NL_L1: 
NL:times selected: 21198
NL:pref_filled: 647
NL:pref_useful: 264
NL:pref_late: 419
NL:misses: 1764
NL:misses_by_poll: 0

total selections: 2392079
total_filled: 93353
total_useful: 33503
total_late: 26352
total_polluted: 7
total_misses_after_warmup: 773690
conflicts: 5535199

test: 115459

DRAM Statistics
 CHANNEL 0
 RQ ROW_BUFFER_HIT:      10100  ROW_BUFFER_MISS:      18347
 DBUS_CONGESTED:         10
 WQ ROW_BUFFER_HIT:       1378  ROW_BUFFER_MISS:      12898  FULL:          0

 AVG_CONGESTED_CYCLE: 3

CPU 0 Branch Prediction Accuracy: 99.8226% MPKI: 0.32462 Average ROB Occupancy at Mispredict: 185.331
Branch types
NOT_BRANCH: 40851629 81.7033%
BRANCH_DIRECT_JUMP: 548144 1.09629%
BRANCH_INDIRECT: 182904 0.365808%
BRANCH_CONDITIONAL: 6181957 12.3639%
BRANCH_DIRECT_CALL: 945713 1.89143%
BRANCH_INDIRECT_CALL: 171889 0.343778%
BRANCH_RETURN: 1117605 2.23521%
BRANCH_OTHER: 0 0%

DRAM PAGES: 1048576
Allocated PAGES: 2580
Average_ROB_Occupancy: 217.492
Average_Decode_Occupancy: 26.3962
Average_FTQ_Occupancy: 8.80835
Indirect max targets: 14 Average targets: 1.14765
Branch_type:  BRANCH_DIRECT_JUMP:  Count Percentage: 2.9132 6.78799 2.96082 4.81234 1.69935 6.83158 1.25434 72.7404 
Branch_type:  BRANCH_INDIRECT:  Count Percentage: 11.7687 3.42617 2.55218 13.3424 3.34572 4.81924 2.00491 58.7407 
Branch_type:  BRANCH_CONDITIONAL:  Count Percentage: 21.1775 2.89347 1.67272 3.20137 1.14122 5.4399 0.739576 63.7342 
Branch_type:  BRANCH_DIRECT_CALL:  Count Percentage: 0.754182 1.26362 1.13011 2.91895 1.99552 3.1892 0.769905 87.9785 
Branch_type:  BRANCH_INDIRECT_CALL:  Count Percentage: 9.52312 0.571736 2.9835 4.83546 0.00029096 3.77666 0.995665 77.3136 
Branch_type:  BRANCH_RETURN:  Count Percentage: 4.18933 0.696273 2.26756 3.59729 2.05752 5.61868 1.15793 80.4154 
Branch_type:  BRANCH_DIRECT_JUMP:  Total Count: 31874 74269 32395 52653 18593 74746 13724 795870 
Branch_type:  BRANCH_INDIRECT:  Total Count: 43009 12521 9327 48760 12227 17612 7327 214669 
Branch_type:  BRANCH_CONDITIONAL:  Total Count: 2616062 357431 206632 395466 140975 671992 91360 7873100 
Branch_type:  BRANCH_DIRECT_CALL:  Total Count: 14246 23869 21347 55137 37694 60242 14543 1661857 
Branch_type:  BRANCH_INDIRECT_CALL:  Total Count: 32730 1965 10254 16619 1 12980 3422 265719 
Branch_type:  BRANCH_RETURN:  Total Count: 93567 15551 50645 80344 45954 125491 25862 1796048 
Number of unique branch instructions: 10072
Upper 32 bits: 
aaaa
ffff
ffff0000
Unique upper 32 bits: 3
Unique upper 36 bits: 3
Unique upper 40 bits: 5
Unique upper 44 bits: 32
Unique upper 48 bits: 154
Offset_3 4161
Offset_4 250
Offset_5 458
Offset_6 516
Offset_7 596
Offset_8 524
Offset_9 477
Offset_10 388
Offset_11 321
Offset_12 273
Offset_13 213
Offset_14 227
Offset_15 197
Offset_16 230
Offset_17 151
Offset_18 128
Offset_19 246
Offset_20 142
Offset_21 235
Offset_22 398
Offset_23 241
Offset_24 338
Offset_25 88
Offset_47 82
decode_dispatch_called: 25144676 67.6223
Dispatch_width: 0 13605822 54.1102 36.5906
Dispatch_width: 1 892266 3.54853 2.3996
Dispatch_width: 2 914971 3.63883 2.46066
Dispatch_width: 3 586184 2.33124 1.57644
Dispatch_width: 4 4535292 18.0368 12.1969
Dispatch_width: 5 282794 1.12467 0.760527
Dispatch_width: 6 4327347 17.2098 11.6377
Empty_decode_cycles: 12039298 32.3777
ROB_full_cycles: 7137870 19.1961
Starvation_cycles_per_kilo_instr: 257.188
Starvation_cycles_per_kilo_instr_3: 209.007
Starvation_cycles_per_kilo_instr_0: 185.072
Branch_type_1  (3,1)  (4,9)  (5,37)  (6,72)  (7,118)  (8,130)  (9,125)  (10,99)  (11,72)  (12,44)  (13,8)  (14,2)  (15,3)  (16,4)  (18,1)  (19,4)  (20,2)  (21,1)  (22,3)  (23,2)  (24,10)  (25,12) 
Branch_type_2  (3,1)  (5,1)  (8,3)  (9,3)  (12,1)  (13,1)  (14,1)  (16,3)  (17,2)  (20,2)  (21,2)  (23,5)  (24,1)  (47,38) 
Branch_type_3  (3,4159)  (4,241)  (5,416)  (6,428)  (7,446)  (8,328)  (9,263)  (10,158)  (11,133)  (12,51)  (13,7) 
Branch_type_4  (6,4)  (7,8)  (8,26)  (9,54)  (10,62)  (11,60)  (12,98)  (13,90)  (14,100)  (15,94)  (16,104)  (17,66)  (18,58)  (19,120)  (20,74)  (21,124)  (22,212)  (23,136)  (24,198)  (25,72) 
Branch_type_5  (8,2)  (9,1)  (10,3)  (11,5)  (12,3)  (13,14)  (14,16)  (15,11)  (16,20)  (17,13)  (18,16)  (19,12)  (20,10)  (21,13)  (22,42)  (23,26)  (24,37) 
Branch_type_6  (5,4)  (6,12)  (7,24)  (8,35)  (9,31)  (10,66)  (11,51)  (12,76)  (13,93)  (14,108)  (15,89)  (16,99)  (17,70)  (18,53)  (19,110)  (20,54)  (21,95)  (22,141)  (23,72)  (24,92)  (25,4)  (47,44) 
Unique trigger count: 
L2BTB1 1536 4
L2BTB2 1536 4
L2BTB3 1536 4
L2BTB4 224 4
