
*** ChampSim Multicore Out-of-Order Simulator ***

Warmup Instructions: 50000000
Simulation Instructions: 50000000
Number of CPUs: 1
LLC sets: 2048
LLC ways: 16
Off-chip DRAM Size: 4096 MB Channels: 1 Width: 64-bit Data Rate: 6400 MT/s
CPU 0 runs ./micro_traces/srv163.trace.gz
.gz
ITLB has LRU replacement policy
DTLB has LRU replacement policy
STLB has LRU replacement policy
FDIP Prefetcher at L1I
L1I has LRU replacement policy
L1D has LRU replacement policy
Initialize SRRIP state for L2C
Initialize DRRIP state for LLC
Heartbeat_Variant_0 : 1351 0.164917 per_variant_size: 0 1351 0 0 0 0 0 0 0 
Heartbeat_Variant_1 : 2909 0.355103 per_variant_size: 0 1231 1678 0 0 0 0 0 0 
Heartbeat_Variant_2 : 0 0 per_variant_size: 0 0 0 0 0 0 0 0 0 
Heartbeat_Variant_3 : 0 0 per_variant_size: 0 0 0 0 0 0 0 0 0 
Heartbeat_Variant_0_evicts 0 : 5516 1 : 0 2 : 0 3 : 0 
Heartbeat_Variant_1_evicts 0 : 0 1 : 0 2 : 0 3 : 0 
Heartbeat_Variant_2_evicts 0 : 0 1 : 0 2 : 0 3 : 0 
Heartbeat_Variant_3_evicts 0 : 0 1 : 0 2 : 0 3 : 0 
Heartbeat CPU 0 instructions: 10000001 cycles: 2798141 heartbeat IPC: 3.5738 cumulative IPC: 3.5738 (Simulation time: 0 hr 2 min 9 sec) 
Heartbeat_Variant_0 : 1389 0.169556 per_variant_size: 0 1389 0 0 0 0 0 0 0 
Heartbeat_Variant_1 : 3004 0.366699 per_variant_size: 0 1237 1767 0 0 0 0 0 0 
Heartbeat_Variant_2 : 0 0 per_variant_size: 0 0 0 0 0 0 0 0 0 
Heartbeat_Variant_3 : 0 0 per_variant_size: 0 0 0 0 0 0 0 0 0 
Heartbeat_Variant_0_evicts 0 : 5637 1 : 1 2 : 0 3 : 0 
Heartbeat_Variant_1_evicts 0 : 0 1 : 0 2 : 0 3 : 0 
Heartbeat_Variant_2_evicts 0 : 0 1 : 0 2 : 0 3 : 0 
Heartbeat_Variant_3_evicts 0 : 0 1 : 0 2 : 0 3 : 0 
Heartbeat CPU 0 instructions: 20000001 cycles: 5594730 heartbeat IPC: 3.57578 cumulative IPC: 3.57479 (Simulation time: 0 hr 4 min 23 sec) 
Heartbeat_Variant_0 : 1500 0.183105 per_variant_size: 0 1500 0 0 0 0 0 0 0 
Heartbeat_Variant_1 : 3294 0.4021 per_variant_size: 0 1254 2040 0 0 0 0 0 0 
Heartbeat_Variant_2 : 0 0 per_variant_size: 0 0 0 0 0 0 0 0 0 
Heartbeat_Variant_3 : 0 0 per_variant_size: 0 0 0 0 0 0 0 0 0 
Heartbeat_Variant_0_evicts 0 : 5504 1 : 4 2 : 0 3 : 0 
Heartbeat_Variant_1_evicts 0 : 3 1 : 0 2 : 0 3 : 0 
Heartbeat_Variant_2_evicts 0 : 0 1 : 0 2 : 0 3 : 0 
Heartbeat_Variant_3_evicts 0 : 0 1 : 0 2 : 0 3 : 0 
Heartbeat CPU 0 instructions: 30000003 cycles: 8390366 heartbeat IPC: 3.577 cumulative IPC: 3.57553 (Simulation time: 0 hr 6 min 35 sec) 
Heartbeat_Variant_0 : 1501 0.183228 per_variant_size: 0 1501 0 0 0 0 0 0 0 
Heartbeat_Variant_1 : 3298 0.402588 per_variant_size: 0 1254 2044 0 0 0 0 0 0 
Heartbeat_Variant_2 : 0 0 per_variant_size: 0 0 0 0 0 0 0 0 0 
Heartbeat_Variant_3 : 0 0 per_variant_size: 0 0 0 0 0 0 0 0 0 
Heartbeat_Variant_0_evicts 0 : 5524 1 : 0 2 : 0 3 : 0 
Heartbeat_Variant_1_evicts 0 : 0 1 : 0 2 : 0 3 : 0 
Heartbeat_Variant_2_evicts 0 : 0 1 : 0 2 : 0 3 : 0 
Heartbeat_Variant_3_evicts 0 : 0 1 : 0 2 : 0 3 : 0 
Heartbeat CPU 0 instructions: 40000002 cycles: 11186562 heartbeat IPC: 3.57629 cumulative IPC: 3.57572 (Simulation time: 0 hr 8 min 47 sec) 
Heartbeat_Variant_0 : 1515 0.184937 per_variant_size: 0 1515 0 0 0 0 0 0 0 
Heartbeat_Variant_1 : 3316 0.404785 per_variant_size: 0 1260 2056 0 0 0 0 0 0 
Heartbeat_Variant_2 : 0 0 per_variant_size: 0 0 0 0 0 0 0 0 0 
Heartbeat_Variant_3 : 0 0 per_variant_size: 0 0 0 0 0 0 0 0 0 
Heartbeat_Variant_0_evicts 0 : 5598 1 : 3 2 : 0 3 : 0 
Heartbeat_Variant_1_evicts 0 : 0 1 : 0 2 : 0 3 : 0 
Heartbeat_Variant_2_evicts 0 : 0 1 : 0 2 : 0 3 : 0 
Heartbeat_Variant_3_evicts 0 : 0 1 : 0 2 : 0 3 : 0 
Heartbeat CPU 0 instructions: 50000001 cycles: 13982733 heartbeat IPC: 3.57632 cumulative IPC: 3.57584 (Simulation time: 0 hr 10 min 55 sec) 

Warmup complete CPU 0 instructions: 50000001 cycles: 13982733 (Simulation time: 0 hr 10 min 55 sec) 

Cycle: 20000000 FTQ IN: 58388608 FTQ occupancy: 19.9815 DECODE IN: 58388491 DECODE occupancy: 52.263 ROB IN: 58388431 ROB occupancy: 315.526 ROB OUT: 58388080
Heartbeat_Variant_0 : 1515 0.184937 per_variant_size: 0 1515 0 0 0 0 0 0 0 
Heartbeat_Variant_1 : 3319 0.405151 per_variant_size: 0 1266 2053 0 0 0 0 0 0 
Heartbeat_Variant_2 : 0 0 per_variant_size: 0 0 0 0 0 0 0 0 0 
Heartbeat_Variant_3 : 0 0 per_variant_size: 0 0 0 0 0 0 0 0 0 
Heartbeat_Variant_0_evicts 0 : 5542 1 : 0 2 : 0 3 : 0 
Heartbeat_Variant_1_evicts 0 : 1 1 : 0 2 : 0 3 : 0 
Heartbeat_Variant_2_evicts 0 : 0 1 : 0 2 : 0 3 : 0 
Heartbeat_Variant_3_evicts 0 : 0 1 : 0 2 : 0 3 : 0 
Heartbeat CPU 0 instructions: 60000002 cycles: 21164748 heartbeat IPC: 1.39237 cumulative IPC: 1.39237 (Simulation time: 0 hr 13 min 15 sec) 
Heartbeat_Variant_0 : 1515 0.184937 per_variant_size: 0 1515 0 0 0 0 0 0 0 
Heartbeat_Variant_1 : 3319 0.405151 per_variant_size: 0 1268 2051 0 0 0 0 0 0 
Heartbeat_Variant_2 : 0 0 per_variant_size: 0 0 0 0 0 0 0 0 0 
Heartbeat_Variant_3 : 0 0 per_variant_size: 0 0 0 0 0 0 0 0 0 
Heartbeat_Variant_0_evicts 0 : 5666 1 : 0 2 : 0 3 : 0 
Heartbeat_Variant_1_evicts 0 : 0 1 : 0 2 : 0 3 : 0 
Heartbeat_Variant_2_evicts 0 : 0 1 : 0 2 : 0 3 : 0 
Heartbeat_Variant_3_evicts 0 : 0 1 : 0 2 : 0 3 : 0 
Heartbeat CPU 0 instructions: 70000001 cycles: 28375168 heartbeat IPC: 1.38688 cumulative IPC: 1.38962 (Simulation time: 0 hr 15 min 41 sec) 
Cycle: 30000000 FTQ IN: 13874845 FTQ occupancy: 13.2011 DECODE IN: 13874872 DECODE occupancy: 34.4884 ROB IN: 13874932 ROB occupancy: 240.112 ROB OUT: 13875272
Heartbeat_Variant_0 : 1515 0.184937 per_variant_size: 0 1515 0 0 0 0 0 0 0 
Heartbeat_Variant_1 : 3321 0.405396 per_variant_size: 0 1268 2053 0 0 0 0 0 0 
Heartbeat_Variant_2 : 0 0 per_variant_size: 0 0 0 0 0 0 0 0 0 
Heartbeat_Variant_3 : 0 0 per_variant_size: 0 0 0 0 0 0 0 0 0 
Heartbeat_Variant_0_evicts 0 : 5563 1 : 0 2 : 0 3 : 0 
Heartbeat_Variant_1_evicts 0 : 0 1 : 0 2 : 0 3 : 0 
Heartbeat_Variant_2_evicts 0 : 0 1 : 0 2 : 0 3 : 0 
Heartbeat_Variant_3_evicts 0 : 0 1 : 0 2 : 0 3 : 0 
Heartbeat CPU 0 instructions: 80000003 cycles: 35532638 heartbeat IPC: 1.39714 cumulative IPC: 1.39212 (Simulation time: 0 hr 18 min 0 sec) 
Cycle: 40000000 FTQ IN: 13964270 FTQ occupancy: 13.0786 DECODE IN: 13964308 DECODE occupancy: 34.5348 ROB IN: 13964291 ROB occupancy: 240.483 ROB OUT: 13964007
Heartbeat_Variant_0 : 1515 0.184937 per_variant_size: 0 1515 0 0 0 0 0 0 0 
Heartbeat_Variant_1 : 3321 0.405396 per_variant_size: 0 1269 2052 0 0 0 0 0 0 
Heartbeat_Variant_2 : 0 0 per_variant_size: 0 0 0 0 0 0 0 0 0 
Heartbeat_Variant_3 : 0 0 per_variant_size: 0 0 0 0 0 0 0 0 0 
Heartbeat_Variant_0_evicts 0 : 5433 1 : 0 2 : 0 3 : 0 
Heartbeat_Variant_1_evicts 0 : 0 1 : 0 2 : 0 3 : 0 
Heartbeat_Variant_2_evicts 0 : 0 1 : 0 2 : 0 3 : 0 
Heartbeat_Variant_3_evicts 0 : 0 1 : 0 2 : 0 3 : 0 
Heartbeat CPU 0 instructions: 90000000 cycles: 42782231 heartbeat IPC: 1.37939 cumulative IPC: 1.38891 (Simulation time: 0 hr 20 min 30 sec) 
Heartbeat_Variant_0 : 1519 0.185425 per_variant_size: 0 1519 0 0 0 0 0 0 0 
Heartbeat_Variant_1 : 3334 0.406982 per_variant_size: 0 1279 2055 0 0 0 0 0 0 
Heartbeat_Variant_2 : 0 0 per_variant_size: 0 0 0 0 0 0 0 0 0 
Heartbeat_Variant_3 : 0 0 per_variant_size: 0 0 0 0 0 0 0 0 0 
Heartbeat_Variant_0_evicts 0 : 5594 1 : 0 2 : 0 3 : 0 
Heartbeat_Variant_1_evicts 0 : 0 1 : 0 2 : 0 3 : 0 
Heartbeat_Variant_2_evicts 0 : 0 1 : 0 2 : 0 3 : 0 
Heartbeat_Variant_3_evicts 0 : 0 1 : 0 2 : 0 3 : 0 
Heartbeat CPU 0 instructions: 100000003 cycles: 49936384 heartbeat IPC: 1.39779 cumulative IPC: 1.39068 (Simulation time: 0 hr 22 min 49 sec) 
Finished CPU 0 instructions: 50000002 cycles: 35953651 cumulative IPC: 1.39068 (Simulation time: 0 hr 22 min 49 sec) 

ChampSim completed all CPUs

Region of Interest Statistics

CPU 0 cumulative IPC: 1.39068 instructions: 50000002 cycles: 35953651
 Fetch stage stalled: 53.1171  Sim cycles: 35953651 fetch stall cycle: 19097539
 Empty decode stage: 34.2846  Sim cycles: 35953651 fetch stall cycle: 12326570
ITLB TOTAL     ACCESS:    5863183  HIT:    5367359  MISS:     495824  HIT %:    91.5434  MISS %:    8.45657   MPKI: 9.91648
ITLB LOAD TRANSLATION INSTRUCTION	ACCESS:    5740255  HIT:    5244431  MISS:     495824  HIT %:    91.3623  MISS %:    8.63767  MPKI: 9.91648
ITLB TRANSLATION FROM L1D PREFETCHER INSTRUCTION	ACCESS:     122928  HIT:     122928  MISS:          0  HIT %:        100  MISS %:          0  MPKI: 0

ITLB AVERAGE MISS LATENCY: 9.05391 cycles
ITLB RQ	ACCESS:    8014844	FORWARD:          0	MERGED:    1705622	TO_CACHE:    6309222

DTLB TOTAL     ACCESS:    8963477  HIT:    8488488  MISS:     474989  HIT %:    94.7008  MISS %:    5.29916   MPKI: 9.49978
DTLB LOAD TRANSLATION DATA	ACCESS:    8963477  HIT:    8488488  MISS:     474989  HIT %:    94.7008  MISS %:    5.29916  MPKI: 9.49978

DTLB AVERAGE MISS LATENCY: 9.31303 cycles
DTLB RQ	ACCESS:   13339252	FORWARD:          0	MERGED:    4339142	TO_CACHE:    9000110

STLB TOTAL     ACCESS:    1215541  HIT:    1213653  MISS:       1888  HIT %:    99.8447  MISS %:   0.155322   MPKI: 0.03776
STLB LOAD TRANSLATION INSTRUCTION	ACCESS:     495824  HIT:     495608  MISS:        216  HIT %:    99.9564  MISS %:  0.0435638  MPKI: 0.00432
STLB LOAD TRANSLATION DATA	ACCESS:     474989  HIT:     473336  MISS:       1653  HIT %:     99.652  MISS %:   0.348008  MPKI: 0.03306
STLB TRANSLATION FROM L1D PREFETCHER DATA	ACCESS:     244728  HIT:     244709  MISS:         19  HIT %:    99.9922  MISS %: 0.00776372  MPKI: 0.00038

STLB AVERAGE MISS LATENCY: 75.7203 cycles
STLB RQ	ACCESS:    1335274	FORWARD:          0	MERGED:     119691	TO_CACHE:    1215583

STLB Hit, L1D data hit: 0
STLB Hit, L2C data hit: 0
STLB Hit, LLC data hit: 0
STLB Hit, LLC data miss: 0
STLB STLB hints to L2: 0
L1D TOTAL     ACCESS:   13085022  HIT:   11967932  MISS:    1117090  HIT %:    91.4628  MISS %:    8.53717   MPKI: 22.3418
L1D LOAD DATA	ACCESS:    6552150  HIT:    5815460  MISS:     736690  HIT %:    88.7565  MISS %:    11.2435  MPKI: 14.7338
L1D RFO DATA	ACCESS:    6208443  HIT:    5922871  MISS:     285572  HIT %:    95.4003  MISS %:    4.59974  MPKI: 5.71144
L1D PREFETCH DATA	ACCESS:     324429  HIT:     229601  MISS:      94828  HIT %:    70.7708  MISS %:    29.2292  MPKI: 1.89656

L1D PREFETCH  REQUESTED:     729233  ISSUED:     729233  USEFUL:      33493  USELESS:      68651
L1D USEFUL LOAD PREFETCHES:      33493 PREFETCH ISSUED TO LOWER LEVEL:     102194  ACCURACY: 32.7739
 TIMELY PREFETCHES:      33493 LATE PREFETCHES: 7314 DROPPED PREFETCHES: 9
L1D AVERAGE MISS LATENCY: 214148 cycles
L1D RQ	ACCESS:   10680747	FORWARD:          0	MERGED:    3931152	TO_CACHE:    6586030
L1D WQ	ACCESS:    6949899	FORWARD:     163878	MERGED:     196677	TO_CACHE:    6753222
L1D PQ	ACCESS:     364773	FORWARD:          0	MERGED:          0	TO_CACHE:     364460

L1D UNIQUE REGIONS ACCESSED: 0
L1D REGIONS CONFLICTS: 0
L1D Cross Page Prefetch Requests: 6764
L1D Same Page Prefetch Requests: 741897
L1D ROI Sum of L1D PQ occupancy: 4625347
L1D PREFETCHES PUSHED FROM L2C: 0
L1I TOTAL     ACCESS:    7173930  HIT:    4403411  MISS:    2770519  HIT %:    61.3807  MISS %:    38.6193   MPKI: 55.4104
L1I LOAD INSTRUCTION	ACCESS:    6507715  HIT:    3737196  MISS:    2770519  HIT %:    57.4272  MISS %:    42.5728  MPKI: 55.4104
L1I PREFETCH INSTRUCTION	ACCESS:     666215  HIT:     666215  MISS:          0  HIT %:        100  MISS %:          0  MPKI: 0

L1I PREFETCH  REQUESTED:    1617462  ISSUED:    1617462  USEFUL:          0  USELESS:          0
L1I USEFUL LOAD PREFETCHES:          0 PREFETCH ISSUED TO LOWER LEVEL:          0  ACCURACY: -nan
 TIMELY PREFETCHES:          0 LATE PREFETCHES: 0 DROPPED PREFETCHES: 0
L1I AVERAGE MISS LATENCY: 16.9128 cycles
L1I RQ	ACCESS:    9510787	FORWARD:          0	MERGED:    2680644	TO_CACHE:    6830143
L1I PQ	ACCESS:    1617462	FORWARD:          0	MERGED:     432761	TO_CACHE:    1184701

L1BTB TOTAL     ACCESS:    5671497  HIT:    2033283  MISS:    3638214  HIT %:    35.8509  MISS %:    64.1491   MPKI: 72.7643
L1BTB BRANCH_DIRECT_JUMP	ACCESS:     547554 HIT:     143676 MISS:     403878 AVERAGE STALL: 50.293 AVERAGE FETCH STALL: 12.3675 AVERAGE FETCH QUEUE STALL: 17.9014 AVERAGE DECODE STALL: 19.088 AVERAGE EXECUTE STALL: 2.45335e+15
L1BTB BRANCH_INDIRECT	ACCESS:     182354 HIT:      65534 MISS:     116820 AVERAGE STALL: 102.096 AVERAGE FETCH STALL: 11.3947 AVERAGE FETCH QUEUE STALL: 13.8433 AVERAGE DECODE STALL: 11.5363 AVERAGE EXECUTE STALL: 64.359
L1BTB BRANCH_CONDITIONAL	ACCESS:    2697947 HIT:    1402951 MISS:    1294996 AVERAGE STALL: 57.0771 AVERAGE FETCH STALL: 19.0748 AVERAGE FETCH QUEUE STALL: 22.9096 AVERAGE DECODE STALL: 14.3988 AVERAGE EXECUTE STALL: 4.80509e+15
L1BTB BRANCH_DIRECT_CALL	ACCESS:     949033 HIT:     106963 MISS:     842070 AVERAGE STALL: 72.2475 AVERAGE FETCH STALL: 18.6616 AVERAGE FETCH QUEUE STALL: 28.8485 AVERAGE DECODE STALL: 23.7475 AVERAGE EXECUTE STALL: 9.31654e+16
L1BTB BRANCH_INDIRECT_CALL	ACCESS:     172786 HIT:      21966 MISS:     150820 AVERAGE STALL: 132.654 AVERAGE FETCH STALL: 12.9625 AVERAGE FETCH QUEUE STALL: 13.6541 AVERAGE DECODE STALL: 10.3877 AVERAGE EXECUTE STALL: 95.1594
L1BTB BRANCH_RETURN	ACCESS:    1121823 HIT:     292193 MISS:     829630 AVERAGE STALL: 46.5505 AVERAGE FETCH STALL: 16.4581 AVERAGE FETCH QUEUE STALL: 4.29784 AVERAGE DECODE STALL: 5.67543 AVERAGE EXECUTE STALL: 4.43005e+14
L1BTB BRANCH_OTHER ACCESS:          0 HIT:          0 MISS:          0 AVERAGE STALL: -nan AVERAGE FETCH STALL: -nan AVERAGE FETCH QUEUE STALL: -nan AVERAGE DECODE STALL: -nan AVERAGE EXECUTE STALL: -nan
L1BTB TOTAL ROB OCCUPANCY AT BTB MISS: 2.29257

L2BTB TOTAL     ACCESS:    3612943  HIT:    3552613  MISS:      60330  HIT %:    98.3302  MISS %:    1.66983   MPKI: 1.2066
L2BTB BRANCH_DIRECT_JUMP	ACCESS:     399775 HIT:     396359 MISS:       3416 AVERAGE STALL: 50.293 AVERAGE FETCH STALL: 12.3675 AVERAGE FETCH QUEUE STALL: 17.9014 AVERAGE DECODE STALL: 19.088 AVERAGE EXECUTE STALL: 2.45335e+15
L2BTB BRANCH_INDIRECT	ACCESS:     106539 HIT:     103875 MISS:       2664 AVERAGE STALL: 102.096 AVERAGE FETCH STALL: 11.3947 AVERAGE FETCH QUEUE STALL: 13.8433 AVERAGE DECODE STALL: 11.5363 AVERAGE EXECUTE STALL: 64.359
L2BTB BRANCH_CONDITIONAL	ACCESS:    1294996 HIT:    1291147 MISS:       3849 AVERAGE STALL: 57.0771 AVERAGE FETCH STALL: 19.0748 AVERAGE FETCH QUEUE STALL: 22.9096 AVERAGE DECODE STALL: 14.3988 AVERAGE EXECUTE STALL: 4.80509e+15
L2BTB BRANCH_DIRECT_CALL	ACCESS:     842070 HIT:     841869 MISS:        201 AVERAGE STALL: 72.2475 AVERAGE FETCH STALL: 18.6616 AVERAGE FETCH QUEUE STALL: 28.8485 AVERAGE DECODE STALL: 23.7475 AVERAGE EXECUTE STALL: 9.31654e+16
L2BTB BRANCH_INDIRECT_CALL	ACCESS:     141347 HIT:     131385 MISS:       9962 AVERAGE STALL: 132.654 AVERAGE FETCH STALL: 12.9625 AVERAGE FETCH QUEUE STALL: 13.6541 AVERAGE DECODE STALL: 10.3877 AVERAGE EXECUTE STALL: 95.1594
L2BTB BRANCH_RETURN	ACCESS:     828216 HIT:     787978 MISS:      40238 AVERAGE STALL: 46.5505 AVERAGE FETCH STALL: 16.4581 AVERAGE FETCH QUEUE STALL: 4.29784 AVERAGE DECODE STALL: 5.67543 AVERAGE EXECUTE STALL: 4.43005e+14
L2BTB BRANCH_OTHER ACCESS:          0 HIT:          0 MISS:          0 AVERAGE STALL: -nan AVERAGE FETCH STALL: -nan AVERAGE FETCH QUEUE STALL: -nan AVERAGE DECODE STALL: -nan AVERAGE EXECUTE STALL: -nan
L2BTB TOTAL ROB OCCUPANCY AT BTB MISS: 138.254

L2C TOTAL     ACCESS:    4488186  HIT:    4055303  MISS:     432883  HIT %:    90.3551  MISS %:    9.64494   MPKI: 8.65766
L2C LOAD INSTRUCTION	ACCESS:    2770518  HIT:    2534988  MISS:     235530  HIT %:    91.4987  MISS %:     8.5013  MPKI: 4.7106
L2C LOAD TRANSLATION INSTRUCTION	ACCESS:        239  HIT:         56  MISS:        183  HIT %:     23.431  MISS %:     76.569  MPKI: 0.00366
L2C LOAD DATA	ACCESS:     729357  HIT:     664532  MISS:      64825  HIT %:     91.112  MISS %:    8.88797  MPKI: 1.2965
L2C RFO DATA	ACCESS:     285492  HIT:     234173  MISS:      51319  HIT %:    82.0244  MISS %:    17.9756  MPKI: 1.02638
L2C PREFETCH DATA	ACCESS:     179033  HIT:     112154  MISS:      66879  HIT %:    62.6443  MISS %:    37.3557  MPKI: 1.33758
L2C WRITEBACK DATA	ACCESS:     521799  HIT:     508969  MISS:      12830  HIT %:    97.5412  MISS %:     2.4588  MPKI: 0.2566
L2C LOAD TRANSLATION DATA	ACCESS:       1704  HIT:        403  MISS:       1301  HIT %:    23.6502  MISS %:    76.3498  MPKI: 0.02602
L2C TRANSLATION FROM L1D PREFETCHER DATA	ACCESS:         44  HIT:         28  MISS:         16  HIT %:    63.6364  MISS %:    36.3636  MPKI: 0.00032

L2C PREFETCH  REQUESTED:      84095  ISSUED:      84095  USEFUL:       6893  USELESS:      60331
L2C USEFUL LOAD PREFETCHES:       6893 PREFETCH ISSUED TO LOWER LEVEL:      67207  ACCURACY: 10.2564
 TIMELY PREFETCHES:       6893 LATE PREFETCHES: 328 DROPPED PREFETCHES: 0
L2C AVERAGE MISS LATENCY: 38.9167 cycles
L2C RQ	ACCESS:    3787401	FORWARD:          0	MERGED:          0	TO_CACHE:    3787354
L2C WQ	ACCESS:     521799	FORWARD:         47	MERGED:          0	TO_CACHE:     521799
L2C PQ	ACCESS:     186289	FORWARD:          0	MERGED:       3841	TO_CACHE:     182448

L2C Dense regions hint from L2: 0
PSCL5 TOTAL     ACCESS:       3802  HIT:       1901  MISS:       1901  HIT %:         50  MISS %:         50   MPKI: 0.03802
PSCL5 LOAD TRANSLATION INSTRUCTION	ACCESS:       3720  HIT:       1860  MISS:       1860  HIT %:         50  MISS %:         50  MPKI: 0.0372
PSCL5 TRANSLATION FROM L1D PREFETCHER INSTRUCTION	ACCESS:         82  HIT:         41  MISS:         41  HIT %:         50  MISS %:         50  MPKI: 0.00082


PSCL4 TOTAL     ACCESS:       3713  HIT:       1854  MISS:       1859  HIT %:    49.9327  MISS %:    50.0673   MPKI: 0.03718
PSCL4 LOAD TRANSLATION INSTRUCTION	ACCESS:       1819  HIT:       1814  MISS:          5  HIT %:    99.7251  MISS %:   0.274876  MPKI: 0.0001
PSCL4 TRANSLATION FROM L1D PREFETCHER INSTRUCTION	ACCESS:         40  HIT:         40  MISS:          0  HIT %:        100  MISS %:          0  MPKI: 0
PSCL4 LOAD TRANSLATION DATA	ACCESS:       1814  HIT:          0  MISS:       1814  HIT %:          0  MISS %:        100  MPKI: 0.03628
PSCL4 TRANSLATION FROM L1D PREFETCHER DATA	ACCESS:         40  HIT:          0  MISS:         40  HIT %:          0  MISS %:        100  MPKI: 0.0008


PSCL3 TOTAL     ACCESS:       3771  HIT:       1883  MISS:       1888  HIT %:    49.9337  MISS %:    50.0663   MPKI: 0.03776
PSCL3 LOAD TRANSLATION INSTRUCTION	ACCESS:       1848  HIT:       1843  MISS:          5  HIT %:    99.7294  MISS %:   0.270563  MPKI: 0.0001
PSCL3 TRANSLATION FROM L1D PREFETCHER INSTRUCTION	ACCESS:         40  HIT:         40  MISS:          0  HIT %:        100  MISS %:          0  MPKI: 0
PSCL3 LOAD TRANSLATION DATA	ACCESS:       1843  HIT:          0  MISS:       1843  HIT %:          0  MISS %:        100  MPKI: 0.03686
PSCL3 TRANSLATION FROM L1D PREFETCHER DATA	ACCESS:         40  HIT:          0  MISS:         40  HIT %:          0  MISS %:        100  MPKI: 0.0008


PSCL2 TOTAL     ACCESS:       3726  HIT:       1825  MISS:       1901  HIT %:    48.9801  MISS %:    51.0199   MPKI: 0.03802
PSCL2 LOAD TRANSLATION INSTRUCTION	ACCESS:       2002  HIT:       1785  MISS:        217  HIT %:    89.1608  MISS %:    10.8392  MPKI: 0.00434
PSCL2 TRANSLATION FROM L1D PREFETCHER INSTRUCTION	ACCESS:         40  HIT:         40  MISS:          0  HIT %:        100  MISS %:          0  MPKI: 0
PSCL2 LOAD TRANSLATION DATA	ACCESS:       1644  HIT:          0  MISS:       1644  HIT %:          0  MISS %:        100  MPKI: 0.03288
PSCL2 TRANSLATION FROM L1D PREFETCHER DATA	ACCESS:         40  HIT:          0  MISS:         40  HIT %:          0  MISS %:        100  MPKI: 0.0008


LLC TOTAL     ACCESS:     491249  HIT:     464100  MISS:      27149  HIT %:    94.4735  MISS %:    5.52653   MPKI: 0.54298
LLC LOAD INSTRUCTION	ACCESS:     235530  HIT:     234868  MISS:        662  HIT %:    99.7189  MISS %:   0.281068  MPKI: 0.01324
LLC LOAD TRANSLATION INSTRUCTION	ACCESS:        183  HIT:        153  MISS:         30  HIT %:    83.6066  MISS %:    16.3934  MPKI: 0.0006
LLC LOAD DATA	ACCESS:      64495  HIT:      61136  MISS:       3359  HIT %:    94.7918  MISS %:    5.20816  MPKI: 0.06718
LLC RFO DATA	ACCESS:      51315  HIT:      38278  MISS:      13037  HIT %:    74.5942  MISS %:    25.4058  MPKI: 0.26074
LLC PREFETCH DATA	ACCESS:      67206  HIT:      57504  MISS:       9702  HIT %:    85.5638  MISS %:    14.4362  MPKI: 0.19404
LLC WRITEBACK DATA	ACCESS:      71203  HIT:      70907  MISS:        296  HIT %:    99.5843  MISS %:   0.415713  MPKI: 0.00592
LLC LOAD TRANSLATION DATA	ACCESS:       1301  HIT:       1240  MISS:         61  HIT %:    95.3113  MISS %:     4.6887  MPKI: 0.00122
LLC TRANSLATION FROM L1D PREFETCHER DATA	ACCESS:         16  HIT:         14  MISS:          2  HIT %:       87.5  MISS %:       12.5  MPKI: 4e-05

LLC AVERAGE MISS LATENCY: 155.166 cycles
LLC RQ	ACCESS:     352846	FORWARD:          0	MERGED:          0	TO_CACHE:     352840
LLC WQ	ACCESS:      71203	FORWARD:          7	MERGED:          0	TO_CACHE:      71203
LLC PQ	ACCESS:      67207	FORWARD:          0	MERGED:          0	TO_CACHE:      67206

LLC Dense regions hint to LLC: 0

RAW hits: 1949525
Loads Generated: 12630272
Loads sent to L1D: 10680747
Stores Generated: 6949891
Stores sent to L1D: 6949899
Major fault: 0 Minor fault: 2589
Allocated PAGES: 2589

stream: 
stream:times selected: 1174748
stream:pref_filled: 122674
stream:pref_useful: 24228
stream:pref_late: 6749
stream:misses: 7983
stream:misses_by_poll: 0

CS: 
CS:times selected: 176987
CS:pref_filled: 59859
CS:pref_useful: 36585
CS:pref_late: 6434
CS:misses: 15682
CS:misses_by_poll: 2

CPLX: 
CPLX:times selected: 996605
CPLX:pref_filled: 19498
CPLX:pref_useful: 4670
CPLX:pref_late: 3054
CPLX:misses: 93261
CPLX:misses_by_poll: 0

NL_L1: 
NL:times selected: 20429
NL:pref_filled: 762
NL:pref_useful: 348
NL:pref_late: 276
NL:misses: 1748
NL:misses_by_poll: 0

total selections: 2368769
total_filled: 94828
total_useful: 33493
total_late: 17846
total_polluted: 2
total_misses_after_warmup: 770568
conflicts: 5528720

test: 114528

DRAM Statistics
 CHANNEL 0
 RQ ROW_BUFFER_HIT:      10033  ROW_BUFFER_MISS:      16817
 DBUS_CONGESTED:         12
 WQ ROW_BUFFER_HIT:       1178  ROW_BUFFER_MISS:      11682  FULL:          0

 AVG_CONGESTED_CYCLE: 4

CPU 0 Branch Prediction Accuracy: 99.8272% MPKI: 0.31622 Average ROB Occupancy at Mispredict: 196.099
Branch types
NOT_BRANCH: 40848288 81.6966%
BRANCH_DIRECT_JUMP: 547554 1.09511%
BRANCH_INDIRECT: 182354 0.364708%
BRANCH_CONDITIONAL: 6178118 12.3562%
BRANCH_DIRECT_CALL: 949033 1.89807%
BRANCH_INDIRECT_CALL: 172786 0.345572%
BRANCH_RETURN: 1121823 2.24365%
BRANCH_OTHER: 0 0%

DRAM PAGES: 1048576
Allocated PAGES: 2589
Average_ROB_Occupancy: 240.83
Average_Decode_Occupancy: 34.4364
Average_FTQ_Occupancy: 13.1287
Indirect max targets: 14 Average targets: 1.17778
Branch_type:  BRANCH_DIRECT_JUMP:  Count Percentage: 4.12615 5.68839 3.6339 2.28157 8.16698 6.32441 1.45656 68.322 
Branch_type:  BRANCH_INDIRECT:  Count Percentage: 11.7649 3.39007 2.49565 13.3008 3.35469 2.81793 0.939127 61.9368 
Branch_type:  BRANCH_CONDITIONAL:  Count Percentage: 21.9162 2.25494 1.81252 2.73446 2.84319 4.6314 3.63547 60.1718 
Branch_type:  BRANCH_DIRECT_CALL:  Count Percentage: 0.386715 1.804 0.716851 1.466 5.23187 2.60504 0.408249 87.3813 
Branch_type:  BRANCH_INDIRECT_CALL:  Count Percentage: 9.53172 0 2.9876 0.000869921 1.36056 1.70997 0.99287 83.4164 
Branch_type:  BRANCH_RETURN:  Count Percentage: 3.9341 2.02347 2.23352 2.03699 3.44562 5.11455 3.6105 77.6013 
Branch_type:  BRANCH_DIRECT_JUMP:  Total Count: 45172 62275 39783 24978 89410 69238 15946 747972 
Branch_type:  BRANCH_INDIRECT:  Total Count: 42894 12360 9099 48494 12231 10274 3424 225818 
Branch_type:  BRANCH_CONDITIONAL:  Total Count: 2706780 278498 223856 337722 351150 572005 449001 7431560 
Branch_type:  BRANCH_DIRECT_CALL:  Total Count: 7327 34180 13582 27776 99127 49357 7735 1655591 
Branch_type:  BRANCH_INDIRECT_CALL:  Total Count: 32871 0 10303 3 4692 5897 3424 287669 
Branch_type:  BRANCH_RETURN:  Total Count: 88140 45334 50040 45637 77196 114587 80890 1738588 
Number of unique branch instructions: 10811
Upper 32 bits: 
aaaa
ffff
ffff0000
Unique upper 32 bits: 3
Unique upper 36 bits: 3
Unique upper 40 bits: 5
Unique upper 44 bits: 32
Unique upper 48 bits: 158
Variant_0 : 1519 0.185425
Variant_1 : 3334 0.406982
Variant_2 : 0 0
Variant_3 : 0 0
Offset_3 4470
Offset_4 255
Offset_5 484
Offset_6 541
Offset_7 643
Offset_8 577
Offset_9 523
Offset_10 426
Offset_11 360
Offset_12 327
Offset_13 240
Offset_14 247
Offset_15 194
Offset_16 233
Offset_17 169
Offset_18 149
Offset_19 257
Offset_20 143
Offset_21 235
Offset_22 413
Offset_23 241
Offset_24 351
Offset_25 117
Offset_47 94
Offset_64 2
decode_dispatch_called: 25541230 71.0393
Dispatch_width: 0 13642445 53.4134 37.9445
Dispatch_width: 1 977180 3.82589 2.71789
Dispatch_width: 2 838633 3.28345 2.33254
Dispatch_width: 3 501337 1.96285 1.3944
Dispatch_width: 4 5747008 22.5009 15.9845
Dispatch_width: 5 154249 0.603922 0.429022
Dispatch_width: 6 3680378 14.4096 10.2365
Empty_decode_cycles: 10412421 28.9607
ROB_full_cycles: 9034737 25.1288
Starvation_cycles_per_kilo_instr: 232.385
Starvation_cycles_per_kilo_instr_3: 173.373
Starvation_cycles_per_kilo_instr_0: 150.201
Branch_type_1  (3,1)  (4,9)  (5,39)  (6,74)  (7,126)  (8,148)  (9,136)  (10,110)  (11,78)  (12,55)  (13,11)  (14,2)  (15,3)  (16,4)  (18,1)  (19,5)  (20,2)  (21,1)  (22,3)  (23,2)  (24,10)  (25,12) 
Branch_type_2  (3,1)  (4,1)  (5,1)  (8,4)  (9,4)  (10,1)  (12,1)  (13,1)  (14,1)  (16,3)  (17,2)  (20,2)  (21,2)  (23,5)  (24,1)  (47,43) 
Branch_type_3  (3,4468)  (4,245)  (5,440)  (6,451)  (7,487)  (8,360)  (9,288)  (10,172)  (11,146)  (12,62)  (13,10)  (64,2) 
Branch_type_4  (6,3)  (7,8)  (8,25)  (9,56)  (10,68)  (11,70)  (12,117)  (13,102)  (14,112)  (15,92)  (16,102)  (17,79)  (18,65)  (19,125)  (20,73)  (21,124)  (22,219)  (23,136)  (24,206)  (25,101) 
Branch_type_5  (8,3)  (9,1)  (10,4)  (11,5)  (12,3)  (13,14)  (14,16)  (15,11)  (16,22)  (17,11)  (18,23)  (19,14)  (20,11)  (21,13)  (22,43)  (23,26)  (24,38) 
Branch_type_6  (5,4)  (6,13)  (7,22)  (8,37)  (9,38)  (10,71)  (11,61)  (12,89)  (13,102)  (14,116)  (15,88)  (16,102)  (17,77)  (18,60)  (19,113)  (20,55)  (21,95)  (22,148)  (23,72)  (24,96)  (25,4)  (47,51) 
Unique trigger count: 
Variant_0_evicts_0 : 0
Variant_0_evicts_1 : 0
Variant_0_evicts_2 : 0
Variant_0_evicts_3 : 0
Variant_1_evicts_0 : 0
Variant_1_evicts_1 : 0
Variant_1_evicts_2 : 0
Variant_1_evicts_3 : 0
Variant_2_evicts_0 : 0
Variant_2_evicts_1 : 0
Variant_2_evicts_2 : 0
Variant_2_evicts_3 : 0
Variant_3_evicts_0 : 0
Variant_3_evicts_1 : 0
Variant_3_evicts_2 : 0
Variant_3_evicts_3 : 0
BTB PER SET UNIQUE ADDR: 1 4 2 5 3 3 3 3 2 4 4 5 4 4 2 6 2 3 3 0 1 4 3 5 4 3 3 3 4 4 4 3 3 4 2 3 3 3 3 3 4 4 4 3 4 3 3 3 6 3 2 5 4 3 2 4 2 2 3 3 5 3 2 4 5 2 3 2 4 1 4 3 3 5 4 5 5 3 4 5 4 6 5 4 3 4 2 4 3 2 2 3 3 4 3 2 6 3 3 3 3 5 4 5 2 4 3 2 4 5 5 4 1 4 0 0 4 6 2 5 3 4 3 4 5 4 5 5 3 1 3 5 4 3 3 3 4 2 4 3 2 3 3 5 2 6 3 3 4 6 3 1 3 4 3 2 3 2 5 3 1 3 2 4 3 1 0 4 5 5 6 3 4 2 4 6 3 6 3 2 3 3 4 3 2 3 2 6 5 4 3 3 3 5 1 3 3 3 3 4 5 2 3 4 0 4 3 3 4 5 3 5 5 4 4 4 4 4 3 4 2 5 2 5 7 2 3 3 4 3 2 5 4 4 3 6 6 5 2 2 3 3 4 4 5 2 4 2 6 4 3 4 1 2 3 5 3 2 3 2 5 3 5 3 2 2 5 4 4 4 3 4 3 3 6 3 6 1 4 5 5 5 1 4 3 2 5 3 4 3 4 5 3 3 4 3 2 4 4 2 4 1 3 3 5 1 3 3 4 5 4 3 4 3 3 5 2 2 4 5 5 4 3 3 6 6 2 3 2 5 2 4 2 3 3 4 3 5 3 2 2 5 3 2 2 2 2 3 3 3 3 4 3 2 4 5 4 3 1 3 4 4 2 6 2 4 3 3 2 2 3 3 3 3 2 5 2 3 1 3 4 3 3 3 4 4 1 5 4 4 4 4 1 5 2 6 4 4 3 3 5 5 3 3 4 3 3 2 5 3 3 2 1 5 5 2 4 4 3 3 2 2 4 6 3 2 2 4 3 4 5 1 4 3 2 1 3 3 2 2 3 1 4 3 3 2 4 4 5 5 3 2 4 4 4 2 4 5 4 1 3 6 2 4 2 3 5 3 5 4 4 3 4 4 4 4 1 2 2 5 3 2 4 4 2 1 3 5 5 3 3 6 3 3 4 6 4 2 1 3 3 3 3 3 2 4 3 2 3 2 3 3 3 3 1 4 4 2 4 5 4 5 3 4 4 3 0 3 1 4 4 3 5 3 3 4 1 3 3 4 4 4 3 4 4 4 5 3 3 1 1 5 2 5 4 4 6 2 2 3 3 2 4 4 4 1 4 3 4 2 4 3 2 2 3 6 3 2 4 4 1 5 4 3 4 4 2 4 5 3 3 3 4 4 1 4 3 4 4 3 4 3 2 3 3 3 5 2 4 3 4 4 3 4 2 3 3 6 3 3 5 1 5 4 3 6 3 4 3 3 2 2 5 3 3 3 3 4 4 3 2 5 1 2 2 5 3 3 4 2 2 2 3 5 3 4 3 3 3 2 1 3 3 2 3 1 5 5 4 5 3 3 3 7 4 4 2 4 4 4 3 4 2 3 5 3 1 6 5 2 5 4 3 3 3 4 4 3 4 5 4 2 2 2 5 4 1 2 4 4 4 3 2 2 3 2 4 4 4 3 5 4 2 4 3 4 4 4 3 5 2 2 6 3 2 4 3 4 2 5 2 5 6 4 3 2 5 3 4 5 4 3 3 3 3 5 2 1 2 5 6 5 5 3 3 5 3 5 2 5 4 2 1 4 5 3 5 3 1 2 5 3 4 3 3 3 4 3 4 4 4 2 4 4 4 3 5 1 2 4 3 5 6 3 4 4 2 3 5 4 3 3 1 4 3 3 4 2 4 3 6 2 5 5 3 2 3 3 3 3 4 6 3 5 4 4 4 4 4 4 2 5 3 4 3 3 4 3 3 2 3 5 3 1 5 3 3 3 3 3 3 6 2 5 6 3 3 2 4 4 5 2 3 5 4 4 4 3 3 5 5 6 2 2 3 3 5 2 3 1 6 2 1 2 2 5 3 4 5 1 3 2 4 3 2 1 4 4 4 3 5 4 1 4 4 5 2 4 4 2 3 2 3 3 5 6 6 4 3 2 2 5 4 2 4 2 3 3 2 3 4 4 6 5 3 1 3 3 5 4 4 5 5 4 4 3 4 4 2 3 3 3 5 4 4 2 5 2 3 5 4 2 4 5 3 5 4 3 4 2 3 3 3 5 5 2 3 3 5 4 2 2 2 5 4 4 2 3 2 5 4 3 3 5 4 5 4 5 3 4 4 5 4 5 5 3 5 4 4 3 3 2 4 5 4 2 4 5 4 3 2 3 3 3 3 3 5 4 1 3 3 3 3 4 6 2 3 4 4 4 3 3 5 3 3 4 5 5 3 3 5 3 4 3 3 4 3 2 5 4 3 4 3 4 4 5 3 4 3 2 5 3 2 2 4 2 3 2 2 2 4 5 2 5 5 4 4 3 3 3 4 4 5 4 4 3 2 3 3 3 2 5 5 1 3 6 6 4 4 4 3 4 3 4 4 2 3 3 3 1 5 4 7 2 5 2 3 2 4 4 4 6 3 2 2 3 2 4 4 3 4 4 1 3 1 2 5 3 4 3 5 2 5 4 4 3 5 4 4 3 6 3 5 5 3 3 3 3 1 4 3 2 3 4 5 4 4 2 2 4 5 3 2 0 5 3 4 3 2 2 4 3 2 3 5 4 4 2 5 5 3 5 4 3 0 4 4 3 4 4 5 1 3 5 3 4 2 5 5 2 4 3 4 4 4 4 2 3 3 3 3 3 5 3 4 2 7 5 1 4 5 5 3 3 3 3 2 6 3 3 3 4 3 4 4 4 5 3 3 4 4 5 6 2 3 3 2 2 3 4 5 6 3 5 4 3 5 1 5 4 3 3 3 3 3 4 4 5 4 3 2 4 5 5 4 3 3 2 4 3 4 4 5 4 5 3 4 2 3 3 4 4 4 2 3 2 3 4 5 4 2 4 5 3 4 4 4 3 4 4 4 5 3 4 4 5 3 3 6 5 3 3 3 8 4 3 4 2 5 3 4 4 3 6 2 1 3 4 4 6 4 4 1 4 5 5 2 4 5 5 2 1 4 2 4 5 3 4 2 2 3 2 1 4 3 4 2 3 3 3 3 3 4 3 5 3 3 4 3 3 3 4 5 6 5 2 2 2 2 3 4 4 3 4 4 3 2 5 3 5 2 2 2 5 2 4 4 4 5 4 5 5 3 2 3 4 3 3 4 4 3 2 2 2 3 4 2 3 4 6 4 4 3 3 5 5 2 5 4 4 3 2 4 2 5 1 3 4 6 4 5 4 5 4 5 3 3 4 5 5 2 4 2 5 3 4 2 3 3 2 4 2 4 5 4 4 2 3 4 3 5 3 2 4 3 6 6 4 3 5 4 3 3 7 4 2 4 4 5 2 2 5 4 3 4 4 4 3 1 3 6 2 4 2 2 2 4 3 2 2 2 4 2 4 2 3 4 3 5 2 2 3 4 3 5 3 4 5 3 6 4 2 4 2 4 3 4 2 5 6 3 2 4 4 4 4 2 3 3 4 5 4 3 3 5 2 4 2 3 5 4 3 2 4 5 3 3 5 2 3 4 3 4 1 3 4 4 3 3 4 5 3 2 3 2 4 1 2 2 3 2 2 4 6 3 3 3 5 3 4 3 4 3 2 4 7 3 3 4 3 4 3 3 4 5 2 3 4 5 3 2 4 3 4 3 3 2 3 2 2 5 4 3 2 3 2 3 3 4 5 4 2 4 1 1 2 6 5 4 2 3 4 2 2 2 3 4 3 3 5 2 5 4 1 3 2 3 2 1 3 4 1 6 2 1 5 4 3 3 6 1 4 2 4 5 4 5 4 3 3 4 5 4 5 3 2 4 6 5 3 6 3 4 5 2 4 5 5 3 3 3 4 4 3 3 3 2 1 2 3 3 3 2 6 4 2 5 3 2 3 4 5 5 3 2 5 5 5 3 5 3 4 4 5 4 3 5 2 2 2 3 2 3 3 3 4 4 4 2 3 5 4 0 4 1 2 4 2 3 1 4 3 3 3 6 2 3 4 1 3 2 2 2 5 3 4 4 3 2 2 3 6 6 1 4 2 3 2 3 2 5 1 2 3 4 4 2 4 2 2 5 3 6 5 5 2 3 5 4 4 3 4 5 4 3 4 2 4 2 0 2 4 3 3 3 3 4 4 5 2 1 5 3 3 4 4 5 3 2 2 3 3 1 4 4 4 1 4 2 4 3 1 1 4 1 5 3 2 3 6 3 2 3 2 2 3 5 2 3 2 3 2 3 2 3 4 3 3 5 5 2 2 2 2 3 4 3 4 2 3 4 2 3 3 4 6 4 0 5 1 4 3 3 4 3 4 4 3 2 4 2 6 3 2 4 5 3 5 5 3 3 5 4 2 3 2 4 3 2 4 1 3 3 5 5 2 3 3 1 2 4 4 4 2 4 5 5 4 3 3 2 3 5 5 5 2 3 3 4 4 1 3 3 4 4 2 5 3 4 4 3 2 5 6 4 4 5 3 4 0 2 4 5 2 3 2 4 2 5 4 4 3 1 2 2 2 3 3 
BTB PER SET COUNT: 1 4 2 5 3 3 3 3 2 4 62 5 4 4 2 7 2 3 3 0 1 4 3 5 483 3 3 3 6 519 8 3 3 4 2 3 3 3 4 4 4 996 5 3 1477 598 482 3 6 3 2 5 483 3 2 4 2 960 3 3 998 3 2 5 5 2 3 2 4 1 4 3 3 7 4 302 5 3 4 5 4 6 5 4 3 4 2 4 3 959 2 3 3 4 4 2 6 3 3 3 3 5 4 5 2 8 4 2 4 5 5 5 1 4 0 0 4 7 2 5 3 4 1631 4 5 4 8 5 3 1 4 5 5 3 3 3 4 2 4 960 2 961 3 5 2 6 4 3 6 22 3 1 4 5 4 994 3 959 5 3 1 3 3 4 3 1 0 4 5 5 7 3 105 2 4 6 3 9 4 2 3 3 4 3 2 3 2 6 9 5 3 3 3 6 1 3 3 960 3 6 5 2 4 5 0 4 7 3 33 5 3 7 5 365 5 4 4 482 3 4 2 5 2 522 8 2 3 4 4 5 475 5 4 4 3 6 6 6 2 2 4 3 4 4 5 2 7775 2 6 4 3 4 1 2 3 11 1474 2 3 2 5 3 5 3 2 2 6 4 4 4 3 4 6 3 6 3 249 1 6 5 5 5 1 4 3 2 5 3 4 3 8 5 3 5 12 3 2 4 4 2 4 1 1479 3 8 1 3 3 4 14 963 3 4 3 3 6 3 2 4 5 5 5 3 3 6 6 29 3 2 6 2 5 2 3 5 4 3 7 3 2 2 15 3 3 3 2 2 3 3 3 3 4 3 2 4 6 5 3 1 16 4 7 2 8 2 4 167 3 2 2 3 4 3 3 2 6 2 3 1 3 6 424 3 3 4 4 1 5 4 4 4 4 1 5 2 6 1357 4 3 3 5 392 3 3 4 3 3 2 6 3 4 2 1 5 5 2 4 4 3 3 2 2 4 486 3 386 2 4 733 4 5 1 4 3 31 1 3 5 2 2 3 1 4 3 3 2 4 21 6 11 3 2 6 4 4 2 4 5 4 1 3 6 2 4 2 1474 5 2876 756 4 4 3 4 4 996 4 1 2 2 5 3 2 4 4 205 1 6 5 5 3 995 7 3 3 4 6 4 2 1 3 3 3 3 3 2 5 3 2 3 2 3 3 3 1918 1 5 4 482 4 5 4 5 3 4 4 3 0 4 1 6 4 3 5 8 3 4 1 88 3 4 4 5 3 5 4 1477 5 3 3 1 1 1440 960 5 4 4 7 2 2 3 962 2 4 4 4 1 1917 4 4 3 4 3 2 2 3 6 3 2 4 4 1 5 4 3 5 4 2 4 5 1040 3 3 4 4 1 1475 3 4 4 3 4 3 2 3 3 3 5 2 4 3 4 4 1001 4 2 3 1474 7 3 3 5 1 5 10 3 6 3 4 3 3 2 2 5 3 3 3 3 4 6 3 2 5 1 2 2 5 3 3 6 959 2 2 3 10 3 4 3 5 3 2 1 3 4 2 3 1 7 5 5 6 3 3 3 9 4 1475 2 4 5 4 3 4 2 3 5 3 1 7 5 2 5 4 3 3 3 6 4 3 4 5 4 2 2 2 7 4 1 2 4 4 4 3 4 2 3 480 4 5 4 3 5 4 2 4 3 4 4 4 3 5 2 2 6 3 2 4 4 4 2 1479 2 6 6 4 4 2 5 3 6 6 1512 3 3 3 960 5 2 1 237 5 7 5 5 5 4 5 3 2949 2 5 6 2 1 4 5 3 6 3 1 2 5 3 4 3 3 3 4 3 205 4 5 2 4 5 4 3 6 1 2 4 3 5 6 4 5 4 2 3 5 5 3 3 1 4 3 3 4 2 4 3 8 2 5 6 3 2 3 3 3 486 4 6 3 997 4 4 4 4 4 4 2 1007 3 4 3 3 996 3 3 2 3 6 3 3 5 3 3 3 3 3 3 6 2 5 485 3 3 2 5 4 6 2 3 5 4 4 4 3 3 5 5 6 2 2 3 3 962 2 3 1 6 2 1 2 2 5 363 4 5 1 4 2 4 3 2 1 4 6 4 963 6 6 1 4 4 5 2 4 4 2 3 994 3 3 5 6 1483 4 3 2 3 5 4 2 4 2 3 995 2 7 4 4 6 5 3 1 3 3 11 4 4 5 5 4 962 4 4 4 1917 3 3 3 6 4 4 2 483 2 3 5 4 2 4 9 3 7 5 3 6 2 3 3 3 5 5 2 3 42 5 4 2 3 2 5 4 6 2 3 2 5 4 5 3 5 4 8 4 1476 3 4 4 5 4 6 5 4 7 4 5 3 3 2 5 5 4 2 4 520 4 3 3 3 3 3 3 393 6 4 1 3 3 481 6 4 6 2 6 4 4 4 3 3 5 3 3 4 5 5 1474 3 6 3 4 3 3 4 3 2 5 4 3 412 3 4 4 5 8 4 3 5 5 3 2 994 4 2 3 2 2 2 4 7 2 6 5 4 17 3 3 3 4 4 8 2469 364 3 2 3 3 3 2 5 5 1 3 6 6 33 4 4 3 4 3 4 4 2 3 3 3 1 8 5 8 2 5 2 3 2 5 4 4 8 3 3 2 3 2 961 5 3 6 4 1 3 1 2 5 3 4 3 5 2 5 4 5 3 5 4 4 3 485 5 5 8 3 3 3 3 5 4 1474 2 3 4 6 5 4 2 2 5 5 3 4 0 2006 3 4 3 2 2 4 3 2 3 5 4 4 2 6 365 1474 5 4 1474 0 4 4 3 4 4 575 1 3 5 3 4 2 6 1998 2 4 3 4 4 4 14 2 3 3 3 5 14 5 7 4 2 7 5 1 4 5 487 3 3 3 3 2 6 3 3 4 47 3 4 996 4 5 3 4 200 4 5 6 2 3 3 2 2 3 5 5 6 3 5 4 3 7 1 1476 4 3 3 3 3 3 4 4 5 4 3 4 4 7 9 4 3 3 2 4 3 4 4 5 4 5 3 5 2 3 4 4 4 4 2 3 2 3 1480 5 4 2 4 5 3 4 4 4 5 4 5 4 5 3 4 4 5 4 3 51 5 3 3 3 369 4 3 4 2 5 3 6 4 3 6 2 1 3 4 4 6 4 4 1 4 6 5 2 6 5 485 2 1 4 3 4 5 4 4 2 2 3 2 1 4 3 4 2 3 3 3 3 3 4 3 5 3 3 4 3 37 3 4 5 1477 7 2 2 2 2 3 4 4 3 4 4 3 2 5 3 2467 2 2 2 2983 2 4 4 4 5 4 5 8 3 2 3 5 3 481 4 4 3 2 2 2 3 4 4 3 4 6 4 4 3 3 5 5 2 7 4 4 3 2 4 2 5 1 3 4 7 486 7 4 998 4 7 3 3 4 5 6 2 4 2 5 3 4 2 3 3 2 243 994 4 6 4 4 2 3 4 3 6 3 2 5 3 6 7 6 3 5 4 3 3 1720 4 2 4 4 998 2 2 5 4 3 4 4 4 3 1 3 6 2 4 2 2 2 5 3 2 2 2 4 2 4 2 3 5 3 5 5 2 3 4 3 5 3 3427 6 3 7 4 2 5 2 4 3 6 2 5 1477 3 2 88 5 4 4 2 3 3 4 5 4 3 3 5 2 4 2 3 5 4 3 2 4 9 3 3 5 2 3 4 3 6 1 3 5 4 3 3 4 5 3 2 3 2 4 1 2 2 3 2 2 124 6 3 3 3 5 3 4 5 4 3 2 4 7 3 3 4 3 4 429 3 4 11 2 3 4 5 3 2 4 3 4 3 3 2 3 3 2 5 4 3 2 3 2 4 3 4 5 4 2 4 1 1 4 6 5 4 2 3 4 2 2 2 6 4 3 3 5 2 5 4 1 3 2 152 2 1 3 4 1 6 2 1 5 4 3 3 61 1 4 2 4 5 4 522 4 3 3 8 5 4 5 3 2 5 7 5 3 6 3 5 5 2 4 5 5 3 3 3 4 4 3 363 3 2 1 2 3 3 3 2 487 4 2 5 3 2 3 4 5 5 3 2 5 5 5 3 484 3 4 4 347 4 3 154 2 2 2 3 2 3 3 4 4 4 10 2 3 5 4 0 4 1 2 4 2 3 1 4 3 11 4 7 2 4 8 1 3 2 2 2 997 3 4 5 3 2 2 5 6 6 1 5 2 3 2 4 2 7 1 2 3 4 4 2 4 2 2 5 995 6 5 5 2 3 7 156 4 3 4 7 5 3 4 2 4 20616 0 2 4 3 3 3 3 4 4 6 2 1 5 4 4 70 4 5 3 3 2 3 3 1 1439 9 4 1 4 2 4 14722 1 1 4 1 5 3 2 3 6 3 2 1475 2 2 3 5 2 3 2 3 2 3 2 3 4 3 3 5 5 3 2 2 502 3 4 3 4 2 3 4 2 3 4 4 6 7 0 5 1 4 3 3 27 3 4 4 3 2 4 2 6 3 2 4 5 3 5 6 960 7 28 4 2 3 2 4 140 480 4 1 3 3 5 5 2 3 3 1 2 131 4 4 2 4 1062 5 484 3 4 2 3 5 5 6 2 1357 4 4 4 1 3 3 1475 4 2 5 3 4 1475 3 7 5 1477 6 4 1443 3 4 0 3 4 1213 2 3 2 99 2 5 4 6 3 1 2 2 2 3 788 
To predecode: 0
Predecoding something: 0
Predecode request dropped: 0
sizeofblock_0 0
sizeofblock_1 60650
sizeofblock_2 66441
sizeofblock_3 0
sizeofblock_4 0
sizeofblock_5 0
sizeofblock_6 0
sizeofblock_7 0
sizeofblock_8 0
Variant_0 Correct: 1619219 Incorrect: 0 Accuracy: 1
Variant_1 Correct: 5759478 Incorrect: 0 Accuracy: 1
Variant_2 Correct: 0 Incorrect: 0 Accuracy: -nan
Variant_3 Correct: 0 Incorrect: 0 Accuracy: -nan
