
*** ChampSim Multicore Out-of-Order Simulator ***

Warmup Instructions: 50000000
Simulation Instructions: 50000000
Number of CPUs: 1
LLC sets: 2048
LLC ways: 16
Off-chip DRAM Size: 4096 MB Channels: 1 Width: 64-bit Data Rate: 6400 MT/s
CPU 0 runs ./micro_traces/srv17.trace.gz
.gz
ITLB has LRU replacement policy
DTLB has LRU replacement policy
STLB has LRU replacement policy
FDIP Prefetcher at L1I
L1I has LRU replacement policy
L1D has LRU replacement policy
Initialize SRRIP state for L2C
Initialize DRRIP state for LLC
Heartbeat_Variant_0 : 1296 0.316406 per_variant_size: 0 1296 0 0 0 0 0 0 0 
Heartbeat_Variant_1 : 2255 0.550537 per_variant_size: 0 166 2089 0 0 0 0 0 0 
Heartbeat_Variant_2 : 0 0 per_variant_size: 0 0 0 0 0 0 0 0 0 
Heartbeat_Variant_3 : 0 0 per_variant_size: 0 0 0 0 0 0 0 0 0 
Heartbeat_Variant_0_evicts 0 : 5686 1 : 0 2 : 0 3 : 0 
Heartbeat_Variant_1_evicts 0 : 0 1 : 0 2 : 0 3 : 0 
Heartbeat_Variant_2_evicts 0 : 0 1 : 0 2 : 0 3 : 0 
Heartbeat_Variant_3_evicts 0 : 0 1 : 0 2 : 0 3 : 0 
Heartbeat CPU 0 instructions: 10000000 cycles: 2798525 heartbeat IPC: 3.57331 cumulative IPC: 3.57331 (Simulation time: 0 hr 1 min 40 sec) 
Heartbeat_Variant_0 : 1337 0.326416 per_variant_size: 0 1337 0 0 0 0 0 0 0 
Heartbeat_Variant_1 : 2356 0.575195 per_variant_size: 0 154 2202 0 0 0 0 0 0 
Heartbeat_Variant_2 : 0 0 per_variant_size: 0 0 0 0 0 0 0 0 0 
Heartbeat_Variant_3 : 0 0 per_variant_size: 0 0 0 0 0 0 0 0 0 
Heartbeat_Variant_0_evicts 0 : 5543 1 : 0 2 : 0 3 : 0 
Heartbeat_Variant_1_evicts 0 : 0 1 : 0 2 : 0 3 : 0 
Heartbeat_Variant_2_evicts 0 : 0 1 : 0 2 : 0 3 : 0 
Heartbeat_Variant_3_evicts 0 : 0 1 : 0 2 : 0 3 : 0 
Heartbeat CPU 0 instructions: 20000000 cycles: 5596002 heartbeat IPC: 3.57465 cumulative IPC: 3.57398 (Simulation time: 0 hr 3 min 21 sec) 
Heartbeat_Variant_0 : 1383 0.337646 per_variant_size: 0 1383 0 0 0 0 0 0 0 
Heartbeat_Variant_1 : 2458 0.600098 per_variant_size: 0 156 2302 0 0 0 0 0 0 
Heartbeat_Variant_2 : 0 0 per_variant_size: 0 0 0 0 0 0 0 0 0 
Heartbeat_Variant_3 : 0 0 per_variant_size: 0 0 0 0 0 0 0 0 0 
Heartbeat_Variant_0_evicts 0 : 5566 1 : 7 2 : 0 3 : 0 
Heartbeat_Variant_1_evicts 0 : 2 1 : 0 2 : 0 3 : 0 
Heartbeat_Variant_2_evicts 0 : 0 1 : 0 2 : 0 3 : 0 
Heartbeat_Variant_3_evicts 0 : 0 1 : 0 2 : 0 3 : 0 
Heartbeat CPU 0 instructions: 30000002 cycles: 8394105 heartbeat IPC: 3.57385 cumulative IPC: 3.57394 (Simulation time: 0 hr 5 min 2 sec) 
Heartbeat_Variant_0 : 1383 0.337646 per_variant_size: 0 1383 0 0 0 0 0 0 0 
Heartbeat_Variant_1 : 2462 0.601074 per_variant_size: 0 157 2305 0 0 0 0 0 0 
Heartbeat_Variant_2 : 0 0 per_variant_size: 0 0 0 0 0 0 0 0 0 
Heartbeat_Variant_3 : 0 0 per_variant_size: 0 0 0 0 0 0 0 0 0 
Heartbeat_Variant_0_evicts 0 : 5641 1 : 0 2 : 0 3 : 0 
Heartbeat_Variant_1_evicts 0 : 1 1 : 0 2 : 0 3 : 0 
Heartbeat_Variant_2_evicts 0 : 0 1 : 0 2 : 0 3 : 0 
Heartbeat_Variant_3_evicts 0 : 0 1 : 0 2 : 0 3 : 0 
Heartbeat CPU 0 instructions: 40000003 cycles: 11192103 heartbeat IPC: 3.57398 cumulative IPC: 3.57395 (Simulation time: 0 hr 6 min 43 sec) 
Heartbeat_Variant_0 : 1399 0.341553 per_variant_size: 0 1399 0 0 0 0 0 0 0 
Heartbeat_Variant_1 : 2518 0.614746 per_variant_size: 0 152 2366 0 0 0 0 0 0 
Heartbeat_Variant_2 : 0 0 per_variant_size: 0 0 0 0 0 0 0 0 0 
Heartbeat_Variant_3 : 0 0 per_variant_size: 0 0 0 0 0 0 0 0 0 
Heartbeat_Variant_0_evicts 0 : 5501 1 : 7 2 : 0 3 : 0 
Heartbeat_Variant_1_evicts 0 : 6 1 : 0 2 : 0 3 : 0 
Heartbeat_Variant_2_evicts 0 : 0 1 : 0 2 : 0 3 : 0 
Heartbeat_Variant_3_evicts 0 : 0 1 : 0 2 : 0 3 : 0 
Heartbeat CPU 0 instructions: 50000003 cycles: 13989567 heartbeat IPC: 3.57467 cumulative IPC: 3.57409 (Simulation time: 0 hr 8 min 25 sec) 

Warmup complete CPU 0 instructions: 50000003 cycles: 13989567 (Simulation time: 0 hr 8 min 25 sec) 

Cycle: 20000000 FTQ IN: 58368126 FTQ occupancy: 20.5387 DECODE IN: 58368027 DECODE occupancy: 53.4664 ROB IN: 58367967 ROB occupancy: 318.461 ROB OUT: 58367619
Heartbeat_Variant_0 : 1399 0.341553 per_variant_size: 0 1399 0 0 0 0 0 0 0 
Heartbeat_Variant_1 : 2519 0.61499 per_variant_size: 0 174 2345 0 0 0 0 0 0 
Heartbeat_Variant_2 : 0 0 per_variant_size: 0 0 0 0 0 0 0 0 0 
Heartbeat_Variant_3 : 0 0 per_variant_size: 0 0 0 0 0 0 0 0 0 
Heartbeat_Variant_0_evicts 0 : 5505 1 : 0 2 : 0 3 : 0 
Heartbeat_Variant_1_evicts 0 : 0 1 : 0 2 : 0 3 : 0 
Heartbeat_Variant_2_evicts 0 : 0 1 : 0 2 : 0 3 : 0 
Heartbeat_Variant_3_evicts 0 : 0 1 : 0 2 : 0 3 : 0 
Heartbeat CPU 0 instructions: 60000002 cycles: 21172413 heartbeat IPC: 1.39221 cumulative IPC: 1.39221 (Simulation time: 0 hr 10 min 26 sec) 
Heartbeat_Variant_0 : 1407 0.343506 per_variant_size: 0 1407 0 0 0 0 0 0 0 
Heartbeat_Variant_1 : 2527 0.616943 per_variant_size: 0 169 2358 0 0 0 0 0 0 
Heartbeat_Variant_2 : 0 0 per_variant_size: 0 0 0 0 0 0 0 0 0 
Heartbeat_Variant_3 : 0 0 per_variant_size: 0 0 0 0 0 0 0 0 0 
Heartbeat_Variant_0_evicts 0 : 5558 1 : 5 2 : 0 3 : 0 
Heartbeat_Variant_1_evicts 0 : 4 1 : 0 2 : 0 3 : 0 
Heartbeat_Variant_2_evicts 0 : 0 1 : 0 2 : 0 3 : 0 
Heartbeat_Variant_3_evicts 0 : 0 1 : 0 2 : 0 3 : 0 
Heartbeat CPU 0 instructions: 70000003 cycles: 28429322 heartbeat IPC: 1.378 cumulative IPC: 1.38507 (Simulation time: 0 hr 12 min 27 sec) 
Cycle: 30000000 FTQ IN: 13766214 FTQ occupancy: 14.8921 DECODE IN: 13766313 DECODE occupancy: 38.0096 ROB IN: 13766373 ROB occupancy: 247.624 ROB OUT: 13766701
Heartbeat_Variant_0 : 1414 0.345215 per_variant_size: 0 1414 0 0 0 0 0 0 0 
Heartbeat_Variant_1 : 2547 0.621826 per_variant_size: 0 185 2362 0 0 0 0 0 0 
Heartbeat_Variant_2 : 0 0 per_variant_size: 0 0 0 0 0 0 0 0 0 
Heartbeat_Variant_3 : 0 0 per_variant_size: 0 0 0 0 0 0 0 0 0 
Heartbeat_Variant_0_evicts 0 : 5683 1 : 4 2 : 0 3 : 0 
Heartbeat_Variant_1_evicts 0 : 8 1 : 0 2 : 0 3 : 0 
Heartbeat_Variant_2_evicts 0 : 0 1 : 0 2 : 0 3 : 0 
Heartbeat_Variant_3_evicts 0 : 0 1 : 0 2 : 0 3 : 0 
Heartbeat CPU 0 instructions: 80000000 cycles: 35619562 heartbeat IPC: 1.39077 cumulative IPC: 1.38696 (Simulation time: 0 hr 14 min 25 sec) 
Cycle: 40000000 FTQ IN: 13777324 FTQ occupancy: 14.8617 DECODE IN: 13777240 DECODE occupancy: 37.841 ROB IN: 13777180 ROB occupancy: 245.335 ROB OUT: 13776971
Heartbeat_Variant_0 : 1436 0.350586 per_variant_size: 0 1436 0 0 0 0 0 0 0 
Heartbeat_Variant_1 : 2586 0.631348 per_variant_size: 0 151 2435 0 0 0 0 0 0 
Heartbeat_Variant_2 : 0 0 per_variant_size: 0 0 0 0 0 0 0 0 0 
Heartbeat_Variant_3 : 0 0 per_variant_size: 0 0 0 0 0 0 0 0 0 
Heartbeat_Variant_0_evicts 0 : 5600 1 : 34 2 : 0 3 : 0 
Heartbeat_Variant_1_evicts 0 : 24 1 : 0 2 : 0 3 : 0 
Heartbeat_Variant_2_evicts 0 : 0 1 : 0 2 : 0 3 : 0 
Heartbeat_Variant_3_evicts 0 : 0 1 : 0 2 : 0 3 : 0 
Heartbeat CPU 0 instructions: 90000002 cycles: 42928412 heartbeat IPC: 1.3682 cumulative IPC: 1.38223 (Simulation time: 0 hr 16 min 26 sec) 
Cycle: 50000000 FTQ IN: 13983800 FTQ occupancy: 14.9571 DECODE IN: 13983756 DECODE occupancy: 38.3819 ROB IN: 13983756 ROB occupancy: 248.23 ROB OUT: 13983633
Heartbeat_Variant_0 : 1437 0.35083 per_variant_size: 0 1437 0 0 0 0 0 0 0 
Heartbeat_Variant_1 : 2594 0.633301 per_variant_size: 0 151 2443 0 0 0 0 0 0 
Heartbeat_Variant_2 : 0 0 per_variant_size: 0 0 0 0 0 0 0 0 0 
Heartbeat_Variant_3 : 0 0 per_variant_size: 0 0 0 0 0 0 0 0 0 
Heartbeat_Variant_0_evicts 0 : 5691 1 : 9 2 : 0 3 : 0 
Heartbeat_Variant_1_evicts 0 : 9 1 : 0 2 : 0 3 : 0 
Heartbeat_Variant_2_evicts 0 : 0 1 : 0 2 : 0 3 : 0 
Heartbeat_Variant_3_evicts 0 : 0 1 : 0 2 : 0 3 : 0 
Heartbeat CPU 0 instructions: 100000003 cycles: 50072615 heartbeat IPC: 1.39974 cumulative IPC: 1.38569 (Simulation time: 0 hr 18 min 26 sec) 
Finished CPU 0 instructions: 50000000 cycles: 36083048 cumulative IPC: 1.38569 (Simulation time: 0 hr 18 min 26 sec) 

ChampSim completed all CPUs

Region of Interest Statistics

CPU 0 cumulative IPC: 1.38569 instructions: 50000000 cycles: 36083048
 Fetch stage stalled: 46.0652  Sim cycles: 36083048 fetch stall cycle: 16621723
 Empty decode stage: 25.1142  Sim cycles: 36083048 fetch stall cycle: 9061962
ITLB TOTAL     ACCESS:    5852576  HIT:    5357112  MISS:     495464  HIT %:    91.5343  MISS %:    8.46574   MPKI: 9.90928
ITLB LOAD TRANSLATION INSTRUCTION	ACCESS:    5720974  HIT:    5225510  MISS:     495464  HIT %:    91.3395  MISS %:    8.66048  MPKI: 9.90928
ITLB TRANSLATION FROM L1D PREFETCHER INSTRUCTION	ACCESS:     131602  HIT:     131602  MISS:          0  HIT %:        100  MISS %:          0  MPKI: 0

ITLB AVERAGE MISS LATENCY: 9.07606 cycles
ITLB RQ	ACCESS:    7953499	FORWARD:          0	MERGED:    1621414	TO_CACHE:    6332085

DTLB TOTAL     ACCESS:    8969141  HIT:    8497649  MISS:     471492  HIT %:    94.7432  MISS %:    5.25682   MPKI: 9.42984
DTLB LOAD TRANSLATION DATA	ACCESS:    8969141  HIT:    8497649  MISS:     471492  HIT %:    94.7432  MISS %:    5.25682  MPKI: 9.42984

DTLB AVERAGE MISS LATENCY: 9.3455 cycles
DTLB RQ	ACCESS:   13368037	FORWARD:          0	MERGED:    4360163	TO_CACHE:    9007874

STLB TOTAL     ACCESS:    1212151  HIT:    1209796  MISS:       2355  HIT %:    99.8057  MISS %:   0.194283   MPKI: 0.0471
STLB LOAD TRANSLATION INSTRUCTION	ACCESS:     495464  HIT:     495085  MISS:        379  HIT %:    99.9235  MISS %:   0.076494  MPKI: 0.00758
STLB LOAD TRANSLATION DATA	ACCESS:     471492  HIT:     469543  MISS:       1949  HIT %:    99.5866  MISS %:   0.413369  MPKI: 0.03898
STLB TRANSLATION FROM L1D PREFETCHER DATA	ACCESS:     245195  HIT:     245168  MISS:         27  HIT %:     99.989  MISS %:  0.0110116  MPKI: 0.00054

STLB AVERAGE MISS LATENCY: 71.8705 cycles
STLB RQ	ACCESS:    1329983	FORWARD:          0	MERGED:     117781	TO_CACHE:    1212202

STLB Hit, L1D data hit: 0
STLB Hit, L2C data hit: 0
STLB Hit, LLC data hit: 0
STLB Hit, LLC data miss: 0
STLB STLB hints to L2: 0
L1D TOTAL     ACCESS:   13116728  HIT:   12001588  MISS:    1115140  HIT %:    91.4983  MISS %:    8.50166   MPKI: 22.3028
L1D LOAD DATA	ACCESS:    6575240  HIT:    5837269  MISS:     737971  HIT %:    88.7765  MISS %:    11.2235  MPKI: 14.7594
L1D RFO DATA	ACCESS:    6215460  HIT:    5930733  MISS:     284727  HIT %:    95.4191  MISS %:    4.58095  MPKI: 5.69454
L1D PREFETCH DATA	ACCESS:     326028  HIT:     233586  MISS:      92442  HIT %:     71.646  MISS %:     28.354  MPKI: 1.84884

L1D PREFETCH  REQUESTED:     726378  ISSUED:     726378  USEFUL:      31588  USELESS:      67940
L1D USEFUL LOAD PREFETCHES:      31588 PREFETCH ISSUED TO LOWER LEVEL:      99637  ACCURACY: 31.7031
 TIMELY PREFETCHES:      31588 LATE PREFETCHES: 7128 DROPPED PREFETCHES: 12
L1D AVERAGE MISS LATENCY: 202995 cycles
L1D RQ	ACCESS:   10683632	FORWARD:          0	MERGED:    3905425	TO_CACHE:    6611430
L1D WQ	ACCESS:    6955247	FORWARD:     167101	MERGED:     198640	TO_CACHE:    6756607
L1D PQ	ACCESS:     363351	FORWARD:          0	MERGED:          0	TO_CACHE:     363027

L1D UNIQUE REGIONS ACCESSED: 0
L1D REGIONS CONFLICTS: 0
L1D Cross Page Prefetch Requests: 5757
L1D Same Page Prefetch Requests: 738271
L1D ROI Sum of L1D PQ occupancy: 4610706
L1D PREFETCHES PUSHED FROM L2C: 0
L1I TOTAL     ACCESS:    7141765  HIT:    4369664  MISS:    2772101  HIT %:    61.1847  MISS %:    38.8153   MPKI: 55.442
L1I LOAD INSTRUCTION	ACCESS:    6470951  HIT:    3698850  MISS:    2772101  HIT %:    57.1608  MISS %:    42.8392  MPKI: 55.442
L1I PREFETCH INSTRUCTION	ACCESS:     670814  HIT:     670814  MISS:          0  HIT %:        100  MISS %:          0  MPKI: 0

L1I PREFETCH  REQUESTED:    1613856  ISSUED:    1613856  USEFUL:          0  USELESS:          0
L1I USEFUL LOAD PREFETCHES:          0 PREFETCH ISSUED TO LOWER LEVEL:          0  ACCURACY: -nan
 TIMELY PREFETCHES:          0 LATE PREFETCHES: 0 DROPPED PREFETCHES: 0
L1I AVERAGE MISS LATENCY: 17.285 cycles
L1I RQ	ACCESS:    9564505	FORWARD:          0	MERGED:    2791254	TO_CACHE:    6773251
L1I PQ	ACCESS:    1613856	FORWARD:          0	MERGED:     433608	TO_CACHE:    1180248

L1BTB TOTAL     ACCESS:    5673870  HIT:    2034708  MISS:    3639162  HIT %:     35.861  MISS %:     64.139   MPKI: 72.7832
L1BTB BRANCH_DIRECT_JUMP	ACCESS:     548886 HIT:     144097 MISS:     404789 AVERAGE STALL: 56.5558 AVERAGE FETCH STALL: 15.4489 AVERAGE FETCH QUEUE STALL: 18.9304 AVERAGE DECODE STALL: 21.2429 AVERAGE EXECUTE STALL: 2.40348e+15
L1BTB BRANCH_INDIRECT	ACCESS:     183185 HIT:      66077 MISS:     117108 AVERAGE STALL: 113.629 AVERAGE FETCH STALL: 10.8678 AVERAGE FETCH QUEUE STALL: 20.9371 AVERAGE DECODE STALL: 12.9022 AVERAGE EXECUTE STALL: 67.9594
L1BTB BRANCH_CONDITIONAL	ACCESS:    2707252 HIT:    1410513 MISS:    1296739 AVERAGE STALL: 63.2308 AVERAGE FETCH STALL: 21.3833 AVERAGE FETCH QUEUE STALL: 24.4633 AVERAGE DECODE STALL: 16.6117 AVERAGE EXECUTE STALL: 2.94394e+15
L1BTB BRANCH_DIRECT_CALL	ACCESS:     945682 HIT:     104012 MISS:     841670 AVERAGE STALL: 66.8446 AVERAGE FETCH STALL: 30.6073 AVERAGE FETCH QUEUE STALL: 19.5759 AVERAGE DECODE STALL: 15.6842 AVERAGE EXECUTE STALL: 1.31481e+16
L1BTB BRANCH_INDIRECT_CALL	ACCESS:     171595 HIT:      20824 MISS:     150771 AVERAGE STALL: 143.735 AVERAGE FETCH STALL: 13.0458 AVERAGE FETCH QUEUE STALL: 18.2072 AVERAGE DECODE STALL: 12.046 AVERAGE EXECUTE STALL: 99.9407
L1BTB BRANCH_RETURN	ACCESS:    1117270 HIT:     289185 MISS:     828085 AVERAGE STALL: 50.7107 AVERAGE FETCH STALL: 16.7478 AVERAGE FETCH QUEUE STALL: 5.66402 AVERAGE DECODE STALL: 6.16211 AVERAGE EXECUTE STALL: 4.32951e+14
L1BTB BRANCH_OTHER ACCESS:          0 HIT:          0 MISS:          0 AVERAGE STALL: -nan AVERAGE FETCH STALL: -nan AVERAGE FETCH QUEUE STALL: -nan AVERAGE DECODE STALL: -nan AVERAGE EXECUTE STALL: -nan
L1BTB TOTAL ROB OCCUPANCY AT BTB MISS: 2.62868

L2BTB TOTAL     ACCESS:    3613739  HIT:    3548265  MISS:      65474  HIT %:    98.1882  MISS %:    1.81181   MPKI: 1.30948
L2BTB BRANCH_DIRECT_JUMP	ACCESS:     400623 HIT:     397100 MISS:       3523 AVERAGE STALL: 56.5558 AVERAGE FETCH STALL: 15.4489 AVERAGE FETCH QUEUE STALL: 18.9304 AVERAGE DECODE STALL: 21.2429 AVERAGE EXECUTE STALL: 2.40348e+15
L2BTB BRANCH_INDIRECT	ACCESS:     106811 HIT:     104145 MISS:       2666 AVERAGE STALL: 113.629 AVERAGE FETCH STALL: 10.8678 AVERAGE FETCH QUEUE STALL: 20.9371 AVERAGE DECODE STALL: 12.9022 AVERAGE EXECUTE STALL: 67.9594
L2BTB BRANCH_CONDITIONAL	ACCESS:    1296739 HIT:    1290392 MISS:       6347 AVERAGE STALL: 63.2308 AVERAGE FETCH STALL: 21.3833 AVERAGE FETCH QUEUE STALL: 24.4633 AVERAGE DECODE STALL: 16.6117 AVERAGE EXECUTE STALL: 2.94394e+15
L2BTB BRANCH_DIRECT_CALL	ACCESS:     841670 HIT:     840232 MISS:       1438 AVERAGE STALL: 66.8446 AVERAGE FETCH STALL: 30.6073 AVERAGE FETCH QUEUE STALL: 19.5759 AVERAGE DECODE STALL: 15.6842 AVERAGE EXECUTE STALL: 1.31481e+16
L2BTB BRANCH_INDIRECT_CALL	ACCESS:     141225 HIT:     130942 MISS:      10283 AVERAGE STALL: 143.735 AVERAGE FETCH STALL: 13.0458 AVERAGE FETCH QUEUE STALL: 18.2072 AVERAGE DECODE STALL: 12.046 AVERAGE EXECUTE STALL: 99.9407
L2BTB BRANCH_RETURN	ACCESS:     826671 HIT:     785454 MISS:      41217 AVERAGE STALL: 50.7107 AVERAGE FETCH STALL: 16.7478 AVERAGE FETCH QUEUE STALL: 5.66402 AVERAGE DECODE STALL: 6.16211 AVERAGE EXECUTE STALL: 4.32951e+14
L2BTB BRANCH_OTHER ACCESS:          0 HIT:          0 MISS:          0 AVERAGE STALL: -nan AVERAGE FETCH STALL: -nan AVERAGE FETCH QUEUE STALL: -nan AVERAGE DECODE STALL: -nan AVERAGE EXECUTE STALL: -nan
L2BTB TOTAL ROB OCCUPANCY AT BTB MISS: 146.107

L2C TOTAL     ACCESS:    4501581  HIT:    4031473  MISS:     470108  HIT %:    89.5568  MISS %:    10.4432   MPKI: 9.40216
L2C LOAD INSTRUCTION	ACCESS:    2772101  HIT:    2510272  MISS:     261829  HIT %:    90.5549  MISS %:    9.44515  MPKI: 5.23658
L2C LOAD TRANSLATION INSTRUCTION	ACCESS:        423  HIT:        108  MISS:        315  HIT %:    25.5319  MISS %:    74.4681  MPKI: 0.0063
L2C LOAD DATA	ACCESS:     730811  HIT:     654993  MISS:      75818  HIT %:    89.6255  MISS %:    10.3745  MPKI: 1.51636
L2C RFO DATA	ACCESS:     284625  HIT:     237358  MISS:      47267  HIT %:    83.3932  MISS %:    16.6068  MPKI: 0.94534
L2C PREFETCH DATA	ACCESS:     186302  HIT:     115751  MISS:      70551  HIT %:    62.1308  MISS %:    37.8692  MPKI: 1.41102
L2C WRITEBACK DATA	ACCESS:     525239  HIT:     512322  MISS:      12917  HIT %:    97.5407  MISS %:    2.45926  MPKI: 0.25834
L2C LOAD TRANSLATION DATA	ACCESS:       2025  HIT:        629  MISS:       1396  HIT %:    31.0617  MISS %:    68.9383  MPKI: 0.02792
L2C TRANSLATION FROM L1D PREFETCHER DATA	ACCESS:         55  HIT:         40  MISS:         15  HIT %:    72.7273  MISS %:    27.2727  MPKI: 0.0003

L2C PREFETCH  REQUESTED:      93984  ISSUED:      93984  USEFUL:       8246  USELESS:      62681
L2C USEFUL LOAD PREFETCHES:       8246 PREFETCH ISSUED TO LOWER LEVEL:      70839  ACCURACY: 11.6405
 TIMELY PREFETCHES:       8246 LATE PREFETCHES: 288 DROPPED PREFETCHES: 0
L2C AVERAGE MISS LATENCY: 38.6335 cycles
L2C RQ	ACCESS:    3790108	FORWARD:          0	MERGED:          0	TO_CACHE:    3790042
L2C WQ	ACCESS:     525239	FORWARD:         66	MERGED:          0	TO_CACHE:     525239
L2C PQ	ACCESS:     193621	FORWARD:          0	MERGED:       3526	TO_CACHE:     190095

L2C Dense regions hint from L2: 0
PSCL5 TOTAL     ACCESS:       4742  HIT:       2371  MISS:       2371  HIT %:         50  MISS %:         50   MPKI: 0.04742
PSCL5 LOAD TRANSLATION INSTRUCTION	ACCESS:       4632  HIT:       2316  MISS:       2316  HIT %:         50  MISS %:         50  MPKI: 0.04632
PSCL5 TRANSLATION FROM L1D PREFETCHER INSTRUCTION	ACCESS:        110  HIT:         55  MISS:         55  HIT %:         50  MISS %:         50  MPKI: 0.0011


PSCL4 TOTAL     ACCESS:       4457  HIT:       2227  MISS:       2230  HIT %:    49.9663  MISS %:    50.0337   MPKI: 0.0446
PSCL4 LOAD TRANSLATION INSTRUCTION	ACCESS:       3429  HIT:       2172  MISS:       1257  HIT %:    63.3421  MISS %:    36.6579  MPKI: 0.02514
PSCL4 TRANSLATION FROM L1D PREFETCHER INSTRUCTION	ACCESS:         87  HIT:         55  MISS:         32  HIT %:    63.2184  MISS %:    36.7816  MPKI: 0.00064
PSCL4 LOAD TRANSLATION DATA	ACCESS:        918  HIT:          0  MISS:        918  HIT %:          0  MISS %:        100  MPKI: 0.01836
PSCL4 TRANSLATION FROM L1D PREFETCHER DATA	ACCESS:         23  HIT:          0  MISS:         23  HIT %:          0  MISS %:        100  MPKI: 0.00046


PSCL3 TOTAL     ACCESS:       4598  HIT:       2293  MISS:       2305  HIT %:    49.8695  MISS %:    50.1305   MPKI: 0.0461
PSCL3 LOAD TRANSLATION INSTRUCTION	ACCESS:       4246  HIT:       2243  MISS:       2003  HIT %:    52.8262  MISS %:    47.1738  MPKI: 0.04006
PSCL3 TRANSLATION FROM L1D PREFETCHER INSTRUCTION	ACCESS:        100  HIT:         50  MISS:         50  HIT %:         50  MISS %:         50  MPKI: 0.001
PSCL3 LOAD TRANSLATION DATA	ACCESS:        252  HIT:          0  MISS:        252  HIT %:          0  MISS %:        100  MPKI: 0.00504


PSCL2 TOTAL     ACCESS:       4623  HIT:       2252  MISS:       2371  HIT %:     48.713  MISS %:     51.287   MPKI: 0.04742
PSCL2 LOAD TRANSLATION INSTRUCTION	ACCESS:       2577  HIT:       2197  MISS:        380  HIT %:    85.2542  MISS %:    14.7458  MPKI: 0.0076
PSCL2 TRANSLATION FROM L1D PREFETCHER INSTRUCTION	ACCESS:         55  HIT:         55  MISS:          0  HIT %:        100  MISS %:          0  MPKI: 0
PSCL2 LOAD TRANSLATION DATA	ACCESS:       1936  HIT:          0  MISS:       1936  HIT %:          0  MISS %:        100  MPKI: 0.03872
PSCL2 TRANSLATION FROM L1D PREFETCHER DATA	ACCESS:         55  HIT:          0  MISS:         55  HIT %:          0  MISS %:        100  MPKI: 0.0011


LLC TOTAL     ACCESS:     528890  HIT:     500067  MISS:      28823  HIT %:    94.5503  MISS %:    5.44972   MPKI: 0.57646
LLC LOAD INSTRUCTION	ACCESS:     261829  HIT:     260731  MISS:       1098  HIT %:    99.5806  MISS %:   0.419358  MPKI: 0.02196
LLC LOAD TRANSLATION INSTRUCTION	ACCESS:        315  HIT:        278  MISS:         37  HIT %:     88.254  MISS %:     11.746  MPKI: 0.00074
LLC LOAD DATA	ACCESS:      75553  HIT:      71892  MISS:       3661  HIT %:    95.1544  MISS %:    4.84561  MPKI: 0.07322
LLC RFO DATA	ACCESS:      47230  HIT:      33925  MISS:      13305  HIT %:    71.8293  MISS %:    28.1707  MPKI: 0.2661
LLC PREFETCH DATA	ACCESS:      70839  HIT:      60559  MISS:      10280  HIT %:    85.4882  MISS %:    14.5118  MPKI: 0.2056
LLC WRITEBACK DATA	ACCESS:      71713  HIT:      71343  MISS:        370  HIT %:    99.4841  MISS %:   0.515946  MPKI: 0.0074
LLC LOAD TRANSLATION DATA	ACCESS:       1396  HIT:       1324  MISS:         72  HIT %:    94.8424  MISS %:    5.15759  MPKI: 0.00144
LLC TRANSLATION FROM L1D PREFETCHER DATA	ACCESS:         15  HIT:         15  MISS:          0  HIT %:        100  MISS %:          0  MPKI: 0

LLC AVERAGE MISS LATENCY: 152.976 cycles
LLC RQ	ACCESS:     386353	FORWARD:          0	MERGED:          0	TO_CACHE:     386339
LLC WQ	ACCESS:      71713	FORWARD:         14	MERGED:          0	TO_CACHE:      71713
LLC PQ	ACCESS:      70839	FORWARD:          0	MERGED:          0	TO_CACHE:      70839

LLC Dense regions hint to LLC: 0

RAW hits: 1954114
Loads Generated: 12637746
Loads sent to L1D: 10683632
Stores Generated: 6955235
Stores sent to L1D: 6955247
Major fault: 0 Minor fault: 2552
Allocated PAGES: 2552

stream: 
stream:times selected: 1173205
stream:pref_filled: 120347
stream:pref_useful: 23533
stream:pref_late: 6422
stream:misses: 6749
stream:misses_by_poll: 0

CS: 
CS:times selected: 172923
CS:pref_filled: 58703
CS:pref_useful: 34175
CS:pref_late: 6152
CS:misses: 15007
CS:misses_by_poll: 2

CPLX: 
CPLX:times selected: 998891
CPLX:pref_filled: 18910
CPLX:pref_useful: 4022
CPLX:pref_late: 2901
CPLX:misses: 88129
CPLX:misses_by_poll: 2

NL_L1: 
NL:times selected: 19198
NL:pref_filled: 513
NL:pref_useful: 194
NL:pref_late: 191
NL:misses: 1019
NL:misses_by_poll: 0

total selections: 2364217
total_filled: 92442
total_useful: 31588
total_late: 16808
total_polluted: 4
total_misses_after_warmup: 774161
conflicts: 5549869

test: 112539

DRAM Statistics
 CHANNEL 0
 RQ ROW_BUFFER_HIT:      10585  ROW_BUFFER_MISS:      17864
 DBUS_CONGESTED:         17
 WQ ROW_BUFFER_HIT:       1385  ROW_BUFFER_MISS:      11896  FULL:          0

 AVG_CONGESTED_CYCLE: 5

CPU 0 Branch Prediction Accuracy: 99.8161% MPKI: 0.33636 Average ROB Occupancy at Mispredict: 190.684
Branch types
NOT_BRANCH: 40854597 81.7092%
BRANCH_DIRECT_JUMP: 548886 1.09777%
BRANCH_INDIRECT: 183185 0.36637%
BRANCH_CONDITIONAL: 6178573 12.3571%
BRANCH_DIRECT_CALL: 945682 1.89136%
BRANCH_INDIRECT_CALL: 171595 0.34319%
BRANCH_RETURN: 1117270 2.23454%
BRANCH_OTHER: 0 0%

DRAM PAGES: 1048576
Allocated PAGES: 2552
Average_ROB_Occupancy: 248.46
Average_Decode_Occupancy: 38.0636
Average_FTQ_Occupancy: 14.8784
Indirect max targets: 14 Average targets: 1.15878
Branch_type:  BRANCH_DIRECT_JUMP:  Count Percentage: 2.90445 7.06577 3.67387 9.84561 1.96611 6.3021 0.992401 67.2497 
Branch_type:  BRANCH_INDIRECT:  Count Percentage: 11.7648 3.43858 3.74614 0 1.33894 9.67141 19.2161 50.8241 
Branch_type:  BRANCH_CONDITIONAL:  Count Percentage: 21.694 6.34182 1.8039 8.48605 1.39315 5.44798 1.89693 52.9362 
Branch_type:  BRANCH_DIRECT_CALL:  Count Percentage: 0.766559 1.30145 1.42967 4.67873 2.44875 2.56093 0.886311 85.9276 
Branch_type:  BRANCH_INDIRECT_CALL:  Count Percentage: 9.57241 0.5703 3.00041 4.85527 0 2.26634 1.28514 78.4501 
Branch_type:  BRANCH_RETURN:  Count Percentage: 4.28475 4.27486 1.27147 8.89613 2.1287 7.12889 3.06906 68.9461 
Branch_type:  BRANCH_DIRECT_JUMP:  Total Count: 31860 77507 40300 108000 21567 69130 10886 737686 
Branch_type:  BRANCH_INDIRECT:  Total Count: 43072 12589 13715 0 4902 35408 70352 186072 
Branch_type:  BRANCH_CONDITIONAL:  Total Count: 2679373 783263 222795 1048092 172065 672867 234286 6538029 
Branch_type:  BRANCH_DIRECT_CALL:  Total Count: 14486 24594 27017 88416 46275 48395 16749 1623811 
Branch_type:  BRANCH_INDIRECT_CALL:  Total Count: 32848 1957 10296 16661 0 7777 4410 269204 
Branch_type:  BRANCH_RETURN:  Total Count: 95709 95488 28401 198714 47549 159239 68554 1540059 
Number of unique branch instructions: 10248
Upper 32 bits: 
aaaa
ffff
ffff0000
Unique upper 32 bits: 3
Unique upper 36 bits: 3
Unique upper 40 bits: 5
Unique upper 44 bits: 32
Unique upper 48 bits: 153
Variant_0 : 1437 0.35083
Variant_1 : 2594 0.633301
Variant_2 : 0 0
Variant_3 : 0 0
Offset_3 4259
Offset_4 250
Offset_5 460
Offset_6 516
Offset_7 611
Offset_8 533
Offset_9 479
Offset_10 397
Offset_11 337
Offset_12 299
Offset_13 221
Offset_14 240
Offset_15 195
Offset_16 224
Offset_17 155
Offset_18 134
Offset_19 243
Offset_20 141
Offset_21 235
Offset_22 405
Offset_23 241
Offset_24 336
Offset_25 92
Offset_47 84
Offset_64 1
decode_dispatch_called: 26372669 73.0888
Dispatch_width: 0 14244854 54.0137 39.478
Dispatch_width: 1 1034760 3.92361 2.86772
Dispatch_width: 2 826257 3.133 2.28988
Dispatch_width: 3 490089 1.85832 1.35823
Dispatch_width: 4 6354808 24.0962 17.6116
Dispatch_width: 5 108261 0.410505 0.300033
Dispatch_width: 6 3313640 12.5647 9.18337
Empty_decode_cycles: 9710379 26.9112
ROB_full_cycles: 10062222 27.8863
Starvation_cycles_per_kilo_instr: 227.072
Starvation_cycles_per_kilo_instr_3: 162.441
Starvation_cycles_per_kilo_instr_0: 138.93
Branch_type_1  (3,1)  (4,7)  (5,36)  (6,71)  (7,121)  (8,130)  (9,126)  (10,103)  (11,76)  (12,51)  (13,8)  (14,2)  (15,3)  (16,4)  (18,1)  (19,4)  (20,2)  (21,1)  (22,3)  (23,2)  (24,10)  (25,12) 
Branch_type_2  (3,1)  (4,1)  (5,1)  (8,3)  (9,3)  (12,1)  (13,1)  (14,1)  (16,3)  (17,2)  (20,2)  (21,2)  (23,5)  (24,1)  (47,39) 
Branch_type_3  (3,4257)  (4,242)  (5,419)  (6,429)  (7,459)  (8,339)  (9,261)  (10,160)  (11,137)  (12,58)  (13,7)  (64,1) 
Branch_type_4  (6,4)  (7,8)  (8,26)  (9,52)  (10,63)  (11,63)  (12,105)  (13,94)  (14,108)  (15,93)  (16,101)  (17,71)  (18,62)  (19,119)  (20,72)  (21,124)  (22,216)  (23,136)  (24,197)  (25,76) 
Branch_type_5  (8,2)  (9,1)  (10,4)  (11,5)  (12,3)  (13,14)  (14,16)  (15,11)  (16,20)  (17,11)  (18,16)  (19,12)  (20,11)  (21,13)  (22,42)  (23,26)  (24,36) 
Branch_type_6  (5,4)  (6,12)  (7,23)  (8,33)  (9,36)  (10,67)  (11,56)  (12,81)  (13,97)  (14,113)  (15,88)  (16,96)  (17,71)  (18,55)  (19,108)  (20,54)  (21,95)  (22,144)  (23,72)  (24,92)  (25,4)  (47,45) 
Unique trigger count: 
Variant_0_evicts_0 : 0
Variant_0_evicts_1 : 0
Variant_0_evicts_2 : 0
Variant_0_evicts_3 : 0
Variant_1_evicts_0 : 0
Variant_1_evicts_1 : 0
Variant_1_evicts_2 : 0
Variant_1_evicts_3 : 0
Variant_2_evicts_0 : 0
Variant_2_evicts_1 : 0
Variant_2_evicts_2 : 0
Variant_2_evicts_3 : 0
Variant_3_evicts_0 : 0
Variant_3_evicts_1 : 0
Variant_3_evicts_2 : 0
Variant_3_evicts_3 : 0
BTB PER SET UNIQUE ADDR: 27 25 26 28 34 27 29 25 24 28 28 27 27 24 25 30 29 27 31 28 23 26 26 27 33 28 27 28 29 27 28 27 24 30 26 23 28 28 27 29 32 26 25 29 28 27 25 28 28 23 26 21 25 25 33 28 25 27 27 34 25 26 26 23 26 27 28 25 30 24 23 24 22 27 26 31 28 25 28 31 34 25 24 28 27 33 27 26 24 24 32 27 26 28 26 27 27 23 22 30 24 26 26 22 31 30 24 20 28 25 28 28 27 26 28 24 27 24 28 24 31 27 28 34 23 32 30 28 26 27 27 27 27 27 27 22 27 27 29 24 24 27 29 27 29 27 28 27 26 24 27 23 28 26 29 28 24 29 26 28 31 31 26 29 27 29 30 26 25 25 26 29 31 24 27 29 26 28 29 27 33 24 22 28 27 25 26 31 26 31 26 26 28 27 23 32 25 31 29 29 22 28 29 27 31 27 24 25 25 25 31 30 29 24 22 25 30 27 29 26 27 30 25 21 29 26 29 28 28 24 30 25 27 24 27 27 27 31 25 22 30 25 25 26 22 27 30 26 25 25 24 25 22 28 31 26 
BTB PER SET COUNT: 30 40 4438 1001 313 34 30 26 25 1072 29 3102 29 1545 521 33 31 1780 32 1019 23 26 26 1022 991 525 27 154 4942 519 712 29 1991 144 27 24 40 2005 43 1011 656 26 27 31 29 32 26 1501 549 33 526 323 32 25 41 35 29 241 36 1990 26 1007 590 27 1664 1042 1012 26 1020 28 26 14733 23 33 3950 33 2863 1205 32 164 37 31 27 829 1385 35 29 32 764 1011 38 32 1010 28 31 1409 30 702 24 263 38 27 149 35 33 34 31 20 247 3104 1749 29 33 28 30 926 33 29 1537 24 313 33 1872 1018 24 3361 33 2477 27 33 28 37 171 39 1715 22 29 32 1013 25 443 28 31 30 524 3095 1193 2973 29 30 1005 29 2001 33 38 31 612 1507 2482 33 37 40 1500 394 1501 1503 2319 28 26 28 31 1870 2576 1008 29 493 26 31 1400 40 38 26 27 4057 1524 29 2488 525 27 37 1511 32 31 33 25 34 29 390 1014 321 995 76 35 27 1105 1031 32 27 33 515 395 1955 1511 32 533 1016 1045 137 278 27 30 782 397 1005 38 137 2855 40 1500 25 2647 2000 75 24 29 1024 399 527 7867 22 43 29 514 37 1992 31 38 20740 1498 32 1485 48 22 32 35 26 
To predecode: 0
Predecoding something: 0
Predecode request dropped: 0
sizeofblock_0 0
sizeofblock_1 40621
sizeofblock_2 97257
sizeofblock_3 0
sizeofblock_4 0
sizeofblock_5 0
sizeofblock_6 0
sizeofblock_7 0
sizeofblock_8 0
Variant_0 Correct: 1619199 Incorrect: 0 Accuracy: 1
Variant_1 Correct: 5745435 Incorrect: 0 Accuracy: 1
Variant_2 Correct: 0 Incorrect: 0 Accuracy: -nan
Variant_3 Correct: 0 Incorrect: 0 Accuracy: -nan
