
*** ChampSim Multicore Out-of-Order Simulator ***

Warmup Instructions: 50000000
Simulation Instructions: 50000000
Number of CPUs: 1
LLC sets: 2048
LLC ways: 16
Off-chip DRAM Size: 4096 MB Channels: 1 Width: 64-bit Data Rate: 6400 MT/s
CPU 0 runs ./micro_traces/srv149.trace.gz
.gz
ITLB has LRU replacement policy
DTLB has LRU replacement policy
STLB has LRU replacement policy
FDIP Prefetcher at L1I
L1I has LRU replacement policy
L1D has LRU replacement policy
Initialize SRRIP state for L2C
Initialize DRRIP state for LLC
Heartbeat CPU 0 instructions: 10000001 cycles: 2794003 heartbeat IPC: 3.57909 cumulative IPC: 3.57909 (Simulation time: 0 hr 1 min 52 sec) 
Heartbeat CPU 0 instructions: 20000000 cycles: 5588351 heartbeat IPC: 3.57865 cumulative IPC: 3.57887 (Simulation time: 0 hr 3 min 50 sec) 
Heartbeat CPU 0 instructions: 30000003 cycles: 8382882 heartbeat IPC: 3.57842 cumulative IPC: 3.57872 (Simulation time: 0 hr 5 min 41 sec) 
Heartbeat CPU 0 instructions: 40000002 cycles: 11178072 heartbeat IPC: 3.57757 cumulative IPC: 3.57843 (Simulation time: 0 hr 7 min 36 sec) 
*** Reached end of trace for Core: 0 Repeating trace: ./micro_traces/srv149.trace.gz
Heartbeat CPU 0 instructions: 50000000 cycles: 13972843 heartbeat IPC: 3.57811 cumulative IPC: 3.57837 (Simulation time: 0 hr 9 min 33 sec) 

Warmup complete CPU 0 instructions: 50000004 cycles: 13972844 (Simulation time: 0 hr 9 min 33 sec) 

Cycle: 20000000 FTQ IN: 58479002 FTQ occupancy: 21.5392 DECODE IN: 58479002 DECODE occupancy: 55.3183 ROB IN: 58479002 ROB occupancy: 324.738 ROB OUT: 58478847
Heartbeat CPU 0 instructions: 60000003 cycles: 21082438 heartbeat IPC: 1.40655 cumulative IPC: 1.40655 (Simulation time: 0 hr 12 min 20 sec) 
Heartbeat CPU 0 instructions: 70000001 cycles: 28101606 heartbeat IPC: 1.42467 cumulative IPC: 1.41555 (Simulation time: 0 hr 14 min 47 sec) 
Cycle: 30000000 FTQ IN: 14265887 FTQ occupancy: 18.0964 DECODE IN: 14265749 DECODE occupancy: 44.3753 ROB IN: 14265689 ROB occupancy: 269.331 ROB OUT: 14265492
Heartbeat CPU 0 instructions: 80000000 cycles: 35123481 heartbeat IPC: 1.42412 cumulative IPC: 1.4184 (Simulation time: 0 hr 17 min 9 sec) 
Cycle: 40000000 FTQ IN: 14198218 FTQ occupancy: 18.113 DECODE IN: 14198280 DECODE occupancy: 44.2191 ROB IN: 14198301 ROB occupancy: 267.953 ROB OUT: 14198617
Heartbeat CPU 0 instructions: 90000002 cycles: 42124351 heartbeat IPC: 1.42839 cumulative IPC: 1.42088 (Simulation time: 0 hr 19 min 43 sec) 
*** Reached end of trace for Core: 0 Repeating trace: ./micro_traces/srv149.trace.gz
Heartbeat CPU 0 instructions: 100000000 cycles: 49096910 heartbeat IPC: 1.43419 cumulative IPC: 1.42353 (Simulation time: 0 hr 23 min 20 sec) 
Finished CPU 0 instructions: 50000000 cycles: 35124067 cumulative IPC: 1.42353 (Simulation time: 0 hr 23 min 20 sec) 

ChampSim completed all CPUs

Region of Interest Statistics

CPU 0 cumulative IPC: 1.42353 instructions: 50000000 cycles: 35124067
 Fetch stage stalled: 23.3402  Sim cycles: 35124067 fetch stall cycle: 8198041
 Empty decode stage: 12.1908  Sim cycles: 35124067 fetch stall cycle: 4281905
ITLB TOTAL     ACCESS:    5948992  HIT:    5457442  MISS:     491550  HIT %:    91.7373  MISS %:    8.26274   MPKI: 9.831
ITLB LOAD TRANSLATION INSTRUCTION	ACCESS:    5793209  HIT:    5301659  MISS:     491550  HIT %:    91.5151  MISS %:    8.48493  MPKI: 9.831
ITLB TRANSLATION FROM L1D PREFETCHER INSTRUCTION	ACCESS:     155783  HIT:     155783  MISS:          0  HIT %:        100  MISS %:          0  MPKI: 0

ITLB AVERAGE MISS LATENCY: 9.05915 cycles
ITLB RQ	ACCESS:    7918361	FORWARD:          0	MERGED:    1430152	TO_CACHE:    6488209

DTLB TOTAL     ACCESS:    8899103  HIT:    8423312  MISS:     475791  HIT %:    94.6535  MISS %:    5.34651   MPKI: 9.51582
DTLB LOAD TRANSLATION DATA	ACCESS:    8899103  HIT:    8423312  MISS:     475791  HIT %:    94.6535  MISS %:    5.34651  MPKI: 9.51582

DTLB AVERAGE MISS LATENCY: 9.28162 cycles
DTLB RQ	ACCESS:   13263322	FORWARD:          0	MERGED:    4327421	TO_CACHE:    8935901

STLB TOTAL     ACCESS:    1223180  HIT:    1220848  MISS:       2332  HIT %:    99.8093  MISS %:   0.190651   MPKI: 0.04664
STLB LOAD TRANSLATION INSTRUCTION	ACCESS:     491550  HIT:     491213  MISS:        337  HIT %:    99.9314  MISS %:  0.0685586  MPKI: 0.00674
STLB LOAD TRANSLATION DATA	ACCESS:     475791  HIT:     473839  MISS:       1952  HIT %:    99.5897  MISS %:   0.410264  MPKI: 0.03904
STLB TRANSLATION FROM L1D PREFETCHER DATA	ACCESS:     255839  HIT:     255796  MISS:         43  HIT %:    99.9832  MISS %:  0.0168074  MPKI: 0.00086

STLB AVERAGE MISS LATENCY: 58.5163 cycles
STLB RQ	ACCESS:    1380342	FORWARD:          0	MERGED:     157133	TO_CACHE:    1223209

STLB Hit, L1D data hit: 0
STLB Hit, L2C data hit: 0
STLB Hit, LLC data hit: 0
STLB Hit, LLC data miss: 0
STLB STLB hints to L2: 0
L1D TOTAL     ACCESS:   13013307  HIT:   11816569  MISS:    1196738  HIT %:    90.8037  MISS %:    9.19626   MPKI: 23.9348
L1D LOAD DATA	ACCESS:    6525925  HIT:    5736836  MISS:     789089  HIT %:    87.9084  MISS %:    12.0916  MPKI: 15.7818
L1D RFO DATA	ACCESS:    6148396  HIT:    5852937  MISS:     295459  HIT %:    95.1945  MISS %:    4.80546  MPKI: 5.90918
L1D PREFETCH DATA	ACCESS:     338986  HIT:     226796  MISS:     112190  HIT %:    66.9042  MISS %:    33.0958  MPKI: 2.2438

L1D PREFETCH  REQUESTED:     826399  ISSUED:     826399  USEFUL:      54853  USELESS:      72783
L1D USEFUL LOAD PREFETCHES:      54853 PREFETCH ISSUED TO LOWER LEVEL:     127718  ACCURACY: 42.9485
 TIMELY PREFETCHES:      54853 LATE PREFETCHES: 15453 DROPPED PREFETCHES: 1
L1D AVERAGE MISS LATENCY: 399546 cycles
L1D RQ	ACCESS:   10643466	FORWARD:          0	MERGED:    3917876	TO_CACHE:    6562685
L1D WQ	ACCESS:    6899288	FORWARD:     163302	MERGED:     198651	TO_CACHE:    6700637
L1D PQ	ACCESS:     413398	FORWARD:          0	MERGED:          0	TO_CACHE:     413001

L1D UNIQUE REGIONS ACCESSED: 0
L1D REGIONS CONFLICTS: 0
L1D Cross Page Prefetch Requests: 7884
L1D Same Page Prefetch Requests: 831918
L1D ROI Sum of L1D PQ occupancy: 5230888
L1D PREFETCHES PUSHED FROM L2C: 0
L1I TOTAL     ACCESS:    7108111  HIT:    4351388  MISS:    2756723  HIT %:    61.2172  MISS %:    38.7828   MPKI: 55.1345
L1I LOAD INSTRUCTION	ACCESS:    6419468  HIT:    3662745  MISS:    2756723  HIT %:    57.0568  MISS %:    42.9432  MPKI: 55.1345
L1I PREFETCH INSTRUCTION	ACCESS:     688643  HIT:     688643  MISS:          0  HIT %:        100  MISS %:          0  MPKI: 0

L1I PREFETCH  REQUESTED:    1678510  ISSUED:    1678510  USEFUL:          0  USELESS:          0
L1I USEFUL LOAD PREFETCHES:          0 PREFETCH ISSUED TO LOWER LEVEL:          0  ACCURACY: -nan
 TIMELY PREFETCHES:          0 LATE PREFETCHES: 0 DROPPED PREFETCHES: 0
L1I AVERAGE MISS LATENCY: 17.2008 cycles
L1I RQ	ACCESS:    9852335	FORWARD:          0	MERGED:    3179204	TO_CACHE:    6673131
L1I PQ	ACCESS:    1678510	FORWARD:          0	MERGED:     433280	TO_CACHE:    1245230

L1BTB TOTAL     ACCESS:    5393286  HIT:    5361223  MISS:      32063  HIT %:    99.4055  MISS %:   0.594498   MPKI: 0.64126
L1BTB BRANCH_DIRECT_JUMP	ACCESS:     541789  HIT:     541789  MISS:          0	AVERAGE STALL: -nan
L1BTB BRANCH_INDIRECT	ACCESS:     180368  HIT:     167501  MISS:      12867	AVERAGE STALL: 124.345
L1BTB BRANCH_CONDITIONAL	ACCESS:    2444395  HIT:    2444395  MISS:          0	AVERAGE STALL: -nan
L1BTB BRANCH_DIRECT_CALL	ACCESS:     942516  HIT:     942516  MISS:          0	AVERAGE STALL: -nan
L1BTB BRANCH_INDIRECT_CALL	ACCESS:     170854  HIT:     151658  MISS:      19196	AVERAGE STALL: 161.9
L1BTB BRANCH_RETURN	ACCESS:    1113364  HIT:    1113364  MISS:          0	AVERAGE STALL: -nan
L1BTB BRANCH_OTHER ACCESS:          0  HIT:          0  MISS:          0	AVERAGE STALL: -nan
L1BTB TOTAL ROB OCCUPANCY AT BTB MISS: 123.32

L2BTB BRANCH_DIRECT_JUMP	ACCESS:          0  HIT:          0  MISS:          0	AVERAGE STALL: -nan
L2BTB BRANCH_INDIRECT	ACCESS:          0  HIT:          0  MISS:          0	AVERAGE STALL: 124.345
L2BTB BRANCH_CONDITIONAL	ACCESS:          0  HIT:          0  MISS:          0	AVERAGE STALL: -nan
L2BTB BRANCH_DIRECT_CALL	ACCESS:          0  HIT:          0  MISS:          0	AVERAGE STALL: -nan
L2BTB BRANCH_INDIRECT_CALL	ACCESS:          0  HIT:          0  MISS:          0	AVERAGE STALL: 161.9
L2BTB BRANCH_RETURN	ACCESS:          0  HIT:          0  MISS:          0	AVERAGE STALL: -nan
L2BTB BRANCH_OTHER ACCESS:          0  HIT:          0  MISS:          0	AVERAGE STALL: -nan
L2BTB TOTAL ROB OCCUPANCY AT BTB MISS: inf

L2C TOTAL     ACCESS:    4582494  HIT:    4101685  MISS:     480809  HIT %:    89.5077  MISS %:    10.4923   MPKI: 9.61618
L2C LOAD INSTRUCTION	ACCESS:    2756723  HIT:    2508299  MISS:     248424  HIT %:    90.9884  MISS %:    9.01157  MPKI: 4.96848
L2C LOAD TRANSLATION INSTRUCTION	ACCESS:        387  HIT:        100  MISS:        287  HIT %:    25.8398  MISS %:    74.1602  MPKI: 0.00574
L2C LOAD DATA	ACCESS:     773617  HIT:     692043  MISS:      81574  HIT %:    89.4555  MISS %:    10.5445  MPKI: 1.63148
L2C RFO DATA	ACCESS:     295356  HIT:     238747  MISS:      56609  HIT %:    80.8336  MISS %:    19.1664  MPKI: 1.13218
L2C PREFETCH DATA	ACCESS:     214974  HIT:     135782  MISS:      79192  HIT %:    63.1621  MISS %:    36.8379  MPKI: 1.58384
L2C WRITEBACK DATA	ACCESS:     539312  HIT:     526130  MISS:      13182  HIT %:    97.5558  MISS %:    2.44423  MPKI: 0.26364
L2C LOAD TRANSLATION DATA	ACCESS:       2074  HIT:        543  MISS:       1531  HIT %:    26.1813  MISS %:    73.8187  MPKI: 0.03062
L2C TRANSLATION FROM L1D PREFETCHER DATA	ACCESS:         51  HIT:         41  MISS:         10  HIT %:    80.3922  MISS %:    19.6078  MPKI: 0.0002

L2C PREFETCH  REQUESTED:      94984  ISSUED:      94984  USEFUL:       9049  USELESS:      70665
L2C USEFUL LOAD PREFETCHES:       9049 PREFETCH ISSUED TO LOWER LEVEL:      79541  ACCURACY: 11.3765
 TIMELY PREFETCHES:       9049 LATE PREFETCHES: 349 DROPPED PREFETCHES: 0
L2C AVERAGE MISS LATENCY: 39.2306 cycles
L2C RQ	ACCESS:    3828255	FORWARD:          0	MERGED:          0	TO_CACHE:    3828208
L2C WQ	ACCESS:     539313	FORWARD:         48	MERGED:          0	TO_CACHE:     539313
L2C PQ	ACCESS:     222702	FORWARD:          0	MERGED:       3790	TO_CACHE:     218911

L2C Dense regions hint from L2: 0
PSCL5 TOTAL     ACCESS:       4666  HIT:       2333  MISS:       2333  HIT %:         50  MISS %:         50   MPKI: 0.04666
PSCL5 LOAD TRANSLATION INSTRUCTION	ACCESS:       4564  HIT:       2282  MISS:       2282  HIT %:         50  MISS %:         50  MPKI: 0.04564
PSCL5 TRANSLATION FROM L1D PREFETCHER INSTRUCTION	ACCESS:        102  HIT:         51  MISS:         51  HIT %:         50  MISS %:         50  MPKI: 0.00102


PSCL4 TOTAL     ACCESS:       4372  HIT:       2182  MISS:       2190  HIT %:    49.9085  MISS %:    50.0915   MPKI: 0.0438
PSCL4 LOAD TRANSLATION INSTRUCTION	ACCESS:       3280  HIT:       2149  MISS:       1131  HIT %:    65.5183  MISS %:    34.4817  MPKI: 0.02262
PSCL4 TRANSLATION FROM L1D PREFETCHER INSTRUCTION	ACCESS:         54  HIT:         33  MISS:         21  HIT %:    61.1111  MISS %:    38.8889  MPKI: 0.00042
PSCL4 LOAD TRANSLATION DATA	ACCESS:       1026  HIT:          0  MISS:       1026  HIT %:          0  MISS %:        100  MPKI: 0.02052
PSCL4 TRANSLATION FROM L1D PREFETCHER DATA	ACCESS:         12  HIT:          0  MISS:         12  HIT %:          0  MISS %:        100  MPKI: 0.00024


PSCL3 TOTAL     ACCESS:       4230  HIT:       2106  MISS:       2124  HIT %:    49.7872  MISS %:    50.2128   MPKI: 0.04248
PSCL3 LOAD TRANSLATION INSTRUCTION	ACCESS:       2526  HIT:       2073  MISS:        453  HIT %:    82.0665  MISS %:    17.9335  MPKI: 0.00906
PSCL3 TRANSLATION FROM L1D PREFETCHER INSTRUCTION	ACCESS:         39  HIT:         33  MISS:          6  HIT %:    84.6154  MISS %:    15.3846  MPKI: 0.00012
PSCL3 LOAD TRANSLATION DATA	ACCESS:       1638  HIT:          0  MISS:       1638  HIT %:          0  MISS %:        100  MPKI: 0.03276
PSCL3 TRANSLATION FROM L1D PREFETCHER DATA	ACCESS:         27  HIT:          0  MISS:         27  HIT %:          0  MISS %:        100  MPKI: 0.00054


PSCL2 TOTAL     ACCESS:       4513  HIT:       2180  MISS:       2333  HIT %:    48.3049  MISS %:    51.6951   MPKI: 0.04666
PSCL2 LOAD TRANSLATION INSTRUCTION	ACCESS:       2465  HIT:       2129  MISS:        336  HIT %:    86.3692  MISS %:    13.6308  MPKI: 0.00672
PSCL2 TRANSLATION FROM L1D PREFETCHER INSTRUCTION	ACCESS:         51  HIT:         51  MISS:          0  HIT %:        100  MISS %:          0  MPKI: 0
PSCL2 LOAD TRANSLATION DATA	ACCESS:       1946  HIT:          0  MISS:       1946  HIT %:          0  MISS %:        100  MPKI: 0.03892
PSCL2 TRANSLATION FROM L1D PREFETCHER DATA	ACCESS:         51  HIT:          0  MISS:         51  HIT %:          0  MISS %:        100  MPKI: 0.00102


LLC TOTAL     ACCESS:     548297  HIT:     523425  MISS:      24872  HIT %:    95.4638  MISS %:    4.53623   MPKI: 0.49744
LLC LOAD INSTRUCTION	ACCESS:     248424  HIT:     247681  MISS:        743  HIT %:    99.7009  MISS %:   0.299085  MPKI: 0.01486
LLC LOAD TRANSLATION INSTRUCTION	ACCESS:        287  HIT:        267  MISS:         20  HIT %:    93.0314  MISS %:    6.96864  MPKI: 0.0004
LLC LOAD DATA	ACCESS:      81232  HIT:      78303  MISS:       2929  HIT %:    96.3943  MISS %:    3.60572  MPKI: 0.05858
LLC RFO DATA	ACCESS:      56601  HIT:      44580  MISS:      12021  HIT %:    78.7619  MISS %:    21.2381  MPKI: 0.24042
LLC PREFETCH DATA	ACCESS:      79541  HIT:      70633  MISS:       8908  HIT %:    88.8007  MISS %:    11.1993  MPKI: 0.17816
LLC WRITEBACK DATA	ACCESS:      80671  HIT:      80498  MISS:        173  HIT %:    99.7855  MISS %:   0.214451  MPKI: 0.00346
LLC LOAD TRANSLATION DATA	ACCESS:       1531  HIT:       1453  MISS:         78  HIT %:    94.9053  MISS %:    5.09471  MPKI: 0.00156
LLC TRANSLATION FROM L1D PREFETCHER DATA	ACCESS:         10  HIT:         10  MISS:          0  HIT %:        100  MISS %:          0  MPKI: 0

LLC AVERAGE MISS LATENCY: 194.633 cycles
LLC RQ	ACCESS:     388086	FORWARD:          0	MERGED:          0	TO_CACHE:     388085
LLC WQ	ACCESS:      80671	FORWARD:          1	MERGED:          0	TO_CACHE:      80671
LLC PQ	ACCESS:      79541	FORWARD:          0	MERGED:          0	TO_CACHE:      79541

LLC Dense regions hint to LLC: 0

RAW hits: 1944302
Loads Generated: 12587770
Loads sent to L1D: 10643466
Stores Generated: 6899276
Stores sent to L1D: 6899288
Major fault: 0 Minor fault: 2244
Allocated PAGES: 2244

stream: 
stream:times selected: 1253177
stream:pref_filled: 131565
stream:pref_useful: 31061
stream:pref_late: 10616
stream:misses: 10972
stream:misses_by_poll: 0

CS: 
CS:times selected: 196593
CS:pref_filled: 80582
CS:pref_useful: 56630
CS:pref_late: 9567
CS:misses: 26151
CS:misses_by_poll: 16

CPLX: 
CPLX:times selected: 1055497
CPLX:pref_filled: 28673
CPLX:pref_useful: 9627
CPLX:pref_late: 5126
CPLX:misses: 148128
CPLX:misses_by_poll: 3

NL_L1: 
NL:times selected: 21497
NL:pref_filled: 1064
NL:pref_useful: 650
NL:pref_late: 706
NL:misses: 2971
NL:misses_by_poll: 0

total selections: 2526764
total_filled: 112190
total_useful: 54853
total_late: 28783
total_polluted: 19
total_misses_after_warmup: 825849
conflicts: 5488530

test: 123414

DRAM Statistics
 CHANNEL 0
 RQ ROW_BUFFER_HIT:       9141  ROW_BUFFER_MISS:      15549
 DBUS_CONGESTED:         14
 WQ ROW_BUFFER_HIT:       1739  ROW_BUFFER_MISS:      11195  FULL:          0

 AVG_CONGESTED_CYCLE: 4

CPU 0 Branch Prediction Accuracy: 99.8274% MPKI: 0.31662 Average ROB Occupancy at Mispredict: 203.271
Branch types
NOT_BRANCH: 40827532 81.6551%
BRANCH_DIRECT_JUMP: 541789 1.08358%
BRANCH_INDIRECT: 180368 0.360736%
BRANCH_CONDITIONAL: 6223451 12.4469%
BRANCH_DIRECT_CALL: 942516 1.88503%
BRANCH_INDIRECT_CALL: 170854 0.341708%
BRANCH_RETURN: 1113364 2.22673%
BRANCH_OTHER: 0 0%

DRAM PAGES: 1048576
Allocated PAGES: 2244
Average_ROB_Occupancy: 270.923
Average_Decode_Occupancy: 44.4626
Average_FTQ_Occupancy: 18.1595
Indirect max targets: 14 Average targets: 1.14865
Branch_type:  BRANCH_DIRECT_JUMP:  Count Percentage: 2.86204 6.18563 4.88073 8.11617 1.86457 2.74081 0.815904 72.5342 
Branch_type:  BRANCH_INDIRECT:  Count Percentage: 11.7684 3.32375 2.44112 9.68703 3.36066 4.02403 2.03227 63.3627 
Branch_type:  BRANCH_CONDITIONAL:  Count Percentage: 22.401 5.52967 2.24576 4.83256 5.88061 2.72985 0.636041 55.7445 
Branch_type:  BRANCH_DIRECT_CALL:  Count Percentage: 0.778294 1.30272 1.38008 4.2185 2.57512 2.05472 0.684129 87.0064 
Branch_type:  BRANCH_INDIRECT_CALL:  Count Percentage: 9.55813 0.541959 2.99701 4.82498 1.25531 2.97536 0.99208 76.8552 
Branch_type:  BRANCH_RETURN:  Count Percentage: 4.26032 3.76632 1.81321 5.58007 7.86494 4.2566 1.02367 71.4349 
Branch_type:  BRANCH_DIRECT_JUMP:  Total Count: 30974 66943 52821 87836 20179 29662 8830 784990 
Branch_type:  BRANCH_INDIRECT:  Total Count: 42400 11975 8795 34901 12108 14498 7322 228287 
Branch_type:  BRANCH_CONDITIONAL:  Total Count: 2786241 687782 279328 601076 731433 339540 79111 6933525 
Branch_type:  BRANCH_DIRECT_CALL:  Total Count: 14679 24570 26029 79563 48568 38753 12903 1640983 
Branch_type:  BRANCH_INDIRECT_CALL:  Total Count: 32680 1853 10247 16497 4292 10173 3392 262774 
Branch_type:  BRANCH_RETURN:  Total Count: 94952 83942 40412 124366 175290 94869 22815 1592106 
Number of unique branch instructions: 10250
Upper 32 bits: 
aaaa
ffff
ffff0000
Unique upper 32 bits: 3
Unique upper 36 bits: 3
Unique upper 40 bits: 5
Unique upper 44 bits: 32
Unique upper 48 bits: 156
Offset_3 4224
Offset_4 255
Offset_5 460
Offset_6 526
Offset_7 610
Offset_8 533
Offset_9 487
Offset_10 402
Offset_11 332
Offset_12 273
Offset_13 211
Offset_14 227
Offset_15 199
Offset_16 231
Offset_17 156
Offset_18 135
Offset_19 242
Offset_20 142
Offset_21 241
Offset_22 401
Offset_23 243
Offset_24 334
Offset_25 88
Offset_47 82
decode_dispatch_called: 27678432 78.8019
Dispatch_width: 0 15219820 54.988 43.3316
Dispatch_width: 1 1086860 3.92674 3.09435
Dispatch_width: 2 841294 3.03953 2.39521
Dispatch_width: 3 497998 1.79923 1.41783
Dispatch_width: 4 7199526 26.0113 20.4974
Dispatch_width: 5 59150 0.213704 0.168403
Dispatch_width: 6 2773784 10.0215 7.8971
Empty_decode_cycles: 7445635 21.1981
ROB_full_cycles: 11841305 33.7128
Starvation_cycles_per_kilo_instr: 205.09
Starvation_cycles_per_kilo_instr_3: 132.503
Starvation_cycles_per_kilo_instr_0: 108.241
Branch_type_1  (3,1)  (4,9)  (5,36)  (6,76)  (7,123)  (8,129)  (9,127)  (10,103)  (11,78)  (12,44)  (13,4)  (14,2)  (15,3)  (16,4)  (18,1)  (19,4)  (20,2)  (21,1)  (22,3)  (23,2)  (24,10)  (25,12) 
Branch_type_2  (3,1)  (5,1)  (8,3)  (9,3)  (12,1)  (13,1)  (14,1)  (16,3)  (17,2)  (20,2)  (21,2)  (23,5)  (24,1)  (47,38) 
Branch_type_3  (3,4222)  (4,246)  (5,419)  (6,434)  (7,455)  (8,341)  (9,271)  (10,167)  (11,136)  (12,51)  (13,4) 
Branch_type_4  (6,4)  (7,8)  (8,27)  (9,52)  (10,63)  (11,58)  (12,98)  (13,93)  (14,100)  (15,95)  (16,105)  (17,71)  (18,62)  (19,117)  (20,74)  (21,127)  (22,215)  (23,137)  (24,196)  (25,72) 
Branch_type_5  (8,2)  (9,1)  (10,3)  (11,5)  (12,3)  (13,14)  (14,16)  (15,11)  (16,20)  (17,12)  (18,16)  (19,12)  (20,10)  (21,13)  (22,42)  (23,26)  (24,36) 
Branch_type_6  (5,4)  (6,12)  (7,24)  (8,31)  (9,33)  (10,66)  (11,55)  (12,76)  (13,95)  (14,108)  (15,90)  (16,99)  (17,71)  (18,56)  (19,109)  (20,54)  (21,98)  (22,141)  (23,73)  (24,91)  (25,4)  (47,44) 
Unique trigger count: 
BTB PER SET UNIQUE ADDR: 0 0 0 0 0 0 0 0 0 0 0 0 0 0 0 0 0 0 0 0 0 0 0 0 0 0 0 0 0 0 0 0 0 0 0 0 0 0 0 0 0 0 0 0 0 0 0 0 0 0 0 0 0 0 0 0 0 0 0 0 0 0 0 0 0 0 0 0 0 0 0 0 0 0 0 0 0 0 0 0 0 0 0 0 0 0 0 0 0 0 0 0 0 0 0 0 0 0 0 0 0 0 0 0 0 0 0 0 0 0 0 0 0 0 0 0 0 0 0 0 0 0 0 0 0 0 0 0 0 0 0 0 0 0 0 0 0 0 0 0 0 0 0 0 0 0 0 0 0 0 0 0 0 0 0 0 0 0 0 0 0 0 0 0 0 0 0 0 0 0 0 0 0 0 0 0 0 0 0 0 0 0 0 0 0 0 0 0 0 0 0 0 0 0 0 0 0 0 0 0 0 0 0 0 0 0 0 0 0 0 0 0 0 0 0 0 0 0 0 0 0 0 0 0 0 0 0 0 0 0 0 0 0 0 0 0 0 0 0 0 0 0 0 0 0 0 0 0 0 0 0 0 0 0 0 0 0 0 0 0 0 0 0 0 0 0 0 0 0 0 0 0 0 0 0 0 0 0 0 0 0 0 0 0 0 0 0 0 0 0 0 0 0 0 0 0 0 0 0 0 0 0 0 0 0 0 0 0 0 0 0 0 0 0 0 0 0 0 0 0 0 0 0 0 0 0 0 0 0 0 0 0 0 0 0 0 0 0 0 0 0 0 0 0 0 0 0 0 0 0 0 0 0 0 0 0 0 0 0 0 0 0 0 0 0 0 0 0 0 0 0 0 0 0 0 0 0 0 0 0 0 0 0 0 0 0 0 0 0 0 0 0 0 0 0 0 0 0 0 0 0 0 0 0 0 0 0 0 0 0 0 0 0 0 0 0 0 0 0 0 0 0 0 0 0 0 0 0 0 0 0 0 0 0 0 0 0 0 0 0 0 0 0 0 0 0 0 0 0 0 0 0 0 0 0 0 0 0 0 0 0 0 0 0 0 0 0 0 0 0 0 0 0 0 0 0 0 0 0 0 0 0 0 0 0 0 0 0 0 0 0 0 0 0 0 0 0 0 0 0 0 0 0 0 0 0 0 0 0 0 0 0 0 0 0 0 0 0 0 0 0 0 0 0 0 0 0 0 0 0 0 0 0 0 0 0 0 0 0 0 0 0 0 0 0 0 0 0 0 0 0 0 0 0 0 0 0 0 0 0 0 0 0 0 0 0 0 0 0 0 0 0 0 0 0 0 0 0 0 0 0 0 0 0 0 0 0 0 0 0 0 0 0 0 0 0 0 0 0 0 0 0 0 0 0 0 0 0 0 0 0 0 0 0 0 0 0 0 0 0 0 0 0 0 0 0 0 0 0 0 0 0 0 0 0 0 0 0 0 0 0 0 0 0 0 0 0 0 0 0 0 0 0 0 0 0 0 0 0 0 0 0 0 0 0 0 0 0 0 0 0 0 0 0 0 0 0 0 0 0 0 0 0 0 0 0 0 0 0 0 0 0 0 0 0 0 0 0 0 0 0 0 0 0 0 0 0 0 0 0 0 0 0 0 0 0 0 0 0 0 0 0 0 0 0 0 0 0 0 0 0 0 0 0 0 0 0 0 0 0 0 0 0 0 0 0 0 0 0 0 0 0 0 0 0 0 0 0 0 0 0 0 0 0 0 0 0 0 0 0 0 0 0 0 0 0 0 0 0 0 0 0 0 0 0 0 0 0 0 0 0 0 0 0 0 0 0 0 0 0 0 0 0 0 0 0 0 0 0 0 0 0 0 0 0 0 0 0 0 0 0 0 0 0 0 0 0 0 0 0 0 0 0 0 0 0 0 0 0 0 0 0 0 0 0 0 0 0 0 0 0 0 0 0 0 0 0 0 0 0 0 0 0 0 0 0 0 0 0 0 0 0 0 0 0 0 0 0 0 0 0 0 0 0 0 0 0 0 0 0 0 0 0 0 0 0 0 0 0 0 0 0 0 0 0 0 0 0 0 0 0 0 0 0 0 0 0 0 0 0 0 0 0 0 0 0 0 0 0 0 0 0 0 0 0 0 0 0 0 0 0 0 0 0 0 0 0 0 0 0 0 0 0 0 0 0 0 0 0 0 0 0 0 0 0 0 0 0 0 0 0 0 0 0 0 0 0 0 0 0 0 0 0 0 0 0 0 0 0 0 0 0 0 0 0 0 0 0 0 0 0 0 0 0 0 0 0 0 0 0 0 0 0 0 0 0 0 0 0 0 0 0 0 0 0 0 0 0 0 0 0 0 0 0 0 0 0 0 0 0 0 0 0 0 0 0 0 0 0 0 0 0 0 0 0 0 0 0 0 0 0 0 0 0 0 0 0 0 0 0 0 0 0 0 0 0 0 0 0 0 0 0 0 0 0 0 0 0 0 0 0 0 0 0 0 0 0 0 0 0 0 0 0 0 0 0 0 0 0 0 0 0 0 0 0 0 0 0 0 0 0 0 0 0 0 0 0 0 0 0 0 0 0 0 0 0 0 0 0 0 0 0 0 0 0 0 0 0 0 0 0 0 0 0 0 0 0 0 0 0 0 0 0 0 0 0 0 0 0 0 0 0 0 0 0 0 0 0 0 0 0 0 0 0 0 0 0 0 0 0 0 0 0 0 0 0 0 0 0 0 0 0 0 0 0 0 0 0 0 0 0 0 0 0 0 0 0 0 0 0 0 0 0 0 0 0 0 0 0 0 0 0 0 0 0 0 0 0 0 0 0 0 0 0 0 0 0 0 0 0 0 0 0 0 0 0 0 0 0 0 0 0 0 0 0 0 0 0 0 0 0 0 0 0 0 0 0 0 0 0 0 0 0 0 0 0 0 0 0 0 0 0 0 0 0 0 0 0 0 0 0 0 0 0 0 0 0 0 0 0 0 0 0 0 0 0 0 0 0 0 0 0 0 0 0 0 0 0 0 0 0 0 0 0 0 0 0 0 0 0 0 0 0 0 0 0 0 0 0 0 0 0 0 0 0 0 0 0 0 0 0 0 0 0 0 0 0 0 0 0 0 0 0 0 0 0 0 0 0 0 0 0 0 0 0 0 0 0 0 0 0 0 0 0 0 0 0 0 0 0 0 0 0 0 0 0 0 0 0 0 0 0 0 0 0 0 0 0 0 0 0 0 0 0 0 0 0 0 0 0 0 0 0 0 0 0 0 0 0 0 0 0 0 0 0 0 0 0 0 0 0 0 0 0 0 0 0 0 0 0 0 0 0 0 0 0 0 0 0 0 0 0 0 0 0 0 0 0 0 0 0 0 0 0 0 0 0 0 0 0 0 0 0 0 0 0 0 0 0 0 0 0 0 0 0 0 0 0 0 0 0 0 0 0 0 0 0 0 0 0 0 0 0 0 0 0 0 0 0 0 0 0 0 0 0 0 0 0 0 0 0 0 0 0 0 0 0 0 0 0 0 0 0 0 0 0 0 0 0 0 0 0 0 0 0 0 0 0 0 0 0 0 0 0 0 0 0 0 0 0 0 0 0 0 0 0 0 0 0 0 0 0 0 0 0 0 0 0 0 0 0 0 0 0 0 0 0 0 0 0 0 0 0 0 0 0 0 0 0 0 0 0 0 0 0 0 0 0 0 0 0 0 0 0 0 0 0 0 0 0 0 0 0 0 0 0 0 0 0 0 0 0 0 0 0 0 0 0 0 0 0 0 0 0 0 0 0 0 0 0 0 0 0 0 0 0 0 0 0 0 0 0 0 0 0 0 0 0 0 0 0 0 0 0 0 0 0 0 0 0 0 0 0 0 0 0 0 0 0 0 0 0 0 0 0 0 0 0 0 0 0 0 0 0 0 0 0 0 0 0 0 0 0 0 0 0 0 0 0 0 0 0 0 0 0 0 0 0 0 0 0 0 0 0 0 0 0 0 0 0 0 0 0 0 0 0 0 0 0 0 0 0 0 0 0 0 0 0 0 0 0 0 0 0 0 0 0 0 0 0 0 0 0 0 0 0 0 0 0 0 0 0 0 0 0 0 0 0 0 0 0 0 0 0 0 0 0 0 0 0 0 0 0 0 0 0 0 0 0 0 0 0 0 0 0 0 0 0 0 0 0 0 0 0 0 0 0 0 0 0 0 0 0 0 0 0 0 0 0 0 0 0 0 0 0 0 0 0 0 0 0 0 0 0 0 0 0 0 0 0 0 0 0 0 0 0 0 0 0 0 0 0 0 0 0 0 0 0 0 0 0 0 0 0 0 0 0 0 0 0 0 0 0 0 0 0 0 0 0 0 0 0 0 0 0 0 0 0 0 0 0 0 0 0 0 0 0 0 0 0 0 0 0 0 0 0 0 0 0 0 0 0 0 0 0 0 0 0 0 0 0 0 0 0 0 0 0 0 0 0 0 0 0 0 0 0 0 0 0 0 0 0 0 0 0 0 0 0 0 0 0 0 0 0 0 0 0 0 0 0 0 0 0 0 0 0 0 0 0 0 0 0 0 0 0 0 0 0 0 0 0 0 0 0 0 0 0 0 0 0 0 0 0 0 0 0 0 0 0 0 0 0 0 0 0 0 0 0 
BTB PER SET COUNT: 0 0 0 0 0 0 0 0 0 0 0 0 0 0 0 0 0 0 0 0 0 0 0 0 0 0 0 0 0 0 0 0 0 0 0 0 0 0 0 0 0 0 0 0 0 0 0 0 0 0 0 0 0 0 0 0 0 0 0 0 0 0 0 0 0 0 0 0 0 0 0 0 0 0 0 0 0 0 0 0 0 0 0 0 0 0 0 0 0 0 0 0 0 0 0 0 0 0 0 0 0 0 0 0 0 0 0 0 0 0 0 0 0 0 0 0 0 0 0 0 0 0 0 0 0 0 0 0 0 0 0 0 0 0 0 0 0 0 0 0 0 0 0 0 0 0 0 0 0 0 0 0 0 0 0 0 0 0 0 0 0 0 0 0 0 0 0 0 0 0 0 0 0 0 0 0 0 0 0 0 0 0 0 0 0 0 0 0 0 0 0 0 0 0 0 0 0 0 0 0 0 0 0 0 0 0 0 0 0 0 0 0 0 0 0 0 0 0 0 0 0 0 0 0 0 0 0 0 0 0 0 0 0 0 0 0 0 0 0 0 0 0 0 0 0 0 0 0 0 0 0 0 0 0 0 0 0 0 0 0 0 0 0 0 0 0 0 0 0 0 0 0 0 0 0 0 0 0 0 0 0 0 0 0 0 0 0 0 0 0 0 0 0 0 0 0 0 0 0 0 0 0 0 0 0 0 0 0 0 0 0 0 0 0 0 0 0 0 0 0 0 0 0 0 0 0 0 0 0 0 0 0 0 0 0 0 0 0 0 0 0 0 0 0 0 0 0 0 0 0 0 0 0 0 0 0 0 0 0 0 0 0 0 0 0 0 0 0 0 0 0 0 0 0 0 0 0 0 0 0 0 0 0 0 0 0 0 0 0 0 0 0 0 0 0 0 0 0 0 0 0 0 0 0 0 0 0 0 0 0 0 0 0 0 0 0 0 0 0 0 0 0 0 0 0 0 0 0 0 0 0 0 0 0 0 0 0 0 0 0 0 0 0 0 0 0 0 0 0 0 0 0 0 0 0 0 0 0 0 0 0 0 0 0 0 0 0 0 0 0 0 0 0 0 0 0 0 0 0 0 0 0 0 0 0 0 0 0 0 0 0 0 0 0 0 0 0 0 0 0 0 0 0 0 0 0 0 0 0 0 0 0 0 0 0 0 0 0 0 0 0 0 0 0 0 0 0 0 0 0 0 0 0 0 0 0 0 0 0 0 0 0 0 0 0 0 0 0 0 0 0 0 0 0 0 0 0 0 0 0 0 0 0 0 0 0 0 0 0 0 0 0 0 0 0 0 0 0 0 0 0 0 0 0 0 0 0 0 0 0 0 0 0 0 0 0 0 0 0 0 0 0 0 0 0 0 0 0 0 0 0 0 0 0 0 0 0 0 0 0 0 0 0 0 0 0 0 0 0 0 0 0 0 0 0 0 0 0 0 0 0 0 0 0 0 0 0 0 0 0 0 0 0 0 0 0 0 0 0 0 0 0 0 0 0 0 0 0 0 0 0 0 0 0 0 0 0 0 0 0 0 0 0 0 0 0 0 0 0 0 0 0 0 0 0 0 0 0 0 0 0 0 0 0 0 0 0 0 0 0 0 0 0 0 0 0 0 0 0 0 0 0 0 0 0 0 0 0 0 0 0 0 0 0 0 0 0 0 0 0 0 0 0 0 0 0 0 0 0 0 0 0 0 0 0 0 0 0 0 0 0 0 0 0 0 0 0 0 0 0 0 0 0 0 0 0 0 0 0 0 0 0 0 0 0 0 0 0 0 0 0 0 0 0 0 0 0 0 0 0 0 0 0 0 0 0 0 0 0 0 0 0 0 0 0 0 0 0 0 0 0 0 0 0 0 0 0 0 0 0 0 0 0 0 0 0 0 0 0 0 0 0 0 0 0 0 0 0 0 0 0 0 0 0 0 0 0 0 0 0 0 0 0 0 0 0 0 0 0 0 0 0 0 0 0 0 0 0 0 0 0 0 0 0 0 0 0 0 0 0 0 0 0 0 0 0 0 0 0 0 0 0 0 0 0 0 0 0 0 0 0 0 0 0 0 0 0 0 0 0 0 0 0 0 0 0 0 0 0 0 0 0 0 0 0 0 0 0 0 0 0 0 0 0 0 0 0 0 0 0 0 0 0 0 0 0 0 0 0 0 0 0 0 0 0 0 0 0 0 0 0 0 0 0 0 0 0 0 0 0 0 0 0 0 0 0 0 0 0 0 0 0 0 0 0 0 0 0 0 0 0 0 0 0 0 0 0 0 0 0 0 0 0 0 0 0 0 0 0 0 0 0 0 0 0 0 0 0 0 0 0 0 0 0 0 0 0 0 0 0 0 0 0 0 0 0 0 0 0 0 0 0 0 0 0 0 0 0 0 0 0 0 0 0 0 0 0 0 0 0 0 0 0 0 0 0 0 0 0 0 0 0 0 0 0 0 0 0 0 0 0 0 0 0 0 0 0 0 0 0 0 0 0 0 0 0 0 0 0 0 0 0 0 0 0 0 0 0 0 0 0 0 0 0 0 0 0 0 0 0 0 0 0 0 0 0 0 0 0 0 0 0 0 0 0 0 0 0 0 0 0 0 0 0 0 0 0 0 0 0 0 0 0 0 0 0 0 0 0 0 0 0 0 0 0 0 0 0 0 0 0 0 0 0 0 0 0 0 0 0 0 0 0 0 0 0 0 0 0 0 0 0 0 0 0 0 0 0 0 0 0 0 0 0 0 0 0 0 0 0 0 0 0 0 0 0 0 0 0 0 0 0 0 0 0 0 0 0 0 0 0 0 0 0 0 0 0 0 0 0 0 0 0 0 0 0 0 0 0 0 0 0 0 0 0 0 0 0 0 0 0 0 0 0 0 0 0 0 0 0 0 0 0 0 0 0 0 0 0 0 0 0 0 0 0 0 0 0 0 0 0 0 0 0 0 0 0 0 0 0 0 0 0 0 0 0 0 0 0 0 0 0 0 0 0 0 0 0 0 0 0 0 0 0 0 0 0 0 0 0 0 0 0 0 0 0 0 0 0 0 0 0 0 0 0 0 0 0 0 0 0 0 0 0 0 0 0 0 0 0 0 0 0 0 0 0 0 0 0 0 0 0 0 0 0 0 0 0 0 0 0 0 0 0 0 0 0 0 0 0 0 0 0 0 0 0 0 0 0 0 0 0 0 0 0 0 0 0 0 0 0 0 0 0 0 0 0 0 0 0 0 0 0 0 0 0 0 0 0 0 0 0 0 0 0 0 0 0 0 0 0 0 0 0 0 0 0 0 0 0 0 0 0 0 0 0 0 0 0 0 0 0 0 0 0 0 0 0 0 0 0 0 0 0 0 0 0 0 0 0 0 0 0 0 0 0 0 0 0 0 0 0 0 0 0 0 0 0 0 0 0 0 0 0 0 0 0 0 0 0 0 0 0 0 0 0 0 0 0 0 0 0 0 0 0 0 0 0 0 0 0 0 0 0 0 0 0 0 0 0 0 0 0 0 0 0 0 0 0 0 0 0 0 0 0 0 0 0 0 0 0 0 0 0 0 0 0 0 0 0 0 0 0 0 0 0 0 0 0 0 0 0 0 0 0 0 0 0 0 0 0 0 0 0 0 0 0 0 0 0 0 0 0 0 0 0 0 0 0 0 0 0 0 0 0 0 0 0 0 0 0 0 0 0 0 0 0 0 0 0 0 0 0 0 0 0 0 0 0 0 0 0 0 0 0 0 0 0 0 0 0 0 0 0 0 0 0 0 0 0 0 0 0 0 0 0 0 0 0 0 0 0 0 0 0 0 0 0 0 0 0 0 0 0 0 0 0 0 0 0 0 0 0 0 0 0 0 0 0 0 0 0 0 0 0 0 0 0 0 0 0 0 0 0 0 0 0 0 0 0 0 0 0 0 0 0 0 0 0 0 0 0 0 0 0 0 0 0 0 0 0 0 0 0 0 0 0 0 0 0 0 0 0 0 0 0 0 0 0 0 0 0 0 0 0 0 0 0 0 0 0 0 0 0 0 0 0 0 0 0 0 0 0 0 0 0 0 0 0 0 0 0 0 0 0 0 0 0 0 0 0 0 0 0 0 0 0 0 0 0 0 0 0 0 0 0 0 0 0 0 0 0 0 0 0 0 0 0 0 0 0 0 0 0 0 0 0 0 0 0 0 0 0 0 0 0 0 0 0 0 0 0 0 0 0 0 0 0 0 0 0 0 0 0 0 0 0 0 0 0 0 0 0 0 0 0 0 0 0 0 0 0 0 0 0 0 0 0 0 0 0 0 0 0 0 0 0 0 0 0 0 0 0 0 0 0 0 0 0 0 0 0 0 0 0 0 0 0 0 0 0 0 0 0 0 0 0 0 0 0 0 0 0 0 0 0 0 0 0 0 0 0 0 0 0 0 0 0 0 0 0 0 0 0 0 0 0 0 0 0 0 0 0 0 0 0 0 0 0 0 0 0 0 0 0 0 0 0 0 0 0 0 0 0 0 0 0 0 0 0 0 0 0 0 0 0 0 0 0 0 0 0 0 0 0 0 0 0 0 0 0 0 0 0 0 0 0 0 0 0 0 0 0 0 0 0 0 0 0 0 0 0 0 0 0 0 0 0 
