
*** ChampSim Multicore Out-of-Order Simulator ***

Warmup Instructions: 50000000
Simulation Instructions: 50000000
Number of CPUs: 1
LLC sets: 2048
LLC ways: 16
Off-chip DRAM Size: 4096 MB Channels: 1 Width: 64-bit Data Rate: 6400 MT/s
CPU 0 runs ./micro_traces/srv115.trace.gz
.gz
ITLB has LRU replacement policy
DTLB has LRU replacement policy
STLB has LRU replacement policy
FDIP Prefetcher at L1I
L1I has LRU replacement policy
L1D has LRU replacement policy
Initialize SRRIP state for L2C
Initialize DRRIP state for LLC
Heartbeat_Variant_0 : 1334 0.325684 per_variant_size: 0 1334 0 0 0 0 0 0 0 
Heartbeat_Variant_1 : 1002 0.244629 per_variant_size: 0 171 831 0 0 0 0 0 0 
Heartbeat_Variant_2 : 841 0.205322 per_variant_size: 0 133 97 86 525 0 0 0 0 
Heartbeat_Variant_3 : 0 0 per_variant_size: 0 0 0 0 0 0 0 0 0 
Heartbeat_Variant_0_evicts 0 : 5572 1 : 0 2 : 3 3 : 0 
Heartbeat_Variant_1_evicts 0 : 0 1 : 0 2 : 196 3 : 0 
Heartbeat_Variant_2_evicts 0 : 0 1 : 195 2 : 0 3 : 0 
Heartbeat_Variant_3_evicts 0 : 0 1 : 0 2 : 0 3 : 0 
Heartbeat CPU 0 instructions: 10000001 cycles: 2796927 heartbeat IPC: 3.57535 cumulative IPC: 3.57535 (Simulation time: 0 hr 2 min 5 sec) 
Heartbeat_Variant_0 : 1376 0.335938 per_variant_size: 0 1376 0 0 0 0 0 0 0 
Heartbeat_Variant_1 : 1044 0.254883 per_variant_size: 0 171 873 0 0 0 0 0 0 
Heartbeat_Variant_2 : 866 0.211426 per_variant_size: 0 128 94 97 547 0 0 0 0 
Heartbeat_Variant_3 : 0 0 per_variant_size: 0 0 0 0 0 0 0 0 0 
Heartbeat_Variant_0_evicts 0 : 5652 1 : 0 2 : 0 3 : 0 
Heartbeat_Variant_1_evicts 0 : 0 1 : 0 2 : 197 3 : 0 
Heartbeat_Variant_2_evicts 0 : 0 1 : 197 2 : 0 3 : 0 
Heartbeat_Variant_3_evicts 0 : 0 1 : 0 2 : 0 3 : 0 
Heartbeat CPU 0 instructions: 20000003 cycles: 5593889 heartbeat IPC: 3.57531 cumulative IPC: 3.57533 (Simulation time: 0 hr 4 min 5 sec) 
Heartbeat_Variant_0 : 1376 0.335938 per_variant_size: 0 1376 0 0 0 0 0 0 0 
Heartbeat_Variant_1 : 1045 0.255127 per_variant_size: 0 169 876 0 0 0 0 0 0 
Heartbeat_Variant_2 : 867 0.21167 per_variant_size: 0 130 94 103 540 0 0 0 0 
Heartbeat_Variant_3 : 0 0 per_variant_size: 0 0 0 0 0 0 0 0 0 
Heartbeat_Variant_0_evicts 0 : 5623 1 : 0 2 : 0 3 : 0 
Heartbeat_Variant_1_evicts 0 : 0 1 : 0 2 : 197 3 : 0 
Heartbeat_Variant_2_evicts 0 : 0 1 : 196 2 : 0 3 : 0 
Heartbeat_Variant_3_evicts 0 : 0 1 : 0 2 : 0 3 : 0 
Heartbeat CPU 0 instructions: 30000000 cycles: 8389617 heartbeat IPC: 3.57688 cumulative IPC: 3.57585 (Simulation time: 0 hr 6 min 8 sec) 
Heartbeat_Variant_0 : 1381 0.337158 per_variant_size: 0 1381 0 0 0 0 0 0 0 
Heartbeat_Variant_1 : 1054 0.257324 per_variant_size: 0 174 880 0 0 0 0 0 0 
Heartbeat_Variant_2 : 874 0.213379 per_variant_size: 0 130 98 109 537 0 0 0 0 
Heartbeat_Variant_3 : 0 0 per_variant_size: 0 0 0 0 0 0 0 0 0 
Heartbeat_Variant_0_evicts 0 : 5495 1 : 0 2 : 0 3 : 0 
Heartbeat_Variant_1_evicts 0 : 0 1 : 0 2 : 194 3 : 0 
Heartbeat_Variant_2_evicts 0 : 0 1 : 195 2 : 0 3 : 0 
Heartbeat_Variant_3_evicts 0 : 0 1 : 0 2 : 0 3 : 0 
Heartbeat CPU 0 instructions: 40000000 cycles: 11185524 heartbeat IPC: 3.57666 cumulative IPC: 3.57605 (Simulation time: 0 hr 8 min 21 sec) 
Heartbeat_Variant_0 : 1422 0.347168 per_variant_size: 0 1422 0 0 0 0 0 0 0 
Heartbeat_Variant_1 : 1077 0.262939 per_variant_size: 0 155 922 0 0 0 0 0 0 
Heartbeat_Variant_2 : 898 0.219238 per_variant_size: 0 136 90 114 558 0 0 0 0 
Heartbeat_Variant_3 : 0 0 per_variant_size: 0 0 0 0 0 0 0 0 0 
Heartbeat_Variant_0_evicts 0 : 5558 1 : 0 2 : 0 3 : 0 
Heartbeat_Variant_1_evicts 0 : 1 1 : 0 2 : 195 3 : 0 
Heartbeat_Variant_2_evicts 0 : 0 1 : 195 2 : 0 3 : 0 
Heartbeat_Variant_3_evicts 0 : 0 1 : 0 2 : 0 3 : 0 
Heartbeat CPU 0 instructions: 50000002 cycles: 13981585 heartbeat IPC: 3.57646 cumulative IPC: 3.57613 (Simulation time: 0 hr 10 min 16 sec) 

Warmup complete CPU 0 instructions: 50000002 cycles: 13981585 (Simulation time: 0 hr 10 min 16 sec) 

Cycle: 20000000 FTQ IN: 58396428 FTQ occupancy: 19.9062 DECODE IN: 58396305 DECODE occupancy: 51.9201 ROB IN: 58396245 ROB occupancy: 314.87 ROB OUT: 58395893
Heartbeat_Variant_0 : 1422 0.347168 per_variant_size: 0 1422 0 0 0 0 0 0 0 
Heartbeat_Variant_1 : 1077 0.262939 per_variant_size: 0 158 919 0 0 0 0 0 0 
Heartbeat_Variant_2 : 898 0.219238 per_variant_size: 0 135 91 112 560 0 0 0 0 
Heartbeat_Variant_3 : 0 0 per_variant_size: 0 0 0 0 0 0 0 0 0 
Heartbeat_Variant_0_evicts 0 : 5708 1 : 0 2 : 0 3 : 0 
Heartbeat_Variant_1_evicts 0 : 0 1 : 0 2 : 198 3 : 0 
Heartbeat_Variant_2_evicts 0 : 0 1 : 198 2 : 0 3 : 0 
Heartbeat_Variant_3_evicts 0 : 0 1 : 0 2 : 0 3 : 0 
Heartbeat CPU 0 instructions: 60000000 cycles: 21154088 heartbeat IPC: 1.39421 cumulative IPC: 1.39421 (Simulation time: 0 hr 12 min 37 sec) 
Heartbeat_Variant_0 : 1425 0.3479 per_variant_size: 0 1425 0 0 0 0 0 0 0 
Heartbeat_Variant_1 : 1076 0.262695 per_variant_size: 0 158 918 0 0 0 0 0 0 
Heartbeat_Variant_2 : 900 0.219727 per_variant_size: 0 137 91 119 553 0 0 0 0 
Heartbeat_Variant_3 : 0 0 per_variant_size: 0 0 0 0 0 0 0 0 0 
Heartbeat_Variant_0_evicts 0 : 5518 1 : 1 2 : 0 3 : 0 
Heartbeat_Variant_1_evicts 0 : 0 1 : 0 2 : 194 3 : 0 
Heartbeat_Variant_2_evicts 0 : 0 1 : 194 2 : 0 3 : 0 
Heartbeat_Variant_3_evicts 0 : 0 1 : 0 2 : 0 3 : 0 
Heartbeat CPU 0 instructions: 70000002 cycles: 28430774 heartbeat IPC: 1.37425 cumulative IPC: 1.38416 (Simulation time: 0 hr 14 min 50 sec) 
Cycle: 30000000 FTQ IN: 13779856 FTQ occupancy: 12.7683 DECODE IN: 13779948 DECODE occupancy: 32.973 ROB IN: 13779948 ROB occupancy: 236.755 ROB OUT: 13779949
Heartbeat_Variant_0 : 1431 0.349365 per_variant_size: 0 1431 0 0 0 0 0 0 0 
Heartbeat_Variant_1 : 1084 0.264648 per_variant_size: 0 162 922 0 0 0 0 0 0 
Heartbeat_Variant_2 : 906 0.221191 per_variant_size: 0 139 90 118 559 0 0 0 0 
Heartbeat_Variant_3 : 0 0 per_variant_size: 0 0 0 0 0 0 0 0 0 
Heartbeat_Variant_0_evicts 0 : 5681 1 : 0 2 : 0 3 : 0 
Heartbeat_Variant_1_evicts 0 : 0 1 : 0 2 : 197 3 : 0 
Heartbeat_Variant_2_evicts 0 : 0 1 : 198 2 : 0 3 : 0 
Heartbeat_Variant_3_evicts 0 : 0 1 : 0 2 : 0 3 : 0 
Heartbeat CPU 0 instructions: 80000002 cycles: 35604084 heartbeat IPC: 1.39406 cumulative IPC: 1.38744 (Simulation time: 0 hr 17 min 15 sec) 
Cycle: 40000000 FTQ IN: 13913167 FTQ occupancy: 12.6684 DECODE IN: 13913087 DECODE occupancy: 32.9733 ROB IN: 13913087 ROB occupancy: 237.168 ROB OUT: 13913090
Heartbeat_Variant_0 : 1431 0.349365 per_variant_size: 0 1431 0 0 0 0 0 0 0 
Heartbeat_Variant_1 : 1086 0.265137 per_variant_size: 0 164 922 0 0 0 0 0 0 
Heartbeat_Variant_2 : 906 0.221191 per_variant_size: 0 139 90 120 557 0 0 0 0 
Heartbeat_Variant_3 : 0 0 per_variant_size: 0 0 0 0 0 0 0 0 0 
Heartbeat_Variant_0_evicts 0 : 5532 1 : 0 2 : 0 3 : 0 
Heartbeat_Variant_1_evicts 0 : 0 1 : 0 2 : 195 3 : 0 
Heartbeat_Variant_2_evicts 0 : 0 1 : 194 2 : 0 3 : 0 
Heartbeat_Variant_3_evicts 0 : 0 1 : 0 2 : 0 3 : 0 
Heartbeat CPU 0 instructions: 90000000 cycles: 42797805 heartbeat IPC: 1.3901 cumulative IPC: 1.38811 (Simulation time: 0 hr 19 min 34 sec) 
Cycle: 50000000 FTQ IN: 13823657 FTQ occupancy: 12.8554 DECODE IN: 13823730 DECODE occupancy: 33.2306 ROB IN: 13823730 ROB occupancy: 237.423 ROB OUT: 13823726
Heartbeat_Variant_0 : 1431 0.349365 per_variant_size: 0 1431 0 0 0 0 0 0 0 
Heartbeat_Variant_1 : 1086 0.265137 per_variant_size: 0 167 919 0 0 0 0 0 0 
Heartbeat_Variant_2 : 906 0.221191 per_variant_size: 0 140 90 117 559 0 0 0 0 
Heartbeat_Variant_3 : 0 0 per_variant_size: 0 0 0 0 0 0 0 0 0 
Heartbeat_Variant_0_evicts 0 : 5508 1 : 0 2 : 0 3 : 0 
Heartbeat_Variant_1_evicts 0 : 0 1 : 0 2 : 195 3 : 0 
Heartbeat_Variant_2_evicts 0 : 0 1 : 195 2 : 0 3 : 0 
Heartbeat_Variant_3_evicts 0 : 0 1 : 0 2 : 0 3 : 0 
Heartbeat CPU 0 instructions: 100000002 cycles: 50064307 heartbeat IPC: 1.37618 cumulative IPC: 1.3857 (Simulation time: 0 hr 21 min 37 sec) 
Finished CPU 0 instructions: 50000000 cycles: 36082722 cumulative IPC: 1.3857 (Simulation time: 0 hr 21 min 37 sec) 

ChampSim completed all CPUs

Region of Interest Statistics

CPU 0 cumulative IPC: 1.3857 instructions: 50000000 cycles: 36082722
 Fetch stage stalled: 54.4773  Sim cycles: 36082722 fetch stall cycle: 19656890
 Empty decode stage: 36.5149  Sim cycles: 36082722 fetch stall cycle: 13175572
ITLB TOTAL     ACCESS:    5852400  HIT:    5358343  MISS:     494057  HIT %:     91.558  MISS %:    8.44196   MPKI: 9.88114
ITLB LOAD TRANSLATION INSTRUCTION	ACCESS:    5728673  HIT:    5234616  MISS:     494057  HIT %:    91.3757  MISS %:    8.62428  MPKI: 9.88114
ITLB TRANSLATION FROM L1D PREFETCHER INSTRUCTION	ACCESS:     123727  HIT:     123727  MISS:          0  HIT %:        100  MISS %:          0  MPKI: 0

ITLB AVERAGE MISS LATENCY: 9.04901 cycles
ITLB RQ	ACCESS:    7994505	FORWARD:          0	MERGED:    1697471	TO_CACHE:    6297034

DTLB TOTAL     ACCESS:    8969782  HIT:    8499187  MISS:     470595  HIT %:    94.7536  MISS %:    5.24645   MPKI: 9.4119
DTLB LOAD TRANSLATION DATA	ACCESS:    8969782  HIT:    8499187  MISS:     470595  HIT %:    94.7536  MISS %:    5.24645  MPKI: 9.4119

DTLB AVERAGE MISS LATENCY: 9.31669 cycles
DTLB RQ	ACCESS:   13340960	FORWARD:          0	MERGED:    4334648	TO_CACHE:    9006312

STLB TOTAL     ACCESS:    1211726  HIT:    1209692  MISS:       2034  HIT %:    99.8321  MISS %:    0.16786   MPKI: 0.04068
STLB LOAD TRANSLATION INSTRUCTION	ACCESS:     494057  HIT:     493843  MISS:        214  HIT %:    99.9567  MISS %:  0.0433148  MPKI: 0.00428
STLB LOAD TRANSLATION DATA	ACCESS:     470594  HIT:     468799  MISS:       1795  HIT %:    99.6186  MISS %:   0.381433  MPKI: 0.0359
STLB TRANSLATION FROM L1D PREFETCHER DATA	ACCESS:     247075  HIT:     247050  MISS:         25  HIT %:    99.9899  MISS %:  0.0101184  MPKI: 0.0005

STLB AVERAGE MISS LATENCY: 68.7768 cycles
STLB RQ	ACCESS:    1331768	FORWARD:          0	MERGED:     120004	TO_CACHE:    1211764

STLB Hit, L1D data hit: 0
STLB Hit, L2C data hit: 0
STLB Hit, LLC data hit: 0
STLB Hit, LLC data miss: 0
STLB STLB hints to L2: 0
L1D TOTAL     ACCESS:   13094331  HIT:   11981982  MISS:    1112349  HIT %:    91.5051  MISS %:    8.49489   MPKI: 22.247
L1D LOAD DATA	ACCESS:    6556913  HIT:    5823786  MISS:     733127  HIT %:     88.819  MISS %:     11.181  MPKI: 14.6625
L1D RFO DATA	ACCESS:    6210680  HIT:    5925738  MISS:     284942  HIT %:    95.4121  MISS %:    4.58794  MPKI: 5.69884
L1D PREFETCH DATA	ACCESS:     326738  HIT:     232458  MISS:      94280  HIT %:    71.1451  MISS %:    28.8549  MPKI: 1.8856

L1D PREFETCH  REQUESTED:     734581  ISSUED:     734581  USEFUL:      33224  USELESS:      68915
L1D USEFUL LOAD PREFETCHES:      33224 PREFETCH ISSUED TO LOWER LEVEL:     102205  ACCURACY: 32.5072
 TIMELY PREFETCHES:      33224 LATE PREFETCHES: 7861 DROPPED PREFETCHES: 6
L1D AVERAGE MISS LATENCY: 233161 cycles
L1D RQ	ACCESS:   10690749	FORWARD:          0	MERGED:    3934286	TO_CACHE:    6591149
L1D WQ	ACCESS:    6945943	FORWARD:     165663	MERGED:     196132	TO_CACHE:    6749811
L1D PQ	ACCESS:     367465	FORWARD:          0	MERGED:          0	TO_CACHE:     367116

L1D UNIQUE REGIONS ACCESSED: 0
L1D REGIONS CONFLICTS: 0
L1D Cross Page Prefetch Requests: 6972
L1D Same Page Prefetch Requests: 747179
L1D ROI Sum of L1D PQ occupancy: 4658076
L1D PREFETCHES PUSHED FROM L2C: 0
L1I TOTAL     ACCESS:    7168296  HIT:    4404651  MISS:    2763645  HIT %:    61.4463  MISS %:    38.5537   MPKI: 55.2729
L1I LOAD INSTRUCTION	ACCESS:    6499880  HIT:    3736235  MISS:    2763645  HIT %:    57.4816  MISS %:    42.5184  MPKI: 55.2729
L1I PREFETCH INSTRUCTION	ACCESS:     668416  HIT:     668416  MISS:          0  HIT %:        100  MISS %:          0  MPKI: 0

L1I PREFETCH  REQUESTED:    1595144  ISSUED:    1595144  USEFUL:          0  USELESS:          0
L1I USEFUL LOAD PREFETCHES:          0 PREFETCH ISSUED TO LOWER LEVEL:          0  ACCURACY: -nan
 TIMELY PREFETCHES:          0 LATE PREFETCHES: 0 DROPPED PREFETCHES: 0
L1I AVERAGE MISS LATENCY: 17.2103 cycles
L1I RQ	ACCESS:    9504459	FORWARD:          0	MERGED:    2681502	TO_CACHE:    6822957
L1I PQ	ACCESS:    1595144	FORWARD:          0	MERGED:     423596	TO_CACHE:    1171548

L1BTB TOTAL     ACCESS:    5670929  HIT:    2040952  MISS:    3629977  HIT %:    35.9897  MISS %:    64.0103   MPKI: 72.5995
L1BTB BRANCH_DIRECT_JUMP	ACCESS:     548562  HIT:     144654  MISS:     403908	AVERAGE STALL: 48.1289
L1BTB BRANCH_INDIRECT	ACCESS:     183057  HIT:      66075  MISS:     116982	AVERAGE STALL: 102.227
L1BTB BRANCH_CONDITIONAL	ACCESS:    2704626  HIT:    1411401  MISS:    1293225	AVERAGE STALL: 54.4651
L1BTB BRANCH_DIRECT_CALL	ACCESS:     945272  HIT:     106290  MISS:     838982	AVERAGE STALL: 55.9458
L1BTB BRANCH_INDIRECT_CALL	ACCESS:     172068  HIT:      21568  MISS:     150500	AVERAGE STALL: 131.893
L1BTB BRANCH_RETURN	ACCESS:    1117344  HIT:     290964  MISS:     826380	AVERAGE STALL: 49.5893
L1BTB BRANCH_OTHER ACCESS:          0  HIT:          0  MISS:          0	AVERAGE STALL: -nan
L1BTB TOTAL ROB OCCUPANCY AT BTB MISS: 2.88768

L2BTB TOTAL     ACCESS:    3604567  HIT:    3533305  MISS:      71262  HIT %:     98.023  MISS %:    1.97699   MPKI: 1.42524
L2BTB BRANCH_DIRECT_JUMP	ACCESS:     399745  HIT:     395689  MISS:       4056	AVERAGE STALL: 48.1289
L2BTB BRANCH_INDIRECT	ACCESS:     106683  HIT:     104020  MISS:       2663	AVERAGE STALL: 102.227
L2BTB BRANCH_CONDITIONAL	ACCESS:    1293225  HIT:    1284373  MISS:       8852	AVERAGE STALL: 54.4651
L2BTB BRANCH_DIRECT_CALL	ACCESS:     838982  HIT:     838297  MISS:        685	AVERAGE STALL: 55.9458
L2BTB BRANCH_INDIRECT_CALL	ACCESS:     140955  HIT:     130905  MISS:      10050	AVERAGE STALL: 131.893
L2BTB BRANCH_RETURN	ACCESS:     824977  HIT:     780021  MISS:      44956	AVERAGE STALL: 49.5893
L2BTB BRANCH_OTHER ACCESS:          0  HIT:          0  MISS:          0	AVERAGE STALL: -nan
L2BTB TOTAL ROB OCCUPANCY AT BTB MISS: 147.094

L2C TOTAL     ACCESS:    4476505  HIT:    4008831  MISS:     467674  HIT %:    89.5527  MISS %:    10.4473   MPKI: 9.35348
L2C LOAD INSTRUCTION	ACCESS:    2763645  HIT:    2501387  MISS:     262258  HIT %:    90.5104  MISS %:    9.48957  MPKI: 5.24516
L2C LOAD TRANSLATION INSTRUCTION	ACCESS:        238  HIT:         68  MISS:        170  HIT %:    28.5714  MISS %:    71.4286  MPKI: 0.0034
L2C LOAD DATA	ACCESS:     725239  HIT:     654483  MISS:      70756  HIT %:    90.2438  MISS %:    9.75623  MPKI: 1.41512
L2C RFO DATA	ACCESS:     284855  HIT:     234899  MISS:      49956  HIT %:    82.4627  MISS %:    17.5373  MPKI: 0.99912
L2C PREFETCH DATA	ACCESS:     181216  HIT:     112501  MISS:      68715  HIT %:    62.0812  MISS %:    37.9188  MPKI: 1.3743
L2C WRITEBACK DATA	ACCESS:     519406  HIT:     504954  MISS:      14452  HIT %:    97.2176  MISS %:    2.78241  MPKI: 0.28904
L2C LOAD TRANSLATION DATA	ACCESS:       1859  HIT:        510  MISS:       1349  HIT %:    27.4341  MISS %:    72.5659  MPKI: 0.02698
L2C TRANSLATION FROM L1D PREFETCHER DATA	ACCESS:         47  HIT:         29  MISS:         18  HIT %:    61.7021  MISS %:    38.2979  MPKI: 0.00036

L2C PREFETCH  REQUESTED:      86710  ISSUED:      86710  USEFUL:       6949  USELESS:      62032
L2C USEFUL LOAD PREFETCHES:       6949 PREFETCH ISSUED TO LOWER LEVEL:      69168  ACCURACY: 10.0466
 TIMELY PREFETCHES:       6949 LATE PREFETCHES: 453 DROPPED PREFETCHES: 0
L2C AVERAGE MISS LATENCY: 38.2961 cycles
L2C RQ	ACCESS:    3775934	FORWARD:          0	MERGED:          0	TO_CACHE:    3775884
L2C WQ	ACCESS:     519406	FORWARD:         50	MERGED:          0	TO_CACHE:     519406
L2C PQ	ACCESS:     188915	FORWARD:          0	MERGED:       3371	TO_CACHE:     185544

L2C Dense regions hint from L2: 0
PSCL5 TOTAL     ACCESS:       4086  HIT:       2043  MISS:       2043  HIT %:         50  MISS %:         50   MPKI: 0.04086
PSCL5 LOAD TRANSLATION INSTRUCTION	ACCESS:       3992  HIT:       1996  MISS:       1996  HIT %:         50  MISS %:         50  MPKI: 0.03992
PSCL5 TRANSLATION FROM L1D PREFETCHER INSTRUCTION	ACCESS:         94  HIT:         47  MISS:         47  HIT %:         50  MISS %:         50  MPKI: 0.00094


PSCL4 TOTAL     ACCESS:       3705  HIT:       1847  MISS:       1858  HIT %:    49.8516  MISS %:    50.1484   MPKI: 0.03716
PSCL4 LOAD TRANSLATION INSTRUCTION	ACCESS:       1803  HIT:       1803  MISS:          0  HIT %:        100  MISS %:          0  MPKI: 0
PSCL4 TRANSLATION FROM L1D PREFETCHER INSTRUCTION	ACCESS:         44  HIT:         44  MISS:          0  HIT %:        100  MISS %:          0  MPKI: 0
PSCL4 LOAD TRANSLATION DATA	ACCESS:       1814  HIT:          0  MISS:       1814  HIT %:          0  MISS %:        100  MPKI: 0.03628
PSCL4 TRANSLATION FROM L1D PREFETCHER DATA	ACCESS:         44  HIT:          0  MISS:         44  HIT %:          0  MISS %:        100  MPKI: 0.00088


PSCL3 TOTAL     ACCESS:       3717  HIT:       1853  MISS:       1864  HIT %:     49.852  MISS %:     50.148   MPKI: 0.03728
PSCL3 LOAD TRANSLATION INSTRUCTION	ACCESS:       1809  HIT:       1809  MISS:          0  HIT %:        100  MISS %:          0  MPKI: 0
PSCL3 TRANSLATION FROM L1D PREFETCHER INSTRUCTION	ACCESS:         44  HIT:         44  MISS:          0  HIT %:        100  MISS %:          0  MPKI: 0
PSCL3 LOAD TRANSLATION DATA	ACCESS:       1820  HIT:          0  MISS:       1820  HIT %:          0  MISS %:        100  MPKI: 0.0364
PSCL3 TRANSLATION FROM L1D PREFETCHER DATA	ACCESS:         44  HIT:          0  MISS:         44  HIT %:          0  MISS %:        100  MPKI: 0.00088


PSCL2 TOTAL     ACCESS:       4006  HIT:       1963  MISS:       2043  HIT %:    49.0015  MISS %:    50.9985   MPKI: 0.04086
PSCL2 LOAD TRANSLATION INSTRUCTION	ACCESS:       2130  HIT:       1916  MISS:        214  HIT %:    89.9531  MISS %:    10.0469  MPKI: 0.00428
PSCL2 TRANSLATION FROM L1D PREFETCHER INSTRUCTION	ACCESS:         47  HIT:         47  MISS:          0  HIT %:        100  MISS %:          0  MPKI: 0
PSCL2 LOAD TRANSLATION DATA	ACCESS:       1782  HIT:          0  MISS:       1782  HIT %:          0  MISS %:        100  MPKI: 0.03564
PSCL2 TRANSLATION FROM L1D PREFETCHER DATA	ACCESS:         47  HIT:          0  MISS:         47  HIT %:          0  MISS %:        100  MPKI: 0.00094


LLC TOTAL     ACCESS:     526212  HIT:     499086  MISS:      27126  HIT %:     94.845  MISS %:    5.15496   MPKI: 0.54252
LLC LOAD INSTRUCTION	ACCESS:     262258  HIT:     261669  MISS:        589  HIT %:    99.7754  MISS %:   0.224588  MPKI: 0.01178
LLC LOAD TRANSLATION INSTRUCTION	ACCESS:        170  HIT:        158  MISS:         12  HIT %:    92.9412  MISS %:    7.05882  MPKI: 0.00024
LLC LOAD DATA	ACCESS:      70310  HIT:      66823  MISS:       3487  HIT %:    95.0405  MISS %:    4.95947  MPKI: 0.06974
LLC RFO DATA	ACCESS:      49939  HIT:      36795  MISS:      13144  HIT %:    73.6799  MISS %:    26.3201  MPKI: 0.26288
LLC PREFETCH DATA	ACCESS:      69167  HIT:      59623  MISS:       9544  HIT %:    86.2015  MISS %:    13.7985  MPKI: 0.19088
LLC WRITEBACK DATA	ACCESS:      73001  HIT:      72717  MISS:        284  HIT %:     99.611  MISS %:   0.389036  MPKI: 0.00568
LLC LOAD TRANSLATION DATA	ACCESS:       1349  HIT:       1283  MISS:         66  HIT %:    95.1075  MISS %:    4.89251  MPKI: 0.00132
LLC TRANSLATION FROM L1D PREFETCHER DATA	ACCESS:         18  HIT:         18  MISS:          0  HIT %:        100  MISS %:          0  MPKI: 0

LLC AVERAGE MISS LATENCY: 157.62 cycles
LLC RQ	ACCESS:     384054	FORWARD:          0	MERGED:          0	TO_CACHE:     384044
LLC WQ	ACCESS:      73001	FORWARD:         11	MERGED:          0	TO_CACHE:      73001
LLC PQ	ACCESS:      69168	FORWARD:          0	MERGED:          0	TO_CACHE:      69167

LLC Dense regions hint to LLC: 0

RAW hits: 1942720
Loads Generated: 12633469
Loads sent to L1D: 10690749
Stores Generated: 6945939
Stores sent to L1D: 6945943
Major fault: 0 Minor fault: 2559
Allocated PAGES: 2559

stream: 
stream:times selected: 1186275
stream:pref_filled: 122673
stream:pref_useful: 23822
stream:pref_late: 6584
stream:misses: 8135
stream:misses_by_poll: 0

CS: 
CS:times selected: 179461
CS:pref_filled: 60261
CS:pref_useful: 36844
CS:pref_late: 7068
CS:misses: 16062
CS:misses_by_poll: 1

CPLX: 
CPLX:times selected: 1005675
CPLX:pref_filled: 19675
CPLX:pref_useful: 4690
CPLX:pref_late: 3264
CPLX:misses: 93158
CPLX:misses_by_poll: 0

NL_L1: 
NL:times selected: 21174
NL:pref_filled: 736
NL:pref_useful: 363
NL:pref_late: 280
NL:misses: 1765
NL:misses_by_poll: 0

total selections: 2392585
total_filled: 94280
total_useful: 33224
total_late: 18632
total_polluted: 1
total_misses_after_warmup: 767363
conflicts: 5520021

test: 117105

DRAM Statistics
 CHANNEL 0
 RQ ROW_BUFFER_HIT:       9831  ROW_BUFFER_MISS:      17010
 DBUS_CONGESTED:          7
 WQ ROW_BUFFER_HIT:       1362  ROW_BUFFER_MISS:      11648  FULL:          0

 AVG_CONGESTED_CYCLE: 6

CPU 0 Branch Prediction Accuracy: 99.8238% MPKI: 0.3225 Average ROB Occupancy at Mispredict: 192.367
Branch types
NOT_BRANCH: 40850243 81.7005%
BRANCH_DIRECT_JUMP: 548562 1.09712%
BRANCH_INDIRECT: 183057 0.366114%
BRANCH_CONDITIONAL: 6183325 12.3666%
BRANCH_DIRECT_CALL: 945272 1.89054%
BRANCH_INDIRECT_CALL: 172068 0.344136%
BRANCH_RETURN: 1117344 2.23469%
BRANCH_OTHER: 0 0%

DRAM PAGES: 1048576
Allocated PAGES: 2559
Average_ROB_Occupancy: 238.22
Average_Decode_Occupancy: 33.0337
Average_FTQ_Occupancy: 12.7489
Indirect max targets: 14 Average targets: 1.15282
Branch_type:  BRANCH_DIRECT_JUMP:  Count Percentage: 5.30488 5.7869 3.60887 3.01026 2.76597 11.1281 6.97179 61.4232 
Branch_type:  BRANCH_INDIRECT:  Count Percentage: 16.3954 0.802992 10.6146 0 1.33604 18.1377 2.13658 50.5768 
Branch_type:  BRANCH_CONDITIONAL:  Count Percentage: 26.4922 2.48251 1.71658 6.55289 1.20284 7.52771 2.93102 51.0943 
Branch_type:  BRANCH_DIRECT_CALL:  Count Percentage: 0.884895 1.26771 0.428698 2.31331 2.25423 3.4805 2.50786 86.8628 
Branch_type:  BRANCH_INDIRECT_CALL:  Count Percentage: 9.54987 0 2.9935 0.00174922 0.000583073 2.37427 0.997347 84.0827 
Branch_type:  BRANCH_RETURN:  Count Percentage: 9.96525 1.41949 1.35701 5.36063 1.75358 8.90503 3.15854 68.0805 
Branch_type:  BRANCH_DIRECT_JUMP:  Total Count: 58153 63437 39561 32999 30321 121988 76426 673332 
Branch_type:  BRANCH_INDIRECT:  Total Count: 60008 2939 38850 0 4890 66385 7820 185114 
Branch_type:  BRANCH_CONDITIONAL:  Total Count: 3274443 306839 212170 809941 148671 930429 362276 6315280 
Branch_type:  BRANCH_DIRECT_CALL:  Total Count: 16701 23926 8091 43660 42545 65689 47332 1639399 
Branch_type:  BRANCH_INDIRECT_CALL:  Total Count: 32757 0 10268 6 2 8144 3421 288412 
Branch_type:  BRANCH_RETURN:  Total Count: 222340 31671 30277 119604 39125 198685 70472 1518980 
Number of unique branch instructions: 9958
Upper 32 bits: 
aaaa
ffff
ffff0000
Unique upper 32 bits: 3
Unique upper 36 bits: 3
Unique upper 40 bits: 5
Unique upper 44 bits: 32
Unique upper 48 bits: 156
Variant_0 : 1431 0.349365
Variant_1 : 1086 0.265137
Variant_2 : 906 0.221191
Variant_3 : 0 0
Offset_3 4093
Offset_4 255
Offset_5 462
Offset_6 508
Offset_7 575
Offset_8 514
Offset_9 475
Offset_10 382
Offset_11 305
Offset_12 275
Offset_13 206
Offset_14 227
Offset_15 190
Offset_16 219
Offset_17 151
Offset_18 118
Offset_19 237
Offset_20 140
Offset_21 265
Offset_22 391
Offset_23 241
Offset_24 338
Offset_25 88
Offset_47 84
Offset_64 1
decode_dispatch_called: 25126202 69.635
Dispatch_width: 0 13395030 53.311 37.1231
Dispatch_width: 1 935327 3.72252 2.59217
Dispatch_width: 2 809580 3.22205 2.24368
Dispatch_width: 3 497669 1.98068 1.37924
Dispatch_width: 4 5407517 21.5214 14.9864
Dispatch_width: 5 164036 0.652848 0.454611
Dispatch_width: 6 3917043 15.5895 10.8557
Empty_decode_cycles: 10956520 30.365
ROB_full_cycles: 8518883 23.6093
Starvation_cycles_per_kilo_instr: 236.468
Starvation_cycles_per_kilo_instr_3: 180.752
Starvation_cycles_per_kilo_instr_0: 158.327
Branch_type_1  (3,1)  (4,8)  (5,38)  (6,72)  (7,112)  (8,132)  (9,128)  (10,99)  (11,67)  (12,43)  (13,8)  (14,2)  (15,3)  (16,4)  (18,1)  (19,4)  (20,2)  (21,1)  (22,3)  (23,2)  (24,10)  (25,12) 
Branch_type_2  (3,1)  (5,1)  (8,3)  (9,3)  (12,1)  (13,1)  (14,1)  (16,3)  (17,2)  (20,2)  (21,2)  (23,5)  (24,1)  (47,38) 
Branch_type_3  (3,4091)  (4,247)  (5,419)  (6,421)  (7,431)  (8,319)  (9,261)  (10,152)  (11,120)  (12,50)  (13,7) 
Branch_type_4  (6,3)  (7,8)  (8,26)  (9,51)  (10,61)  (11,61)  (12,97)  (13,87)  (14,100)  (15,89)  (16,98)  (17,68)  (18,53)  (19,114)  (20,71)  (21,144)  (22,208)  (23,136)  (24,190)  (25,72) 
Branch_type_5  (8,2)  (9,1)  (10,4)  (11,5)  (12,3)  (13,14)  (14,16)  (15,11)  (16,20)  (17,11)  (18,16)  (19,13)  (20,12)  (21,13)  (22,42)  (23,26)  (24,40) 
Branch_type_6  (5,4)  (6,12)  (7,24)  (8,32)  (9,31)  (10,66)  (11,52)  (12,81)  (13,89)  (14,108)  (15,87)  (16,94)  (17,70)  (18,48)  (19,106)  (20,53)  (21,105)  (22,138)  (23,72)  (24,97)  (25,4)  (47,46)  (64,1) 
Unique trigger count: 
Variant_0_evicts_0 : 0
Variant_0_evicts_1 : 0
Variant_0_evicts_2 : 0
Variant_0_evicts_3 : 0
Variant_1_evicts_0 : 0
Variant_1_evicts_1 : 0
Variant_1_evicts_2 : 0
Variant_1_evicts_3 : 0
Variant_2_evicts_0 : 0
Variant_2_evicts_1 : 0
Variant_2_evicts_2 : 0
Variant_2_evicts_3 : 0
Variant_3_evicts_0 : 0
Variant_3_evicts_1 : 0
Variant_3_evicts_2 : 0
Variant_3_evicts_3 : 0
BTB PER SET UNIQUE ADDR: 31 31 26 23 23 24 24 21 25 24 26 27 23 18 29 26 25 20 26 21 28 28 24 27 29 18 25 25 26 21 35 25 28 17 22 22 23 26 30 22 25 21 27 23 20 24 33 18 25 26 19 24 23 19 21 20 26 23 24 25 24 26 24 27 23 28 27 32 24 27 29 21 24 26 22 26 21 22 25 37 34 23 30 25 30 29 18 22 23 23 24 25 27 26 21 25 27 27 27 23 22 26 25 39 28 23 33 28 31 26 22 28 27 18 24 24 32 24 22 27 29 22 23 19 27 21 26 26 25 23 24 24 26 31 23 31 31 30 20 24 27 22 32 18 40 20 22 20 26 33 22 27 27 27 31 23 23 28 23 30 24 24 25 25 29 35 22 25 27 23 25 25 24 21 20 29 20 26 23 30 31 24 21 30 25 22 23 28 23 23 28 30 21 22 27 20 23 20 20 19 21 22 27 23 28 22 28 24 22 24 25 22 32 18 23 32 25 23 28 29 31 25 24 28 37 23 24 28 20 34 24 28 20 23 26 22 25 28 19 25 30 24 21 26 27 29 25 27 25 25 33 22 23 27 29 29 
BTB PER SET COUNT: 38 55 1504 24 27 26 24 21 29 24 2327 278 23 20 1618 30 27 1008 27 23 30 1813 26 1004 29 25 1009 26 3089 22 2480 27 31 87 416 166 28 27 1072 22 26 22 29 27 21 26 1999 20 224 26 20 25 23 21 22 392 1542 517 54 25 25 28 24 1035 1489 1006 16121 36 24 30 33 317 27 28 23 1013 451 25 1494 1014 1983 23 1621 1491 30 31 18 25 24 24 25 30 30 739 21 2480 28 485 30 23 515 27 1010 79 40 28 2436 2481 371 1505 22 2959 102 18 1006 24 1018 28 1239 1810 2124 24 1500 19 27 23 27 3949 2965 23 1498 24 1741 1013 23 34 31 607 2459 25 517 23 45 1000 44 20 1002 20 26 3935 23 761 1788 181 33 2964 23 2213 2474 33 401 27 31 3065 1993 1997 22 25 21569 1044 412 1008 2954 23 21 29 22 39 24 33 31 30 1490 1743 2156 23 23 28 23 24 2165 336 22 22 504 22 154 31 20 20 22 86 521 23 4426 1006 31 438 1008 1008 27 25 32 19 26 603 127 25 4912 29 1989 27 1981 1497 4418 39 27 562 7853 1991 3812 34 20 1010 2171 22 1455 37 1181 1006 30 24 21 205 28 29 1008 5889 26 31 1505 23 1146 27 32 56 
To predecode: 0
Predecoding something: 0
Predecode request dropped: 0
sizeofblock_0 0
sizeofblock_1 14083
sizeofblock_2 22397
sizeofblock_3 54930
sizeofblock_4 59549
sizeofblock_5 0
sizeofblock_6 0
sizeofblock_7 0
sizeofblock_8 0
Variant_0 Correct: 1614976 Incorrect: 0 Accuracy: 1
Variant_1 Correct: 2091466 Incorrect: 0 Accuracy: 1
Variant_2 Correct: 3625456 Incorrect: 511 Accuracy: 0.999859
Variant_3 Correct: 0 Incorrect: 0 Accuracy: -nan
