
*** ChampSim Multicore Out-of-Order Simulator ***

Warmup Instructions: 50000000
Simulation Instructions: 50000000
Number of CPUs: 1
LLC sets: 2048
LLC ways: 16
Off-chip DRAM Size: 4096 MB Channels: 1 Width: 64-bit Data Rate: 6400 MT/s
CPU 0 runs ./micro_traces/srv190.trace.gz
.gz
ITLB has LRU replacement policy
DTLB has LRU replacement policy
STLB has LRU replacement policy
FDIP Prefetcher at L1I
L1I has LRU replacement policy
L1D has LRU replacement policy
Initialize SRRIP state for L2C
Initialize DRRIP state for LLC
Heartbeat_Variant_0 : 1298 0.316895 per_variant_size: 0 1298 0 0 0 0 0 0 0 
Heartbeat_Variant_1 : 1185 0.289307 per_variant_size: 0 582 603 0 0 0 0 0 0 
Heartbeat_Variant_2 : 1290 0.314941 per_variant_size: 0 547 350 226 167 0 0 0 0 
Heartbeat_Variant_3 : 0 0 per_variant_size: 0 0 0 0 0 0 0 0 0 
Heartbeat_Variant_0_evicts 0 : 5634 1 : 198 2 : 189 3 : 0 
Heartbeat_Variant_1_evicts 0 : 189 1 : 0 2 : 374 3 : 0 
Heartbeat_Variant_2_evicts 0 : 176 1 : 372 2 : 0 3 : 0 
Heartbeat_Variant_3_evicts 0 : 0 1 : 0 2 : 0 3 : 0 
Heartbeat CPU 0 instructions: 10000000 cycles: 2797353 heartbeat IPC: 3.57481 cumulative IPC: 3.57481 (Simulation time: 0 hr 2 min 12 sec) 
Heartbeat_Variant_0 : 1350 0.32959 per_variant_size: 0 1350 0 0 0 0 0 0 0 
Heartbeat_Variant_1 : 1235 0.301514 per_variant_size: 0 577 658 0 0 0 0 0 0 
Heartbeat_Variant_2 : 1328 0.324219 per_variant_size: 0 507 396 218 207 0 0 0 0 
Heartbeat_Variant_3 : 0 0 per_variant_size: 0 0 0 0 0 0 0 0 0 
Heartbeat_Variant_0_evicts 0 : 5653 1 : 122 2 : 134 3 : 0 
Heartbeat_Variant_1_evicts 0 : 128 1 : 0 2 : 320 3 : 0 
Heartbeat_Variant_2_evicts 0 : 125 1 : 316 2 : 0 3 : 0 
Heartbeat_Variant_3_evicts 0 : 0 1 : 0 2 : 0 3 : 0 
Heartbeat CPU 0 instructions: 20000001 cycles: 5593896 heartbeat IPC: 3.57584 cumulative IPC: 3.57533 (Simulation time: 0 hr 3 min 49 sec) 
Heartbeat_Variant_0 : 1355 0.330811 per_variant_size: 0 1355 0 0 0 0 0 0 0 
Heartbeat_Variant_1 : 1243 0.303467 per_variant_size: 0 584 659 0 0 0 0 0 0 
Heartbeat_Variant_2 : 1335 0.325928 per_variant_size: 0 519 384 229 203 0 0 0 0 
Heartbeat_Variant_3 : 0 0 per_variant_size: 0 0 0 0 0 0 0 0 0 
Heartbeat_Variant_0_evicts 0 : 5641 1 : 64 2 : 50 3 : 0 
Heartbeat_Variant_1_evicts 0 : 66 1 : 0 2 : 264 3 : 0 
Heartbeat_Variant_2_evicts 0 : 49 1 : 263 2 : 0 3 : 0 
Heartbeat_Variant_3_evicts 0 : 0 1 : 0 2 : 0 3 : 0 
Heartbeat CPU 0 instructions: 30000001 cycles: 8389485 heartbeat IPC: 3.57706 cumulative IPC: 3.5759 (Simulation time: 0 hr 5 min 28 sec) 
Heartbeat_Variant_0 : 1366 0.333496 per_variant_size: 0 1366 0 0 0 0 0 0 0 
Heartbeat_Variant_1 : 1247 0.304443 per_variant_size: 0 586 661 0 0 0 0 0 0 
Heartbeat_Variant_2 : 1334 0.325684 per_variant_size: 0 517 383 229 205 0 0 0 0 
Heartbeat_Variant_3 : 0 0 per_variant_size: 0 0 0 0 0 0 0 0 0 
Heartbeat_Variant_0_evicts 0 : 5603 1 : 53 2 : 56 3 : 0 
Heartbeat_Variant_1_evicts 0 : 50 1 : 0 2 : 267 3 : 0 
Heartbeat_Variant_2_evicts 0 : 50 1 : 267 2 : 0 3 : 0 
Heartbeat_Variant_3_evicts 0 : 0 1 : 0 2 : 0 3 : 0 
Heartbeat CPU 0 instructions: 40000000 cycles: 11185016 heartbeat IPC: 3.57714 cumulative IPC: 3.57621 (Simulation time: 0 hr 7 min 8 sec) 
Heartbeat_Variant_0 : 1365 0.333252 per_variant_size: 0 1365 0 0 0 0 0 0 0 
Heartbeat_Variant_1 : 1263 0.30835 per_variant_size: 0 607 656 0 0 0 0 0 0 
Heartbeat_Variant_2 : 1340 0.327148 per_variant_size: 0 521 376 237 206 0 0 0 0 
Heartbeat_Variant_3 : 0 0 per_variant_size: 0 0 0 0 0 0 0 0 0 
Heartbeat_Variant_0_evicts 0 : 5666 1 : 76 2 : 83 3 : 0 
Heartbeat_Variant_1_evicts 0 : 89 1 : 0 2 : 259 3 : 0 
Heartbeat_Variant_2_evicts 0 : 73 1 : 268 2 : 0 3 : 0 
Heartbeat_Variant_3_evicts 0 : 0 1 : 0 2 : 0 3 : 0 
Heartbeat CPU 0 instructions: 50000003 cycles: 13981603 heartbeat IPC: 3.57579 cumulative IPC: 3.57613 (Simulation time: 0 hr 8 min 45 sec) 

Warmup complete CPU 0 instructions: 50000003 cycles: 13981603 (Simulation time: 0 hr 8 min 45 sec) 

Cycle: 20000000 FTQ IN: 58244392 FTQ occupancy: 19.962 DECODE IN: 58244288 DECODE occupancy: 51.9777 ROB IN: 58244228 ROB occupancy: 314.627 ROB OUT: 58244046
Heartbeat_Variant_0 : 1369 0.334229 per_variant_size: 0 1369 0 0 0 0 0 0 0 
Heartbeat_Variant_1 : 1258 0.307129 per_variant_size: 0 596 662 0 0 0 0 0 0 
Heartbeat_Variant_2 : 1350 0.32959 per_variant_size: 0 531 385 232 202 0 0 0 0 
Heartbeat_Variant_3 : 0 0 per_variant_size: 0 0 0 0 0 0 0 0 0 
Heartbeat_Variant_0_evicts 0 : 5594 1 : 56 2 : 56 3 : 0 
Heartbeat_Variant_1_evicts 0 : 52 1 : 0 2 : 251 3 : 0 
Heartbeat_Variant_2_evicts 0 : 59 1 : 255 2 : 0 3 : 0 
Heartbeat_Variant_3_evicts 0 : 0 1 : 0 2 : 0 3 : 0 
Heartbeat CPU 0 instructions: 60000003 cycles: 21267706 heartbeat IPC: 1.37248 cumulative IPC: 1.37248 (Simulation time: 0 hr 10 min 37 sec) 
Heartbeat_Variant_0 : 1375 0.335693 per_variant_size: 0 1375 0 0 0 0 0 0 0 
Heartbeat_Variant_1 : 1273 0.310791 per_variant_size: 0 620 653 0 0 0 0 0 0 
Heartbeat_Variant_2 : 1340 0.327148 per_variant_size: 0 523 371 242 204 0 0 0 0 
Heartbeat_Variant_3 : 0 0 per_variant_size: 0 0 0 0 0 0 0 0 0 
Heartbeat_Variant_0_evicts 0 : 5663 1 : 68 2 : 68 3 : 0 
Heartbeat_Variant_1_evicts 0 : 68 1 : 0 2 : 270 3 : 0 
Heartbeat_Variant_2_evicts 0 : 64 1 : 259 2 : 0 3 : 0 
Heartbeat_Variant_3_evicts 0 : 0 1 : 0 2 : 0 3 : 0 
Heartbeat CPU 0 instructions: 70000002 cycles: 28452326 heartbeat IPC: 1.39186 cumulative IPC: 1.3821 (Simulation time: 0 hr 12 min 28 sec) 
Cycle: 30000000 FTQ IN: 13914152 FTQ occupancy: 12.8849 DECODE IN: 13914132 DECODE occupancy: 33.6229 ROB IN: 13914132 ROB occupancy: 236.916 ROB OUT: 13913966
Heartbeat_Variant_0 : 1378 0.336426 per_variant_size: 0 1378 0 0 0 0 0 0 0 
Heartbeat_Variant_1 : 1276 0.311523 per_variant_size: 0 616 660 0 0 0 0 0 0 
Heartbeat_Variant_2 : 1342 0.327637 per_variant_size: 0 517 370 252 203 0 0 0 0 
Heartbeat_Variant_3 : 0 0 per_variant_size: 0 0 0 0 0 0 0 0 0 
Heartbeat_Variant_0_evicts 0 : 5603 1 : 34 2 : 35 3 : 0 
Heartbeat_Variant_1_evicts 0 : 30 1 : 0 2 : 231 3 : 0 
Heartbeat_Variant_2_evicts 0 : 38 1 : 227 2 : 0 3 : 0 
Heartbeat_Variant_3_evicts 0 : 0 1 : 0 2 : 0 3 : 0 
Heartbeat CPU 0 instructions: 80000000 cycles: 35755278 heartbeat IPC: 1.36931 cumulative IPC: 1.37781 (Simulation time: 0 hr 14 min 20 sec) 
Cycle: 40000000 FTQ IN: 13762428 FTQ occupancy: 13.0677 DECODE IN: 13762510 DECODE occupancy: 33.8665 ROB IN: 13762558 ROB occupancy: 237.922 ROB OUT: 13762738
Heartbeat_Variant_0 : 1377 0.336182 per_variant_size: 0 1377 0 0 0 0 0 0 0 
Heartbeat_Variant_1 : 1275 0.311279 per_variant_size: 0 614 661 0 0 0 0 0 0 
Heartbeat_Variant_2 : 1344 0.328125 per_variant_size: 0 515 374 249 206 0 0 0 0 
Heartbeat_Variant_3 : 0 0 per_variant_size: 0 0 0 0 0 0 0 0 0 
Heartbeat_Variant_0_evicts 0 : 5509 1 : 4 2 : 6 3 : 0 
Heartbeat_Variant_1_evicts 0 : 5 1 : 0 2 : 193 3 : 0 
Heartbeat_Variant_2_evicts 0 : 6 1 : 195 2 : 0 3 : 0 
Heartbeat_Variant_3_evicts 0 : 0 1 : 0 2 : 0 3 : 0 
Heartbeat CPU 0 instructions: 90000002 cycles: 42943061 heartbeat IPC: 1.39125 cumulative IPC: 1.38115 (Simulation time: 0 hr 16 min 9 sec) 
Cycle: 50000000 FTQ IN: 13760234 FTQ occupancy: 12.996 DECODE IN: 13760172 DECODE occupancy: 33.5455 ROB IN: 13760124 ROB occupancy: 236.035 ROB OUT: 13759941
Heartbeat_Variant_0 : 1377 0.336182 per_variant_size: 0 1377 0 0 0 0 0 0 0 
Heartbeat_Variant_1 : 1277 0.311768 per_variant_size: 0 612 665 0 0 0 0 0 0 
Heartbeat_Variant_2 : 1350 0.32959 per_variant_size: 0 519 374 253 204 0 0 0 0 
Heartbeat_Variant_3 : 0 0 per_variant_size: 0 0 0 0 0 0 0 0 0 
Heartbeat_Variant_0_evicts 0 : 5708 1 : 54 2 : 63 3 : 0 
Heartbeat_Variant_1_evicts 0 : 54 1 : 0 2 : 229 3 : 0 
Heartbeat_Variant_2_evicts 0 : 65 1 : 230 2 : 0 3 : 0 
Heartbeat_Variant_3_evicts 0 : 0 1 : 0 2 : 0 3 : 0 
Heartbeat CPU 0 instructions: 100000003 cycles: 50225540 heartbeat IPC: 1.37316 cumulative IPC: 1.37954 (Simulation time: 0 hr 17 min 50 sec) 
Finished CPU 0 instructions: 50000000 cycles: 36243937 cumulative IPC: 1.37954 (Simulation time: 0 hr 17 min 50 sec) 

ChampSim completed all CPUs

Region of Interest Statistics

CPU 0 cumulative IPC: 1.37954 instructions: 50000000 cycles: 36243937
 Fetch stage stalled: 53.732  Sim cycles: 36243937 fetch stall cycle: 19474579
 Empty decode stage: 35.3906  Sim cycles: 36243937 fetch stall cycle: 12826949
ITLB TOTAL     ACCESS:    5849705  HIT:    5354077  MISS:     495628  HIT %:    91.5273  MISS %:     8.4727   MPKI: 9.91256
ITLB LOAD TRANSLATION INSTRUCTION	ACCESS:    5723318  HIT:    5227690  MISS:     495628  HIT %:    91.3402  MISS %:     8.6598  MPKI: 9.91256
ITLB TRANSLATION FROM L1D PREFETCHER INSTRUCTION	ACCESS:     126387  HIT:     126387  MISS:          0  HIT %:        100  MISS %:          0  MPKI: 0

ITLB AVERAGE MISS LATENCY: 9.05742 cycles
ITLB RQ	ACCESS:    7992365	FORWARD:          0	MERGED:    1693750	TO_CACHE:    6298615

DTLB TOTAL     ACCESS:    8976945  HIT:    8501814  MISS:     475131  HIT %:    94.7072  MISS %:    5.29279   MPKI: 9.50262
DTLB LOAD TRANSLATION DATA	ACCESS:    8976945  HIT:    8501814  MISS:     475131  HIT %:    94.7072  MISS %:    5.29279  MPKI: 9.50262

DTLB AVERAGE MISS LATENCY: 9.37235 cycles
DTLB RQ	ACCESS:   13349413	FORWARD:          0	MERGED:    4334915	TO_CACHE:    9014498

STLB TOTAL     ACCESS:    1220264  HIT:    1217818  MISS:       2446  HIT %:    99.7996  MISS %:   0.200448   MPKI: 0.04892
STLB LOAD TRANSLATION INSTRUCTION	ACCESS:     495628  HIT:     495311  MISS:        317  HIT %:     99.936  MISS %:  0.0639593  MPKI: 0.00634
STLB LOAD TRANSLATION DATA	ACCESS:     475130  HIT:     473034  MISS:       2096  HIT %:    99.5589  MISS %:   0.441142  MPKI: 0.04192
STLB TRANSLATION FROM L1D PREFETCHER DATA	ACCESS:     249506  HIT:     249473  MISS:         33  HIT %:    99.9868  MISS %:  0.0132261  MPKI: 0.00066

STLB AVERAGE MISS LATENCY: 71.52 cycles
STLB RQ	ACCESS:    1340650	FORWARD:          0	MERGED:     120344	TO_CACHE:    1220306

STLB Hit, L1D data hit: 0
STLB Hit, L2C data hit: 0
STLB Hit, LLC data hit: 0
STLB Hit, LLC data miss: 0
STLB STLB hints to L2: 0
L1D TOTAL     ACCESS:   13092846  HIT:   11967593  MISS:    1125253  HIT %:    91.4056  MISS %:    8.59441   MPKI: 22.5051
L1D LOAD DATA	ACCESS:    6560757  HIT:    5818360  MISS:     742397  HIT %:    88.6843  MISS %:    11.3157  MPKI: 14.8479
L1D RFO DATA	ACCESS:    6205279  HIT:    5917407  MISS:     287872  HIT %:    95.3609  MISS %:    4.63915  MPKI: 5.75744
L1D PREFETCH DATA	ACCESS:     326810  HIT:     231826  MISS:      94984  HIT %:     70.936  MISS %:     29.064  MPKI: 1.89968

L1D PREFETCH  REQUESTED:     740154  ISSUED:     740154  USEFUL:      35497  USELESS:      69160
L1D USEFUL LOAD PREFETCHES:      35497 PREFETCH ISSUED TO LOWER LEVEL:     104735  ACCURACY: 33.8922
 TIMELY PREFETCHES:      35497 LATE PREFETCHES: 9687 DROPPED PREFETCHES: 7
L1D AVERAGE MISS LATENCY: 278643 cycles
L1D RQ	ACCESS:   10695955	FORWARD:          0	MERGED:    3938011	TO_CACHE:    6594165
L1D WQ	ACCESS:    6952185	FORWARD:     164151	MERGED:     196937	TO_CACHE:    6755248
L1D PQ	ACCESS:     370263	FORWARD:          0	MERGED:          0	TO_CACHE:     369891

L1D UNIQUE REGIONS ACCESSED: 0
L1D REGIONS CONFLICTS: 0
L1D Cross Page Prefetch Requests: 6924
L1D Same Page Prefetch Requests: 742701
L1D ROI Sum of L1D PQ occupancy: 4707391
L1D PREFETCHES PUSHED FROM L2C: 0
L1I TOTAL     ACCESS:    7153921  HIT:    4382701  MISS:    2771220  HIT %:    61.2629  MISS %:    38.7371   MPKI: 55.4244
L1I LOAD INSTRUCTION	ACCESS:    6489047  HIT:    3717827  MISS:    2771220  HIT %:    57.2939  MISS %:    42.7061  MPKI: 55.4244
L1I PREFETCH INSTRUCTION	ACCESS:     664874  HIT:     664874  MISS:          0  HIT %:        100  MISS %:          0  MPKI: 0

L1I PREFETCH  REQUESTED:    1609384  ISSUED:    1609384  USEFUL:          0  USELESS:          0
L1I USEFUL LOAD PREFETCHES:          0 PREFETCH ISSUED TO LOWER LEVEL:          0  ACCURACY: -nan
 TIMELY PREFETCHES:          0 LATE PREFETCHES: 0 DROPPED PREFETCHES: 0
L1I AVERAGE MISS LATENCY: 17.2928 cycles
L1I RQ	ACCESS:    9503785	FORWARD:          0	MERGED:    2686170	TO_CACHE:    6817615
L1I PQ	ACCESS:    1609384	FORWARD:          0	MERGED:     434634	TO_CACHE:    1174750

L1BTB TOTAL     ACCESS:    5670036  HIT:    2036788  MISS:    3633248  HIT %:     35.922  MISS %:     64.078   MPKI: 72.665
L1BTB BRANCH_DIRECT_JUMP	ACCESS:     547831  HIT:     143963  MISS:     403868	AVERAGE STALL: 52.848
L1BTB BRANCH_INDIRECT	ACCESS:     182851  HIT:      65933  MISS:     116918	AVERAGE STALL: 103.874
L1BTB BRANCH_CONDITIONAL	ACCESS:    2706852  HIT:    1412641  MISS:    1294211	AVERAGE STALL: 63.626
L1BTB BRANCH_DIRECT_CALL	ACCESS:     944853  HIT:     104602  MISS:     840251	AVERAGE STALL: 69.9603
L1BTB BRANCH_INDIRECT_CALL	ACCESS:     171393  HIT:      20832  MISS:     150561	AVERAGE STALL: 134.242
L1BTB BRANCH_RETURN	ACCESS:    1116256  HIT:     288817  MISS:     827439	AVERAGE STALL: 48.0037
L1BTB BRANCH_OTHER ACCESS:          0  HIT:          0  MISS:          0	AVERAGE STALL: -nan
L1BTB TOTAL ROB OCCUPANCY AT BTB MISS: 2.48843

L2BTB TOTAL     ACCESS:    3607902  HIT:    3543362  MISS:      64540  HIT %:    98.2111  MISS %:    1.78885   MPKI: 1.2908
L2BTB BRANCH_DIRECT_JUMP	ACCESS:     399730  HIT:     396095  MISS:       3635	AVERAGE STALL: 52.848
L2BTB BRANCH_INDIRECT	ACCESS:     106622  HIT:     103940  MISS:       2682	AVERAGE STALL: 103.874
L2BTB BRANCH_CONDITIONAL	ACCESS:    1294210  HIT:    1289221  MISS:       4989	AVERAGE STALL: 63.626
L2BTB BRANCH_DIRECT_CALL	ACCESS:     840251  HIT:     839188  MISS:       1063	AVERAGE STALL: 69.9603
L2BTB BRANCH_INDIRECT_CALL	ACCESS:     141063  HIT:     130751  MISS:      10312	AVERAGE STALL: 134.242
L2BTB BRANCH_RETURN	ACCESS:     826026  HIT:     784167  MISS:      41859	AVERAGE STALL: 48.0037
L2BTB BRANCH_OTHER ACCESS:          0  HIT:          0  MISS:          0	AVERAGE STALL: -nan
L2BTB TOTAL ROB OCCUPANCY AT BTB MISS: 140.085

L2C TOTAL     ACCESS:    4504380  HIT:    4009876  MISS:     494504  HIT %:    89.0217  MISS %:    10.9783   MPKI: 9.89008
L2C LOAD INSTRUCTION	ACCESS:    2771220  HIT:    2503501  MISS:     267719  HIT %:    90.3393  MISS %:    9.66069  MPKI: 5.35438
L2C LOAD TRANSLATION INSTRUCTION	ACCESS:        352  HIT:        110  MISS:        242  HIT %:      31.25  MISS %:      68.75  MPKI: 0.00484
L2C LOAD DATA	ACCESS:     732681  HIT:     655526  MISS:      77155  HIT %:    89.4695  MISS %:    10.5305  MPKI: 1.5431
L2C RFO DATA	ACCESS:     287771  HIT:     231578  MISS:      56193  HIT %:     80.473  MISS %:     19.527  MPKI: 1.12386
L2C PREFETCH DATA	ACCESS:     184850  HIT:     107975  MISS:      76875  HIT %:    58.4122  MISS %:    41.5878  MPKI: 1.5375
L2C WRITEBACK DATA	ACCESS:     525279  HIT:     510530  MISS:      14749  HIT %:    97.1922  MISS %:    2.80784  MPKI: 0.29498
L2C LOAD TRANSLATION DATA	ACCESS:       2168  HIT:        618  MISS:       1550  HIT %:    28.5055  MISS %:    71.4945  MPKI: 0.031
L2C TRANSLATION FROM L1D PREFETCHER DATA	ACCESS:         59  HIT:         38  MISS:         21  HIT %:    64.4068  MISS %:    35.5932  MPKI: 0.00042

L2C PREFETCH  REQUESTED:      86736  ISSUED:      86736  USEFUL:       7452  USELESS:      69952
L2C USEFUL LOAD PREFETCHES:       7452 PREFETCH ISSUED TO LOWER LEVEL:      77196  ACCURACY: 9.65335
 TIMELY PREFETCHES:       7452 LATE PREFETCHES: 320 DROPPED PREFETCHES: 0
L2C AVERAGE MISS LATENCY: 38.9621 cycles
L2C RQ	ACCESS:    3794318	FORWARD:          0	MERGED:          0	TO_CACHE:    3794251
L2C WQ	ACCESS:     525279	FORWARD:         68	MERGED:          0	TO_CACHE:     525279
L2C PQ	ACCESS:     191471	FORWARD:          0	MERGED:       3049	TO_CACHE:     188421

L2C Dense regions hint from L2: 0
PSCL5 TOTAL     ACCESS:       4914  HIT:       2457  MISS:       2457  HIT %:         50  MISS %:         50   MPKI: 0.04914
PSCL5 LOAD TRANSLATION INSTRUCTION	ACCESS:       4798  HIT:       2399  MISS:       2399  HIT %:         50  MISS %:         50  MPKI: 0.04798
PSCL5 TRANSLATION FROM L1D PREFETCHER INSTRUCTION	ACCESS:        116  HIT:         58  MISS:         58  HIT %:         50  MISS %:         50  MPKI: 0.00116


PSCL4 TOTAL     ACCESS:       4688  HIT:       2340  MISS:       2348  HIT %:    49.9147  MISS %:    50.0853   MPKI: 0.04696
PSCL4 LOAD TRANSLATION INSTRUCTION	ACCESS:       4097  HIT:       2294  MISS:       1803  HIT %:    55.9922  MISS %:    44.0078  MPKI: 0.03606
PSCL4 TRANSLATION FROM L1D PREFETCHER INSTRUCTION	ACCESS:         88  HIT:         46  MISS:         42  HIT %:    52.2727  MISS %:    47.7273  MPKI: 0.00084
PSCL4 LOAD TRANSLATION DATA	ACCESS:        499  HIT:          0  MISS:        499  HIT %:          0  MISS %:        100  MPKI: 0.00998
PSCL4 TRANSLATION FROM L1D PREFETCHER DATA	ACCESS:          4  HIT:          0  MISS:          4  HIT %:          0  MISS %:        100  MPKI: 8e-05


PSCL3 TOTAL     ACCESS:       4698  HIT:       2345  MISS:       2353  HIT %:    49.9149  MISS %:    50.0851   MPKI: 0.04706
PSCL3 LOAD TRANSLATION INSTRUCTION	ACCESS:       4102  HIT:       2299  MISS:       1803  HIT %:    56.0458  MISS %:    43.9542  MPKI: 0.03606
PSCL3 TRANSLATION FROM L1D PREFETCHER INSTRUCTION	ACCESS:         88  HIT:         46  MISS:         42  HIT %:    52.2727  MISS %:    47.7273  MPKI: 0.00084
PSCL3 LOAD TRANSLATION DATA	ACCESS:        504  HIT:          0  MISS:        504  HIT %:          0  MISS %:        100  MPKI: 0.01008
PSCL3 TRANSLATION FROM L1D PREFETCHER DATA	ACCESS:          4  HIT:          0  MISS:          4  HIT %:          0  MISS %:        100  MPKI: 8e-05


PSCL2 TOTAL     ACCESS:       4807  HIT:       2350  MISS:       2457  HIT %:     48.887  MISS %:     51.113   MPKI: 0.04914
PSCL2 LOAD TRANSLATION INSTRUCTION	ACCESS:       2608  HIT:       2293  MISS:        315  HIT %:    87.9218  MISS %:    12.0782  MPKI: 0.0063
PSCL2 TRANSLATION FROM L1D PREFETCHER INSTRUCTION	ACCESS:         57  HIT:         57  MISS:          0  HIT %:        100  MISS %:          0  MPKI: 0
PSCL2 LOAD TRANSLATION DATA	ACCESS:       2085  HIT:          0  MISS:       2085  HIT %:          0  MISS %:        100  MPKI: 0.0417
PSCL2 TRANSLATION FROM L1D PREFETCHER DATA	ACCESS:         57  HIT:          0  MISS:         57  HIT %:          0  MISS %:        100  MPKI: 0.00114


LLC TOTAL     ACCESS:     558931  HIT:     528627  MISS:      30304  HIT %:    94.5782  MISS %:    5.42178   MPKI: 0.60608
LLC LOAD INSTRUCTION	ACCESS:     267718  HIT:     266741  MISS:        977  HIT %:    99.6351  MISS %:   0.364936  MPKI: 0.01954
LLC LOAD TRANSLATION INSTRUCTION	ACCESS:        242  HIT:        211  MISS:         31  HIT %:    87.1901  MISS %:    12.8099  MPKI: 0.00062
LLC LOAD DATA	ACCESS:      76844  HIT:      73391  MISS:       3453  HIT %:    95.5065  MISS %:    4.49352  MPKI: 0.06906
LLC RFO DATA	ACCESS:      56169  HIT:      40768  MISS:      15401  HIT %:     72.581  MISS %:     27.419  MPKI: 0.30802
LLC PREFETCH DATA	ACCESS:      77191  HIT:      67218  MISS:       9973  HIT %:    87.0801  MISS %:    12.9199  MPKI: 0.19946
LLC WRITEBACK DATA	ACCESS:      79196  HIT:      78827  MISS:        369  HIT %:    99.5341  MISS %:   0.465933  MPKI: 0.00738
LLC LOAD TRANSLATION DATA	ACCESS:       1550  HIT:       1451  MISS:         99  HIT %:    93.6129  MISS %:     6.3871  MPKI: 0.00198
LLC TRANSLATION FROM L1D PREFETCHER DATA	ACCESS:         21  HIT:         20  MISS:          1  HIT %:    95.2381  MISS %:     4.7619  MPKI: 2e-05

LLC AVERAGE MISS LATENCY: 159.149 cycles
LLC RQ	ACCESS:     402560	FORWARD:          0	MERGED:          0	TO_CACHE:     402544
LLC WQ	ACCESS:      79196	FORWARD:         20	MERGED:          0	TO_CACHE:      79196
LLC PQ	ACCESS:      77196	FORWARD:          0	MERGED:          0	TO_CACHE:      77192

LLC Dense regions hint to LLC: 0

RAW hits: 1943713
Loads Generated: 12639668
Loads sent to L1D: 10695955
Stores Generated: 6952157
Stores sent to L1D: 6952185
Major fault: 0 Minor fault: 2538
Allocated PAGES: 2538

stream: 
stream:times selected: 1176598
stream:pref_filled: 124375
stream:pref_useful: 24458
stream:pref_late: 7498
stream:misses: 7885
stream:misses_by_poll: 0

CS: 
CS:times selected: 177521
CS:pref_filled: 58795
CS:pref_useful: 35689
CS:pref_late: 8331
CS:misses: 17658
CS:misses_by_poll: 2

CPLX: 
CPLX:times selected: 997925
CPLX:pref_filled: 19273
CPLX:pref_useful: 4357
CPLX:pref_late: 3350
CPLX:misses: 96292
CPLX:misses_by_poll: 0

NL_L1: 
NL:times selected: 21017
NL:pref_filled: 792
NL:pref_useful: 358
NL:pref_late: 321
NL:misses: 1832
NL:misses_by_poll: 0

total selections: 2373061
total_filled: 94984
total_useful: 35497
total_late: 20793
total_polluted: 2
total_misses_after_warmup: 775806
conflicts: 5534527

test: 118140

DRAM Statistics
 CHANNEL 0
 RQ ROW_BUFFER_HIT:      11306  ROW_BUFFER_MISS:      18618
 DBUS_CONGESTED:          5
 WQ ROW_BUFFER_HIT:       1417  ROW_BUFFER_MISS:      12702  FULL:          0

 AVG_CONGESTED_CYCLE: 5

CPU 0 Branch Prediction Accuracy: 99.8212% MPKI: 0.327 Average ROB Occupancy at Mispredict: 192.339
Branch types
NOT_BRANCH: 40856083 81.7122%
BRANCH_DIRECT_JUMP: 547831 1.09566%
BRANCH_INDIRECT: 182851 0.365702%
BRANCH_CONDITIONAL: 6180765 12.3615%
BRANCH_DIRECT_CALL: 944853 1.88971%
BRANCH_INDIRECT_CALL: 171393 0.342786%
BRANCH_RETURN: 1116256 2.23251%
BRANCH_OTHER: 0 0%

DRAM PAGES: 1048576
Allocated PAGES: 2538
Average_ROB_Occupancy: 237.976
Average_Decode_Occupancy: 33.591
Average_FTQ_Occupancy: 12.9666
Indirect max targets: 14 Average targets: 1.14576
Branch_type:  BRANCH_DIRECT_JUMP:  Count Percentage: 2.87004 7.21669 3.61616 8.3133 2.73488 5.40222 1.0276 68.8191 
Branch_type:  BRANCH_INDIRECT:  Count Percentage: 11.7585 3.44223 2.47267 0 2.52912 9.67447 19.1829 50.9401 
Branch_type:  BRANCH_CONDITIONAL:  Count Percentage: 20.9019 3.09402 1.68594 8.8032 1.34668 4.71807 1.8845 57.5657 
Branch_type:  BRANCH_DIRECT_CALL:  Count Percentage: 0.786469 1.29482 1.40505 4.53314 2.66397 2.34357 0.945272 86.0277 
Branch_type:  BRANCH_INDIRECT_CALL:  Count Percentage: 9.58462 0.551723 3.00467 4.84568 0.00029084 1.71683 1.2733 79.0229 
Branch_type:  BRANCH_RETURN:  Count Percentage: 4.04398 0.698198 1.24341 8.94753 2.74138 6.24354 3.07554 73.0064 
Branch_type:  BRANCH_DIRECT_JUMP:  Total Count: 31404 78965 39568 90964 29925 59111 11244 753018 
Branch_type:  BRANCH_INDIRECT:  Total Count: 42908 12561 9023 0 9229 35303 70000 185885 
Branch_type:  BRANCH_CONDITIONAL:  Total Count: 2582132 382221 208274 1087508 166363 582849 232803 7111405 
Branch_type:  BRANCH_DIRECT_CALL:  Total Count: 14897 24526 26614 85865 50460 44391 17905 1629505 
Branch_type:  BRANCH_INDIRECT_CALL:  Total Count: 32955 1897 10331 16661 1 5903 4378 271706 
Branch_type:  BRANCH_RETURN:  Total Count: 90535 15631 27837 200314 61373 139778 68854 1634440 
Number of unique branch instructions: 9737
Upper 32 bits: 
aaaa
ffff
ffff0000
Unique upper 32 bits: 3
Unique upper 36 bits: 3
Unique upper 40 bits: 5
Unique upper 44 bits: 32
Unique upper 48 bits: 154
Variant_0 : 1377 0.336182
Variant_1 : 1277 0.311768
Variant_2 : 1350 0.32959
Variant_3 : 0 0
Offset_3 4020
Offset_4 242
Offset_5 447
Offset_6 501
Offset_7 574
Offset_8 499
Offset_9 462
Offset_10 375
Offset_11 304
Offset_12 266
Offset_13 198
Offset_14 223
Offset_15 185
Offset_16 219
Offset_17 145
Offset_18 120
Offset_19 235
Offset_20 133
Offset_21 235
Offset_22 391
Offset_23 241
Offset_24 325
Offset_25 88
Offset_47 80
Offset_64 6
decode_dispatch_called: 25326656 69.8783
Dispatch_width: 0 13524055 53.3985 37.314
Dispatch_width: 1 950444 3.75274 2.62235
Dispatch_width: 2 823284 3.25066 2.27151
Dispatch_width: 3 492667 1.94525 1.35931
Dispatch_width: 4 5566182 21.9776 15.3576
Dispatch_width: 5 159885 0.631291 0.441136
Dispatch_width: 6 3810139 15.044 10.5125
Empty_decode_cycles: 10917281 30.1217
ROB_full_cycles: 8800218 24.2805
Starvation_cycles_per_kilo_instr: 236.336
Starvation_cycles_per_kilo_instr_3: 179.075
Starvation_cycles_per_kilo_instr_0: 156.411
Branch_type_1  (3,1)  (4,7)  (5,36)  (6,71)  (7,115)  (8,126)  (9,125)  (10,98)  (11,69)  (12,43)  (13,8)  (14,2)  (15,3)  (16,4)  (18,1)  (19,4)  (20,2)  (21,1)  (22,3)  (23,2)  (24,10)  (25,12) 
Branch_type_2  (3,1)  (5,1)  (8,3)  (9,3)  (12,1)  (13,1)  (14,1)  (16,3)  (17,2)  (20,2)  (21,2)  (23,5)  (24,1)  (47,36) 
Branch_type_3  (3,4018)  (4,235)  (5,406)  (6,415)  (7,430)  (8,311)  (9,253)  (10,153)  (11,124)  (12,51)  (13,7)  (64,5) 
Branch_type_4  (6,3)  (7,8)  (8,24)  (9,50)  (10,59)  (11,56)  (12,93)  (13,82)  (14,98)  (15,87)  (16,98)  (17,63)  (18,54)  (19,115)  (20,70)  (21,124)  (22,207)  (23,136)  (24,186)  (25,72) 
Branch_type_5  (8,2)  (9,1)  (10,3)  (11,5)  (12,3)  (13,14)  (14,16)  (15,11)  (16,20)  (17,13)  (18,16)  (19,12)  (20,10)  (21,13)  (22,42)  (23,26)  (24,36) 
Branch_type_6  (5,4)  (6,12)  (7,21)  (8,33)  (9,30)  (10,62)  (11,50)  (12,75)  (13,86)  (14,106)  (15,84)  (16,94)  (17,67)  (18,49)  (19,104)  (20,49)  (21,95)  (22,139)  (23,72)  (24,92)  (25,4)  (47,44)  (64,1) 
Unique trigger count: 
Variant_0_evicts_0 : 0
Variant_0_evicts_1 : 0
Variant_0_evicts_2 : 0
Variant_0_evicts_3 : 0
Variant_1_evicts_0 : 0
Variant_1_evicts_1 : 0
Variant_1_evicts_2 : 0
Variant_1_evicts_3 : 0
Variant_2_evicts_0 : 0
Variant_2_evicts_1 : 0
Variant_2_evicts_2 : 0
Variant_2_evicts_3 : 0
Variant_3_evicts_0 : 0
Variant_3_evicts_1 : 0
Variant_3_evicts_2 : 0
Variant_3_evicts_3 : 0
BTB PER SET UNIQUE ADDR: 12 11 9 11 8 14 9 13 10 11 8 15 10 8 8 10 12 10 11 13 14 10 11 8 12 8 13 14 9 9 15 16 11 5 9 9 10 12 8 13 11 7 12 9 7 11 10 8 11 10 12 9 13 12 12 5 8 11 8 9 14 12 8 8 13 14 8 10 15 11 7 9 12 10 9 6 6 10 8 13 12 5 11 14 10 15 8 10 10 16 8 5 10 8 7 14 8 15 9 12 16 11 11 10 10 8 5 13 10 4 6 14 12 10 8 6 8 10 10 15 11 11 9 9 14 10 4 11 16 9 8 12 11 12 8 10 8 9 12 13 8 10 12 8 14 8 11 6 6 10 13 14 10 7 8 11 14 10 9 12 12 8 20 11 10 9 12 7 10 9 10 10 10 9 13 8 6 10 9 12 8 12 11 9 16 14 5 13 7 10 10 9 9 8 11 13 5 13 7 8 11 15 9 9 11 9 11 12 7 10 7 9 10 7 6 11 14 9 9 12 5 14 8 8 6 12 12 6 8 9 5 4 8 16 13 12 8 12 9 9 15 11 12 12 12 9 8 6 10 8 10 8 11 10 16 12 5 9 10 11 10 7 4 11 10 10 7 12 8 11 7 9 7 5 8 9 9 16 10 10 8 12 5 10 12 6 9 15 11 10 6 8 14 13 8 9 10 12 11 13 10 10 12 9 9 11 11 9 12 12 9 14 7 7 7 5 12 8 11 13 8 14 7 10 11 11 10 9 10 6 10 7 7 10 10 6 7 9 6 19 8 12 9 11 9 12 11 8 9 8 9 7 7 11 9 8 12 11 11 9 6 15 9 14 8 11 6 9 12 11 10 11 11 10 9 11 15 12 10 6 14 12 6 5 8 12 12 13 12 7 11 9 8 15 10 6 13 8 10 8 7 11 9 12 13 11 15 16 8 9 12 4 7 17 14 12 13 11 14 14 11 10 7 14 11 8 11 10 11 8 15 7 9 10 9 10 14 8 10 7 10 6 7 10 13 7 11 9 7 12 9 14 14 6 11 15 15 13 8 12 8 8 12 9 13 7 10 10 12 9 10 9 14 9 10 12 6 13 7 10 10 13 10 10 7 13 12 11 10 10 6 9 9 5 9 9 12 11 9 7 11 11 10 14 5 8 10 11 11 7 13 11 12 11 11 11 7 13 10 8 4 10 10 6 14 12 13 10 5 16 13 13 13 12 8 15 11 10 7 10 16 11 13 10 17 12 9 13 7 7 12 12 15 13 10 13 11 11 11 16 12 14 13 9 7 13 7 14 12 12 8 10 14 12 13 11 19 17 11 7 9 11 8 9 12 11 11 10 12 12 10 11 8 10 15 6 8 11 8 10 9 12 9 5 5 18 11 5 13 8 5 8 9 10 5 12 9 12 9 10 15 10 7 8 11 15 9 18 9 11 6 11 17 10 10 7 6 13 7 17 9 10 13 15 9 13 8 13 18 12 7 9 10 6 12 11 11 10 7 11 13 8 7 8 7 12 6 8 8 9 13 8 11 12 17 8 8 16 10 10 13 8 13 11 11 13 10 16 11 13 16 14 11 7 8 9 8 13 11 9 6 7 13 17 7 14 11 6 10 7 9 10 6 10 9 8 13 11 10 11 10 7 9 12 10 6 10 11 7 10 12 8 10 8 12 15 12 12 12 11 8 8 12 6 14 13 11 14 10 6 14 10 13 12 6 9 18 8 7 11 9 6 4 10 12 9 6 12 10 8 10 10 10 7 9 10 14 8 12 13 8 15 10 11 9 10 10 10 7 9 6 6 14 9 12 18 9 11 16 9 15 11 13 10 19 9 10 9 7 11 11 14 9 15 13 12 15 10 5 8 9 11 6 12 11 14 11 13 10 12 8 10 13 9 8 16 10 10 9 9 14 9 7 7 12 17 12 12 8 8 8 13 11 12 8 13 10 11 8 12 12 5 8 11 17 12 11 4 12 10 10 13 12 9 16 5 7 11 8 11 10 10 11 12 11 7 16 11 10 13 14 11 7 8 10 10 17 9 10 10 8 7 13 9 9 11 7 9 11 11 7 13 12 14 9 13 13 10 12 8 11 13 15 7 9 8 8 10 10 6 9 18 16 12 7 14 13 11 7 12 10 12 9 9 11 8 12 10 6 15 12 14 9 12 8 13 9 11 14 13 13 11 13 12 17 9 12 10 8 15 12 14 15 11 15 8 12 12 12 15 9 11 10 10 8 18 14 10 12 14 13 10 12 9 9 11 9 12 14 10 16 13 9 10 15 15 8 16 7 14 11 12 5 6 10 8 6 8 6 10 6 10 14 8 
BTB PER SET COUNT: 14 11 1906 12 1483 21 1011 17 1200 23 9 1017 12 14 8 12 822 17 15 19 25 12 734 49 24 11 26 18 10 10 25 1649 13 7 10 12 25 14 11 887 15 9 12 16 1482 11 16 11 11 11 16 306 19 15 55 6 17 14 14 9 17 15 11 8 22 133 8 1062 28 15 1483 18 17 12 11 7 12 941 8 15 168 6 14 21 10 2289 10 13 21 30 8 5 11 9 9 16 1014 448 11 12 28 84 14 464 12 10 8 16 943 4 7 25 860 14 10 271 10 15 1485 33 216 14 13 9 14 13 4 13 25 768 10 2621 13 13 13 10 1011 11 13 16 12 10 17 8 25 8 18 8 6 176 19 264 685 9 8 12 19 12 12 13 17 326 27 16 1701 14 15 10 21 17 17 11 14 15 16 13 11 10 12 100 8 77 2459 10 25 40 6 17 938 14 14 12 10 8 11 17 5 720 12 636 12 22 1012 14 11 11 15 285 7 10 8 9 13 189 6 145 20 19 1495 14 7 25 9 8 6 23 13 6 8 10 6 4 9 22 16 23 16 495 11 14 21 17 70 230 14 957 11 12 540 9 17 11 14 10 22 18 78 14 11 17 1012 8 5 476 10 10 7 16 403 14 9 11 8 6 926 13 11 26 14 393 11 14 6 15 15 7 9 22 17 13 6 8 21 218 11 14 1485 20 11 34 11 11 17 13 11 155 14 9 16 233 10 22 8 8 815 952 13 13 13 19 10 588 7 16 1490 15 512 13 14 6 10 10 9 13 15 10 7 1011 7 33 12 546 9 18 21 16 23 9 12 11 9 7 8 15 9 8 19 14 439 15 6 20 9 20 8 1519 6 14 13 11 12 210 18 1482 1012 14 23 17 12 7 1162 14 35 6 13 16 14 14 12 10 15 11 12 370 11 940 19 9 12 1190 7 11 10 16 15 16 23 20 12 10 19 4 12 21 15 17 17 313 232 18 14 13 10 14 15 12 627 14 16 12 25 11 19 18 483 19 21 582 10 10 10 7 17 11 2495 7 212 17 13 14 655 19 15 6 15 30 21 20 8 14 38 11 17 12 16 282 14 14 20 9 13 12 27 18 13 17 6 24 8 15 19 230 21 13 8 557 21 15 10 186 8 22 831 6 10 14 892 16 16 7 20 13 13 38 10 10 13 14 15 10 21 15 1320 661 11 15 9 19 11 247 4 12 13 9 21 17 2279 30 5 45 15 72 14 16 8 17 16 18 7 13 22 14 22 11 27 496 11 19 7 9 17 20 99 29 13 15 19 17 13 19 17 20 13 11 8 20 11 15 14 19 13 12 17 14 32 11 48 365 14 8 9 15 16 4258 19 16 12 10 14 19 358 405 9 13 25 9 12 374 8 11 10 17 21 8 5 25 11 9 18 8 6 12 13 10 6 16 182 19 11 20 22 19 16 8 13 18 13 27 11 13 8 15 571 12 15 7 7 35 8 222 12 19 21 1222 314 23 185 17 929 12 9 10 12 6 15 489 14 20 9 1014 17 10 8 10 21437 16 6 20 192 17 24 10 454 13 24 487 8 20 12 19 20 10 110 30 13 13 18 31 139 19 32 20 11 10 2255 12 12 134 14 15 6 16 19 20 8 21 20 6 11 10 51 14 545 14 11 141 94 14 14 344 12 7 10 318 798 6 13 20 953 14 21 14591 13 13 14 563 983 14 16 12 8 10 321 6 39 15 430 20 18 6 1501 24 1192 1960 9 10 21 1484 10 12 15 8 4 11 941 14 6 1485 11 10 20 13 1096 8 14 15 20 10 15 17 1474 24 81 17 11 11 12 14 9 11 6 8 15 11 1372 28 115 12 22 295 23 21 13 14 568 12 15 9 9 14 13 7765 12 17 15 629 25 12 5 8 15 779 6 12 1013 18 12 16 23 16 14 13 17 11 540 21 18 11 9 11 22 983 7 9 1464 29 22 18 9 9 15 211 417 14 8 16 15 17 16 18 964 6 940 11 428 16 16 4 15 13 74 42 18 10 21 5 9 13 8 13 15 16 152 18 484 9 27 13 12 14 17 1426 7 8 11 11 24 10 11 10 8 7 15 13 12 23 7 11 16 368 10 477 21 17 11 518 2694 45 15 10 16 14 15 7 10 12 10 17 10 24 62 23 20 19 10 1931 16 16 7 24 14 16 21 10 16 10 99 13 11 26 394 1988 22 3395 8 14 162 14 169 16 807 25 15 15 28 12 1490 14 40 60 16 15 24 11 304 13 18 23 27 20 10 13 14 1330 10 38 1411 491 18 25 19 16 37 527 12 15 9 1495 18 13 19 17 9 14 17 20 13 24 11 596 16 460 6 8 15 8 7 126 6 10 6 15 17 9 
To predecode: 0
Predecoding something: 0
Predecode request dropped: 0
sizeofblock_0 0
sizeofblock_1 34186
sizeofblock_2 42780
sizeofblock_3 41665
sizeofblock_4 19403
sizeofblock_5 0
sizeofblock_6 0
sizeofblock_7 0
sizeofblock_8 0
Variant_0 Correct: 1619519 Incorrect: 0 Accuracy: 1
Variant_1 Correct: 2095864 Incorrect: 0 Accuracy: 1
Variant_2 Correct: 3662938 Incorrect: 0 Accuracy: 1
Variant_3 Correct: 0 Incorrect: 0 Accuracy: -nan
