
*** ChampSim Multicore Out-of-Order Simulator ***

Warmup Instructions: 50000000
Simulation Instructions: 50000000
Number of CPUs: 1
LLC sets: 2048
LLC ways: 16
Off-chip DRAM Size: 4096 MB Channels: 1 Width: 64-bit Data Rate: 6400 MT/s
CPU 0 runs ./micro_traces/srv106.trace.gz
.gz
ITLB has LRU replacement policy
DTLB has LRU replacement policy
STLB has LRU replacement policy
FDIP Prefetcher at L1I
L1I has LRU replacement policy
L1D has LRU replacement policy
Initialize SRRIP state for L2C
Initialize DRRIP state for LLC
Heartbeat CPU 0 instructions: 10000000 cycles: 2797518 heartbeat IPC: 3.5746 cumulative IPC: 3.5746 (Simulation time: 0 hr 2 min 7 sec) 
Heartbeat CPU 0 instructions: 20000003 cycles: 5593470 heartbeat IPC: 3.5766 cumulative IPC: 3.5756 (Simulation time: 0 hr 4 min 11 sec) 
Heartbeat CPU 0 instructions: 30000001 cycles: 8390002 heartbeat IPC: 3.57586 cumulative IPC: 3.57568 (Simulation time: 0 hr 6 min 11 sec) 
Heartbeat CPU 0 instructions: 40000001 cycles: 11185651 heartbeat IPC: 3.57699 cumulative IPC: 3.57601 (Simulation time: 0 hr 8 min 15 sec) 
Heartbeat CPU 0 instructions: 50000003 cycles: 13981643 heartbeat IPC: 3.57655 cumulative IPC: 3.57612 (Simulation time: 0 hr 10 min 28 sec) 

Warmup complete CPU 0 instructions: 50000003 cycles: 13981643 (Simulation time: 0 hr 10 min 28 sec) 

Cycle: 20000000 FTQ IN: 56352968 FTQ occupancy: 17.9229 DECODE IN: 56352941 DECODE occupancy: 45.7853 ROB IN: 56352881 ROB occupancy: 275.146 ROB OUT: 56352707
Heartbeat CPU 0 instructions: 60000001 cycles: 23445179 heartbeat IPC: 1.05669 cumulative IPC: 1.05669 (Simulation time: 0 hr 12 min 19 sec) 
Cycle: 30000000 FTQ IN: 10405757 FTQ occupancy: 6.30435 DECODE IN: 10405761 DECODE occupancy: 12.9526 ROB IN: 10405821 ROB occupancy: 105.424 ROB OUT: 10405877
Heartbeat CPU 0 instructions: 70000000 cycles: 33087939 heartbeat IPC: 1.03705 cumulative IPC: 1.04678 (Simulation time: 0 hr 14 min 14 sec) 
Cycle: 40000000 FTQ IN: 10499784 FTQ occupancy: 6.20904 DECODE IN: 10499738 DECODE occupancy: 12.8575 ROB IN: 10499738 ROB occupancy: 104.344 ROB OUT: 10499688
Heartbeat CPU 0 instructions: 80000000 cycles: 42610514 heartbeat IPC: 1.05014 cumulative IPC: 1.04789 (Simulation time: 0 hr 16 min 17 sec) 
Cycle: 50000000 FTQ IN: 10375200 FTQ occupancy: 6.33599 DECODE IN: 10375269 DECODE occupancy: 13.0735 ROB IN: 10375269 ROB occupancy: 105.704 ROB OUT: 10375425
Heartbeat CPU 0 instructions: 90000001 cycles: 52247340 heartbeat IPC: 1.03769 cumulative IPC: 1.04532 (Simulation time: 0 hr 17 min 59 sec) 
Cycle: 60000000 FTQ IN: 10509169 FTQ occupancy: 6.19685 DECODE IN: 10509155 DECODE occupancy: 12.8241 ROB IN: 10509155 ROB occupancy: 104.889 ROB OUT: 10509133
Heartbeat CPU 0 instructions: 100000000 cycles: 61758469 heartbeat IPC: 1.0514 cumulative IPC: 1.04653 (Simulation time: 0 hr 20 min 32 sec) 
Finished CPU 0 instructions: 50000001 cycles: 47776827 cumulative IPC: 1.04653 (Simulation time: 0 hr 20 min 32 sec) 

ChampSim completed all CPUs

Region of Interest Statistics

CPU 0 cumulative IPC: 1.04653 instructions: 50000001 cycles: 47776827
 Fetch stage stalled: 72.9065  Sim cycles: 47776827 fetch stall cycle: 34832423
 Empty decode stage: 61.2639  Sim cycles: 47776827 fetch stall cycle: 29269934
ITLB TOTAL     ACCESS:    5536830  HIT:    5043598  MISS:     493232  HIT %:    91.0918  MISS %:     8.9082   MPKI: 9.86464
ITLB LOAD TRANSLATION INSTRUCTION	ACCESS:    5431720  HIT:    4938488  MISS:     493232  HIT %:    90.9194  MISS %:    9.08059  MPKI: 9.86464
ITLB TRANSLATION FROM L1D PREFETCHER INSTRUCTION	ACCESS:     105110  HIT:     105110  MISS:          0  HIT %:        100  MISS %:          0  MPKI: 0

ITLB AVERAGE MISS LATENCY: 9.0336 cycles
ITLB RQ	ACCESS:    7215795	FORWARD:          0	MERGED:    1169577	TO_CACHE:    6046218

DTLB TOTAL     ACCESS:    9450459  HIT:    8976110  MISS:     474349  HIT %:    94.9807  MISS %:    5.01932   MPKI: 9.48698
DTLB LOAD TRANSLATION DATA	ACCESS:    9450459  HIT:    8976110  MISS:     474349  HIT %:    94.9807  MISS %:    5.01932  MPKI: 9.48698

DTLB AVERAGE MISS LATENCY: 9.28773 cycles
DTLB RQ	ACCESS:   13703620	FORWARD:          0	MERGED:    4221748	TO_CACHE:    9481872

STLB TOTAL     ACCESS:    1217426  HIT:    1215540  MISS:       1886  HIT %:    99.8451  MISS %:   0.154917   MPKI: 0.03772
STLB LOAD TRANSLATION INSTRUCTION	ACCESS:     493232  HIT:     493005  MISS:        227  HIT %:     99.954  MISS %:   0.046023  MPKI: 0.00454
STLB LOAD TRANSLATION DATA	ACCESS:     474317  HIT:     472682  MISS:       1635  HIT %:    99.6553  MISS %:   0.344706  MPKI: 0.0327
STLB TRANSLATION FROM L1D PREFETCHER DATA	ACCESS:     249877  HIT:     249853  MISS:         24  HIT %:    99.9904  MISS %: 0.00960473  MPKI: 0.00048

STLB AVERAGE MISS LATENCY: 68.4332 cycles
STLB RQ	ACCESS:    1340400	FORWARD:          0	MERGED:     122944	TO_CACHE:    1217456

STLB Hit, L1D data hit: 0
STLB Hit, L2C data hit: 0
STLB Hit, LLC data hit: 0
STLB Hit, LLC data miss: 0
STLB STLB hints to L2: 0
L1D TOTAL     ACCESS:   13483176  HIT:   12369303  MISS:    1113873  HIT %:    91.7388  MISS %:    8.26121   MPKI: 22.2775
L1D LOAD DATA	ACCESS:    6894449  HIT:    6158141  MISS:     736308  HIT %:    89.3203  MISS %:    10.6797  MPKI: 14.7262
L1D RFO DATA	ACCESS:    6257111  HIT:    5972729  MISS:     284382  HIT %:    95.4551  MISS %:    4.54494  MPKI: 5.68764
L1D PREFETCH DATA	ACCESS:     331616  HIT:     238433  MISS:      93183  HIT %:    71.9003  MISS %:    28.0997  MPKI: 1.86366

L1D PREFETCH  REQUESTED:     745972  ISSUED:     745972  USEFUL:      33736  USELESS:      68204
L1D USEFUL LOAD PREFETCHES:      33736 PREFETCH ISSUED TO LOWER LEVEL:     101987  ACCURACY: 33.0787
 TIMELY PREFETCHES:      33736 LATE PREFETCHES: 8762 DROPPED PREFETCHES: 5
L1D AVERAGE MISS LATENCY: 297822 cycles
L1D RQ	ACCESS:   10951475	FORWARD:          0	MERGED:    3864084	TO_CACHE:    6925514
L1D WQ	ACCESS:    6941900	FORWARD:     162211	MERGED:     163794	TO_CACHE:    6778106
L1D PQ	ACCESS:     373153	FORWARD:          0	MERGED:          0	TO_CACHE:     372819

L1D UNIQUE REGIONS ACCESSED: 0
L1D REGIONS CONFLICTS: 0
L1D Cross Page Prefetch Requests: 6882
L1D Same Page Prefetch Requests: 752053
L1D ROI Sum of L1D PQ occupancy: 4747740
L1D PREFETCHES PUSHED FROM L2C: 0
L1I TOTAL     ACCESS:    6856009  HIT:    4094921  MISS:    2761088  HIT %:    59.7275  MISS %:    40.2725   MPKI: 55.2218
L1I LOAD INSTRUCTION	ACCESS:    6426539  HIT:    3665451  MISS:    2761088  HIT %:    57.0362  MISS %:    42.9638  MPKI: 55.2218
L1I PREFETCH INSTRUCTION	ACCESS:     429470  HIT:     429470  MISS:          0  HIT %:        100  MISS %:          0  MPKI: 0

L1I PREFETCH  REQUESTED:     868302  ISSUED:     868302  USEFUL:          0  USELESS:          0
L1I USEFUL LOAD PREFETCHES:          0 PREFETCH ISSUED TO LOWER LEVEL:          0  ACCURACY: -nan
 TIMELY PREFETCHES:          0 LATE PREFETCHES: 0 DROPPED PREFETCHES: 0
L1I AVERAGE MISS LATENCY: 17.2844 cycles
L1I RQ	ACCESS:    9461915	FORWARD:          0	MERGED:    2852436	TO_CACHE:    6609479
L1I PQ	ACCESS:     868302	FORWARD:          0	MERGED:     261986	TO_CACHE:     606316

L1BTB TOTAL     ACCESS:    5671291  HIT:    2044368  MISS:    3626923  HIT %:    36.0477  MISS %:    63.9523   MPKI: 72.5385
L1BTB BRANCH_DIRECT_JUMP	ACCESS:     548143 HIT:     144818 MISS:     403325 AVERAGE STALL: 32.8471 AVERAGE FETCH STALL: 18.6256 AVERAGE FETCH QUEUE STALL: 6.14258 AVERAGE DECODE STALL: 7.23084 AVERAGE EXECUTE STALL: 2.01239e+14
L1BTB BRANCH_INDIRECT	ACCESS:     182829 HIT:      66054 MISS:     116775 AVERAGE STALL: 87.5698 AVERAGE FETCH STALL: 14.6509 AVERAGE FETCH QUEUE STALL: 7.12453 AVERAGE DECODE STALL: 6.5508 AVERAGE EXECUTE STALL: 58.3062
L1BTB BRANCH_CONDITIONAL	ACCESS:    2706409 HIT:    1414228 MISS:    1292181 AVERAGE STALL: 34.5854 AVERAGE FETCH STALL: 21.2639 AVERAGE FETCH QUEUE STALL: 6.10996 AVERAGE DECODE STALL: 6.46246 AVERAGE EXECUTE STALL: 7.44342e+13
L1BTB BRANCH_DIRECT_CALL	ACCESS:     944787 HIT:     106339 MISS:     838448 AVERAGE STALL: 36.9041 AVERAGE FETCH STALL: 21.4963 AVERAGE FETCH QUEUE STALL: 7.29663 AVERAGE DECODE STALL: 7.35237 AVERAGE EXECUTE STALL: 9.77782e+13
L1BTB BRANCH_INDIRECT_CALL	ACCESS:     172168 HIT:      21816 MISS:     150352 AVERAGE STALL: 108.741 AVERAGE FETCH STALL: 16.8691 AVERAGE FETCH QUEUE STALL: 6.9592 AVERAGE DECODE STALL: 6.95238 AVERAGE EXECUTE STALL: 77.4159
L1BTB BRANCH_RETURN	ACCESS:    1116955 HIT:     291113 MISS:     825842 AVERAGE STALL: 34.6934 AVERAGE FETCH STALL: 18.7024 AVERAGE FETCH QUEUE STALL: 5.71097 AVERAGE DECODE STALL: 6.22983 AVERAGE EXECUTE STALL: 1.13426e+14
L1BTB BRANCH_OTHER ACCESS:          0 HIT:          0 MISS:          0 AVERAGE STALL: -nan AVERAGE FETCH STALL: -nan AVERAGE FETCH QUEUE STALL: -nan AVERAGE DECODE STALL: -nan AVERAGE EXECUTE STALL: -nan
L1BTB TOTAL ROB OCCUPANCY AT BTB MISS: 18.0715

L2BTB TOTAL     ACCESS:    3601555  HIT:    2873127  MISS:     728428  HIT %:    79.7746  MISS %:    20.2254   MPKI: 14.5686
L2BTB BRANCH_DIRECT_JUMP	ACCESS:     399164 HIT:     311650 MISS:      87514 AVERAGE STALL: 32.8471 AVERAGE FETCH STALL: 18.6256 AVERAGE FETCH QUEUE STALL: 6.14258 AVERAGE DECODE STALL: 7.23084 AVERAGE EXECUTE STALL: 2.01239e+14
L2BTB BRANCH_INDIRECT	ACCESS:     106504 HIT:      97278 MISS:       9226 AVERAGE STALL: 87.5698 AVERAGE FETCH STALL: 14.6509 AVERAGE FETCH QUEUE STALL: 7.12453 AVERAGE DECODE STALL: 6.5508 AVERAGE EXECUTE STALL: 58.3062
L2BTB BRANCH_CONDITIONAL	ACCESS:    1292181 HIT:    1043286 MISS:     248895 AVERAGE STALL: 34.5854 AVERAGE FETCH STALL: 21.2639 AVERAGE FETCH QUEUE STALL: 6.10996 AVERAGE DECODE STALL: 6.46246 AVERAGE EXECUTE STALL: 7.44342e+13
L2BTB BRANCH_DIRECT_CALL	ACCESS:     838448 HIT:     649769 MISS:     188679 AVERAGE STALL: 36.9041 AVERAGE FETCH STALL: 21.4963 AVERAGE FETCH QUEUE STALL: 7.29663 AVERAGE DECODE STALL: 7.35237 AVERAGE EXECUTE STALL: 9.77782e+13
L2BTB BRANCH_INDIRECT_CALL	ACCESS:     140815 HIT:     107951 MISS:      32864 AVERAGE STALL: 108.741 AVERAGE FETCH STALL: 16.8691 AVERAGE FETCH QUEUE STALL: 6.9592 AVERAGE DECODE STALL: 6.95238 AVERAGE EXECUTE STALL: 77.4159
L2BTB BRANCH_RETURN	ACCESS:     824443 HIT:     663193 MISS:     161250 AVERAGE STALL: 34.6934 AVERAGE FETCH STALL: 18.7024 AVERAGE FETCH QUEUE STALL: 5.71097 AVERAGE DECODE STALL: 6.22983 AVERAGE EXECUTE STALL: 1.13426e+14
L2BTB BRANCH_OTHER ACCESS:          0 HIT:          0 MISS:          0 AVERAGE STALL: -nan AVERAGE FETCH STALL: -nan AVERAGE FETCH QUEUE STALL: -nan AVERAGE DECODE STALL: -nan AVERAGE EXECUTE STALL: -nan
L2BTB TOTAL ROB OCCUPANCY AT BTB MISS: 89.9798

L2C TOTAL     ACCESS:    4482939  HIT:    3979491  MISS:     503448  HIT %:    88.7697  MISS %:    11.2303   MPKI: 10.069
L2C LOAD INSTRUCTION	ACCESS:    2761087  HIT:    2498391  MISS:     262696  HIT %:    90.4858  MISS %:    9.51422  MPKI: 5.25392
L2C LOAD TRANSLATION INSTRUCTION	ACCESS:        259  HIT:         75  MISS:        184  HIT %:    28.9575  MISS %:    71.0425  MPKI: 0.00368
L2C LOAD DATA	ACCESS:     727514  HIT:     642206  MISS:      85308  HIT %:     88.274  MISS %:     11.726  MPKI: 1.70616
L2C RFO DATA	ACCESS:     284330  HIT:     227283  MISS:      57047  HIT %:    79.9363  MISS %:    20.0637  MPKI: 1.14094
L2C PREFETCH DATA	ACCESS:     187836  HIT:     108777  MISS:      79059  HIT %:    57.9106  MISS %:    42.0894  MPKI: 1.58118
L2C WRITEBACK DATA	ACCESS:     520169  HIT:     502295  MISS:      17874  HIT %:    96.5638  MISS %:    3.43619  MPKI: 0.35748
L2C LOAD TRANSLATION DATA	ACCESS:       1703  HIT:        434  MISS:       1269  HIT %:    25.4844  MISS %:    74.5156  MPKI: 0.02538
L2C TRANSLATION FROM L1D PREFETCHER DATA	ACCESS:         41  HIT:         30  MISS:         11  HIT %:    73.1707  MISS %:    26.8293  MPKI: 0.00022

L2C PREFETCH  REQUESTED:      94545  ISSUED:      94545  USEFUL:       9104  USELESS:      70710
L2C USEFUL LOAD PREFETCHES:       9104 PREFETCH ISSUED TO LOWER LEVEL:      79753  ACCURACY: 11.4152
 TIMELY PREFETCHES:       9104 LATE PREFETCHES: 694 DROPPED PREFETCHES: 0
L2C AVERAGE MISS LATENCY: 37.1288 cycles
L2C RQ	ACCESS:    3774976	FORWARD:          0	MERGED:          0	TO_CACHE:    3774934
L2C WQ	ACCESS:     520169	FORWARD:         42	MERGED:          0	TO_CACHE:     520169
L2C PQ	ACCESS:     196532	FORWARD:          0	MERGED:       3967	TO_CACHE:     192565

L2C Dense regions hint from L2: 0
PSCL5 TOTAL     ACCESS:       3794  HIT:       1897  MISS:       1897  HIT %:         50  MISS %:         50   MPKI: 0.03794
PSCL5 LOAD TRANSLATION INSTRUCTION	ACCESS:       3712  HIT:       1856  MISS:       1856  HIT %:         50  MISS %:         50  MPKI: 0.03712
PSCL5 TRANSLATION FROM L1D PREFETCHER INSTRUCTION	ACCESS:         82  HIT:         41  MISS:         41  HIT %:         50  MISS %:         50  MPKI: 0.00082


PSCL4 TOTAL     ACCESS:       3687  HIT:       1839  MISS:       1848  HIT %:    49.8779  MISS %:    50.1221   MPKI: 0.03696
PSCL4 LOAD TRANSLATION INSTRUCTION	ACCESS:       3290  HIT:       1807  MISS:       1483  HIT %:     54.924  MISS %:     45.076  MPKI: 0.02966
PSCL4 TRANSLATION FROM L1D PREFETCHER INSTRUCTION	ACCESS:         64  HIT:         32  MISS:         32  HIT %:         50  MISS %:         50  MPKI: 0.00064
PSCL4 LOAD TRANSLATION DATA	ACCESS:        333  HIT:          0  MISS:        333  HIT %:          0  MISS %:        100  MPKI: 0.00666


PSCL3 TOTAL     ACCESS:       3711  HIT:       1851  MISS:       1860  HIT %:    49.8787  MISS %:    50.1213   MPKI: 0.0372
PSCL3 LOAD TRANSLATION INSTRUCTION	ACCESS:       3302  HIT:       1819  MISS:       1483  HIT %:    55.0878  MISS %:    44.9122  MPKI: 0.02966
PSCL3 TRANSLATION FROM L1D PREFETCHER INSTRUCTION	ACCESS:         64  HIT:         32  MISS:         32  HIT %:         50  MISS %:         50  MPKI: 0.00064
PSCL3 LOAD TRANSLATION DATA	ACCESS:        345  HIT:          0  MISS:        345  HIT %:          0  MISS %:        100  MPKI: 0.0069


PSCL2 TOTAL     ACCESS:       3706  HIT:       1809  MISS:       1897  HIT %:    48.8127  MISS %:    51.1873   MPKI: 0.03794
PSCL2 LOAD TRANSLATION INSTRUCTION	ACCESS:       1998  HIT:       1768  MISS:        230  HIT %:    88.4885  MISS %:    11.5115  MPKI: 0.0046
PSCL2 TRANSLATION FROM L1D PREFETCHER INSTRUCTION	ACCESS:         41  HIT:         41  MISS:          0  HIT %:        100  MISS %:          0  MPKI: 0
PSCL2 LOAD TRANSLATION DATA	ACCESS:       1626  HIT:          0  MISS:       1626  HIT %:          0  MISS %:        100  MPKI: 0.03252
PSCL2 TRANSLATION FROM L1D PREFETCHER DATA	ACCESS:         41  HIT:          0  MISS:         41  HIT %:          0  MISS %:        100  MPKI: 0.00082


LLC TOTAL     ACCESS:     568804  HIT:     542398  MISS:      26406  HIT %:    95.3576  MISS %:    4.64237   MPKI: 0.52812
LLC LOAD INSTRUCTION	ACCESS:     262696  HIT:     261995  MISS:        701  HIT %:    99.7332  MISS %:   0.266848  MPKI: 0.01402
LLC LOAD TRANSLATION INSTRUCTION	ACCESS:        184  HIT:        165  MISS:         19  HIT %:    89.6739  MISS %:    10.3261  MPKI: 0.00038
LLC LOAD DATA	ACCESS:      84680  HIT:      81606  MISS:       3074  HIT %:    96.3699  MISS %:    3.63014  MPKI: 0.06148
LLC RFO DATA	ACCESS:      56978  HIT:      43890  MISS:      13088  HIT %:    77.0297  MISS %:    22.9703  MPKI: 0.26176
LLC PREFETCH DATA	ACCESS:      79753  HIT:      70557  MISS:       9196  HIT %:    88.4694  MISS %:    11.5306  MPKI: 0.18392
LLC WRITEBACK DATA	ACCESS:      83233  HIT:      82971  MISS:        262  HIT %:    99.6852  MISS %:   0.314779  MPKI: 0.00524
LLC LOAD TRANSLATION DATA	ACCESS:       1269  HIT:       1203  MISS:         66  HIT %:    94.7991  MISS %:    5.20095  MPKI: 0.00132
LLC TRANSLATION FROM L1D PREFETCHER DATA	ACCESS:         11  HIT:         11  MISS:          0  HIT %:        100  MISS %:          0  MPKI: 0

LLC AVERAGE MISS LATENCY: 155.099 cycles
LLC RQ	ACCESS:     405821	FORWARD:          0	MERGED:          0	TO_CACHE:     405818
LLC WQ	ACCESS:      83233	FORWARD:          3	MERGED:          0	TO_CACHE:      83233
LLC PQ	ACCESS:      79753	FORWARD:          0	MERGED:          0	TO_CACHE:      79753

LLC Dense regions hint to LLC: 0

RAW hits: 1678513
Loads Generated: 12629988
Loads sent to L1D: 10951475
Stores Generated: 6941893
Stores sent to L1D: 6941900
Major fault: 0 Minor fault: 2625
Allocated PAGES: 2625

stream: 
stream:times selected: 1185137
stream:pref_filled: 119663
stream:pref_useful: 23401
stream:pref_late: 6936
stream:misses: 8022
stream:misses_by_poll: 0

CS: 
CS:times selected: 180445
CS:pref_filled: 60257
CS:pref_useful: 36183
CS:pref_late: 7569
CS:misses: 16381
CS:misses_by_poll: 1

CPLX: 
CPLX:times selected: 1003541
CPLX:pref_filled: 19442
CPLX:pref_useful: 4597
CPLX:pref_late: 3281
CPLX:misses: 93489
CPLX:misses_by_poll: 1

NL_L1: 
NL:times selected: 21013
NL:pref_filled: 800
NL:pref_useful: 395
NL:pref_late: 279
NL:misses: 1817
NL:misses_by_poll: 0

total selections: 2390136
total_filled: 93183
total_useful: 33736
total_late: 19474
total_polluted: 2
total_misses_after_warmup: 767374
conflicts: 5681596

test: 116789

DRAM Statistics
 CHANNEL 0
 RQ ROW_BUFFER_HIT:       9726  ROW_BUFFER_MISS:      16409
 DBUS_CONGESTED:          8
 WQ ROW_BUFFER_HIT:       1284  ROW_BUFFER_MISS:      11516  FULL:          0

 AVG_CONGESTED_CYCLE: 5

CPU 0 Branch Prediction Accuracy: 99.831% MPKI: 0.30916 Average ROB Occupancy at Mispredict: 104.953
Branch types
NOT_BRANCH: 40853217 81.7064%
BRANCH_DIRECT_JUMP: 548143 1.09629%
BRANCH_INDIRECT: 182829 0.365658%
BRANCH_CONDITIONAL: 6181882 12.3638%
BRANCH_DIRECT_CALL: 944787 1.88957%
BRANCH_INDIRECT_CALL: 172168 0.344336%
BRANCH_RETURN: 1116955 2.23391%
BRANCH_OTHER: 0 0%

DRAM PAGES: 1048576
Allocated PAGES: 2625
Average_ROB_Occupancy: 106.058
Average_Decode_Occupancy: 12.8897
Average_FTQ_Occupancy: 6.24355
Indirect max targets: 14 Average targets: 1.17778
Branch_type:  BRANCH_DIRECT_JUMP:  Count Percentage: 2.90034 4.15039 4.87237 3.14877 8.35219 6.01524 7.41584 63.1449 
Branch_type:  BRANCH_INDIRECT:  Count Percentage: 11.7663 0.802757 2.54238 0 13.0165 2.80814 17.3601 51.7038 
Branch_type:  BRANCH_CONDITIONAL:  Count Percentage: 21.9379 1.74858 2.09562 2.6853 4.30817 4.13998 5.32325 57.7612 
Branch_type:  BRANCH_DIRECT_CALL:  Count Percentage: 0.38813 1.76777 1.14628 1.60448 5.6825 2.7301 4.30211 82.3786 
Branch_type:  BRANCH_INDIRECT_CALL:  Count Percentage: 9.51419 0 2.98247 6.39017 1.40651 2.02503 2.84237 74.8393 
Branch_type:  BRANCH_RETURN:  Count Percentage: 4.44136 1.87972 2.90267 3.31182 5.77046 4.19742 6.49408 71.0025 
Branch_type:  BRANCH_DIRECT_JUMP:  Total Count: 31768 45460 53368 34489 91483 65886 81227 691637 
Branch_type:  BRANCH_INDIRECT:  Total Count: 42990 2933 9289 0 47558 10260 63428 188908 
Branch_type:  BRANCH_CONDITIONAL:  Total Count: 2710464 216041 258918 331774 532283 511503 657698 7136513 
Branch_type:  BRANCH_DIRECT_CALL:  Total Count: 7328 33376 21642 30293 107287 51545 81225 1555329 
Branch_type:  BRANCH_INDIRECT_CALL:  Total Count: 32733 0 10261 21985 4839 6967 9779 257480 
Branch_type:  BRANCH_RETURN:  Total Count: 99173 41973 64815 73951 128851 93726 145009 1585445 
Number of unique branch instructions: 10774
Upper 32 bits: 
aaaa
ffff
ffff0000
Unique upper 32 bits: 3
Unique upper 36 bits: 3
Unique upper 40 bits: 5
Unique upper 44 bits: 32
Unique upper 48 bits: 158
Offset_3 4459
Offset_4 256
Offset_5 480
Offset_6 537
Offset_7 639
Offset_8 572
Offset_9 521
Offset_10 425
Offset_11 354
Offset_12 327
Offset_13 238
Offset_14 245
Offset_15 194
Offset_16 230
Offset_17 167
Offset_18 149
Offset_19 256
Offset_20 143
Offset_21 235
Offset_22 411
Offset_23 241
Offset_24 351
Offset_25 117
Offset_47 94
decode_dispatch_called: 19484569 40.7825
Dispatch_width: 0 9403360 48.2605 19.6818
Dispatch_width: 1 538573 2.7641 1.12727
Dispatch_width: 2 705593 3.62129 1.47685
Dispatch_width: 3 455959 2.3401 0.954352
Dispatch_width: 4 1631215 8.37183 3.41424
Dispatch_width: 5 341709 1.75374 0.715219
Dispatch_width: 6 6408160 32.8884 13.4127
Empty_decode_cycles: 28292258 59.2175
ROB_full_cycles: 2056583 4.30456
Starvation_cycles_per_kilo_instr: 393.121
Starvation_cycles_per_kilo_instr_3: 373.392
Starvation_cycles_per_kilo_instr_0: 356.39
Branch_type_1  (3,1)  (4,9)  (5,39)  (6,72)  (7,125)  (8,146)  (9,136)  (10,111)  (11,79)  (12,55)  (13,11)  (14,2)  (15,3)  (16,4)  (18,1)  (19,5)  (20,2)  (21,1)  (22,3)  (23,2)  (24,10)  (25,12) 
Branch_type_2  (3,1)  (4,1)  (5,1)  (8,4)  (9,4)  (10,1)  (12,1)  (13,1)  (14,1)  (16,3)  (17,2)  (20,2)  (21,2)  (23,5)  (24,1)  (47,43) 
Branch_type_3  (3,4457)  (4,246)  (5,436)  (6,449)  (7,485)  (8,357)  (9,287)  (10,171)  (11,140)  (12,62)  (13,10) 
Branch_type_4  (6,3)  (7,8)  (8,24)  (9,56)  (10,67)  (11,69)  (12,117)  (13,101)  (14,111)  (15,92)  (16,101)  (17,78)  (18,65)  (19,124)  (20,73)  (21,124)  (22,216)  (23,136)  (24,206)  (25,101) 
Branch_type_5  (8,3)  (9,1)  (10,4)  (11,5)  (12,3)  (13,14)  (14,16)  (15,11)  (16,22)  (17,11)  (18,23)  (19,14)  (20,11)  (21,13)  (22,43)  (23,26)  (24,38) 
Branch_type_6  (5,4)  (6,13)  (7,21)  (8,38)  (9,37)  (10,71)  (11,61)  (12,89)  (13,101)  (14,115)  (15,88)  (16,100)  (17,76)  (18,60)  (19,113)  (20,55)  (21,95)  (22,149)  (23,72)  (24,96)  (25,4)  (47,51) 
aaaaab1fc620: 2ac9e77e 2aca717c 2aca8eff 2acaf6bc 2acaf9aa 2acaf9f1 2acb1abc 2acb1b7f 2acd4e22 2acdb712 2acf5f9e 2ad0ef44 2ad3f15c 2ad414e6 2ad60e42 2ad8609c 2ad99830 2ada35cc 2ada4676 2ada6612 2adf183e 2adf30e5 2adf5602 2adf785c 2ae11572 2aeb2dcf 2aee101b 2aee1ae1 2aee9456 2b156a8c 2b156b61 2b156bea 2b167f35 2b177656 2b17feec 2b1a3e5a 
aaaaab1fc640: 2ac9ec07 2aca656e 2aca801d 2acaea11 2acaee73 2acb13ee 2acb1470 2acd462b 2ad0ef5d 2ad3f3fe 2ad86e9b 2ada1641 2ada4115 2ada6638 2adf30d4 2ae12e57 2aee1033 2b1693ab 2b16948c 2b169491 2b17d915 2b17fa85 2b17fccd 
aaaaab1fc740: 2aca1fb0 2aca45b3 2aca5aa1 2aca5c69 2aca66f9 2aca9426 2acaeecb 2acf3d2d 2acf3d64 2acf6089 2ad017ea 2ad5e7ef 2ad61064 2ad87373 2ad9bf84 2ad9c093 2ae9b606 2aea9ffa 2aee99f5 2aee9a2c 2aeece4b 
aaaaab1fcb00: 2acf2d72 2acf3734 2acf604c 2acfa5b7 2ad397b5 2ad3b800 2ae8af7d 2ae8aff0 2ae9aaba 2aea9fc6 2aeaa358 2aee910b 2aee91cf 2aee928e 2aee92e4 2aee99de 2af6fe87 2af70dfe 2b16850c 2b16c4a2 2b1765f4 2b178094 2b17d925 2b17db06 2b17ec8f 
aaaaab1fcb10: 2acf2d95 2acf3758 2acf6052 2acfa5f4 2ad397c3 2ad3b81c 2ae8af88 2ae8affe 2ae9aacf 2aeaa017 2aeaa36d 2aee9114 2aee91d8 2aee934d 2aee9353 2aee9a14 2af6fe8c 2af70e22 2b168526 2b16c542 2b176609 2b1780a3 2b17d95d 2b17db44 2b17ecac 
aaaaac68f310: 2ac9ec8c 2ac9fb44 2ac9fbd2 2aca59ab 2acac04c 2acaf6e0 2acaf6ec 2acaf6f9 2acaf700 2acaf708 2acf2d90 2ad3cfbd 2ad3cfc4 2ad3d000 2ad3f35f 2ad4955d 2ad49571 2ad4f3f2 2ad4f400 2ad5f240 2ad5f37c 2ad5f86a 2ad5f86f 2ad5f880 2ad5fc0d 2ad5fc14 2ad5fc21 2ad5fe1b 2ad873bb 2ad873e3 2ad8a6b2 2ad9086e 2ad93096 2ad9bbb2 2ada152c 2ada1554 2ada3332 2ada5522 2adf3130 2adf313c 2adf3a3f 2adf3bd9 2adf5788 2adf7a8d 2ae07f6b 2ae0857a 2ae0857e 2ae08630 2ae08634 2ae08637 2ae08642 2ae0866f 2ae086e4 2ae086ec 2ae08717 2ae0871b 2aee0170 2aee1d38 2aee75f4 2aee7662 2aee85ca 2aee85e4 2aee8eef 2aee9a0a 2af70b84 2af74e8f 2b17d843 
aaaaac690ef0: 2aca598b 2acb111b 2acb175f 2acb1772 2acbfaf4 2acbfb00 2acf374f 2acf6d43 2acfa5c8 2ad3baf1 2ad3d4ac 2ad3d4b8 2ad3f1cf 2ad486b2 2ad5a59b 2ad5fc64 2ad5fcf9 2ad6121c 2ad906e9 2ad907bf 2ad9bada 2ada16ce 2ada1ad5 2ada43df 2ada64c0 2ada72ee 2adeb71a 2adf3bcb 2adf7a38 2adf7c6a 2adf8872 2adf8880 2adf9959 2adf9abe 2ae07f78 2ae08503 2ae08754 2ae12e80 2aea3bea 2aecb509 2aee00b0 2aee2bdd 2aee5467 2aee5601 2aee8f20 2af703fd 2af7048b 2af74e74 2dfba627 
Unique trigger count: 
1 10268
2 550
3 92
4 30
5 17
6 9
7 7
8 1
9 3
10 3
11 1
12 1
13 2
14 2
16 2
19 1
21 1
23 1
25 2
36 1
49 1
67 1
BTB PER SET UNIQUE ADDR: 1 2 2 2 0 0 1 1 3 0 2 0 1 1 0 1 2 1 1 2 0 1 1 2 1 2 1 2 1 1 2 2 2 1 3 0 0 3 4 0 1 2 3 3 1 1 2 1 4 1 1 1 2 0 0 2 3 3 1 1 1 2 2 2 0 4 5 0 2 2 5 1 1 2 1 1 2 6 2 1 1 1 1 4 3 1 1 4 3 2 3 4 2 3 3 0 1 3 0 1 3 2 2 3 3 2 1 1 3 0 1 2 3 2 1 3 1 2 1 0 3 2 2 0 1 1 1 1 3 3 3 0 1 1 2 1 0 0 1 2 2 3 3 0 2 1 2 3 3 2 1 6 1 2 2 1 0 3 1 1 0 0 0 1 4 4 0 1 5 2 2 2 2 1 1 0 1 1 3 1 1 4 6 2 3 2 3 0 1 1 5 1 1 2 1 1 1 1 0 1 2 1 1 0 0 0 1 1 1 0 0 2 2 1 2 1 0 2 1 0 0 1 1 3 2 0 2 2 0 3 5 3 1 2 1 3 3 0 1 2 1 0 2 2 7 3 1 1 3 1 1 1 1 1 0 5 2 2 2 2 3 3 2 2 2 4 3 0 2 1 2 2 1 2 2 2 1 0 3 2 2 2 1 1 2 3 2 1 1 1 0 0 1 2 0 1 3 2 0 1 2 2 1 1 2 2 3 2 3 3 2 1 2 2 3 0 2 2 1 2 1 2 2 2 0 3 1 4 0 0 3 0 2 2 3 1 2 3 4 0 3 0 0 1 2 3 1 2 1 3 1 4 3 2 2 2 1 0 3 0 0 2 1 2 4 2 1 0 0 0 3 1 2 0 1 2 2 2 2 3 0 0 1 3 0 0 2 1 2 1 1 2 2 2 2 0 3 0 0 2 3 1 4 1 1 0 2 3 0 1 0 1 2 2 1 0 4 1 1 2 1 1 3 2 2 4 0 0 1 3 1 0 5 2 3 3 2 1 1 0 0 4 3 3 2 1 1 3 1 1 3 0 0 1 3 0 1 3 2 2 3 0 4 2 0 0 2 0 1 3 0 1 1 1 2 1 0 1 1 0 0 1 1 2 0 2 2 0 3 1 3 1 1 2 0 3 1 1 3 0 3 0 0 1 0 2 1 0 0 2 3 2 4 4 2 0 1 3 1 5 1 0 3 1 3 3 1 3 3 2 5 1 2 2 1 4 0 0 3 0 0 4 3 1 5 1 6 3 4 4 2 3 2 3 0 1 1 0 2 2 6 0 1 2 1 0 0 1 3 4 3 0 1 4 1 0 0 2 0 0 1 1 1 0 1 0 0 4 2 2 3 3 0 2 1 2 3 0 2 2 1 0 1 3 1 1 1 1 3 0 2 2 3 1 2 1 2 0 2 1 3 1 5 0 2 2 2 2 1 0 3 1 0 2 2 4 0 1 1 2 5 1 3 3 0 0 2 1 2 1 1 1 3 1 1 0 4 0 1 3 3 2 3 3 2 1 1 1 0 0 4 2 1 0 4 2 0 1 3 2 1 0 2 2 2 1 1 2 2 1 0 3 1 1 1 3 3 3 2 3 0 2 0 2 1 1 0 1 0 0 1 2 0 1 2 0 1 1 0 2 1 0 1 1 0 1 1 1 0 3 3 2 1 0 1 1 6 1 1 0 1 2 1 2 1 0 3 1 2 2 0 0 1 2 0 1 2 3 1 0 1 1 0 2 0 1 3 1 0 1 2 2 0 0 1 2 3 1 1 1 2 1 0 0 3 3 3 4 0 0 1 3 0 0 2 3 3 1 1 0 2 2 1 2 1 1 1 4 0 2 0 2 1 0 2 1 1 0 0 3 3 0 1 0 2 1 1 1 1 4 1 1 2 1 3 0 1 0 3 2 0 1 0 2 0 1 3 2 3 0 2 1 3 1 3 2 0 0 1 0 0 0 0 1 4 1 1 0 2 0 1 1 1 2 1 0 2 2 3 1 2 1 1 0 0 0 1 2 0 0 2 0 1 2 1 1 4 0 1 1 1 0 0 1 1 3 0 1 0 4 3 3 0 0 1 2 0 1 1 2 4 1 3 1 2 0 3 0 2 1 3 1 4 2 2 1 1 1 0 1 1 1 0 3 2 2 1 2 1 1 1 0 4 1 1 1 4 2 2 1 2 1 2 2 2 4 8 2 2 2 1 1 0 2 3 1 3 4 1 2 3 2 1 3 1 1 1 3 2 1 3 1 1 2 2 1 2 2 1 4 0 1 2 1 2 3 3 2 0 1 2 0 3 0 1 2 3 3 1 3 3 1 7 4 0 2 2 1 1 1 3 4 2 1 3 0 0 1 1 0 2 0 1 3 0 2 5 1 3 3 0 1 3 2 1 3 2 1 1 1 0 1 1 0 2 0 1 2 3 3 1 4 3 2 0 1 7 0 1 1 1 1 2 2 1 5 3 3 3 3 2 4 2 2 1 0 4 1 1 2 1 6 1 0 4 1 1 1 2 1 1 2 3 3 2 2 2 1 1 4 4 2 1 2 1 1 3 2 1 4 2 2 2 1 3 4 0 1 4 1 0 2 1 0 1 3 1 2 1 2 1 3 2 0 1 1 3 2 1 0 2 0 0 3 2 1 2 2 1 4 0 1 5 0 3 3 1 2 2 4 2 4 0 6 4 0 2 1 2 0 0 1 3 0 1 1 2 4 1 0 0 3 3 2 1 2 0 0 1 4 1 4 2 2 0 2 0 1 2 4 6 1 5 0 0 1 2 1 4 0 2 3 2 1 1 1 0 4 1 3 0 1 2 5 3 1 2 2 0 2 4 3 2 4 3 2 0 0 3 3 4 1 2 2 1 1 3 2 3 1 0 1 1 2 5 3 4 0 0 1 1 1 3 2 3 0 0 1 2 3 2 0 3 1 1 1 1 1 5 0 1 1 0 4 3 0 2 1 3 2 1 1 2 1 2 2 0 3 2 1 0 3 1 1 2 2 1 1 0 2 1 1 1 2 1 3 3 2 1 2 0 1 3 0 2 2 0 2 1 1 2 2 1 0 3 0 1 1 2 2 1 1 1 1 1 4 1 3 2 1 2 0 1 1 1 4 2 2 1 2 1 2 0 1 4 2 3 1 4 2 1 1 1 2 3 1 1 1 4 0 5 2 2 3 1 0 3 3 1 1 1 3 0 2 2 1 1 1 2 2 0 1 1 5 2 1 2 2 0 2 2 0 1 2 1 1 1 0 0 2 1 0 1 1 0 2 1 3 4 1 1 0 1 1 1 0 1 0 0 3 1 0 1 1 0 1 1 0 0 0 1 0 0 1 0 0 2 0 2 0 3 1 2 0 1 0 0 4 1 0 2 1 3 2 1 0 2 2 1 0 3 0 1 1 1 1 1 0 2 0 3 1 0 1 4 1 0 1 0 3 1 2 2 1 2 2 3 2 0 1 1 0 1 0 4 0 1 1 0 0 0 1 0 1 1 0 1 3 2 1 2 1 2 2 2 1 1 0 1 2 2 0 0 1 2 1 3 1 0 1 1 4 3 0 0 1 2 1 0 0 3 1 3 0 2 1 3 2 1 3 4 3 5 0 1 1 3 2 1 5 3 3 2 3 4 0 0 2 2 1 1 2 1 1 2 0 2 1 0 1 3 0 1 1 3 1 2 3 3 1 0 1 4 0 2 3 2 2 2 1 3 3 1 1 1 2 2 2 1 5 2 1 1 1 1 3 3 1 1 1 1 0 2 1 2 3 0 0 1 1 0 3 3 1 0 2 3 0 1 2 2 1 1 2 1 0 0 3 2 1 0 0 0 2 1 0 2 1 3 3 2 1 4 1 2 7 3 2 3 2 1 3 3 1 1 1 1 0 0 2 3 1 2 0 0 4 4 1 2 2 0 0 1 2 2 2 2 1 2 2 1 1 0 2 0 1 2 1 0 0 0 1 0 1 2 0 3 0 3 1 1 0 2 1 1 3 0 3 0 1 0 1 1 1 4 0 1 1 0 1 2 1 0 1 0 0 1 1 1 1 2 2 3 0 3 0 0 1 2 1 1 6 1 0 2 2 3 2 1 2 5 1 3 3 0 2 1 3 2 5 4 0 2 1 5 0 4 0 3 2 2 2 1 1 1 0 1 2 0 2 0 1 3 3 2 1 4 2 2 2 3 0 2 0 3 1 3 2 2 2 2 1 0 2 3 2 1 0 1 2 0 0 0 1 0 1 1 3 0 2 2 2 3 2 2 1 2 2 3 1 1 2 2 1 0 2 2 2 2 0 0 1 0 0 1 0 0 1 1 1 2 1 1 2 0 0 0 2 1 1 1 1 2 1 2 2 2 0 2 1 1 2 1 2 1 2 1 0 1 0 3 1 0 1 2 1 3 2 2 2 0 2 0 1 0 0 2 2 0 4 2 4 0 2 2 6 1 0 0 1 4 2 3 1 1 1 3 1 0 0 2 4 1 6 2 0 3 0 1 1 1 1 2 1 0 2 0 1 2 3 1 0 0 3 4 1 0 0 2 3 1 0 3 3 1 0 3 3 0 1 1 4 0 0 0 2 1 0 4 0 1 0 2 2 3 0 2 1 2 1 2 1 0 2 4 2 3 0 2 2 1 1 1 1 2 1 1 0 0 0 4 2 1 2 1 1 3 3 3 3 1 1 3 3 0 2 2 1 4 4 2 3 2 2 1 3 1 2 3 2 1 4 5 3 2 3 2 2 2 1 1 1 0 1 1 0 2 2 0 2 0 1 1 0 1 4 1 3 0 0 0 2 1 2 1 1 0 3 1 1 0 0 0 2 1 1 0 1 3 1 1 2 0 0 2 1 2 2 1 2 1 0 1 0 0 1 0 2 1 0 0 4 1 3 1 3 3 1 2 2 0 0 0 1 1 1 4 3 3 2 3 2 4 3 2 2 2 1 3 1 1 2 1 4 1 2 2 3 2 3 2 3 2 0 4 1 2 2 5 6 5 3 3 2 2 1 4 1 1 1 3 2 0 2 3 4 3 0 2 1 1 2 4 5 1 1 1 2 1 2 2 2 3 3 3 2 3 5 1 1 3 2 3 3 1 4 2 1 2 2 3 3 2 1 3 3 3 0 1 2 1 1 1 2 2 1 0 1 3 1 2 2 3 1 2 2 1 1 0 0 4 2 5 5 0 2 1 3 2 1 0 3 2 2 1 3 2 1 1 1 2 0 1 3 0 2 2 1 1 0 1 1 1 0 0 1 0 1 2 1 4 1 3 2 1 2 0 0 0 3 0 3 2 0 1 1 2 1 1 1 1 1 1 0 1 0 4 2 2 0 1 0 2 2 4 4 1 1 3 5 1 2 2 0 1 3 1 1 2 0 0 3 2 0 1 1 2 0 1 0 1 4 3 0 0 2 3 2 3 4 3 1 3 1 1 0 2 1 2 3 1 2 3 3 0 1 2 1 0 1 0 4 3 2 1 2 1 1 5 3 0 2 3 2 3 1 4 0 4 2 2 0 1 1 2 0 1 1 1 1 1 1 1 4 2 0 1 0 1 2 4 2 1 3 2 2 0 1 0 0 1 2 2 2 2 0 1 2 1 2 4 1 2 2 1 2 3 0 3 0 2 1 3 5 1 1 2 1 1 3 1 2 2 1 0 1 5 1 0 3 1 4 1 3 3 2 2 0 0 3 4 1 0 0 4 4 1 1 2 0 1 0 0 2 1 0 3 0 2 1 2 2 0 3 2 2 0 1 2 1 1 0 1 0 1 2 2 1 0 0 1 4 0 1 1 2 3 1 3 4 1 2 3 3 0 3 3 2 1 2 2 4 2 0 2 1 1 1 2 1 4 2 1 1 2 0 3 5 2 3 1 3 1 2 2 1 2 2 1 3 4 1 1 1 4 2 0 3 0 2 2 3 1 2 3 2 1 5 4 1 1 0 0 0 0 5 3 1 3 5 2 0 2 1 4 2 2 0 6 2 5 4 2 3 2 3 0 2 3 1 0 2 0 2 0 0 1 0 2 2 3 2 0 2 1 3 1 3 2 3 3 1 3 1 3 4 2 1 3 0 1 1 1 0 2 3 1 4 2 1 2 1 2 1 1 3 1 0 3 0 2 1 4 3 4 2 2 4 1 3 3 4 1 5 3 2 0 1 3 2 3 0 3 2 4 2 2 2 1 2 1 2 2 0 3 1 3 2 0 4 0 1 2 2 3 0 3 1 2 2 3 0 0 1 7 1 0 1 1 0 0 0 1 2 0 3 2 1 3 3 1 1 2 4 2 2 1 2 1 1 1 2 1 2 1 1 2 0 0 2 0 2 2 1 1 3 3 1 2 2 1 3 4 3 5 1 2 2 1 1 0 3 2 1 2 1 1 2 3 3 0 3 5 3 0 1 0 3 1 1 1 1 2 3 4 1 2 2 4 1 4 1 3 3 2 1 1 0 1 1 3 0 3 2 0 2 0 1 2 2 3 2 0 2 2 2 3 0 2 0 1 1 2 3 1 2 2 1 2 1 3 2 2 3 4 3 2 2 4 2 2 3 2 3 4 2 4 4 3 6 2 0 5 2 2 4 3 4 0 3 2 4 3 0 0 1 2 3 1 5 3 5 6 3 1 1 3 4 3 2 2 2 2 0 2 4 1 0 4 2 1 3 4 2 4 4 3 1 2 1 1 3 0 4 0 2 5 0 2 4 2 2 2 1 0 2 3 8 2 3 5 5 4 3 5 3 2 5 3 1 1 1 2 4 4 3 3 3 5 1 1 3 2 3 2 4 2 1 1 1 2 3 0 2 1 3 4 1 2 2 0 3 3 0 4 1 0 1 4 3 2 1 1 0 1 1 2 2 2 3 1 5 2 4 2 3 2 1 3 2 2 1 0 2 1 1 4 2 3 3 1 3 5 0 2 0 1 2 2 1 3 1 3 1 1 1 1 2 1 3 4 1 0 2 3 1 2 1 1 2 3 1 2 2 1 4 1 3 0 2 0 2 3 1 0 0 1 1 3 0 0 1 2 1 2 1 0 2 1 4 2 1 2 0 3 1 1 3 0 1 4 3 2 3 0 2 2 2 1 1 1 0 0 1 1 0 3 2 2 2 3 1 3 3 5 1 1 3 4 1 2 4 2 2 4 0 4 1 3 2 2 1 3 2 3 4 2 2 4 4 2 2 2 1 1 1 0 4 1 1 1 1 2 2 1 1 4 0 1 2 2 2 4 0 5 1 2 2 1 1 3 2 1 3 1 2 1 2 2 2 2 3 1 2 2 3 0 4 2 1 3 2 2 2 4 0 3 2 1 1 1 4 2 0 1 0 2 1 2 0 1 2 2 1 3 4 1 1 1 1 2 3 0 3 3 2 0 2 2 0 3 0 1 3 3 1 1 1 1 0 2 0 0 1 4 1 2 1 1 3 2 1 2 0 2 1 3 4 6 1 1 3 3 3 1 1 0 2 2 2 0 0 3 2 1 2 2 2 0 3 1 1 1 5 1 3 3 4 0 2 4 1 1 1 3 1 4 6 2 3 0 2 3 4 1 4 1 6 5 1 1 1 2 2 2 2 1 2 3 3 5 2 3 2 3 2 3 2 1 4 3 3 1 1 2 1 3 0 1 1 4 2 2 0 2 0 0 1 3 7 2 2 1 2 2 2 2 2 2 1 1 0 1 2 2 1 2 1 3 3 1 0 1 2 0 1 0 3 0 3 5 0 0 1 3 1 2 2 4 0 3 3 1 3 1 3 0 1 2 2 1 1 2 1 3 0 0 0 3 1 1 3 3 4 2 4 2 1 2 0 2 1 2 0 3 1 2 1 0 4 0 1 1 2 1 3 3 0 3 3 3 0 3 0 5 3 0 1 3 1 0 3 1 3 2 0 2 2 1 2 1 2 1 2 6 2 3 2 2 3 2 3 2 1 4 0 2 3 3 3 2 1 2 0 2 0 2 2 2 3 1 3 1 1 2 1 3 2 5 0 0 2 1 2 3 3 1 2 3 0 0 1 2 0 0 2 1 3 2 2 1 0 4 2 1 3 1 4 0 2 1 2 4 0 1 0 1 2 2 1 2 3 1 2 2 2 1 3 0 4 2 2 2 0 3 0 3 2 3 2 1 2 0 2 1 2 1 1 3 0 2 2 1 2 1 0 3 2 1 7 4 2 3 2 2 1 1 3 3 1 0 0 1 1 1 0 2 2 2 3 3 0 3 1 5 2 3 0 0 5 0 1 4 3 0 4 2 2 2 4 2 2 0 1 0 4 2 1 0 3 1 2 3 2 3 1 3 0 1 4 2 3 1 2 3 2 4 1 2 2 1 5 3 1 1 0 2 2 3 2 1 2 2 0 1 3 1 2 2 2 1 0 1 4 0 2 1 2 3 1 2 2 4 1 3 1 1 1 4 1 3 3 5 1 1 4 0 3 2 3 4 5 1 3 0 3 3 0 3 2 1 2 3 3 1 2 0 3 1 2 1 2 1 2 0 2 2 2 1 2 0 4 3 2 2 1 2 7 0 3 1 2 2 2 1 3 1 4 2 3 1 3 3 2 2 2 3 0 2 4 0 6 0 6 3 1 1 2 1 0 2 1 2 2 3 3 2 2 2 1 2 4 2 1 2 2 0 2 0 3 5 2 2 3 4 1 2 1 4 2 1 1 2 3 0 1 2 0 0 2 1 0 2 0 1 1 1 1 1 2 0 3 1 3 3 3 0 1 1 3 1 1 2 1 0 1 0 1 2 2 2 3 1 1 1 3 0 1 0 2 2 3 0 1 1 0 1 1 0 1 1 2 1 1 1 0 3 1 0 2 1 0 0 1 3 2 2 2 2 1 1 1 2 4 0 2 1 4 2 1 0 0 3 0 0 1 2 3 2 2 3 5 3 1 1 2 1 2 0 2 2 0 1 1 2 1 3 1 3 1 1 1 4 1 2 2 2 1 2 8 1 1 5 5 2 2 2 1 2 4 2 2 4 1 3 1 1 4 3 3 2 3 1 1 2 1 3 5 4 1 0 3 1 0 0 1 0 0 2 2 1 1 2 1 4 0 2 1 0 0 2 1 2 2 5 2 2 2 1 3 1 1 1 4 4 0 0 2 0 3 2 1 0 0 3 3 4 2 0 0 3 1 2 0 1 1 1 3 1 1 2 2 2 3 2 1 1 5 1 2 2 1 2 0 1 2 2 1 2 3 1 1 1 1 3 2 3 2 2 1 1 1 2 2 1 0 
BTB PER SET COUNT: 1 2 2 2 0 0 1 1 2444 0 2 0 1 1 0 1 2 1 1 2 0 1 1 2 1 2 1 2 1466 1 2 2 3 1 5 0 0 1469 3181 0 1 2 7 496 1 1 2 1 3910 1 1 1 2 0 0 2 1472 4398 1 1 1 2 2 2 0 1832 1958 0 2 2 5376 1 1 2 1 1 490 2694 2 1 1 1 1 1714 738 1 1 29 4398 2 681 499 2 2934 6 0 1 13 0 1 13 2 4 979 3 3 1 1 1468 0 1 2 979 2 1 743 1 2 1 0 4 2 2 0 1 1 1 1 4 5 1467 0 1 1 3 1 0 0 1 2 2 6 4 0 2 1 2 2933 1467 2 1 5259 1 2 2 1 0 4 1 1 0 0 0 1 6 6 0 1 4890 2 2 2 2 1 1 0 1 1 988 1 1 6 7332 2 6 2 4 0 1 1 4414 1 1 2 1 3 1 1 0 1 2 1 1 0 0 0 1 1 1 0 0 3 2 1 2 1 0 2 1 0 0 1 1 4 3 0 2 36 0 5 2400 4 1 2 1 4 5 0 1 2 1 0 2 2 5377 5 1 1 4 1 1 1 1 1 0 3422 2 2 2 2 1085 1467 2 2 2 3912 980 0 2 1 2 2 1 2 2 2 1 0 2934 2 2 2 1 1 2 1956 2 1 1 1 0 0 1 2 0 1 10 2 0 1 2 2 1 1 2 2 26 2 1467 978 2 1 2 2 979 0 2 2 1 2 1 2 2 2 0 5 1 16 0 0 1467 0 2 2 2845 1 980 4 988 0 4 0 0 978 979 5 1 2 1 5 1 6 4 2 2 2 1 0 2933 0 0 2 1 2 1214 2 1 0 0 0 4 1 2 0 1 2 2 2 2 17 0 0 1 1469 0 0 2 1 2 1 1 2 2 2 2 0 2934 0 0 2 1467 1 6 1 1 0 1467 6 0 977 0 1 2 2 1 0 18 1 1 90 1 1 5 2 2 15 0 0 1 1467 1 0 1956 2 737 1466 2 1 1 0 0 989 1467 4 2 1 1 5 1 1 1467 0 0 1 1467 0 1 4 2 2 11 0 1468 2 0 0 2 0 1 21 0 1 1 489 2 1 0 1 1 0 0 1 1 490 0 2 2 0 4 1 3 1 1 2 0 4 1 1 5 0 979 0 0 1 0 2 1 0 0 2 1467 2 6 6 2 0 1 4398 1 1471 1 0 978 1 5 5 1 5 2941 2 4359 1 2 2 1 5377 0 0 11 0 0 1957 2933 1 3430 1 1006 14 2939 4887 2 1467 3 1466 0 1 1 0 2 2 7820 0 1 2 1 0 0 1 5 1478 4398 0 1 3910 1 0 0 2 0 0 1 1 1 0 2 0 0 987 2 2 5 5 0 2 977 2 5 0 2 2 1 0 1 1469 1 1 1 1 3 0 2 2 4 1 2 1 983 0 3 1 14 1 1469 0 2 2 2 2 1 0 3422 1 0 7 2 5 0 1 1 2 1957 1 2934 4 0 0 2 1 2 1 1 1 1468 1 1 0 2936 0 1 1467 7818 2 12 979 2 1 1 978 0 0 1714 2 1 0 1955 979 0 1 9 2 1 0 2 979 2 1 1 1467 2 1 0 981 1 1 1 1465 1464 1467 2 4 0 2 0 2 1 978 0 1 0 0 1 2 0 1 979 0 1466 1 0 2 1 0 1 1 0 1 1 1 0 26 5 2 977 0 1 1 4889 1 1 0 1 2 1 2 1 0 5 1 2 978 0 0 1 2 0 1 2 1467 1 0 1 1 0 2 0 1 1467 1 0 1 2 2 0 0 1 2 2445 2 1 1 2 1 0 0 1093 2932 12 15 0 0 2 1103 0 0 2 17 1093 1 1 0 2 2 1 2 1 1 2 990 0 5 0 2 2 0 2 1 1 0 0 380 14 0 1 0 2 2 1 1 1 1955 1 1 2 1 1466 0 1 0 1466 2 0 1 0 2 0 1 978 2 4 0 2 1 1468 1 5 2 0 0 1 0 0 0 0 1 2198 1 1 0 2 0 1 1 1 3 1 0 2 2 4398 1 2 1 2 0 0 0 1 2 0 0 2 0 1 2 1 1 1217 0 1 1 1 0 0 1 1 2932 0 1 0 3670 32 979 0 0 1 2 0 1 1 2 34 1 1956 1 2 0 983 0 2 1 16 1 1715 490 2 1 41 1 0 1 1 1 0 1955 2 2 1 2 1 1 1 0 3018 1 1 1 2252 4 2 1 2 490 3 2 3 690 5732 2 2 2 1 1 0 365 5 1 2934 2937 1 2 1467 2 1 502 1 2 1 3 2 1 978 1 1 2 2 1 2 2 1 1475 0 1 2 1 2 14 1466 3 0 2 1955 0 3422 0 1 2 16 6 1 15 1019 1 6358 22 0 2 2 1 1 1 14 1955 2 1 1466 0 0 1 1 0 2 0 1 979 0 2 18 1 2445 17 0 1 730 2 1 373 2 1 1 3 0 1 2 0 2 0 1 3 1468 7 1 1955 978 2 0 1 8313 0 1 1 1 1 2 2 1 4887 8 17 5 4397 2 22 2 2 1 0 22 1 1 2 1 4402 1 0 233 1 1 1 491 1 1 2 1466 11 2 2 2 1 1 17 2686 2 1 2 2 1 14 2 1 5375 2 2 2 1 6 11 0 1 14 1 0 2 1 0 1 4 1 2 1 3 1 11 2 0 1 1 980 2 1 0 2 0 0 4398 2 1 2 2 1 18 0 1 3912 0 1467 4 1 2 2 3422 2 4400 0 5866 4887 0 2 1 2 0 0 1 3421 0 1 1 4 1233 1 0 0 491 2936 2 1 3 0 0 1 4399 1 2938 2 2 0 2 0 1 2 1476 5389 1 1474 0 0 1 2 5 23 0 2 985 2 1 1 1 0 2940 1 978 0 1 2 6353 17 1 2 2 0 2 1468 3428 2 4399 5 2 0 0 13 2933 1956 1 2 2 2 1 2933 2 12 1 0 1 1 2 7818 978 4886 0 0 1 1 1 3 2 979 0 0 1 2 1477 2 0 17 1 1 1 1 1 1962 0 1 1 0 1471 3 0 2 1 4399 2 1 1 2 1 2 2 0 2932 2 2 0 1466 1 1 2 3 1 1 0 2 1 1 1 2 2 5 1148 2 1 3 0 1 12 0 2 2 0 2 1 1 2 2 2 0 5 0 1 1 2 2 3 1 1 1 1 2439 1 275 2 1 2 0 1 1 1 4399 2 2 1 2 1 2 0 1 1468 2 13 1 18 2 1 1 1 3 979 1 1 1 18 0 3431 2 2 1467 1 0 1467 1099 1 1 2 1466 0 2 2 2 1 1 2 4 0 2 2 19 2 1 2 2 0 2 1467 0 1 1342 2 1 1 0 0 2 1 0 3 1341 0 2 1 1466 1472 1 1 0 1 1 1 0 1 0 0 979 2 0 1 1 0 1 1 0 0 0 1 0 0 1 0 0 3 0 2 0 3 1 2 0 1 0 0 4403 21 0 2 1 3422 2 1 0 2 2 164 0 10 0 1 1 1 1 1 0 2 0 1301 390 0 1 2446 1 0 1 0 8 1 2 2 1 30 2 5 2 0 1 1 0 1 0 13 0 1 1 0 0 0 1 0 1 1 0 2 431 2 1 2 1 2 2 2 2 1 0 1 2 2 0 0 1 2 1 7 1 0 1 1 12 1467 0 0 1 2 1 0 0 743 1 1466 0 2 1 5 2 1 4 1466 4 4399 0 1 1 5 2 1 1962 1466 2933 2 1231 6352 0 0 2 1467 1 1 2 2 1 2 0 2 977 0 1 4 0 1 1 2934 1 2 4 2934 2927 0 1 4399 0 4 15 2 2 2 1 1465 2934 1 1 1 295 2 2 1 2945 2 1 2 1 1 4398 8 1 1 1 2 0 2 1 3 978 0 0 1 1 0 4 14 1 0 2 8 0 1 3 2 1 978 2 1 0 0 1222 2 979 0 0 0 2 490 0 2 1 978 8 3 1 5499 1 2 7334 215 2 16615 979 2 2445 8 2 1 1 1 0 0 2 2935 1 2 0 0 6 744 1 169 2 0 0 1 1467 46 2 2 1 2 2 1 732 0 2 0 1 2 1 0 0 0 622 0 1 2 0 1467 0 979 1 1 0 2 1 1 1445 0 1466 0 1 0 1 1 1 4887 0 1 488 0 1 2 1 0 1 0 0 978 1 1 1 2 2 4398 0 18 0 0 1 2 1466 1 2892 1 0 2 2 1197 2 3 2 2403 1 1588 1467 0 2 1 1467 227 3911 1506 0 2 1 4639 0 4921 0 11 1467 2 2 2 1 1 0 1 2 0 2 0 1 6 1479 2 1 2452 378 2 5 1472 0 2 0 504 1 1466 3 2 2 2 1 0 2 4428 2 1 0 1 2 0 0 0 1 0 1 1 5 0 2 2 2 1466 13 2 1 2 2 8 1 1 2 2 1 0 2 2 3 2 0 0 1 0 0 1 0 0 1 1 1 2 1 1 2 0 0 0 2 1 1 1 1 4 1 2 2 143 0 2 1 1 2 1 2 1 2 1 0 1 0 4 1 0 1 2 1 8 2 2 2 0 2 0 1 0 0 2 2 0 1955 1468 1478 0 2 2 2409 1 0 0 1 29 2 5 1 2 1 1465 1 0 0 2 16 4 4889 2 0 2932 0 1 1 1 1 2 1 0 2 0 1 2 5 1 0 0 1467 4398 1 0 0 2 1467 1 0 1467 1466 1 0 1466 13 0 1 1 1472 0 0 0 2 1 0 1468 0 1 0 2 2 3 0 2 1 210 1 2 1 0 2 1550 2 9 0 2 2 1 1 1 1 2 1 1 0 0 0 1956 2 1 2 1 1 4 1469 4398 13 1 1 11 11 0 2 2 1 1953 18 2 5 2 2 2932 5 1 2 4 2 1 1467 6842 5 2 5 2 2 2 1 1 1 0 1 1 0 2 2 0 2 0 1 1 0 1 6 1 1004 0 0 0 2 1 2 1 1 0 5 1 1 0 0 0 3 1 1 0 1 1467 1 1 2 0 0 2 1 2 2 1 2 1 0 1 0 0 1 0 2 1 0 0 4398 1 1466 1 4 238 1 2 2 0 0 0 1 1 1 4399 4 5 2 6 2 980 4 2 2 2 1 4 1 1 2 1 497 1 2 2 5 2 1341 2 1466 2 0 1467 1 2 2 1481 3177 1486 1469 5 1956 2 1 2935 1 1 1 5 2 0 2 5 1467 4 0 2 1 1 2 6 13 1 1 1 2 1 2 2 2 1466 11 3 2 6 2450 1 1 8 2 2931 1020 1 3423 2 1 2 2 12 7 2 1 3 5 8 0 1 2 1 1 1 2 2 1 0 1 2934 1 2 2 5 1 2 2 1 1 0 0 1955 2 2688 1491 0 2 1 4 2 1 0 5 2 2 1 4 2 1 1 1 2 0 1466 5 0 2 2 1 1 0 1 1 1 0 0 1 0 1 2 1 1955 1 1471 2 1 2 0 0 0 978 0 2933 2 0 1 1 2 1 1 1 1 1 1 0 1 0 6 2 2 0 1 0 2 2 1468 754 1 1 4 2929 1 2 2 0 1 11 1 1 2 0 0 495 2 0 1 1 2 0 1 0 1 1467 3 0 0 2 982 2 3 499 4 1 1466 1 1 0 2 1 2 4 1 2 746 6 0 1 2 1 0 1 0 1226 1434 2 1 2 1 1 1477 1466 0 2 16 2 14 1 6 0 749 2 2 0 1 1 1468 0 1 1 1 1 1 1 1 1349 2 0 1 0 1 2 1956 2 977 5 117 2 0 1 0 0 1 2 2 2 4 0 1 2 139 4 20 1 2 2 1 2 1467 0 4 0 2 1 4 1721 2 1 3 1 1 979 1 2 2 1 0 1 1477 1 0 978 1 1956 1 17 25 2 2 0 0 13 2960 1 0 0 517 3422 1 1 2 0 1 0 0 2 1 0 16 0 2 1 2 2 0 16 2 2 0 1 2 12 1 0 1 0 2 2 2 1 0 0 1 22 0 1 1 2 12 1 5 1479 1 2 11 1466 0 1464 12 2 1 2 2 21 2 0 2 1 1 1 2 1 13 3 1 1 2 0 5 2928 3 17 1 973 1 2 4 1 2 2 1 4 1954 1 1 1 1471 2 0 1465 0 2 2 17 1 2 1469 2 1 3914 1955 33 1 0 0 0 0 2445 1469 1 1466 1956 2 0 2 1 8 2 2 0 19 2 1473 744 2 17 2 978 0 2 1468 1 0 2 0 2 0 0 1 0 2 491 1466 2 0 2 1 8 1 2933 2 4397 1466 1 978 1 5 1467 2 1 17 0 1 1 1 0 2 13 1 13 3 1 2 1 2 1 1 979 1 0 13 0 2 1 1467 7 3923 3 2 981 1 5 14 1465 1 1607 1466 2 0 2 4 2 10 0 978 2 4401 2 2 2 3 3 1 2 2 0 14 2 11 37 0 1474 0 1 2 2 12 0 979 1 2 2 14 0 0 1 3439 1 0 1 1 0 0 0 1 2 0 10 2 1 2934 5 1 1 2 1441 2 2 1 2 1 1 1 2 1 2 489 1 2 0 0 2 0 2 2 1 1 2933 2934 2 2 3 1 16 1473 979 2947 1 2 2 1 1 0 1111 2 2 2 1 1 2 3 9 0 2935 4893 17 0 1 0 5 1 1 1 1 2 2934 1968 1 2 2 14 2 23 2 1965 4 2 1 1 0 1 1 8 0 4 3 0 2 0 1 2 2 979 2 0 2 2 2 1467 0 2 0 1 1 2 6 1 3 2 1 2 1 2932 1468 2 501 988 5 2 3 2931 2 2 7 2 8 16 2 1468 5862 5 6842 2 0 3430 978 2 4888 979 1444 0 5 2 3917 2932 0 0 1 2 1956 1 5378 4 3399 2235 1467 1 1 5 2201 4 2 2 2 2 0 2 1467 1 0 1954 2 1 55 494 2 16 2198 1469 1 2 1 1 2933 0 1469 0 2 4397 0 2 1467 2 2 4 1 0 2 1465 1965 2 1466 3910 2928 1468 1466 2692 744 4 1957 980 1 1 1 2 1467 1472 1466 4 4 4886 1 1 1217 2 979 2 1468 2 1 1 1 2 2933 0 2 1 5 4885 1 2 2 0 5 1465 0 2936 1 0 1 15 979 490 1 1 0 1 1 3 2 2 14 1 2446 2 6 2 1466 2 1 4 2 2 1 0 2 1 1 8 2 978 5 1 1092 3175 0 2 0 1 2 2 1 5 1 5 1 1 1 1 2 1 13 987 1 0 2 14 1 2 3 1 2 12 1 2 2 1 1955 1 2444 0 2 0 2 1468 1 0 0 1 1 979 0 0 1 3 1 3 1 0 2 1 1956 2 1 2 0 978 1 1 1466 0 1 1468 110 2 4 0 2 3 2 1 1 1 0 0 1 1 0 978 2 2 2 1467 1 1466 980 1960 1 1 2933 1001 1 2 1955 2 2 1471 0 1466 1 978 2 2 1 978 2 979 2181 2 2 4397 1956 2 2 2 1 1 1 0 4885 1 1 1 1 2 2 1 1 5014 0 1 2 2 2 41 0 4290 1 2 2 1 2 14 2 1 1842 1 2 1 2 2 2 2 978 1 2 2 1466 0 1564 2 1 355 2 2 2 3421 0 17 2 1 1 1 1954 2 0 1 0 3 1 2 0 1 2 2 1 5 14 1 1 1 1 2 10 0 1465 17 2 0 2 2 0 4 0 1 17 17 1 1 1 1 0 2 0 0 1 367 1 2 1 1 1466 2 1 2 0 2 1 4388 3904 6842 1 1 3420 2920 1466 1 1 0 2 2 2 0 0 1466 2 1 2 2 2 0 2933 1 1 1 5489 1 17 13 1586 0 2 1466 1 1 1 1465 1 1955 4888 978 2932 0 2 1467 2202 1 1954 1 2443 982 1 1 1 2 2 7 2 1 2 8 979 1480 2 1466 2 584 2 1465 5 1 1548 1465 978 1 1 2 1 1467 0 2 1 987 2 2 0 2 0 0 1 1467 6843 2 2 1 2 2 2 2 2 2 1 1 0 1 2 2 1 2 1 1467 978 1 0 1 2 0 1 0 114 0 743 1956 0 0 1 1466 977 2 2 4886 0 978 1013 1 979 1 978 0 1 4 2 1 2 2 2 1464 0 0 0 975 1 1 1463 1466 3420 2 3922 2 1 2 0 2 1 3 0 1466 1 2 1 0 3910 0 1 1 2 1 6 565 0 1467 5 4 0 5 0 3422 4 0 1 16 1 0 5 1 4 2 0 2 2 1 2 1 2 1 2 3911 2 4397 12 2 4398 2 742 2 1 6 0 3 5 5 1955 2 1 2 0 2 0 2 2 2 751 1 1466 977 1 11 1 978 2 3422 0 0 2 1 2 17 15 1 2 21501 0 0 1 2 0 0 2 1 128 269 2 1 0 35 2 1 2445 1 1468 0 3 1 2 1955 0 1 0 1 2 2 1 2 23 1 2 2 2 1 5 0 4398 2 2 3 0 5 0 1467 2 1466 2 1 2 0 2 1 2 1 1 5 0 2 2 1 2 1 0 1469 2 1 3421 1469 2 5 2 2 1 1 1452 979 1 0 0 1 1 1 0 2 2 2 17 5 0 980 1 1715 2 2932 0 0 1957 0 1 2552 978 0 1955 2 2 2 1470 2 2 0 1 0 1468 2 1 0 979 1 2 4 3 978 1 13 0 1 1831 2 1471 1 2 5 2 4397 1 2 2 1 3921 6 1 364 0 1467 2 12 108 1 2 2 0 1 17 1 2 2 2 1 0 1 1130 0 2 1 4 979 1 491 2 3911 1 2933 1 1 1 3912 1 3910 978 2931 1 1 4399 0 977 2 979 1954 1956 1 4397 0 6 1466 0 494 2 1 2 5 4 1 3 0 1467 2 365 1466 2 1 2 0 2 2 2 1 2 0 1467 1817 2 2 1 2 4400 0 2445 1 2 2 2 1 978 1 1831 2 1467 1 1466 5 2 2 2 1466 0 2 1955 0 6354 0 2932 5 1 1 2 1 0 2 1 2 2 1466 2446 2 2 2 1 2 1468 2 1 2 2 0 2 0 496 4399 978 2 1467 2933 1 2 1 1713 2 1 1 2 1222 0 1 3 0 0 2 1 0 2 0 1 1 1 1 1 2 0 2445 1 1467 1466 5 0 1 1 4 1 1 2 2 0 1 0 1 2 2 2 4 1 2 1 493 0 1 0 2 2 979 0 1 1 0 1 1 0 1 1 2 1 1 1 0 89 1 0 2 1 0 0 1 5 2 2 2 2 1 1 1 2 1746 0 2 1 2935 2 1 0 0 5 0 0 1 2 5 2 978 5 3423 1466 1 1 2 1 2 0 2 4 0 1 1 2 1 2934 1 1465 1 1 1 2443 1 2 2 2 1 2 4404 1 1 2203 1469 2 2 2 1 2 2798 2 2 1336 1 2759 1 1 6 5 980 2 891 1 1 3 1 4 1999 981 1 0 2933 1 0 0 1 0 0 2 2 1 1 2 1 980 0 2 1 0 0 2 1 2 2 2893 3 2 2 1 1955 1 1 1 984 984 0 0 2 0 979 2 1 0 0 978 4398 14 2 0 0 749 1 2 0 1 1 1 5 1 1 3 2 2 12 2 1 1 1959 1 2 5 1 2 0 1 2 5 1 2 4 1 1 1 1 4397 2 8 2 2 1 1 1 7 2 1 0 
