
*** ChampSim Multicore Out-of-Order Simulator ***

Warmup Instructions: 50000000
Simulation Instructions: 50000000
Number of CPUs: 1
LLC sets: 2048
LLC ways: 16
Off-chip DRAM Size: 4096 MB Channels: 1 Width: 64-bit Data Rate: 6400 MT/s
CPU 0 runs ./micro_traces/srv102.trace.gz
.gz
ITLB has LRU replacement policy
DTLB has LRU replacement policy
STLB has LRU replacement policy
FDIP Prefetcher at L1I
L1I has LRU replacement policy
L1D has LRU replacement policy
Initialize SRRIP state for L2C
Initialize DRRIP state for LLC
Heartbeat_Variant_0 : 617 0.30127 per_variant_size: 0 617 0 0 0 0 0 0 0 
Heartbeat_Variant_1 : 1431 0.69873 per_variant_size: 0 139 1292 0 0 0 0 0 0 
Heartbeat_Variant_2 : 0 0 per_variant_size: 0 0 0 0 0 0 0 0 0 
Heartbeat_Variant_3 : 0 0 per_variant_size: 0 0 0 0 0 0 0 0 0 
Heartbeat_Variant_0_evicts 0 : 30401 1 : 58580 2 : 0 3 : 0 
Heartbeat_Variant_1_evicts 0 : 58632 1 : 0 2 : 0 3 : 0 
Heartbeat_Variant_2_evicts 0 : 0 1 : 0 2 : 0 3 : 0 
Heartbeat_Variant_3_evicts 0 : 0 1 : 0 2 : 0 3 : 0 
Heartbeat CPU 0 instructions: 10000000 cycles: 2797090 heartbeat IPC: 3.57514 cumulative IPC: 3.57514 (Simulation time: 0 hr 2 min 12 sec) 
Heartbeat_Variant_0 : 641 0.312988 per_variant_size: 0 641 0 0 0 0 0 0 0 
Heartbeat_Variant_1 : 1407 0.687012 per_variant_size: 0 124 1283 0 0 0 0 0 0 
Heartbeat_Variant_2 : 0 0 per_variant_size: 0 0 0 0 0 0 0 0 0 
Heartbeat_Variant_3 : 0 0 per_variant_size: 0 0 0 0 0 0 0 0 0 
Heartbeat_Variant_0_evicts 0 : 30808 1 : 59697 2 : 0 3 : 0 
Heartbeat_Variant_1_evicts 0 : 59673 1 : 0 2 : 0 3 : 0 
Heartbeat_Variant_2_evicts 0 : 0 1 : 0 2 : 0 3 : 0 
Heartbeat_Variant_3_evicts 0 : 0 1 : 0 2 : 0 3 : 0 
Heartbeat CPU 0 instructions: 20000001 cycles: 5593356 heartbeat IPC: 3.5762 cumulative IPC: 3.57567 (Simulation time: 0 hr 4 min 20 sec) 
Heartbeat_Variant_0 : 650 0.317383 per_variant_size: 0 650 0 0 0 0 0 0 0 
Heartbeat_Variant_1 : 1398 0.682617 per_variant_size: 0 143 1255 0 0 0 0 0 0 
Heartbeat_Variant_2 : 0 0 per_variant_size: 0 0 0 0 0 0 0 0 0 
Heartbeat_Variant_3 : 0 0 per_variant_size: 0 0 0 0 0 0 0 0 0 
Heartbeat_Variant_0_evicts 0 : 31351 1 : 59986 2 : 0 3 : 0 
Heartbeat_Variant_1_evicts 0 : 59977 1 : 0 2 : 0 3 : 0 
Heartbeat_Variant_2_evicts 0 : 0 1 : 0 2 : 0 3 : 0 
Heartbeat_Variant_3_evicts 0 : 0 1 : 0 2 : 0 3 : 0 
Heartbeat CPU 0 instructions: 30000000 cycles: 8390023 heartbeat IPC: 3.57568 cumulative IPC: 3.57568 (Simulation time: 0 hr 6 min 35 sec) 
Heartbeat_Variant_0 : 586 0.286133 per_variant_size: 0 586 0 0 0 0 0 0 0 
Heartbeat_Variant_1 : 1462 0.713867 per_variant_size: 0 128 1334 0 0 0 0 0 0 
Heartbeat_Variant_2 : 0 0 per_variant_size: 0 0 0 0 0 0 0 0 0 
Heartbeat_Variant_3 : 0 0 per_variant_size: 0 0 0 0 0 0 0 0 0 
Heartbeat_Variant_0_evicts 0 : 30869 1 : 59754 2 : 0 3 : 0 
Heartbeat_Variant_1_evicts 0 : 59818 1 : 0 2 : 0 3 : 0 
Heartbeat_Variant_2_evicts 0 : 0 1 : 0 2 : 0 3 : 0 
Heartbeat_Variant_3_evicts 0 : 0 1 : 0 2 : 0 3 : 0 
Heartbeat CPU 0 instructions: 40000001 cycles: 11187569 heartbeat IPC: 3.57456 cumulative IPC: 3.5754 (Simulation time: 0 hr 8 min 43 sec) 
Heartbeat_Variant_0 : 634 0.30957 per_variant_size: 0 634 0 0 0 0 0 0 0 
Heartbeat_Variant_1 : 1414 0.69043 per_variant_size: 0 142 1272 0 0 0 0 0 0 
Heartbeat_Variant_2 : 0 0 per_variant_size: 0 0 0 0 0 0 0 0 0 
Heartbeat_Variant_3 : 0 0 per_variant_size: 0 0 0 0 0 0 0 0 0 
Heartbeat_Variant_0_evicts 0 : 30772 1 : 59814 2 : 0 3 : 0 
Heartbeat_Variant_1_evicts 0 : 59766 1 : 0 2 : 0 3 : 0 
Heartbeat_Variant_2_evicts 0 : 0 1 : 0 2 : 0 3 : 0 
Heartbeat_Variant_3_evicts 0 : 0 1 : 0 2 : 0 3 : 0 
Heartbeat CPU 0 instructions: 50000002 cycles: 13984318 heartbeat IPC: 3.57558 cumulative IPC: 3.57543 (Simulation time: 0 hr 11 min 1 sec) 

Warmup complete CPU 0 instructions: 50000002 cycles: 13984318 (Simulation time: 0 hr 11 min 1 sec) 

Cycle: 20000000 FTQ IN: 54538123 FTQ occupancy: 17.1261 DECODE IN: 54538117 DECODE occupancy: 43.9013 ROB IN: 54538117 ROB occupancy: 260.967 ROB OUT: 54538117
Heartbeat_Variant_0 : 664 0.324219 per_variant_size: 0 664 0 0 0 0 0 0 0 
Heartbeat_Variant_1 : 1384 0.675781 per_variant_size: 0 144 1240 0 0 0 0 0 0 
Heartbeat_Variant_2 : 0 0 per_variant_size: 0 0 0 0 0 0 0 0 0 
Heartbeat_Variant_3 : 0 0 per_variant_size: 0 0 0 0 0 0 0 0 0 
Heartbeat_Variant_0_evicts 0 : 30663 1 : 58832 2 : 0 3 : 0 
Heartbeat_Variant_1_evicts 0 : 58802 1 : 0 2 : 0 3 : 0 
Heartbeat_Variant_2_evicts 0 : 0 1 : 0 2 : 0 3 : 0 
Heartbeat_Variant_3_evicts 0 : 0 1 : 0 2 : 0 3 : 0 
Heartbeat CPU 0 instructions: 60000001 cycles: 27269663 heartbeat IPC: 0.752709 cumulative IPC: 0.752709 (Simulation time: 0 hr 12 min 43 sec) 
Cycle: 30000000 FTQ IN: 7515573 FTQ occupancy: 3.47919 DECODE IN: 7515560 DECODE occupancy: 6.35799 ROB IN: 7515560 ROB occupancy: 56.4171 ROB OUT: 7515556
Cycle: 40000000 FTQ IN: 7428727 FTQ occupancy: 3.691 DECODE IN: 7428746 DECODE occupancy: 6.87074 ROB IN: 7428746 ROB occupancy: 58.5624 ROB OUT: 7428591
Heartbeat_Variant_0 : 623 0.304199 per_variant_size: 0 623 0 0 0 0 0 0 0 
Heartbeat_Variant_1 : 1425 0.695801 per_variant_size: 0 124 1301 0 0 0 0 0 0 
Heartbeat_Variant_2 : 0 0 per_variant_size: 0 0 0 0 0 0 0 0 0 
Heartbeat_Variant_3 : 0 0 per_variant_size: 0 0 0 0 0 0 0 0 0 
Heartbeat_Variant_0_evicts 0 : 30671 1 : 58795 2 : 0 3 : 0 
Heartbeat_Variant_1_evicts 0 : 58836 1 : 0 2 : 0 3 : 0 
Heartbeat_Variant_2_evicts 0 : 0 1 : 0 2 : 0 3 : 0 
Heartbeat_Variant_3_evicts 0 : 0 1 : 0 2 : 0 3 : 0 
Heartbeat CPU 0 instructions: 70000003 cycles: 40720456 heartbeat IPC: 0.743451 cumulative IPC: 0.748051 (Simulation time: 0 hr 14 min 26 sec) 
Cycle: 50000000 FTQ IN: 7352927 FTQ occupancy: 3.46493 DECODE IN: 7352920 DECODE occupancy: 6.35399 ROB IN: 7352920 ROB occupancy: 55.2217 ROB OUT: 7352925
Heartbeat_Variant_0 : 656 0.320312 per_variant_size: 0 656 0 0 0 0 0 0 0 
Heartbeat_Variant_1 : 1392 0.679688 per_variant_size: 0 106 1286 0 0 0 0 0 0 
Heartbeat_Variant_2 : 0 0 per_variant_size: 0 0 0 0 0 0 0 0 0 
Heartbeat_Variant_3 : 0 0 per_variant_size: 0 0 0 0 0 0 0 0 0 
Heartbeat_Variant_0_evicts 0 : 31394 1 : 60187 2 : 0 3 : 0 
Heartbeat_Variant_1_evicts 0 : 60154 1 : 0 2 : 0 3 : 0 
Heartbeat_Variant_2_evicts 0 : 0 1 : 0 2 : 0 3 : 0 
Heartbeat_Variant_3_evicts 0 : 0 1 : 0 2 : 0 3 : 0 
Heartbeat CPU 0 instructions: 80000001 cycles: 54235615 heartbeat IPC: 0.73991 cumulative IPC: 0.745318 (Simulation time: 0 hr 16 min 6 sec) 
Cycle: 60000000 FTQ IN: 7415348 FTQ occupancy: 3.47785 DECODE IN: 7415349 DECODE occupancy: 6.36153 ROB IN: 7415349 ROB occupancy: 55.7883 ROB OUT: 7415503
Heartbeat_Variant_0 : 620 0.302734 per_variant_size: 0 620 0 0 0 0 0 0 0 
Heartbeat_Variant_1 : 1428 0.697266 per_variant_size: 0 130 1298 0 0 0 0 0 0 
Heartbeat_Variant_2 : 0 0 per_variant_size: 0 0 0 0 0 0 0 0 0 
Heartbeat_Variant_3 : 0 0 per_variant_size: 0 0 0 0 0 0 0 0 0 
Heartbeat_Variant_0_evicts 0 : 30766 1 : 59521 2 : 0 3 : 0 
Heartbeat_Variant_1_evicts 0 : 59557 1 : 0 2 : 0 3 : 0 
Heartbeat_Variant_2_evicts 0 : 0 1 : 0 2 : 0 3 : 0 
Heartbeat_Variant_3_evicts 0 : 0 1 : 0 2 : 0 3 : 0 
Heartbeat CPU 0 instructions: 90000000 cycles: 67747668 heartbeat IPC: 0.74008 cumulative IPC: 0.744001 (Simulation time: 0 hr 17 min 49 sec) 
Cycle: 70000000 FTQ IN: 7393838 FTQ occupancy: 3.66147 DECODE IN: 7393844 DECODE occupancy: 6.80206 ROB IN: 7393834 ROB occupancy: 58.2451 ROB OUT: 7393832
Cycle: 80000000 FTQ IN: 7315517 FTQ occupancy: 3.43413 DECODE IN: 7315505 DECODE occupancy: 6.25241 ROB IN: 7315515 ROB occupancy: 55.5423 ROB OUT: 7315499
Heartbeat_Variant_0 : 646 0.31543 per_variant_size: 0 646 0 0 0 0 0 0 0 
Heartbeat_Variant_1 : 1402 0.68457 per_variant_size: 0 132 1270 0 0 0 0 0 0 
Heartbeat_Variant_2 : 0 0 per_variant_size: 0 0 0 0 0 0 0 0 0 
Heartbeat_Variant_3 : 0 0 per_variant_size: 0 0 0 0 0 0 0 0 0 
Heartbeat_Variant_0_evicts 0 : 31078 1 : 59803 2 : 0 3 : 0 
Heartbeat_Variant_1_evicts 0 : 59777 1 : 0 2 : 0 3 : 0 
Heartbeat_Variant_2_evicts 0 : 0 1 : 0 2 : 0 3 : 0 
Heartbeat_Variant_3_evicts 0 : 0 1 : 0 2 : 0 3 : 0 
Heartbeat CPU 0 instructions: 100000003 cycles: 81374491 heartbeat IPC: 0.733847 cumulative IPC: 0.741948 (Simulation time: 0 hr 19 min 18 sec) 
Finished CPU 0 instructions: 50000001 cycles: 67390173 cumulative IPC: 0.741948 (Simulation time: 0 hr 19 min 18 sec) 

ChampSim completed all CPUs

Region of Interest Statistics

CPU 0 cumulative IPC: 0.741948 instructions: 50000001 cycles: 67390173
 Fetch stage stalled: 82.1855  Sim cycles: 67390173 fetch stall cycle: 55384933
 Empty decode stage: 67.6352  Sim cycles: 67390173 fetch stall cycle: 45579450
ITLB TOTAL     ACCESS:    5662692  HIT:    5164111  MISS:     498581  HIT %:    91.1953  MISS %:    8.80466   MPKI: 9.97162
ITLB LOAD TRANSLATION INSTRUCTION	ACCESS:    5588173  HIT:    5089592  MISS:     498581  HIT %:    91.0779  MISS %:    8.92208  MPKI: 9.97162
ITLB TRANSLATION FROM L1D PREFETCHER INSTRUCTION	ACCESS:      74519  HIT:      74519  MISS:          0  HIT %:        100  MISS %:          0  MPKI: 0

ITLB AVERAGE MISS LATENCY: 9.04785 cycles
ITLB RQ	ACCESS:    7141171	FORWARD:          0	MERGED:    1039645	TO_CACHE:    6101526

DTLB TOTAL     ACCESS:   10073000  HIT:    9597521  MISS:     475479  HIT %:    95.2797  MISS %:    4.72033   MPKI: 9.50958
DTLB LOAD TRANSLATION DATA	ACCESS:   10073000  HIT:    9597521  MISS:     475479  HIT %:    95.2797  MISS %:    4.72033  MPKI: 9.50958

DTLB AVERAGE MISS LATENCY: 9.3137 cycles
DTLB RQ	ACCESS:   14146855	FORWARD:          0	MERGED:    4046070	TO_CACHE:   10100785

STLB TOTAL     ACCESS:    1219450  HIT:    1217457  MISS:       1993  HIT %:    99.8366  MISS %:   0.163434   MPKI: 0.03986
STLB LOAD TRANSLATION INSTRUCTION	ACCESS:     498581  HIT:     498321  MISS:        260  HIT %:    99.9479  MISS %:   0.052148  MPKI: 0.0052
STLB LOAD TRANSLATION DATA	ACCESS:     475129  HIT:     473416  MISS:       1713  HIT %:    99.6395  MISS %:   0.360534  MPKI: 0.03426
STLB TRANSLATION FROM L1D PREFETCHER DATA	ACCESS:     245740  HIT:     245720  MISS:         20  HIT %:    99.9919  MISS %: 0.00813868  MPKI: 0.0004

STLB AVERAGE MISS LATENCY: 77.0492 cycles
STLB RQ	ACCESS:    1341278	FORWARD:          0	MERGED:     121778	TO_CACHE:    1219500

STLB Hit, L1D data hit: 0
STLB Hit, L2C data hit: 0
STLB Hit, LLC data hit: 0
STLB Hit, LLC data miss: 0
STLB STLB hints to L2: 0
L1D TOTAL     ACCESS:   13944239  HIT:   12817313  MISS:    1126926  HIT %:    91.9183  MISS %:    8.08166   MPKI: 22.5385
L1D LOAD DATA	ACCESS:    7299720  HIT:    6555207  MISS:     744513  HIT %:    89.8008  MISS %:    10.1992  MPKI: 14.8903
L1D RFO DATA	ACCESS:    6318059  HIT:    6029874  MISS:     288185  HIT %:    95.4387  MISS %:    4.56129  MPKI: 5.7637
L1D PREFETCH DATA	ACCESS:     326460  HIT:     232232  MISS:      94228  HIT %:    71.1364  MISS %:    28.8636  MPKI: 1.88456

L1D PREFETCH  REQUESTED:     734577  ISSUED:     734577  USEFUL:      33799  USELESS:      67850
L1D USEFUL LOAD PREFETCHES:      33799 PREFETCH ISSUED TO LOWER LEVEL:     101694  ACCURACY: 33.236
 TIMELY PREFETCHES:      33799 LATE PREFETCHES: 7420 DROPPED PREFETCHES: 6
L1D AVERAGE MISS LATENCY: 320152 cycles
L1D RQ	ACCESS:   11263867	FORWARD:          0	MERGED:    3774562	TO_CACHE:    7325417
L1D WQ	ACCESS:    6959238	FORWARD:     164029	MERGED:     137800	TO_CACHE:    6821438
L1D PQ	ACCESS:     367359	FORWARD:          0	MERGED:          0	TO_CACHE:     367218

L1D UNIQUE REGIONS ACCESSED: 0
L1D REGIONS CONFLICTS: 0
L1D Cross Page Prefetch Requests: 6890
L1D Same Page Prefetch Requests: 745918
L1D ROI Sum of L1D PQ occupancy: 4672150
L1D PREFETCHES PUSHED FROM L2C: 0
L1I TOTAL     ACCESS:    7000398  HIT:    4215676  MISS:    2784722  HIT %:    60.2205  MISS %:    39.7795   MPKI: 55.6944
L1I LOAD INSTRUCTION	ACCESS:    6688917  HIT:    3904195  MISS:    2784722  HIT %:    58.3681  MISS %:    41.6319  MPKI: 55.6944
L1I PREFETCH INSTRUCTION	ACCESS:     311481  HIT:     311481  MISS:          0  HIT %:        100  MISS %:          0  MPKI: 0

L1I PREFETCH  REQUESTED:     546285  ISSUED:     546285  USEFUL:          0  USELESS:          0
L1I USEFUL LOAD PREFETCHES:          0 PREFETCH ISSUED TO LOWER LEVEL:          0  ACCURACY: -nan
 TIMELY PREFETCHES:          0 LATE PREFETCHES: 0 DROPPED PREFETCHES: 0
L1I AVERAGE MISS LATENCY: 17.136 cycles
L1I RQ	ACCESS:    9455269	FORWARD:          0	MERGED:    2687611	TO_CACHE:    6767658
L1I PQ	ACCESS:     546285	FORWARD:          0	MERGED:     172772	TO_CACHE:     373513

L1BTB TOTAL     ACCESS:    5672061  HIT:    2021781  MISS:    3650280  HIT %:    35.6446  MISS %:    64.3554   MPKI: 73.0056
L1BTB BRANCH_DIRECT_JUMP	ACCESS:     547902 HIT:     142991 MISS:     404911 AVERAGE STALL: 27.8782 AVERAGE FETCH STALL: 18.6725 AVERAGE FETCH QUEUE STALL: 3.17071 AVERAGE DECODE STALL: 5.18837 AVERAGE EXECUTE STALL: 1.10695e+14
L1BTB BRANCH_INDIRECT	ACCESS:     182092 HIT:      65224 MISS:     116868 AVERAGE STALL: 68.6292 AVERAGE FETCH STALL: 17.4137 AVERAGE FETCH QUEUE STALL: 3.44205 AVERAGE DECODE STALL: 5.09715 AVERAGE EXECUTE STALL: 41.7293
L1BTB BRANCH_CONDITIONAL	ACCESS:    2695739 HIT:    1396888 MISS:    1298851 AVERAGE STALL: 28.5332 AVERAGE FETCH STALL: 19.9274 AVERAGE FETCH QUEUE STALL: 2.74938 AVERAGE DECODE STALL: 5.11181 AVERAGE EXECUTE STALL: 3.63002e+13
L1BTB BRANCH_DIRECT_CALL	ACCESS:     950807 HIT:     105395 MISS:     845412 AVERAGE STALL: 29.4547 AVERAGE FETCH STALL: 20.6704 AVERAGE FETCH QUEUE STALL: 2.76698 AVERAGE DECODE STALL: 5.26318 AVERAGE EXECUTE STALL: 4.0033e+13
L1BTB BRANCH_INDIRECT_CALL	ACCESS:     172364 HIT:      21116 MISS:     151248 AVERAGE STALL: 90.2436 AVERAGE FETCH STALL: 19.6005 AVERAGE FETCH QUEUE STALL: 3.0189 AVERAGE DECODE STALL: 5.34053 AVERAGE EXECUTE STALL: 61.7214
L1BTB BRANCH_RETURN	ACCESS:    1123157 HIT:     290167 MISS:     832990 AVERAGE STALL: 29.2032 AVERAGE FETCH STALL: 18.6182 AVERAGE FETCH QUEUE STALL: 2.95581 AVERAGE DECODE STALL: 5.27729 AVERAGE EXECUTE STALL: 6.22429e+13
L1BTB BRANCH_OTHER ACCESS:          0 HIT:          0 MISS:          0 AVERAGE STALL: -nan AVERAGE FETCH STALL: -nan AVERAGE FETCH QUEUE STALL: -nan AVERAGE DECODE STALL: -nan AVERAGE EXECUTE STALL: -nan
L1BTB TOTAL ROB OCCUPANCY AT BTB MISS: 20.4182

L2BTB TOTAL     ACCESS:    3625061  HIT:    2093307  MISS:    1531754  HIT %:    57.7454  MISS %:    42.2546   MPKI: 30.6351
L2BTB BRANCH_DIRECT_JUMP	ACCESS:     400887 HIT:     238203 MISS:     162684 AVERAGE STALL: 27.8782 AVERAGE FETCH STALL: 18.6725 AVERAGE FETCH QUEUE STALL: 3.17071 AVERAGE DECODE STALL: 5.18837 AVERAGE EXECUTE STALL: 1.10695e+14
L2BTB BRANCH_INDIRECT	ACCESS:     106498 HIT:      82478 MISS:      24020 AVERAGE STALL: 68.6292 AVERAGE FETCH STALL: 17.4137 AVERAGE FETCH QUEUE STALL: 3.44205 AVERAGE DECODE STALL: 5.09715 AVERAGE EXECUTE STALL: 41.7293
L2BTB BRANCH_CONDITIONAL	ACCESS:    1298851 HIT:     788276 MISS:     510575 AVERAGE STALL: 28.5332 AVERAGE FETCH STALL: 19.9274 AVERAGE FETCH QUEUE STALL: 2.74938 AVERAGE DECODE STALL: 5.11181 AVERAGE EXECUTE STALL: 3.63002e+13
L2BTB BRANCH_DIRECT_CALL	ACCESS:     845412 HIT:     384482 MISS:     460930 AVERAGE STALL: 29.4547 AVERAGE FETCH STALL: 20.6704 AVERAGE FETCH QUEUE STALL: 2.76698 AVERAGE DECODE STALL: 5.26318 AVERAGE EXECUTE STALL: 4.0033e+13
L2BTB BRANCH_INDIRECT_CALL	ACCESS:     141849 HIT:      63343 MISS:      78506 AVERAGE STALL: 90.2436 AVERAGE FETCH STALL: 19.6005 AVERAGE FETCH QUEUE STALL: 3.0189 AVERAGE DECODE STALL: 5.34053 AVERAGE EXECUTE STALL: 61.7214
L2BTB BRANCH_RETURN	ACCESS:     831564 HIT:     536525 MISS:     295039 AVERAGE STALL: 29.2032 AVERAGE FETCH STALL: 18.6182 AVERAGE FETCH QUEUE STALL: 2.95581 AVERAGE DECODE STALL: 5.27729 AVERAGE EXECUTE STALL: 6.22429e+13
L2BTB BRANCH_OTHER ACCESS:          0 HIT:          0 MISS:          0 AVERAGE STALL: -nan AVERAGE FETCH STALL: -nan AVERAGE FETCH QUEUE STALL: -nan AVERAGE DECODE STALL: -nan AVERAGE EXECUTE STALL: -nan
L2BTB TOTAL ROB OCCUPANCY AT BTB MISS: 48.6581

L2C TOTAL     ACCESS:    4526922  HIT:    4050002  MISS:     476920  HIT %:    89.4648  MISS %:    10.5352   MPKI: 9.5384
L2C LOAD INSTRUCTION	ACCESS:    2784723  HIT:    2529261  MISS:     255462  HIT %:    90.8263  MISS %:     9.1737  MPKI: 5.10924
L2C LOAD TRANSLATION INSTRUCTION	ACCESS:        295  HIT:         68  MISS:        227  HIT %:    23.0508  MISS %:    76.9492  MPKI: 0.00454
L2C LOAD DATA	ACCESS:     737077  HIT:     660946  MISS:      76131  HIT %:    89.6712  MISS %:    10.3288  MPKI: 1.52262
L2C RFO DATA	ACCESS:     288137  HIT:     234388  MISS:      53749  HIT %:     81.346  MISS %:     18.654  MPKI: 1.07498
L2C PREFETCH DATA	ACCESS:     188898  HIT:     115321  MISS:      73577  HIT %:    61.0493  MISS %:    38.9507  MPKI: 1.47154
L2C WRITEBACK DATA	ACCESS:     525979  HIT:     509549  MISS:      16430  HIT %:    96.8763  MISS %:     3.1237  MPKI: 0.3286
L2C LOAD TRANSLATION DATA	ACCESS:       1778  HIT:        445  MISS:       1333  HIT %:    25.0281  MISS %:    74.9719  MPKI: 0.02666
L2C TRANSLATION FROM L1D PREFETCHER DATA	ACCESS:         35  HIT:         24  MISS:         11  HIT %:    68.5714  MISS %:    31.4286  MPKI: 0.00022

L2C PREFETCH  REQUESTED:      93798  ISSUED:      93798  USEFUL:       7616  USELESS:      66279
L2C USEFUL LOAD PREFETCHES:       7616 PREFETCH ISSUED TO LOWER LEVEL:      73930  ACCURACY: 10.3016
 TIMELY PREFETCHES:       7616 LATE PREFETCHES: 353 DROPPED PREFETCHES: 0
L2C AVERAGE MISS LATENCY: 38.3005 cycles
L2C RQ	ACCESS:    3812064	FORWARD:          0	MERGED:          0	TO_CACHE:    3812050
L2C WQ	ACCESS:     525979	FORWARD:         14	MERGED:          0	TO_CACHE:     525979
L2C PQ	ACCESS:     195492	FORWARD:          0	MERGED:       3322	TO_CACHE:     192170

L2C Dense regions hint from L2: 0
PSCL5 TOTAL     ACCESS:       4000  HIT:       2000  MISS:       2000  HIT %:         50  MISS %:         50   MPKI: 0.04
PSCL5 LOAD TRANSLATION INSTRUCTION	ACCESS:       3932  HIT:       1966  MISS:       1966  HIT %:         50  MISS %:         50  MPKI: 0.03932
PSCL5 TRANSLATION FROM L1D PREFETCHER INSTRUCTION	ACCESS:         68  HIT:         34  MISS:         34  HIT %:         50  MISS %:         50  MPKI: 0.00068


PSCL4 TOTAL     ACCESS:       3932  HIT:       1964  MISS:       1968  HIT %:    49.9491  MISS %:    50.0509   MPKI: 0.03936
PSCL4 LOAD TRANSLATION INSTRUCTION	ACCESS:       2098  HIT:       1930  MISS:        168  HIT %:    91.9924  MISS %:    8.00763  MPKI: 0.00336
PSCL4 TRANSLATION FROM L1D PREFETCHER INSTRUCTION	ACCESS:         34  HIT:         34  MISS:          0  HIT %:        100  MISS %:          0  MPKI: 0
PSCL4 LOAD TRANSLATION DATA	ACCESS:       1766  HIT:          0  MISS:       1766  HIT %:          0  MISS %:        100  MPKI: 0.03532
PSCL4 TRANSLATION FROM L1D PREFETCHER DATA	ACCESS:         34  HIT:          0  MISS:         34  HIT %:          0  MISS %:        100  MPKI: 0.00068


PSCL3 TOTAL     ACCESS:       3950  HIT:       1973  MISS:       1977  HIT %:    49.9494  MISS %:    50.0506   MPKI: 0.03954
PSCL3 LOAD TRANSLATION INSTRUCTION	ACCESS:       2107  HIT:       1939  MISS:        168  HIT %:    92.0266  MISS %:    7.97342  MPKI: 0.00336
PSCL3 TRANSLATION FROM L1D PREFETCHER INSTRUCTION	ACCESS:         34  HIT:         34  MISS:          0  HIT %:        100  MISS %:          0  MPKI: 0
PSCL3 LOAD TRANSLATION DATA	ACCESS:       1775  HIT:          0  MISS:       1775  HIT %:          0  MISS %:        100  MPKI: 0.0355
PSCL3 TRANSLATION FROM L1D PREFETCHER DATA	ACCESS:         34  HIT:          0  MISS:         34  HIT %:          0  MISS %:        100  MPKI: 0.00068


PSCL2 TOTAL     ACCESS:       3897  HIT:       1897  MISS:       2000  HIT %:    48.6785  MISS %:    51.3215   MPKI: 0.04
PSCL2 LOAD TRANSLATION INSTRUCTION	ACCESS:       2146  HIT:       1864  MISS:        282  HIT %:    86.8593  MISS %:    13.1407  MPKI: 0.00564
PSCL2 TRANSLATION FROM L1D PREFETCHER INSTRUCTION	ACCESS:         33  HIT:         33  MISS:          0  HIT %:        100  MISS %:          0  MPKI: 0
PSCL2 LOAD TRANSLATION DATA	ACCESS:       1685  HIT:          0  MISS:       1685  HIT %:          0  MISS %:        100  MPKI: 0.0337
PSCL2 TRANSLATION FROM L1D PREFETCHER DATA	ACCESS:         33  HIT:          0  MISS:         33  HIT %:          0  MISS %:        100  MPKI: 0.00066


LLC TOTAL     ACCESS:     537132  HIT:     508764  MISS:      28368  HIT %:    94.7186  MISS %:    5.28138   MPKI: 0.56736
LLC LOAD INSTRUCTION	ACCESS:     255462  HIT:     254221  MISS:       1241  HIT %:    99.5142  MISS %:   0.485787  MPKI: 0.02482
LLC LOAD TRANSLATION INSTRUCTION	ACCESS:        227  HIT:        184  MISS:         43  HIT %:    81.0573  MISS %:    18.9427  MPKI: 0.00086
LLC LOAD DATA	ACCESS:      75790  HIT:      72130  MISS:       3660  HIT %:    95.1709  MISS %:    4.82913  MPKI: 0.0732
LLC RFO DATA	ACCESS:      53732  HIT:      40654  MISS:      13078  HIT %:    75.6607  MISS %:    24.3393  MPKI: 0.26156
LLC PREFETCH DATA	ACCESS:      73930  HIT:      63988  MISS:       9942  HIT %:    86.5521  MISS %:    13.4479  MPKI: 0.19884
LLC WRITEBACK DATA	ACCESS:      76647  HIT:      76337  MISS:        310  HIT %:    99.5955  MISS %:   0.404452  MPKI: 0.0062
LLC LOAD TRANSLATION DATA	ACCESS:       1333  HIT:       1240  MISS:         93  HIT %:    93.0233  MISS %:    6.97674  MPKI: 0.00186
LLC TRANSLATION FROM L1D PREFETCHER DATA	ACCESS:         11  HIT:         10  MISS:          1  HIT %:    90.9091  MISS %:    9.09091  MPKI: 2e-05

LLC AVERAGE MISS LATENCY: 155.63 cycles
LLC RQ	ACCESS:     386561	FORWARD:          0	MERGED:          0	TO_CACHE:     386556
LLC WQ	ACCESS:      76647	FORWARD:          5	MERGED:          0	TO_CACHE:      76647
LLC PQ	ACCESS:      73930	FORWARD:          0	MERGED:          0	TO_CACHE:      73930

LLC Dense regions hint to LLC: 0

RAW hits: 1368042
Loads Generated: 12631909
Loads sent to L1D: 11263867
Stores Generated: 6959228
Stores sent to L1D: 6959238
Major fault: 0 Minor fault: 2635
Allocated PAGES: 2635

stream: 
stream:times selected: 1174986
stream:pref_filled: 120366
stream:pref_useful: 24289
stream:pref_late: 6594
stream:misses: 8007
stream:misses_by_poll: 0

CS: 
CS:times selected: 177018
CS:pref_filled: 61933
CS:pref_useful: 38077
CS:pref_late: 6832
CS:misses: 15828
CS:misses_by_poll: 2

CPLX: 
CPLX:times selected: 996809
CPLX:pref_filled: 20080
CPLX:pref_useful: 4794
CPLX:pref_late: 3061
CPLX:misses: 93947
CPLX:misses_by_poll: 0

NL_L1: 
NL:times selected: 20359
NL:pref_filled: 809
NL:pref_useful: 389
NL:pref_late: 271
NL:misses: 1653
NL:misses_by_poll: 0

total selections: 2369172
total_filled: 94228
total_useful: 33799
total_late: 18091
total_polluted: 2
total_misses_after_warmup: 770211
conflicts: 5889974

test: 116308

DRAM Statistics
 CHANNEL 0
 RQ ROW_BUFFER_HIT:      10175  ROW_BUFFER_MISS:      17865
 DBUS_CONGESTED:          9
 WQ ROW_BUFFER_HIT:       1407  ROW_BUFFER_MISS:      11858  FULL:          0

 AVG_CONGESTED_CYCLE: 5

CPU 0 Branch Prediction Accuracy: 99.8084% MPKI: 0.35088 Average ROB Occupancy at Mispredict: 89.7002
Branch types
NOT_BRANCH: 40844319 81.6886%
BRANCH_DIRECT_JUMP: 547902 1.0958%
BRANCH_INDIRECT: 182092 0.364184%
BRANCH_CONDITIONAL: 6178908 12.3578%
BRANCH_DIRECT_CALL: 950807 1.90161%
BRANCH_INDIRECT_CALL: 172364 0.344728%
BRANCH_RETURN: 1123157 2.24631%
BRANCH_OTHER: 0 0%

DRAM PAGES: 1048576
Allocated PAGES: 2635
Average_ROB_Occupancy: 57.456
Average_Decode_Occupancy: 6.49011
Average_FTQ_Occupancy: 3.53005
Indirect max targets: 14 Average targets: 1.17891
Branch_type:  BRANCH_DIRECT_JUMP:  Count Percentage: 3.77613 4.78448 4.81564 8.46365 2.40745 6.01233 1.56598 68.1743 
Branch_type:  BRANCH_INDIRECT:  Count Percentage: 6.10758 3.37609 8.14042 9.6785 3.35386 2.81766 3.90159 62.6243 
Branch_type:  BRANCH_CONDITIONAL:  Count Percentage: 25.425 2.35007 1.55286 4.60624 2.44852 3.59382 2.1199 57.9036 
Branch_type:  BRANCH_DIRECT_CALL:  Count Percentage: 0.91612 1.32111 0.714233 3.88468 3.20291 2.69041 3.03686 84.2337 
Branch_type:  BRANCH_INDIRECT_CALL:  Count Percentage: 9.57686 0 3.00512 0.000873243 0.922727 1.72 4.99641 79.778 
Branch_type:  BRANCH_RETURN:  Count Percentage: 8.33509 1.23035 1.01714 3.87704 4.21701 3.48129 2.68701 75.1551 
Branch_type:  BRANCH_DIRECT_JUMP:  Total Count: 41321 52355 52696 92615 26344 65791 17136 746010 
Branch_type:  BRANCH_INDIRECT:  Total Count: 22257 12303 29665 35270 12222 10268 14218 228213 
Branch_type:  BRANCH_CONDITIONAL:  Total Count: 3139812 290218 191768 568840 302376 443813 261793 7150711 
Branch_type:  BRANCH_DIRECT_CALL:  Total Count: 17357 25030 13532 73600 60683 50973 57537 1595909 
Branch_type:  BRANCH_INDIRECT_CALL:  Total Count: 32901 0 10324 3 3170 5909 17165 274075 
Branch_type:  BRANCH_RETURN:  Total Count: 186625 27548 22774 86808 94420 77947 60163 1682744 
Number of unique branch instructions: 10759
Upper 32 bits: 
aaaa
ffff
ffff0000
Unique upper 32 bits: 3
Unique upper 36 bits: 3
Unique upper 40 bits: 5
Unique upper 44 bits: 32
Unique upper 48 bits: 158
Variant_0 : 646 0.31543
Variant_1 : 1402 0.68457
Variant_2 : 0 0
Variant_3 : 0 0
Offset_3 4455
Offset_4 260
Offset_5 482
Offset_6 538
Offset_7 639
Offset_8 578
Offset_9 511
Offset_10 421
Offset_11 352
Offset_12 325
Offset_13 240
Offset_14 247
Offset_15 199
Offset_16 231
Offset_17 165
Offset_18 152
Offset_19 262
Offset_20 146
Offset_21 235
Offset_22 410
Offset_23 241
Offset_24 346
Offset_25 117
Offset_47 92
Offset_64 2
decode_dispatch_called: 20190320 29.9603
Dispatch_width: 0 9820925 48.6418 14.5732
Dispatch_width: 1 643157 3.18547 0.954378
Dispatch_width: 2 921357 4.56336 1.3672
Dispatch_width: 3 632591 3.13314 0.938699
Dispatch_width: 4 1474272 7.30188 2.18767
Dispatch_width: 5 469152 2.32365 0.696173
Dispatch_width: 6 6228866 30.8508 9.24299
Empty_decode_cycles: 47199853 70.0397
ROB_full_cycles: 1216043 1.80448
Starvation_cycles_per_kilo_instr: 599.453
Starvation_cycles_per_kilo_instr_3: 580.018
Starvation_cycles_per_kilo_instr_0: 558.047
Branch_type_1  (3,1)  (4,9)  (5,39)  (6,72)  (7,124)  (8,149)  (9,134)  (10,110)  (11,79)  (12,55)  (13,11)  (14,2)  (15,3)  (16,4)  (18,1)  (19,5)  (20,2)  (21,1)  (22,3)  (23,2)  (24,10)  (25,12)  (64,1) 
Branch_type_2  (3,1)  (4,1)  (5,1)  (8,4)  (9,4)  (10,1)  (12,1)  (13,1)  (14,1)  (16,3)  (17,2)  (20,2)  (21,2)  (23,5)  (24,1)  (47,41) 
Branch_type_3  (3,4453)  (4,250)  (5,438)  (6,449)  (7,484)  (8,358)  (9,278)  (10,169)  (11,137)  (12,62)  (13,10)  (24,1)  (64,1) 
Branch_type_4  (6,4)  (7,8)  (8,26)  (9,57)  (10,67)  (11,70)  (12,116)  (13,102)  (14,112)  (15,95)  (16,102)  (17,76)  (18,65)  (19,127)  (20,74)  (21,124)  (22,216)  (23,136)  (24,200)  (25,101) 
Branch_type_5  (8,3)  (9,1)  (10,4)  (11,5)  (12,3)  (13,14)  (14,16)  (15,11)  (16,22)  (17,11)  (18,23)  (19,14)  (20,11)  (21,13)  (22,43)  (23,26)  (24,38) 
Branch_type_6  (5,4)  (6,13)  (7,23)  (8,38)  (9,37)  (10,70)  (11,61)  (12,88)  (13,102)  (14,116)  (15,90)  (16,100)  (17,76)  (18,63)  (19,116)  (20,57)  (21,95)  (22,148)  (23,72)  (24,96)  (25,4)  (47,51) 
Unique trigger count: 
Variant_0_evicts_0 : 0
Variant_0_evicts_1 : 0
Variant_0_evicts_2 : 0
Variant_0_evicts_3 : 0
Variant_1_evicts_0 : 0
Variant_1_evicts_1 : 0
Variant_1_evicts_2 : 0
Variant_1_evicts_3 : 0
Variant_2_evicts_0 : 0
Variant_2_evicts_1 : 0
Variant_2_evicts_2 : 0
Variant_2_evicts_3 : 0
Variant_3_evicts_0 : 0
Variant_3_evicts_1 : 0
Variant_3_evicts_2 : 0
Variant_3_evicts_3 : 0
BTB PER SET UNIQUE ADDR: 46 49 51 54 52 42 54 42 41 43 57 45 44 48 43 38 40 47 49 46 49 54 33 39 48 36 58 49 48 40 47 46 45 35 48 46 48 38 43 51 47 44 40 52 38 53 48 40 39 38 59 51 50 43 51 52 46 49 45 40 49 44 48 58 51 57 51 50 51 34 47 54 49 49 58 48 42 38 49 49 52 36 55 31 38 57 54 56 58 52 56 41 59 46 52 56 47 52 57 63 62 53 45 47 47 46 48 39 47 39 50 48 51 59 36 57 55 36 50 53 62 50 49 63 46 49 59 46 54 48 59 44 52 44 44 46 50 54 42 62 49 42 49 48 49 57 49 48 41 37 55 44 53 50 51 39 42 36 53 55 53 41 45 45 49 53 52 48 40 38 44 36 47 41 57 61 57 48 48 57 37 52 44 44 42 46 51 48 47 47 48 43 40 44 53 52 60 47 48 47 55 41 55 45 42 40 55 46 45 49 49 48 49 48 34 65 46 36 47 39 40 47 48 43 45 42 48 48 58 47 32 45 64 56 43 41 40 43 48 44 40 56 60 48 42 63 40 45 49 36 52 43 57 38 53 30 54 53 48 44 53 44 58 51 45 41 48 49 54 57 44 43 54 43 58 49 52 45 42 47 52 38 45 55 42 37 27 54 43 51 61 46 38 47 40 51 44 52 50 45 54 46 55 50 49 50 45 43 38 47 41 49 32 48 42 48 44 44 45 47 37 47 45 53 52 66 61 68 44 63 50 39 54 43 59 42 42 59 55 52 52 43 49 48 51 48 51 57 44 46 49 49 46 58 57 49 48 59 50 46 44 34 42 42 52 51 36 44 44 48 60 49 47 50 56 44 49 44 41 37 50 56 56 45 43 46 52 50 39 50 49 53 57 52 48 44 41 45 62 50 36 46 45 43 53 54 52 44 43 44 45 39 54 37 56 51 53 44 55 57 49 57 54 51 58 40 49 51 57 48 50 59 46 42 46 50 47 53 57 59 53 47 51 43 40 52 47 48 50 52 58 40 52 54 48 63 61 38 41 43 36 43 60 43 67 31 57 45 59 60 51 50 36 50 51 42 36 39 48 58 46 52 54 66 47 40 51 49 57 42 42 40 42 44 49 50 37 43 37 29 46 49 53 39 46 55 60 38 53 57 45 43 
BTB PER SET COUNT: 5265 5242 5700 7317 6075 5366 6991 5052 3948 6106 8783 5217 4941 5709 5884 3730 3996 5926 5954 5138 5648 6406 3472 4306 6586 5624 8046 7157 6239 4564 6026 5552 5909 8566 5671 5624 5444 3527 5076 6533 6154 5295 5325 6517 4796 6770 6451 4249 5074 5019 7309 6167 5271 4860 5776 7105 4151 6636 6289 3479 6795 5591 5035 7584 6085 6996 6223 6271 7986 3173 4959 6744 5663 4680 6083 6252 5332 4645 6770 7177 6842 3805 5291 3930 4763 6864 6863 7791 7678 6709 6162 4617 7744 5087 5559 7578 4321 6268 7615 7833 6994 8051 6221 6688 5061 5251 6950 4890 5490 5704 6556 6288 6307 7446 4661 6938 7313 4322 6206 7646 6376 5482 7372 10905 7133 7613 7287 5520 6897 7272 8684 8720 7200 4645 5756 7146 5822 6431 4912 8111 6635 5907 5794 6117 6372 7256 6729 6626 5079 3971 7854 5017 5802 5272 7021 4692 6038 3604 6041 7527 5853 3629 4923 9994 5009 8170 8091 6494 3678 4079 4934 3599 5867 4390 8125 7440 7376 6498 6856 6816 5060 6920 5543 4829 5685 5601 6311 6500 6316 6519 7365 4877 5146 5078 7218 6499 7968 5325 6081 4829 7512 4426 8897 5178 4218 4547 7506 6168 4943 6070 6600 4711 7603 5351 4527 8040 5376 5798 4325 4176 5403 5903 6477 5020 6975 5101 6157 5856 8615 6433 4378 5529 8241 6590 5346 5569 4754 5304 7164 5352 4557 7845 6322 6645 5058 9503 4013 6037 7346 5216 5890 4221 7144 4019 6549 2971 7701 6448 5820 5867 7212 6108 6399 6477 5605 5325 6353 5915 7467 7992 5198 4442 7128 5694 7351 5879 5720 5469 5839 6510 5620 3893 5476 8745 5359 4514 2456 6812 5674 5978 7373 6237 3879 5577 4244 7332 6104 6617 6913 6218 7130 5119 6036 5455 5514 6227 12723 3729 5315 5535 5685 7442 4627 6495 5107 7105 4834 5045 5699 6022 4396 5667 5610 11840 4914 9901 9194 10115 4255 7610 6332 4654 6461 5827 8816 5433 5031 7518 8137 5761 7742 5139 5770 5664 7147 6111 7041 7009 5272 6804 6922 5952 5095 9490 8445 5685 5924 8251 7211 5872 4949 3759 5217 4731 7857 6554 5446 6043 5318 6833 9209 6520 6034 5869 7314 4385 7582 5197 4784 4368 6771 7275 6961 6244 4955 5329 6280 7552 4145 6736 6495 6300 5470 5235 6309 5449 5466 5020 7649 7012 3935 5843 5440 4475 6087 6745 6195 6061 4629 5436 5894 4114 6064 3604 7174 5609 5516 6261 7661 7772 6261 7558 7042 11169 7546 4190 5077 6358 7728 5768 10636 7781 6355 5920 6588 5907 6247 6397 7188 7382 5775 6397 5679 5508 5937 7008 5264 5830 6607 6782 6553 4855 7199 6441 4793 7759 8731 5110 4660 4410 4383 5509 7226 5750 13618 3134 7583 6579 7034 8267 6762 6518 3779 6097 6516 7997 6021 4342 5781 6491 7474 6733 6790 9531 4651 5338 6671 5183 7570 4804 5001 4062 4962 5132 5135 6321 4801 4949 3921 3331 5415 5221 5612 3658 5661 6468 7587 4596 6945 6246 6026 6354 
To predecode: 0
Predecoding something: 0
Predecode request dropped: 0
sizeofblock_0 0
sizeofblock_1 627019
sizeofblock_2 1590401
sizeofblock_3 0
sizeofblock_4 0
sizeofblock_5 0
sizeofblock_6 0
sizeofblock_7 0
sizeofblock_8 0
Variant_0 Correct: 754824 Incorrect: 0 Accuracy: 1
Variant_1 Correct: 3594987 Incorrect: 0 Accuracy: 1
Variant_2 Correct: 0 Incorrect: 0 Accuracy: -nan
Variant_3 Correct: 0 Incorrect: 0 Accuracy: -nan
