
*** ChampSim Multicore Out-of-Order Simulator ***

Warmup Instructions: 50000000
Simulation Instructions: 50000000
Number of CPUs: 1
LLC sets: 2048
LLC ways: 16
Off-chip DRAM Size: 4096 MB Channels: 1 Width: 64-bit Data Rate: 6400 MT/s
CPU 0 runs ./micro_traces/srv109.trace.gz
.gz
ITLB has LRU replacement policy
DTLB has LRU replacement policy
STLB has LRU replacement policy
FDIP Prefetcher at L1I
L1I has LRU replacement policy
L1D has LRU replacement policy
Initialize SRRIP state for L2C
Initialize DRRIP state for LLC
Heartbeat_Variant_0 : 1406 0.171631 per_variant_size: 0 1406 0 0 0 0 0 0 0 
Heartbeat_Variant_1 : 1487 0.181519 per_variant_size: 0 979 508 0 0 0 0 0 0 
Heartbeat_Variant_2 : 1750 0.213623 per_variant_size: 0 981 469 201 99 0 0 0 0 
Heartbeat_Variant_3 : 0 0 per_variant_size: 0 0 0 0 0 0 0 0 0 
Heartbeat_Variant_0_evicts 0 : 5392 1 : 9 2 : 6 3 : 0 
Heartbeat_Variant_1_evicts 0 : 7 1 : 0 2 : 189 3 : 0 
Heartbeat_Variant_2_evicts 0 : 7 1 : 189 2 : 0 3 : 0 
Heartbeat_Variant_3_evicts 0 : 0 1 : 0 2 : 0 3 : 0 
Heartbeat CPU 0 instructions: 10000001 cycles: 2797460 heartbeat IPC: 3.57467 cumulative IPC: 3.57467 (Simulation time: 0 hr 1 min 35 sec) 
Heartbeat_Variant_0 : 1406 0.171631 per_variant_size: 0 1406 0 0 0 0 0 0 0 
Heartbeat_Variant_1 : 1490 0.181885 per_variant_size: 0 979 511 0 0 0 0 0 0 
Heartbeat_Variant_2 : 1750 0.213623 per_variant_size: 0 980 469 198 103 0 0 0 0 
Heartbeat_Variant_3 : 0 0 per_variant_size: 0 0 0 0 0 0 0 0 0 
Heartbeat_Variant_0_evicts 0 : 5559 1 : 0 2 : 1 3 : 0 
Heartbeat_Variant_1_evicts 0 : 0 1 : 0 2 : 191 3 : 0 
Heartbeat_Variant_2_evicts 0 : 1 1 : 191 2 : 0 3 : 0 
Heartbeat_Variant_3_evicts 0 : 0 1 : 0 2 : 0 3 : 0 
Heartbeat CPU 0 instructions: 20000003 cycles: 5593350 heartbeat IPC: 3.57668 cumulative IPC: 3.57568 (Simulation time: 0 hr 3 min 12 sec) 
Heartbeat_Variant_0 : 1437 0.175415 per_variant_size: 0 1437 0 0 0 0 0 0 0 
Heartbeat_Variant_1 : 1538 0.187744 per_variant_size: 0 990 548 0 0 0 0 0 0 
Heartbeat_Variant_2 : 1774 0.216553 per_variant_size: 0 978 481 207 108 0 0 0 0 
Heartbeat_Variant_3 : 0 0 per_variant_size: 0 0 0 0 0 0 0 0 0 
Heartbeat_Variant_0_evicts 0 : 5504 1 : 3 2 : 1 3 : 0 
Heartbeat_Variant_1_evicts 0 : 1 1 : 0 2 : 186 3 : 0 
Heartbeat_Variant_2_evicts 0 : 2 1 : 185 2 : 0 3 : 0 
Heartbeat_Variant_3_evicts 0 : 0 1 : 0 2 : 0 3 : 0 
Heartbeat CPU 0 instructions: 30000001 cycles: 8390509 heartbeat IPC: 3.57506 cumulative IPC: 3.57547 (Simulation time: 0 hr 4 min 48 sec) 
Heartbeat_Variant_0 : 1436 0.175293 per_variant_size: 0 1436 0 0 0 0 0 0 0 
Heartbeat_Variant_1 : 1543 0.188354 per_variant_size: 0 994 549 0 0 0 0 0 0 
Heartbeat_Variant_2 : 1775 0.216675 per_variant_size: 0 980 479 208 108 0 0 0 0 
Heartbeat_Variant_3 : 0 0 per_variant_size: 0 0 0 0 0 0 0 0 0 
Heartbeat_Variant_0_evicts 0 : 5503 1 : 0 2 : 2 3 : 0 
Heartbeat_Variant_1_evicts 0 : 1 1 : 0 2 : 189 3 : 0 
Heartbeat_Variant_2_evicts 0 : 2 1 : 189 2 : 0 3 : 0 
Heartbeat_Variant_3_evicts 0 : 0 1 : 0 2 : 0 3 : 0 
Heartbeat CPU 0 instructions: 40000001 cycles: 11187251 heartbeat IPC: 3.57559 cumulative IPC: 3.5755 (Simulation time: 0 hr 6 min 23 sec) 
Heartbeat_Variant_0 : 1436 0.175293 per_variant_size: 0 1436 0 0 0 0 0 0 0 
Heartbeat_Variant_1 : 1543 0.188354 per_variant_size: 0 994 549 0 0 0 0 0 0 
Heartbeat_Variant_2 : 1776 0.216797 per_variant_size: 0 981 479 209 107 0 0 0 0 
Heartbeat_Variant_3 : 0 0 per_variant_size: 0 0 0 0 0 0 0 0 0 
Heartbeat_Variant_0_evicts 0 : 5511 1 : 0 2 : 0 3 : 0 
Heartbeat_Variant_1_evicts 0 : 0 1 : 0 2 : 193 3 : 0 
Heartbeat_Variant_2_evicts 0 : 0 1 : 194 2 : 0 3 : 0 
Heartbeat_Variant_3_evicts 0 : 0 1 : 0 2 : 0 3 : 0 
Heartbeat CPU 0 instructions: 50000000 cycles: 13984921 heartbeat IPC: 3.5744 cumulative IPC: 3.57528 (Simulation time: 0 hr 7 min 52 sec) 

Warmup complete CPU 0 instructions: 50000004 cycles: 13984922 (Simulation time: 0 hr 7 min 52 sec) 

Cycle: 20000000 FTQ IN: 58249583 FTQ occupancy: 19.9501 DECODE IN: 58249583 DECODE occupancy: 52.0679 ROB IN: 58249583 ROB occupancy: 313.609 ROB OUT: 58249497
Heartbeat_Variant_0 : 1447 0.176636 per_variant_size: 0 1447 0 0 0 0 0 0 0 
Heartbeat_Variant_1 : 1567 0.191284 per_variant_size: 0 1006 561 0 0 0 0 0 0 
Heartbeat_Variant_2 : 1789 0.218384 per_variant_size: 0 981 486 216 106 0 0 0 0 
Heartbeat_Variant_3 : 0 0 per_variant_size: 0 0 0 0 0 0 0 0 0 
Heartbeat_Variant_0_evicts 0 : 5567 1 : 2 2 : 1 3 : 0 
Heartbeat_Variant_1_evicts 0 : 2 1 : 0 2 : 190 3 : 0 
Heartbeat_Variant_2_evicts 0 : 1 1 : 190 2 : 0 3 : 0 
Heartbeat_Variant_3_evicts 0 : 0 1 : 0 2 : 0 3 : 0 
Heartbeat CPU 0 instructions: 60000000 cycles: 21283163 heartbeat IPC: 1.37019 cumulative IPC: 1.37019 (Simulation time: 0 hr 9 min 40 sec) 
Heartbeat_Variant_0 : 1448 0.176758 per_variant_size: 0 1448 0 0 0 0 0 0 0 
Heartbeat_Variant_1 : 1567 0.191284 per_variant_size: 0 1006 561 0 0 0 0 0 0 
Heartbeat_Variant_2 : 1790 0.218506 per_variant_size: 0 982 487 214 107 0 0 0 0 
Heartbeat_Variant_3 : 0 0 per_variant_size: 0 0 0 0 0 0 0 0 0 
Heartbeat_Variant_0_evicts 0 : 5544 1 : 0 2 : 1 3 : 0 
Heartbeat_Variant_1_evicts 0 : 0 1 : 0 2 : 192 3 : 0 
Heartbeat_Variant_2_evicts 0 : 1 1 : 192 2 : 0 3 : 0 
Heartbeat_Variant_3_evicts 0 : 0 1 : 0 2 : 0 3 : 0 
Heartbeat CPU 0 instructions: 70000001 cycles: 28581605 heartbeat IPC: 1.37016 cumulative IPC: 1.37017 (Simulation time: 0 hr 11 min 35 sec) 
Cycle: 30000000 FTQ IN: 13719983 FTQ occupancy: 13.1974 DECODE IN: 13719911 DECODE occupancy: 34.185 ROB IN: 13719867 ROB occupancy: 235.863 ROB OUT: 13719605
Heartbeat_Variant_0 : 1448 0.176758 per_variant_size: 0 1448 0 0 0 0 0 0 0 
Heartbeat_Variant_1 : 1569 0.191528 per_variant_size: 0 1008 561 0 0 0 0 0 0 
Heartbeat_Variant_2 : 1790 0.218506 per_variant_size: 0 982 487 214 107 0 0 0 0 
Heartbeat_Variant_3 : 0 0 per_variant_size: 0 0 0 0 0 0 0 0 0 
Heartbeat_Variant_0_evicts 0 : 5697 1 : 0 2 : 0 3 : 0 
Heartbeat_Variant_1_evicts 0 : 0 1 : 0 2 : 197 3 : 0 
Heartbeat_Variant_2_evicts 0 : 0 1 : 197 2 : 0 3 : 0 
Heartbeat_Variant_3_evicts 0 : 0 1 : 0 2 : 0 3 : 0 
Heartbeat CPU 0 instructions: 80000002 cycles: 35778089 heartbeat IPC: 1.38957 cumulative IPC: 1.37658 (Simulation time: 0 hr 13 min 24 sec) 
Cycle: 40000000 FTQ IN: 13902205 FTQ occupancy: 13.2014 DECODE IN: 13902146 DECODE occupancy: 34.4357 ROB IN: 13902130 ROB occupancy: 236.962 ROB OUT: 13902126
Heartbeat_Variant_0 : 1448 0.176758 per_variant_size: 0 1448 0 0 0 0 0 0 0 
Heartbeat_Variant_1 : 1570 0.19165 per_variant_size: 0 1010 560 0 0 0 0 0 0 
Heartbeat_Variant_2 : 1789 0.218384 per_variant_size: 0 981 487 214 107 0 0 0 0 
Heartbeat_Variant_3 : 0 0 per_variant_size: 0 0 0 0 0 0 0 0 0 
Heartbeat_Variant_0_evicts 0 : 5603 1 : 0 2 : 0 3 : 0 
Heartbeat_Variant_1_evicts 0 : 0 1 : 0 2 : 197 3 : 0 
Heartbeat_Variant_2_evicts 0 : 0 1 : 196 2 : 0 3 : 0 
Heartbeat_Variant_3_evicts 0 : 0 1 : 0 2 : 0 3 : 0 
Heartbeat CPU 0 instructions: 90000003 cycles: 43055310 heartbeat IPC: 1.37415 cumulative IPC: 1.37597 (Simulation time: 0 hr 15 min 10 sec) 
Cycle: 50000000 FTQ IN: 13763061 FTQ occupancy: 13.3126 DECODE IN: 13763178 DECODE occupancy: 34.488 ROB IN: 13763228 ROB occupancy: 237.601 ROB OUT: 13763428
Heartbeat_Variant_0 : 1458 0.177979 per_variant_size: 0 1458 0 0 0 0 0 0 0 
Heartbeat_Variant_1 : 1573 0.192017 per_variant_size: 0 1006 567 0 0 0 0 0 0 
Heartbeat_Variant_2 : 1794 0.218994 per_variant_size: 0 984 486 215 109 0 0 0 0 
Heartbeat_Variant_3 : 0 0 per_variant_size: 0 0 0 0 0 0 0 0 0 
Heartbeat_Variant_0_evicts 0 : 5624 1 : 0 2 : 1 3 : 0 
Heartbeat_Variant_1_evicts 0 : 0 1 : 0 2 : 196 3 : 0 
Heartbeat_Variant_2_evicts 0 : 0 1 : 197 2 : 0 3 : 0 
Heartbeat_Variant_3_evicts 0 : 0 1 : 0 2 : 0 3 : 0 
Heartbeat CPU 0 instructions: 100000001 cycles: 50267096 heartbeat IPC: 1.38662 cumulative IPC: 1.37809 (Simulation time: 0 hr 16 min 49 sec) 
Finished CPU 0 instructions: 50000001 cycles: 36282175 cumulative IPC: 1.37809 (Simulation time: 0 hr 16 min 49 sec) 

ChampSim completed all CPUs

Region of Interest Statistics

CPU 0 cumulative IPC: 1.37809 instructions: 50000001 cycles: 36282175
 Fetch stage stalled: 53.6973  Sim cycles: 36282175 fetch stall cycle: 19482564
 Empty decode stage: 34.0286  Sim cycles: 36282175 fetch stall cycle: 12346332
ITLB TOTAL     ACCESS:    5861219  HIT:    5367330  MISS:     493889  HIT %:    91.5736  MISS %:    8.42639   MPKI: 9.87778
ITLB LOAD TRANSLATION INSTRUCTION	ACCESS:    5737744  HIT:    5243855  MISS:     493889  HIT %:    91.3923  MISS %:    8.60772  MPKI: 9.87778
ITLB TRANSLATION FROM L1D PREFETCHER INSTRUCTION	ACCESS:     123475  HIT:     123475  MISS:          0  HIT %:        100  MISS %:          0  MPKI: 0

ITLB AVERAGE MISS LATENCY: 9.07522 cycles
ITLB RQ	ACCESS:    7997724	FORWARD:          0	MERGED:    1693864	TO_CACHE:    6303860

DTLB TOTAL     ACCESS:    8977744  HIT:    8504614  MISS:     473130  HIT %:      94.73  MISS %:    5.27003   MPKI: 9.4626
DTLB LOAD TRANSLATION DATA	ACCESS:    8977744  HIT:    8504614  MISS:     473130  HIT %:      94.73  MISS %:    5.27003  MPKI: 9.4626

DTLB AVERAGE MISS LATENCY: 9.3554 cycles
DTLB RQ	ACCESS:   13368410	FORWARD:          0	MERGED:    4352091	TO_CACHE:    9016319

STLB TOTAL     ACCESS:    1215295  HIT:    1213105  MISS:       2190  HIT %:    99.8198  MISS %:   0.180203   MPKI: 0.0438
STLB LOAD TRANSLATION INSTRUCTION	ACCESS:     493889  HIT:     493617  MISS:        272  HIT %:    99.9449  MISS %:  0.0550731  MPKI: 0.00544
STLB LOAD TRANSLATION DATA	ACCESS:     473129  HIT:     471242  MISS:       1887  HIT %:    99.6012  MISS %:   0.398834  MPKI: 0.03774
STLB TRANSLATION FROM L1D PREFETCHER DATA	ACCESS:     248277  HIT:     248246  MISS:         31  HIT %:    99.9875  MISS %:  0.0124861  MPKI: 0.00062

STLB AVERAGE MISS LATENCY: 78.7447 cycles
STLB RQ	ACCESS:    1334602	FORWARD:          0	MERGED:     119268	TO_CACHE:    1215334

STLB Hit, L1D data hit: 0
STLB Hit, L2C data hit: 0
STLB Hit, LLC data hit: 0
STLB Hit, LLC data miss: 0
STLB STLB hints to L2: 0
L1D TOTAL     ACCESS:   13125782  HIT:   12012420  MISS:    1113362  HIT %:    91.5177  MISS %:    8.48225   MPKI: 22.2672
L1D LOAD DATA	ACCESS:    6583520  HIT:    5849837  MISS:     733683  HIT %:    88.8558  MISS %:    11.1442  MPKI: 14.6737
L1D RFO DATA	ACCESS:    6212043  HIT:    5926320  MISS:     285723  HIT %:    95.4005  MISS %:     4.5995  MPKI: 5.71446
L1D PREFETCH DATA	ACCESS:     330219  HIT:     236263  MISS:      93956  HIT %:    71.5474  MISS %:    28.4526  MPKI: 1.87912

L1D PREFETCH  REQUESTED:     735578  ISSUED:     735578  USEFUL:      32312  USELESS:      68837
L1D USEFUL LOAD PREFETCHES:      32312 PREFETCH ISSUED TO LOWER LEVEL:     101231  ACCURACY: 31.9191
 TIMELY PREFETCHES:      32312 LATE PREFETCHES: 7203 DROPPED PREFETCHES: 10
L1D AVERAGE MISS LATENCY: 211391 cycles
L1D RQ	ACCESS:   10692348	FORWARD:          0	MERGED:    3911769	TO_CACHE:    6617530
L1D WQ	ACCESS:    6947098	FORWARD:     163459	MERGED:     196218	TO_CACHE:    6750880
L1D PQ	ACCESS:     367994	FORWARD:          0	MERGED:          0	TO_CACHE:     367584

L1D UNIQUE REGIONS ACCESSED: 0
L1D REGIONS CONFLICTS: 0
L1D Cross Page Prefetch Requests: 6009
L1D Same Page Prefetch Requests: 743532
L1D ROI Sum of L1D PQ occupancy: 4672250
L1D PREFETCHES PUSHED FROM L2C: 0
L1I TOTAL     ACCESS:    7160929  HIT:    4396730  MISS:    2764199  HIT %:    61.3989  MISS %:    38.6011   MPKI: 55.284
L1I LOAD INSTRUCTION	ACCESS:    6496957  HIT:    3732758  MISS:    2764199  HIT %:    57.4539  MISS %:    42.5461  MPKI: 55.284
L1I PREFETCH INSTRUCTION	ACCESS:     663972  HIT:     663972  MISS:          0  HIT %:        100  MISS %:          0  MPKI: 0

L1I PREFETCH  REQUESTED:    1612838  ISSUED:    1612838  USEFUL:          0  USELESS:          0
L1I USEFUL LOAD PREFETCHES:          0 PREFETCH ISSUED TO LOWER LEVEL:          0  ACCURACY: -nan
 TIMELY PREFETCHES:          0 LATE PREFETCHES: 0 DROPPED PREFETCHES: 0
L1I AVERAGE MISS LATENCY: 17.4734 cycles
L1I RQ	ACCESS:    9505327	FORWARD:          0	MERGED:    2680642	TO_CACHE:    6824685
L1I PQ	ACCESS:    1612838	FORWARD:          0	MERGED:     439799	TO_CACHE:    1173039

L1BTB TOTAL     ACCESS:    5674935  HIT:    2046159  MISS:    3628776  HIT %:    36.0561  MISS %:    63.9439   MPKI: 72.5755
L1BTB BRANCH_DIRECT_JUMP	ACCESS:     549424  HIT:     144999  MISS:     404425	AVERAGE STALL: 50.9491
L1BTB BRANCH_INDIRECT	ACCESS:     183349  HIT:      66300  MISS:     117049	AVERAGE STALL: 103.956
L1BTB BRANCH_CONDITIONAL	ACCESS:    2714180  HIT:    1420561  MISS:    1293619	AVERAGE STALL: 54.156
L1BTB BRANCH_DIRECT_CALL	ACCESS:     942884  HIT:     104286  MISS:     838598	AVERAGE STALL: 63.6357
L1BTB BRANCH_INDIRECT_CALL	ACCESS:     171110  HIT:      20866  MISS:     150244	AVERAGE STALL: 134.579
L1BTB BRANCH_RETURN	ACCESS:    1113988  HIT:     289147  MISS:     824841	AVERAGE STALL: 51.4899
L1BTB BRANCH_OTHER ACCESS:          0  HIT:          0  MISS:          0	AVERAGE STALL: -nan
L1BTB TOTAL ROB OCCUPANCY AT BTB MISS: 2.3706

L2BTB TOTAL     ACCESS:    3603272  HIT:    3540725  MISS:      62547  HIT %:    98.2642  MISS %:    1.73584   MPKI: 1.25094
L2BTB BRANCH_DIRECT_JUMP	ACCESS:     400228  HIT:     396439  MISS:       3789	AVERAGE STALL: 50.9491
L2BTB BRANCH_INDIRECT	ACCESS:     106760  HIT:     104117  MISS:       2643	AVERAGE STALL: 103.956
L2BTB BRANCH_CONDITIONAL	ACCESS:    1293618  HIT:    1290269  MISS:       3349	AVERAGE STALL: 54.156
L2BTB BRANCH_DIRECT_CALL	ACCESS:     838597  HIT:     838179  MISS:        418	AVERAGE STALL: 63.6357
L2BTB BRANCH_INDIRECT_CALL	ACCESS:     140667  HIT:     130668  MISS:       9999	AVERAGE STALL: 134.579
L2BTB BRANCH_RETURN	ACCESS:     823402  HIT:     781053  MISS:      42349	AVERAGE STALL: 51.4899
L2BTB BRANCH_OTHER ACCESS:          0  HIT:          0  MISS:          0	AVERAGE STALL: -nan
L2BTB TOTAL ROB OCCUPANCY AT BTB MISS: 137.535

L2C TOTAL     ACCESS:    4495442  HIT:    3988628  MISS:     506814  HIT %:     88.726  MISS %:     11.274   MPKI: 10.1363
L2C LOAD INSTRUCTION	ACCESS:    2764199  HIT:    2480248  MISS:     283951  HIT %:    89.7275  MISS %:    10.2725  MPKI: 5.67902
L2C LOAD TRANSLATION INSTRUCTION	ACCESS:        306  HIT:         74  MISS:        232  HIT %:     24.183  MISS %:     75.817  MPKI: 0.00464
L2C LOAD DATA	ACCESS:     726461  HIT:     643484  MISS:      82977  HIT %:    88.5779  MISS %:    11.4221  MPKI: 1.65954
L2C RFO DATA	ACCESS:     285625  HIT:     239810  MISS:      45815  HIT %:    83.9597  MISS %:    16.0403  MPKI: 0.9163
L2C PREFETCH DATA	ACCESS:     192823  HIT:     114014  MISS:      78809  HIT %:    59.1288  MISS %:    40.8712  MPKI: 1.57618
L2C WRITEBACK DATA	ACCESS:     523998  HIT:     510513  MISS:      13485  HIT %:    97.4265  MISS %:    2.57348  MPKI: 0.2697
L2C LOAD TRANSLATION DATA	ACCESS:       1979  HIT:        446  MISS:       1533  HIT %:    22.5366  MISS %:    77.4634  MPKI: 0.03066
L2C TRANSLATION FROM L1D PREFETCHER DATA	ACCESS:         51  HIT:         39  MISS:         12  HIT %:    76.4706  MISS %:    23.5294  MPKI: 0.00024

L2C PREFETCH  REQUESTED:      99710  ISSUED:      99710  USEFUL:       9559  USELESS:      69742
L2C USEFUL LOAD PREFETCHES:       9559 PREFETCH ISSUED TO LOWER LEVEL:      79231  ACCURACY: 12.0647
 TIMELY PREFETCHES:       9559 LATE PREFETCHES: 422 DROPPED PREFETCHES: 0
L2C AVERAGE MISS LATENCY: 38.1182 cycles
L2C RQ	ACCESS:    3778666	FORWARD:          0	MERGED:          0	TO_CACHE:    3778621
L2C WQ	ACCESS:     523998	FORWARD:         45	MERGED:          0	TO_CACHE:     523998
L2C PQ	ACCESS:     200941	FORWARD:          0	MERGED:       3636	TO_CACHE:     197305

L2C Dense regions hint from L2: 0
PSCL5 TOTAL     ACCESS:       4406  HIT:       2203  MISS:       2203  HIT %:         50  MISS %:         50   MPKI: 0.04406
PSCL5 LOAD TRANSLATION INSTRUCTION	ACCESS:       4304  HIT:       2152  MISS:       2152  HIT %:         50  MISS %:         50  MPKI: 0.04304
PSCL5 TRANSLATION FROM L1D PREFETCHER INSTRUCTION	ACCESS:        102  HIT:         51  MISS:         51  HIT %:         50  MISS %:         50  MPKI: 0.00102


PSCL4 TOTAL     ACCESS:       4230  HIT:       2109  MISS:       2121  HIT %:    49.8582  MISS %:    50.1418   MPKI: 0.04242
PSCL4 LOAD TRANSLATION INSTRUCTION	ACCESS:       2152  HIT:       2058  MISS:         94  HIT %:     95.632  MISS %:    4.36803  MPKI: 0.00188
PSCL4 TRANSLATION FROM L1D PREFETCHER INSTRUCTION	ACCESS:         51  HIT:         51  MISS:          0  HIT %:        100  MISS %:          0  MPKI: 0
PSCL4 LOAD TRANSLATION DATA	ACCESS:       1976  HIT:          0  MISS:       1976  HIT %:          0  MISS %:        100  MPKI: 0.03952
PSCL4 TRANSLATION FROM L1D PREFETCHER DATA	ACCESS:         51  HIT:          0  MISS:         51  HIT %:          0  MISS %:        100  MPKI: 0.00102


PSCL3 TOTAL     ACCESS:       4298  HIT:       2143  MISS:       2155  HIT %:    49.8604  MISS %:    50.1396   MPKI: 0.0431
PSCL3 LOAD TRANSLATION INSTRUCTION	ACCESS:       2186  HIT:       2092  MISS:         94  HIT %:    95.6999  MISS %:    4.30009  MPKI: 0.00188
PSCL3 TRANSLATION FROM L1D PREFETCHER INSTRUCTION	ACCESS:         51  HIT:         51  MISS:          0  HIT %:        100  MISS %:          0  MPKI: 0
PSCL3 LOAD TRANSLATION DATA	ACCESS:       2010  HIT:          0  MISS:       2010  HIT %:          0  MISS %:        100  MPKI: 0.0402
PSCL3 TRANSLATION FROM L1D PREFETCHER DATA	ACCESS:         51  HIT:          0  MISS:         51  HIT %:          0  MISS %:        100  MPKI: 0.00102


PSCL2 TOTAL     ACCESS:       4296  HIT:       2093  MISS:       2203  HIT %:    48.7197  MISS %:    51.2803   MPKI: 0.04406
PSCL2 LOAD TRANSLATION INSTRUCTION	ACCESS:       2312  HIT:       2042  MISS:        270  HIT %:    88.3218  MISS %:    11.6782  MPKI: 0.0054
PSCL2 TRANSLATION FROM L1D PREFETCHER INSTRUCTION	ACCESS:         51  HIT:         51  MISS:          0  HIT %:        100  MISS %:          0  MPKI: 0
PSCL2 LOAD TRANSLATION DATA	ACCESS:       1882  HIT:          0  MISS:       1882  HIT %:          0  MISS %:        100  MPKI: 0.03764
PSCL2 TRANSLATION FROM L1D PREFETCHER DATA	ACCESS:         51  HIT:          0  MISS:         51  HIT %:          0  MISS %:        100  MPKI: 0.00102


LLC TOTAL     ACCESS:     565988  HIT:     537450  MISS:      28538  HIT %:    94.9578  MISS %:    5.04216   MPKI: 0.57076
LLC LOAD INSTRUCTION	ACCESS:     283951  HIT:     282959  MISS:        992  HIT %:    99.6506  MISS %:   0.349356  MPKI: 0.01984
LLC LOAD TRANSLATION INSTRUCTION	ACCESS:        232  HIT:        192  MISS:         40  HIT %:    82.7586  MISS %:    17.2414  MPKI: 0.0008
LLC LOAD DATA	ACCESS:      82590  HIT:      79138  MISS:       3452  HIT %:    95.8203  MISS %:    4.17968  MPKI: 0.06904
LLC RFO DATA	ACCESS:      45779  HIT:      32200  MISS:      13579  HIT %:    70.3379  MISS %:    29.6621  MPKI: 0.27158
LLC PREFETCH DATA	ACCESS:      79231  HIT:      69176  MISS:      10055  HIT %:    87.3093  MISS %:    12.6907  MPKI: 0.2011
LLC WRITEBACK DATA	ACCESS:      72660  HIT:      72335  MISS:        325  HIT %:    99.5527  MISS %:   0.447289  MPKI: 0.0065
LLC LOAD TRANSLATION DATA	ACCESS:       1533  HIT:       1438  MISS:         95  HIT %:     93.803  MISS %:      6.197  MPKI: 0.0019
LLC TRANSLATION FROM L1D PREFETCHER DATA	ACCESS:         12  HIT:         12  MISS:          0  HIT %:        100  MISS %:          0  MPKI: 0

LLC AVERAGE MISS LATENCY: 156.83 cycles
LLC RQ	ACCESS:     414098	FORWARD:          0	MERGED:          0	TO_CACHE:     414097
LLC WQ	ACCESS:      72660	FORWARD:          1	MERGED:          0	TO_CACHE:      72660
LLC PQ	ACCESS:      79231	FORWARD:          0	MERGED:          0	TO_CACHE:      79231

LLC Dense regions hint to LLC: 0

RAW hits: 1943177
Loads Generated: 12635525
Loads sent to L1D: 10692348
Stores Generated: 6947086
Stores sent to L1D: 6947098
Major fault: 0 Minor fault: 2601
Allocated PAGES: 2601

stream: 
stream:times selected: 1176150
stream:pref_filled: 122229
stream:pref_useful: 24080
stream:pref_late: 6646
stream:misses: 6876
stream:misses_by_poll: 0

CS: 
CS:times selected: 175094
CS:pref_filled: 59775
CS:pref_useful: 36880
CS:pref_late: 6019
CS:misses: 14968
CS:misses_by_poll: 3

CPLX: 
CPLX:times selected: 999813
CPLX:pref_filled: 20133
CPLX:pref_useful: 4827
CPLX:pref_late: 2856
CPLX:misses: 90208
CPLX:misses_by_poll: 2

NL_L1: 
NL:times selected: 19890
NL:pref_filled: 736
NL:pref_useful: 330
NL:pref_late: 197
NL:misses: 1055
NL:misses_by_poll: 0

total selections: 2370947
total_filled: 93956
total_useful: 32312
total_late: 16921
total_polluted: 5
total_misses_after_warmup: 767699
conflicts: 5542656

test: 114918

DRAM Statistics
 CHANNEL 0
 RQ ROW_BUFFER_HIT:      10454  ROW_BUFFER_MISS:      17755
 DBUS_CONGESTED:         14
 WQ ROW_BUFFER_HIT:       1394  ROW_BUFFER_MISS:      12327  FULL:          0

 AVG_CONGESTED_CYCLE: 5

CPU 0 Branch Prediction Accuracy: 99.8092% MPKI: 0.34894 Average ROB Occupancy at Mispredict: 186.455
Branch types
NOT_BRANCH: 40857279 81.7146%
BRANCH_DIRECT_JUMP: 549424 1.09885%
BRANCH_INDIRECT: 183349 0.366698%
BRANCH_CONDITIONAL: 6181908 12.3638%
BRANCH_DIRECT_CALL: 942884 1.88577%
BRANCH_INDIRECT_CALL: 171110 0.34222%
BRANCH_RETURN: 1113988 2.22798%
BRANCH_OTHER: 0 0%

DRAM PAGES: 1048576
Allocated PAGES: 2601
Average_ROB_Occupancy: 237.172
Average_Decode_Occupancy: 34.1974
Average_FTQ_Occupancy: 13.1695
Indirect max targets: 14 Average targets: 1.1505
Branch_type:  BRANCH_DIRECT_JUMP:  Count Percentage: 3.24829 5.53099 5.12363 9.12238 1.74016 5.96783 0.891939 68.3748 
Branch_type:  BRANCH_INDIRECT:  Count Percentage: 11.7458 3.46491 2.55452 0 2.5452 9.67468 19.2228 50.7921 
Branch_type:  BRANCH_CONDITIONAL:  Count Percentage: 21.4516 2.58987 1.84245 8.41923 1.23162 5.06895 1.95747 57.4388 
Branch_type:  BRANCH_DIRECT_CALL:  Count Percentage: 0.257349 1.79076 1.44555 4.83602 2.15601 2.75191 0.751905 86.0105 
Branch_type:  BRANCH_INDIRECT_CALL:  Count Percentage: 9.53326 0.571582 2.98674 4.83994 0.000291475 2.01875 1.28307 78.7664 
Branch_type:  BRANCH_RETURN:  Count Percentage: 3.18859 1.30476 1.27108 9.31576 2.84213 6.55351 3.12936 72.3948 
Branch_type:  BRANCH_DIRECT_JUMP:  Total Count: 35588 60597 56134 99944 19065 65383 9772 749108 
Branch_type:  BRANCH_INDIRECT:  Total Count: 42886 12651 9327 0 9293 35324 70186 185451 
Branch_type:  BRANCH_CONDITIONAL:  Total Count: 2648867 319799 227508 1039615 152082 625919 241710 7092595 
Branch_type:  BRANCH_DIRECT_CALL:  Total Count: 4868 33874 27344 91478 40783 52055 14223 1626970 
Branch_type:  BRANCH_INDIRECT_CALL:  Total Count: 32707 1961 10247 16605 1 6926 4402 270234 
Branch_type:  BRANCH_RETURN:  Total Count: 71281 29168 28415 208254 63536 146504 69957 1618388 
Number of unique branch instructions: 10308
Upper 32 bits: 
aaaa
ffff
ffff0000
Unique upper 32 bits: 3
Unique upper 36 bits: 3
Unique upper 40 bits: 5
Unique upper 44 bits: 32
Unique upper 48 bits: 154
Variant_0 : 1458 0.177979
Variant_1 : 1573 0.192017
Variant_2 : 1794 0.218994
Variant_3 : 0 0
Offset_3 4268
Offset_4 260
Offset_5 469
Offset_6 531
Offset_7 612
Offset_8 540
Offset_9 491
Offset_10 399
Offset_11 338
Offset_12 297
Offset_13 225
Offset_14 232
Offset_15 201
Offset_16 230
Offset_17 162
Offset_18 128
Offset_19 252
Offset_20 144
Offset_21 236
Offset_22 404
Offset_23 245
Offset_24 346
Offset_25 88
Offset_47 84
Offset_64 21
decode_dispatch_called: 25423993 70.073
Dispatch_width: 0 13620580 53.5737 37.5407
Dispatch_width: 1 950846 3.73996 2.6207
Dispatch_width: 2 825231 3.24587 2.27448
Dispatch_width: 3 474984 1.86825 1.30914
Dispatch_width: 4 5598985 22.0224 15.4318
Dispatch_width: 5 142401 0.560105 0.392482
Dispatch_width: 6 3810966 14.9896 10.5037
Empty_decode_cycles: 10858182 29.927
ROB_full_cycles: 8862963 24.4279
Starvation_cycles_per_kilo_instr: 236.082
Starvation_cycles_per_kilo_instr_3: 178.669
Starvation_cycles_per_kilo_instr_0: 156.158
Branch_type_1  (3,1)  (4,9)  (5,37)  (6,73)  (7,118)  (8,138)  (9,129)  (10,102)  (11,76)  (12,51)  (13,8)  (14,2)  (15,3)  (16,4)  (18,1)  (19,4)  (20,2)  (21,1)  (22,3)  (23,2)  (24,10)  (25,12)  (64,3) 
Branch_type_2  (3,1)  (5,1)  (8,3)  (9,3)  (12,1)  (13,1)  (14,1)  (16,3)  (17,2)  (20,2)  (21,2)  (23,5)  (24,1)  (47,39) 
Branch_type_3  (3,4266)  (4,251)  (5,427)  (6,441)  (7,460)  (8,333)  (9,270)  (10,164)  (11,140)  (12,58)  (13,7)  (24,3)  (64,11) 
Branch_type_4  (6,4)  (7,8)  (8,30)  (9,54)  (10,63)  (11,63)  (12,105)  (13,96)  (14,102)  (15,96)  (16,104)  (17,73)  (18,58)  (19,124)  (20,74)  (21,124)  (22,215)  (23,138)  (24,202)  (25,72)  (64,4) 
Branch_type_5  (8,2)  (9,1)  (10,3)  (11,5)  (12,3)  (13,14)  (14,16)  (15,11)  (16,20)  (17,13)  (18,16)  (19,12)  (20,11)  (21,13)  (22,42)  (23,26)  (24,37) 
Branch_type_6  (5,4)  (6,13)  (7,26)  (8,34)  (9,34)  (10,67)  (11,54)  (12,79)  (13,99)  (14,111)  (15,91)  (16,99)  (17,74)  (18,53)  (19,112)  (20,55)  (21,96)  (22,144)  (23,74)  (24,93)  (25,4)  (47,45)  (64,3) 
Unique trigger count: 
Variant_0_evicts_0 : 0
Variant_0_evicts_1 : 0
Variant_0_evicts_2 : 0
Variant_0_evicts_3 : 0
Variant_1_evicts_0 : 0
Variant_1_evicts_1 : 0
Variant_1_evicts_2 : 0
Variant_1_evicts_3 : 0
Variant_2_evicts_0 : 0
Variant_2_evicts_1 : 0
Variant_2_evicts_2 : 0
Variant_2_evicts_3 : 0
Variant_3_evicts_0 : 0
Variant_3_evicts_1 : 0
Variant_3_evicts_2 : 0
Variant_3_evicts_3 : 0
BTB PER SET UNIQUE ADDR: 2 4 3 6 3 3 4 3 2 3 3 3 1 6 2 5 1 3 4 2 2 4 4 3 2 4 3 3 3 4 3 3 2 3 3 4 3 2 2 3 4 4 4 1 2 3 3 3 2 2 3 3 2 3 3 4 3 2 2 2 3 3 2 3 6 2 3 4 4 3 2 3 5 3 2 5 4 3 6 4 6 5 4 6 5 3 2 4 3 3 2 5 3 4 3 1 4 2 2 4 3 4 4 4 2 5 2 2 3 6 6 3 1 3 0 2 4 5 4 5 3 3 3 4 7 3 2 4 2 1 7 2 5 2 5 3 4 1 3 3 2 3 2 4 4 6 5 2 5 5 3 1 4 6 4 3 3 2 4 4 1 4 4 2 4 1 1 5 4 6 5 4 4 2 3 4 2 6 2 2 3 2 4 5 2 5 2 5 4 3 3 1 3 5 1 3 5 4 4 3 4 2 3 3 1 3 2 2 5 3 3 4 5 2 3 3 3 3 2 6 3 5 3 2 5 2 3 5 4 5 1 3 6 4 3 3 3 5 3 4 4 6 3 4 4 2 2 2 6 4 2 2 3 3 3 4 2 3 3 2 6 2 6 3 4 3 5 2 4 7 1 7 3 3 3 3 5 1 2 5 4 4 1 6 2 1 3 2 4 3 4 4 3 3 3 4 2 2 2 2 5 2 2 4 3 3 2 6 7 3 2 2 5 3 3 4 2 2 3 4 7 4 2 2 6 5 2 4 1 6 3 6 2 3 5 4 2 4 3 3 4 5 3 2 2 3 4 2 1 3 2 5 3 1 4 6 3 3 2 3 4 4 3 4 2 4 2 4 2 3 5 5 1 2 2 3 2 3 1 2 2 4 3 3 4 4 1 5 3 5 3 2 2 4 2 4 5 3 2 2 5 5 3 1 2 3 2 2 8 2 3 4 1 5 6 3 2 4 4 3 2 2 2 6 3 2 3 3 1 4 4 2 7 3 3 0 3 2 3 3 3 2 2 2 3 0 2 4 6 6 3 2 2 2 5 2 4 2 4 2 3 5 4 4 1 3 4 1 4 3 5 4 5 4 6 6 1 2 3 4 2 2 5 3 2 2 4 2 5 5 2 3 4 2 5 5 3 3 2 3 4 3 5 1 5 3 4 1 2 2 2 2 4 3 2 5 6 3 3 3 3 3 5 3 4 3 1 5 2 2 7 3 6 3 3 4 2 2 3 3 5 3 5 6 3 4 4 4 3 3 5 4 3 5 4 4 4 1 4 1 2 3 3 5 3 2 4 3 3 2 1 1 1 1 2 3 4 2 3 2 1 4 2 3 2 1 3 2 4 2 3 3 3 3 2 3 5 5 4 3 6 3 2 1 3 3 3 2 3 3 2 4 4 3 1 4 3 4 4 3 4 1 5 1 2 3 2 3 3 3 2 2 4 4 2 4 5 4 3 6 5 4 2 2 5 3 5 3 2 2 2 2 3 2 3 3 3 1 3 2 1 3 2 6 2 1 5 3 4 4 5 2 3 4 3 2 3 3 3 3 3 6 2 3 4 4 3 5 6 2 4 1 4 2 3 3 3 2 2 6 4 2 2 2 3 3 3 3 4 4 4 2 1 3 5 3 4 3 2 2 4 4 2 4 4 2 4 4 2 6 4 3 4 3 4 2 5 4 3 3 5 7 3 3 5 1 6 2 2 3 6 4 3 3 3 4 3 1 2 2 5 3 4 4 4 3 4 5 3 6 3 2 0 3 3 3 4 3 1 3 2 4 3 2 1 4 2 2 6 2 4 4 2 6 4 3 8 1 2 2 4 4 3 3 6 3 4 3 4 3 5 1 0 2 4 4 3 3 2 2 3 2 4 2 4 2 3 2 3 3 2 5 3 4 4 3 5 4 3 2 0 5 3 3 3 4 5 3 2 3 6 4 2 4 3 4 4 5 3 4 3 4 3 3 3 3 6 2 3 2 6 1 3 3 2 3 2 4 2 3 3 5 3 2 3 4 3 2 6 1 7 2 3 2 4 4 1 4 3 2 3 2 3 3 3 2 4 4 5 5 6 3 2 4 2 3 3 3 4 2 3 4 3 4 3 1 6 5 2 1 5 8 4 2 2 4 5 3 2 2 3 5 4 5 4 2 3 1 5 4 5 5 4 2 7 3 5 5 3 2 2 2 4 5 4 2 7 2 1 3 4 1 3 7 2 5 3 2 4 2 3 2 3 5 5 2 3 2 3 3 4 2 2 4 4 2 2 4 1 3 4 4 3 3 5 3 4 4 2 5 3 5 3 4 3 2 2 3 3 4 2 3 5 6 6 2 3 5 4 3 1 4 5 3 4 2 5 5 3 3 5 5 4 5 3 3 4 5 2 4 2 4 4 3 2 5 6 3 2 3 4 6 3 3 1 4 5 3 5 3 2 5 4 5 3 6 2 2 3 4 5 2 3 4 3 3 2 2 2 4 2 6 4 5 4 5 4 3 4 3 4 4 4 10 4 3 2 5 2 2 2 5 2 1 4 3 2 5 5 5 4 4 3 4 3 4 3 5 2 1 6 3 5 2 2 2 3 2 4 3 4 6 2 2 4 5 2 4 3 1 3 5 2 3 2 2 4 4 2 2 4 1 5 3 3 3 2 4 5 4 6 5 3 4 2 5 2 4 2 4 1 2 6 3 1 2 5 2 2 6 3 3 2 0 2 3 3 5 4 3 3 2 1 2 8 2 4 3 4 2 4 3 2 4 1 5 3 2 4 2 4 1 3 5 4 4 2 2 3 3 5 2 4 3 3 3 2 2 3 2 3 3 6 3 3 2 5 3 1 5 3 4 4 3 2 3 1 2 3 4 3 2 4 3 2 3 3 3 2 5 3 2 4 2 3 2 2 2 3 3 5 3 6 3 3 3 4 5 4 5 7 2 1 5 3 4 4 5 3 4 2 5 3 7 4 2 2 3 3 4 5 6 5 3 3 2 5 5 2 4 3 6 3 1 4 2 2 4 7 3 2 4 5 2 5 2 3 3 5 4 5 3 2 3 5 6 2 3 6 4 3 2 3 5 4 2 2 3 2 3 4 4 2 5 4 3 3 3 3 4 4 3 1 5 3 6 2 4 3 3 2 2 3 2 4 3 5 6 2 2 2 3 1 4 2 4 3 3 4 4 3 3 5 3 1 2 3 4 3 5 3 2 3 3 6 2 1 1 1 2 5 3 7 6 6 2 3 5 3 5 3 1 4 3 2 3 4 5 5 4 4 3 2 2 3 5 4 3 3 4 3 3 2 2 3 4 1 5 4 5 4 2 4 3 3 5 3 3 3 3 2 2 5 4 3 2 5 3 7 8 4 4 2 4 4 3 5 3 6 2 3 2 2 6 3 5 1 3 2 1 4 3 3 7 4 2 2 2 5 3 2 5 3 3 3 2 4 4 4 8 4 1 3 5 2 2 5 2 4 3 2 5 3 2 3 4 4 2 1 4 6 2 4 3 4 7 2 2 3 2 2 5 2 3 4 3 2 3 5 1 3 4 2 5 1 3 5 5 3 5 4 3 5 1 2 4 4 2 4 3 2 4 3 3 4 2 2 3 3 4 3 3 3 4 3 2 2 2 3 5 4 3 2 2 4 3 5 4 2 2 3 4 5 2 4 4 5 4 2 3 2 3 1 5 4 3 4 2 2 3 2 4 4 4 2 3 4 4 5 7 3 5 4 1 3 7 2 2 5 3 5 3 3 1 6 2 3 4 5 3 3 3 1 4 5 3 2 3 3 1 4 3 3 2 3 4 3 2 4 5 3 3 6 3 1 1 4 4 6 3 3 4 1 3 2 3 2 3 4 3 2 4 3 1 3 3 3 1 4 3 1 1 4 5 1 3 4 2 3 2 2 3 2 4 3 3 2 1 3 1 2 4 2 4 4 2 3 5 4 2 6 3 2 5 3 3 3 5 3 3 4 4 4 4 4 2 1 2 3 3 2 4 4 5 2 2 3 3 2 1 3 4 6 7 3 5 3 6 4 6 2 6 3 6 6 3 3 3 2 2 3 2 3 1 2 4 3 3 6 7 2 3 2 5 1 3 4 1 5 1 4 2 6 2 5 1 3 3 1 3 3 3 3 3 5 4 3 2 4 1 3 4 2 2 2 4 3 1 3 2 3 3 3 2 4 3 2 4 3 2 2 3 3 5 8 3 3 3 6 5 2 4 5 4 3 2 2 3 3 2 1 2 2 3 3 4 3 4 3 2 2 5 3 2 4 4 3 3 2 1 3 2 2 3 5 5 1 3 2 5 4 1 1 2 1 2 3 0 4 6 3 4 3 3 2 3 5 3 3 2 5 4 4 2 2 3 2 1 5 3 1 2 2 7 4 4 3 3 3 5 3 2 2 2 3 5 3 0 3 1 3 6 6 4 4 6 3 3 2 4 3 8 3 6 3 3 4 3 4 3 4 4 6 2 4 3 5 3 3 6 3 6 2 4 4 4 4 5 1 3 4 3 2 2 4 4 4 2 2 4 1 3 3 5 4 3 1 1 3 4 1 1 3 6 2 2 5 3 4 2 6 3 3 4 3 4 3 3 5 5 2 4 4 2 4 3 4 3 4 4 3 3 1 1 3 3 5 4 
BTB PER SET COUNT: 2 1594 1467 980 5 3 5 3 2 3 77 3 1 6 2 5 1 3 4 2 3 4 4 4 498 146 3 4 5 6 3 3 2 6 3 4 3 2 2 6 4 977 121 1 1466 3 499 3 2 2 3 3 498 3 3 4 3 984 2 2 970 4 2 9 6 2 5 6 6 3 6 3 6 3 2 259 5 3 985 605 135 6 4 6 6 3 2 4 3 982 2 5 3 4 67 1 4 2 2 4 3 5 4 4 2 18 2 2 3 10 7 4 1 3 0 2 4 8 4 1469 3 3 1507 6 9 3 2 4 2 1 8 2 5 2 5 3 4 1 3 982 2 908 2 4 5 7 10 2 9 21 3 1 9 95 4 4 3 983 4 4 1 24 4 2 5 1 1 25 8 10 6 6 6 3 3 4 2 20 2 2 4 2 4 5 2 17 2 6 5 3 3 1 3 5 1 459 5 909 4 5 4 2 6 3 1 3 2 2 44 3 3 4 986 537 5 3 3 497 2 7 3 8 4 4 1441 2 3 7 5 7 250 3 6 4 4 14 3 5 3 4 5 160 3 6 21 2 7811 2 7 4 2 2 4 8 3 20 2 3 4 2 6 2 6 3 27 3 6 2 4 7 1 9 8 3 3 3 10 1 2 5 8 6 1 6 2 1 3 2 4 3 5 6 3 4 6 4 3 3 2 3 8 3 2 7 4 3 2 6 10 4 983 4 5 3 3 5 2 2 3 4 7 4 2 2 1843 5 18 10 1 6 7 7 2 3 6 4 2 28 3 3 4 6 4 3 3 24 4 2 1 8 2 25 5 1 6 8 4 3 2 12 4 7 3 6 3 7 2 4 2 4 5 15 1 2 2 3 2 3 1 3 4 469 3 3 4 4 1 5 7 5 3 5 2 4 2 5 5 3 2 4 6 408 3 1 2 3 2 2 8 2 3 4 1 10 6 3 2 5 6 4 2 2 3 630 3 312 3 4 621 4 4 2 9 3 5 0 4 6 3 3 3 2 2 2 406 0 2 4 7 6 4 286 2 2 544 2 4 2 4 27 3 8 5 4 6 3 4 2925 4 3 6 4 7 4 979 16 1 3 3 134 2 2 6 7 45 2 5 2 1468 11 969 3 421 2 6 6 3 27 2 3 6 3 6 1 5 3 4 1 4 2 2 2 5 1925 2 5 6 625 3 5 3 4 6 3 4 3 1 99 2 2 2429 4 31 4 20 4 2 3 4 3 57 3 7 6 6 1598 4 4 3 6 5 4 982 5 5 4 5 1 4 2 983 5 3 6 3 25 909 4 3 3 1 1 1 2 3 3 4 2 3 3 3 9 2 3 2 1 4 2 4 2 5 5 3 5 2 1466 1469 6 5 3 8 3 2 1 4 3 3 2 3 3 2 4 5 3 1 4 3 4 4 3 23 1 6 2 2 6 2 3 3 3 2 2 5 5 2 5 6 4 3 7 5 4 2 5 7 4 5 4 2 923 2 4 4 5 3 3 3 2 3 3 1 1467 2 9 2 1 5 3 4 4 5 2 3 5 3 2 133 3 3 3 3 410 2 3 4 4 3 5 7 2 4 1 4 3 3 3 3 2 4 6 5 2 2 6 4 5 3 3 4 5 4 5 1 3 5 495 914 3 2 2 5 4 2 4 5 2 4 5 2 19 4 4 4 3 6 2 5 8 3 1466 5 7 3 4 5 1 6 2 2 3 974 4 3 3 907 5 3 1 2 3 7 3 4 31 4 3 4 2951 3 13 9 2 0 4 3 3 5 3 1 3 2 4 4 2 1 4 2 2 264 2 13 4 2 6 5 3 22 1 2 2 5 4 4 3 6 3 12 4 4 5 6 4 0 3 4 8 3 3 2 2 9 2 4 4 4 2 3 2 3 505 2 9 4 4 5 3 6 4 3 2 0 972 3 4 4 4 978 3 2 3 34 4 2 6 5 4 4 9 6 5 4 4 4 3 494 3 10 2 3 2 6 1 3 6 2 5 2 4 2 3 4 6 3 4 3 4 4 2 6 1 1470 2 3 2 6 7 1 8 3 2 3 2 3 3 3 2 4 6 50 1732 9 22 2 4 2 3 3 3 6 2 498 972 4 68 3 1 1475 6 2 1 196 8 4 3 3 4 5 976 2 2 4 1468 5 7 4 2 3 1 5 4 5 5 6 3 1112 4 7 6 1964 2 2 2 4 6 4 4 502 2 2 3 4 1 4 16 5 5 3 2 76 3 3 2 3 5 6 2 3 1016 4 3 6 2 3 4 7 4 2 1468 1 3 4 4 3 3 5 4 5 5 2 499 3 9 25 5 3 2 2 3 8 4 2 3 6 7 6 2 3 476 4 3 1 4 5 3 5 4 5 5 3 7 5 5 985 6 3 3 4 5 2 4 2 4 4 3 2 5 8 3 2 52 7 6 3 4 1 9 5 3 7 3 2 29 4 5 5 8 7 2 3 10 5 2 3 971 3 4 2 2 2 8 2 8 9 7 4 8 12 3 100 3 5 7 11 2437 540 5 4 7 2 4 2 5 2 1 4 3 2 54 6 7 7 4 3 5 4 4 4 9 2 1 9 3 6 2 2 2 4 3 4 5 6 11 2 2 4 25 2 983 3 1 3 6 2 3 2 2 4 4 2 2 4 1 9 3 10 3 2 4 5 4 6 5 4 4 2 5 4 22 5 5 1 2 6 4 3 2 979 2 2 6 3 5 2 0 1966 3 3 6 120 3 3 2 2 6 10 2 4 3 4 2 1468 3 2 4 1 11 3 2 6 2 402 1 3 5 4 4 2 2 3 4 9 2 4 3 5 3 2 2 3 2 4 3 6 6 6 2 5 3 1 7 3 501 4 604 2 3 1 2 3 4 3 2 4 3 2 3 3 3 66 268 3 2 4 2 3 2 3 2 3 4 5 3 6 3 4 3 4 7 1467 5 13 2 1 5 3 6 4 5 3 6 4 6 3 7 4 3 2 6 3 5 7 6 5 3 3 2 9 5 3 4 3 8 3 1 4 2 2 1598 9 3 2 604 6 2 6 2 5 5 5 58 6 4 2 3 5 10 2 3 46 6 3 2 3 5 4 2 2 3 2 3 7 5 2 5 5 3 3 3 3 4 4 3 1 7 3 6 2 6 3 623 2 2 3 2 4 3 5 11 2 2 2 4 1 4 2 4 3 4 11 4 3 3 6 3 1 2 3 4 9 55 3 8 4 4 121 2 1 1 1 3 6 3 9 9 9 2 11 5 3 2218 3 1 4 2906 2 3 4 7 7 4 4 70 3 3 3 5 7 3 4 4 3 3 2 2 3 4 1 7 4 5 4 2 7 3 3 2504 3 3 4 3 5 2 5 4 3 2 5 5 14 1008 4 4 2 6 6 5 1212 3 8 2 3 2 2 7 3 6 1 52 2 1 249 4 16 7 4 2 2 2 6 3 2 5 3 112 3 2 6 4 5 1035 4 1 3 1599 2 2 5 2 971 4 2 5 5 2 3 4 5 2 1 4 8 2 7 4 4 8 2 2 4 2 2 5 2 3 4 3 2 3 5 1 3 4 3 540 1 3 3939 5 3 5 4 3 6 1 2 4 4 2 4 4 2 4 3 3 5 2 2 3 3 4 3 3 3 4 3 3 2 2 3 6 4 3 2 2 4 3 5 6 2 2 3 4 6 2 6 4 5 4 2 3 2 3 1 7 4 4 5 2 3 3 2 7 4 4 2 3 4 4 5 7 3 5 4 1 3 2903 2 2 28 5 5 432 3 2 11 2 5 6 6 5 3 5 1 4 6 3 2 3 4 1 5 3 3 2 3 4 5 2 4 5 3 3 11 3 1 1 4 4 6 3 4 4 1 6 2 5 2 3 6 3 2 4 3 1 3 4 238 1 24 3 1 1 8 5 1 5 4 2 4 3 970 4 2 5 3 5 3 1 3 1 3 4 2 4 4 2 3 6 4 2 13 7 2 6 3 3 3 31 7 4 4 8 4 4 540 2 1 2 3 4 2 973 4 503 2 2 3 3 3 1 9 4 8 9 3 5 3 11 4 501 2 8 3 9 1470 3 3 4 2 2 3 2 5 1 5 4 3 3 14 7 6 3 3 6 2 4 26 1 6 30 5 2 54 2 8 1 4 5 2 3 3 4 3 3 35 4 5 2 11 1 3 4 2 2 3 4 3 1 3 2 3 3 3 2 4 3 2 4 3 6 2 3 3 6 16 3 3 5 76 5 2 5 6 6 3 2 2 3 20505 4 1 2 2 3 3 5 3 5 5 2 3 5 3 2 107 6 3 3 2 1 3 2 2 984 16 94 1 3 2 5 14643 1 1 21 1 4 3 0 4 6 3 6 1467 3 2 3 7 3 4 4 6 5 4 2 2 5 2 1 5 4 2 2 2 546 4 4 3 3 5 5 3 2 2 3 3 5 3 0 3 1 3 6 9 25 5 8 4 3 2 5 3 542 3 6 3 3 9 982 4 982 14 521 9 2 31 3 5 131 492 7 3 6 2 6 5 4 22 5 1 3 121 3 2 2 4 665 4 622 2 8 1 3 4 5 4 3 1504 1 3 4 1 1 3 2868 2 4 5 3 4 1464 13 11 5 4 4 4 7 3 1508 5 3 4 9 2 4 3 154 3 5 4 4 3 1 2 3 3 16 736 
To predecode: 0
Predecoding something: 0
Predecode request dropped: 0
sizeofblock_0 0
sizeofblock_1 45466
sizeofblock_2 39693
sizeofblock_3 33129
sizeofblock_4 16716
sizeofblock_5 0
sizeofblock_6 0
sizeofblock_7 0
sizeofblock_8 0
