
*** ChampSim Multicore Out-of-Order Simulator ***

Warmup Instructions: 50000000
Simulation Instructions: 50000000
Number of CPUs: 1
LLC sets: 2048
LLC ways: 16
Off-chip DRAM Size: 4096 MB Channels: 1 Width: 64-bit Data Rate: 6400 MT/s
CPU 0 runs ./micro_traces/srv178.trace.gz
.gz
ITLB has LRU replacement policy
DTLB has LRU replacement policy
STLB has LRU replacement policy
FDIP Prefetcher at L1I
L1I has LRU replacement policy
L1D has LRU replacement policy
Initialize SRRIP state for L2C
Initialize DRRIP state for LLC
Heartbeat_Variant_0 : 1379 0.168335 per_variant_size: 0 1379 0 0 0 0 0 0 0 
Heartbeat_Variant_1 : 1484 0.181152 per_variant_size: 0 963 521 0 0 0 0 0 0 
Heartbeat_Variant_2 : 1537 0.187622 per_variant_size: 0 793 486 219 39 0 0 0 0 
Heartbeat_Variant_3 : 0 0 per_variant_size: 0 0 0 0 0 0 0 0 0 
Heartbeat_Variant_0_evicts 0 : 7283 1 : 573 2 : 1665 3 : 0 
Heartbeat_Variant_1_evicts 0 : 769 1 : 0 2 : 538 3 : 0 
Heartbeat_Variant_2_evicts 0 : 1348 1 : 573 2 : 0 3 : 0 
Heartbeat_Variant_3_evicts 0 : 0 1 : 0 2 : 0 3 : 0 
Heartbeat CPU 0 instructions: 10000003 cycles: 2797715 heartbeat IPC: 3.57435 cumulative IPC: 3.57435 (Simulation time: 0 hr 1 min 26 sec) 
Heartbeat_Variant_0 : 1403 0.171265 per_variant_size: 0 1403 0 0 0 0 0 0 0 
Heartbeat_Variant_1 : 1529 0.186646 per_variant_size: 0 980 549 0 0 0 0 0 0 
Heartbeat_Variant_2 : 1550 0.189209 per_variant_size: 0 771 498 237 44 0 0 0 0 
Heartbeat_Variant_3 : 0 0 per_variant_size: 0 0 0 0 0 0 0 0 0 
Heartbeat_Variant_0_evicts 0 : 7283 1 : 562 2 : 1517 3 : 0 
Heartbeat_Variant_1_evicts 0 : 770 1 : 0 2 : 370 3 : 0 
Heartbeat_Variant_2_evicts 0 : 1307 1 : 565 2 : 0 3 : 0 
Heartbeat_Variant_3_evicts 0 : 0 1 : 0 2 : 0 3 : 0 
Heartbeat CPU 0 instructions: 20000001 cycles: 5593451 heartbeat IPC: 3.57687 cumulative IPC: 3.57561 (Simulation time: 0 hr 3 min 2 sec) 
Heartbeat_Variant_0 : 1405 0.171509 per_variant_size: 0 1405 0 0 0 0 0 0 0 
Heartbeat_Variant_1 : 1528 0.186523 per_variant_size: 0 979 549 0 0 0 0 0 0 
Heartbeat_Variant_2 : 1551 0.189331 per_variant_size: 0 772 496 240 43 0 0 0 0 
Heartbeat_Variant_3 : 0 0 per_variant_size: 0 0 0 0 0 0 0 0 0 
Heartbeat_Variant_0_evicts 0 : 7313 1 : 561 2 : 1538 3 : 0 
Heartbeat_Variant_1_evicts 0 : 768 1 : 0 2 : 358 3 : 0 
Heartbeat_Variant_2_evicts 0 : 1329 1 : 566 2 : 0 3 : 0 
Heartbeat_Variant_3_evicts 0 : 0 1 : 0 2 : 0 3 : 0 
Heartbeat CPU 0 instructions: 30000000 cycles: 8389892 heartbeat IPC: 3.57597 cumulative IPC: 3.57573 (Simulation time: 0 hr 4 min 36 sec) 
Heartbeat_Variant_0 : 1397 0.170532 per_variant_size: 0 1397 0 0 0 0 0 0 0 
Heartbeat_Variant_1 : 1530 0.186768 per_variant_size: 0 978 552 0 0 0 0 0 0 
Heartbeat_Variant_2 : 1558 0.190186 per_variant_size: 0 772 504 239 43 0 0 0 0 
Heartbeat_Variant_3 : 0 0 per_variant_size: 0 0 0 0 0 0 0 0 0 
Heartbeat_Variant_0_evicts 0 : 7256 1 : 549 2 : 1502 3 : 0 
Heartbeat_Variant_1_evicts 0 : 758 1 : 0 2 : 356 3 : 0 
Heartbeat_Variant_2_evicts 0 : 1301 1 : 563 2 : 0 3 : 0 
Heartbeat_Variant_3_evicts 0 : 0 1 : 0 2 : 0 3 : 0 
Heartbeat CPU 0 instructions: 40000003 cycles: 11187724 heartbeat IPC: 3.5742 cumulative IPC: 3.57535 (Simulation time: 0 hr 6 min 14 sec) 
Heartbeat_Variant_0 : 1400 0.170898 per_variant_size: 0 1400 0 0 0 0 0 0 0 
Heartbeat_Variant_1 : 1529 0.186646 per_variant_size: 0 978 551 0 0 0 0 0 0 
Heartbeat_Variant_2 : 1558 0.190186 per_variant_size: 0 777 498 239 44 0 0 0 0 
Heartbeat_Variant_3 : 0 0 per_variant_size: 0 0 0 0 0 0 0 0 0 
Heartbeat_Variant_0_evicts 0 : 7520 1 : 583 2 : 1606 3 : 0 
Heartbeat_Variant_1_evicts 0 : 790 1 : 0 2 : 368 3 : 0 
Heartbeat_Variant_2_evicts 0 : 1396 1 : 578 2 : 0 3 : 0 
Heartbeat_Variant_3_evicts 0 : 0 1 : 0 2 : 0 3 : 0 
Heartbeat CPU 0 instructions: 50000000 cycles: 13984232 heartbeat IPC: 3.57589 cumulative IPC: 3.57546 (Simulation time: 0 hr 7 min 43 sec) 

Warmup complete CPU 0 instructions: 50000004 cycles: 13984233 (Simulation time: 0 hr 7 min 43 sec) 

Cycle: 20000000 FTQ IN: 57867240 FTQ occupancy: 19.1727 DECODE IN: 57867240 DECODE occupancy: 49.6135 ROB IN: 57867240 ROB occupancy: 302.633 ROB OUT: 57867231
Heartbeat_Variant_0 : 1458 0.177979 per_variant_size: 0 1458 0 0 0 0 0 0 0 
Heartbeat_Variant_1 : 1625 0.198364 per_variant_size: 0 1025 600 0 0 0 0 0 0 
Heartbeat_Variant_2 : 1587 0.193726 per_variant_size: 0 761 525 249 52 0 0 0 0 
Heartbeat_Variant_3 : 0 0 per_variant_size: 0 0 0 0 0 0 0 0 0 
Heartbeat_Variant_0_evicts 0 : 7414 1 : 589 2 : 1593 3 : 0 
Heartbeat_Variant_1_evicts 0 : 783 1 : 0 2 : 433 3 : 0 
Heartbeat_Variant_2_evicts 0 : 1397 1 : 593 2 : 0 3 : 0 
Heartbeat_Variant_3_evicts 0 : 0 1 : 0 2 : 0 3 : 0 
Heartbeat CPU 0 instructions: 60000000 cycles: 21576288 heartbeat IPC: 1.31717 cumulative IPC: 1.31717 (Simulation time: 0 hr 9 min 21 sec) 
Heartbeat_Variant_0 : 1462 0.178467 per_variant_size: 0 1462 0 0 0 0 0 0 0 
Heartbeat_Variant_1 : 1622 0.197998 per_variant_size: 0 1025 597 0 0 0 0 0 0 
Heartbeat_Variant_2 : 1586 0.193604 per_variant_size: 0 763 522 247 54 0 0 0 0 
Heartbeat_Variant_3 : 0 0 per_variant_size: 0 0 0 0 0 0 0 0 0 
Heartbeat_Variant_0_evicts 0 : 7464 1 : 605 2 : 1597 3 : 0 
Heartbeat_Variant_1_evicts 0 : 778 1 : 0 2 : 418 3 : 0 
Heartbeat_Variant_2_evicts 0 : 1420 1 : 594 2 : 0 3 : 0 
Heartbeat_Variant_3_evicts 0 : 0 1 : 0 2 : 0 3 : 0 
Heartbeat CPU 0 instructions: 70000003 cycles: 28946364 heartbeat IPC: 1.35684 cumulative IPC: 1.33671 (Simulation time: 0 hr 10 min 58 sec) 
Cycle: 30000000 FTQ IN: 13568057 FTQ occupancy: 10.2562 DECODE IN: 13567916 DECODE occupancy: 25.6906 ROB IN: 13567856 ROB occupancy: 200.059 ROB OUT: 13567513
Heartbeat_Variant_0 : 1475 0.180054 per_variant_size: 0 1475 0 0 0 0 0 0 0 
Heartbeat_Variant_1 : 1630 0.198975 per_variant_size: 0 1032 598 0 0 0 0 0 0 
Heartbeat_Variant_2 : 1586 0.193604 per_variant_size: 0 766 516 250 54 0 0 0 0 
Heartbeat_Variant_3 : 0 0 per_variant_size: 0 0 0 0 0 0 0 0 0 
Heartbeat_Variant_0_evicts 0 : 7302 1 : 581 2 : 1503 3 : 0 
Heartbeat_Variant_1_evicts 0 : 766 1 : 0 2 : 411 3 : 0 
Heartbeat_Variant_2_evicts 0 : 1311 1 : 592 2 : 0 3 : 0 
Heartbeat_Variant_3_evicts 0 : 0 1 : 0 2 : 0 3 : 0 
Heartbeat CPU 0 instructions: 80000001 cycles: 36418865 heartbeat IPC: 1.33824 cumulative IPC: 1.33722 (Simulation time: 0 hr 12 min 31 sec) 
Cycle: 40000000 FTQ IN: 13422705 FTQ occupancy: 10.4143 DECODE IN: 13422810 DECODE occupancy: 26.0423 ROB IN: 13422823 ROB occupancy: 201.508 ROB OUT: 13422823
Heartbeat_Variant_0 : 1472 0.179688 per_variant_size: 0 1472 0 0 0 0 0 0 0 
Heartbeat_Variant_1 : 1632 0.199219 per_variant_size: 0 1032 600 0 0 0 0 0 0 
Heartbeat_Variant_2 : 1587 0.193726 per_variant_size: 0 761 522 252 52 0 0 0 0 
Heartbeat_Variant_3 : 0 0 per_variant_size: 0 0 0 0 0 0 0 0 0 
Heartbeat_Variant_0_evicts 0 : 7377 1 : 589 2 : 1531 3 : 0 
Heartbeat_Variant_1_evicts 0 : 777 1 : 0 2 : 413 3 : 0 
Heartbeat_Variant_2_evicts 0 : 1346 1 : 599 2 : 0 3 : 0 
Heartbeat_Variant_3_evicts 0 : 0 1 : 0 2 : 0 3 : 0 
Heartbeat CPU 0 instructions: 90000000 cycles: 43776237 heartbeat IPC: 1.35918 cumulative IPC: 1.34264 (Simulation time: 0 hr 14 min 6 sec) 
Cycle: 50000000 FTQ IN: 13434158 FTQ occupancy: 10.4687 DECODE IN: 13434154 DECODE occupancy: 26.1576 ROB IN: 13434141 ROB occupancy: 202.847 ROB OUT: 13434250
Heartbeat_Variant_0 : 1487 0.181519 per_variant_size: 0 1487 0 0 0 0 0 0 0 
Heartbeat_Variant_1 : 1641 0.200317 per_variant_size: 0 1029 612 0 0 0 0 0 0 
Heartbeat_Variant_2 : 1596 0.194824 per_variant_size: 0 764 522 254 56 0 0 0 0 
Heartbeat_Variant_3 : 0 0 per_variant_size: 0 0 0 0 0 0 0 0 0 
Heartbeat_Variant_0_evicts 0 : 7283 1 : 573 2 : 1473 3 : 0 
Heartbeat_Variant_1_evicts 0 : 743 1 : 0 2 : 401 3 : 0 
Heartbeat_Variant_2_evicts 0 : 1298 1 : 568 2 : 0 3 : 0 
Heartbeat_Variant_3_evicts 0 : 0 1 : 0 2 : 0 3 : 0 
Heartbeat CPU 0 instructions: 100000002 cycles: 51257429 heartbeat IPC: 1.33669 cumulative IPC: 1.34145 (Simulation time: 0 hr 15 min 47 sec) 
Finished CPU 0 instructions: 50000001 cycles: 37273215 cumulative IPC: 1.34145 (Simulation time: 0 hr 15 min 47 sec) 

ChampSim completed all CPUs

Region of Interest Statistics

CPU 0 cumulative IPC: 1.34145 instructions: 50000001 cycles: 37273215
 Fetch stage stalled: 60.5264  Sim cycles: 37273215 fetch stall cycle: 22560132
 Empty decode stage: 47.2782  Sim cycles: 37273215 fetch stall cycle: 17622104
ITLB TOTAL     ACCESS:    5812111  HIT:    5316542  MISS:     495569  HIT %:    91.4735  MISS %:    8.52649   MPKI: 9.91138
ITLB LOAD TRANSLATION INSTRUCTION	ACCESS:    5693805  HIT:    5198236  MISS:     495569  HIT %:    91.2963  MISS %:    8.70365  MPKI: 9.91138
ITLB TRANSLATION FROM L1D PREFETCHER INSTRUCTION	ACCESS:     118306  HIT:     118306  MISS:          0  HIT %:        100  MISS %:          0  MPKI: 0

ITLB AVERAGE MISS LATENCY: 9.08413 cycles
ITLB RQ	ACCESS:    7896576	FORWARD:          0	MERGED:    1635709	TO_CACHE:    6260867

DTLB TOTAL     ACCESS:    9030577  HIT:    8555294  MISS:     475283  HIT %:     94.737  MISS %:    5.26304   MPKI: 9.50566
DTLB LOAD TRANSLATION DATA	ACCESS:    9030577  HIT:    8555294  MISS:     475283  HIT %:     94.737  MISS %:    5.26304  MPKI: 9.50566

DTLB AVERAGE MISS LATENCY: 9.35765 cycles
DTLB RQ	ACCESS:   13397886	FORWARD:          0	MERGED:    4329803	TO_CACHE:    9068083

STLB TOTAL     ACCESS:    1218650  HIT:    1216041  MISS:       2609  HIT %:    99.7859  MISS %:   0.214089   MPKI: 0.05218
STLB LOAD TRANSLATION INSTRUCTION	ACCESS:     495569  HIT:     495018  MISS:        551  HIT %:    99.8888  MISS %:   0.111185  MPKI: 0.01102
STLB LOAD TRANSLATION DATA	ACCESS:     475208  HIT:     473187  MISS:       2021  HIT %:    99.5747  MISS %:   0.425287  MPKI: 0.04042
STLB TRANSLATION FROM L1D PREFETCHER DATA	ACCESS:     247873  HIT:     247836  MISS:         37  HIT %:    99.9851  MISS %:   0.014927  MPKI: 0.00074

STLB AVERAGE MISS LATENCY: 69.7574 cycles
STLB RQ	ACCESS:    1335814	FORWARD:          0	MERGED:     117122	TO_CACHE:    1218692

STLB Hit, L1D data hit: 0
STLB Hit, L2C data hit: 0
STLB Hit, LLC data hit: 0
STLB Hit, LLC data miss: 0
STLB STLB hints to L2: 0
L1D TOTAL     ACCESS:   13146922  HIT:   12028993  MISS:    1117929  HIT %:    91.4966  MISS %:    8.50335   MPKI: 22.3586
L1D LOAD DATA	ACCESS:    6597159  HIT:    5862461  MISS:     734698  HIT %:    88.8634  MISS %:    11.1366  MPKI: 14.694
L1D RFO DATA	ACCESS:    6223343  HIT:    5934457  MISS:     288886  HIT %:     95.358  MISS %:    4.64197  MPKI: 5.77772
L1D PREFETCH DATA	ACCESS:     326420  HIT:     232075  MISS:      94345  HIT %:    71.0971  MISS %:    28.9029  MPKI: 1.8869

L1D PREFETCH  REQUESTED:     730276  ISSUED:     730276  USEFUL:      34063  USELESS:      67977
L1D USEFUL LOAD PREFETCHES:      34063 PREFETCH ISSUED TO LOWER LEVEL:     102110  ACCURACY: 33.3591
 TIMELY PREFETCHES:      34063 LATE PREFETCHES: 7701 DROPPED PREFETCHES: 12
L1D AVERAGE MISS LATENCY: 225843 cycles
L1D RQ	ACCESS:   10728784	FORWARD:          0	MERGED:    3933802	TO_CACHE:    6630993
L1D WQ	ACCESS:    6958357	FORWARD:     164341	MERGED:     191464	TO_CACHE:    6766893
L1D PQ	ACCESS:     365314	FORWARD:          0	MERGED:          0	TO_CACHE:     364962

L1D UNIQUE REGIONS ACCESSED: 0
L1D REGIONS CONFLICTS: 0
L1D Cross Page Prefetch Requests: 6023
L1D Same Page Prefetch Requests: 743225
L1D ROI Sum of L1D PQ occupancy: 4653987
L1D PREFETCHES PUSHED FROM L2C: 0
L1I TOTAL     ACCESS:    7144475  HIT:    4374421  MISS:    2770054  HIT %:     61.228  MISS %:     38.772   MPKI: 55.4011
L1I LOAD INSTRUCTION	ACCESS:    6512390  HIT:    3742336  MISS:    2770054  HIT %:    57.4649  MISS %:    42.5351  MPKI: 55.4011
L1I PREFETCH INSTRUCTION	ACCESS:     632085  HIT:     632085  MISS:          0  HIT %:        100  MISS %:          0  MPKI: 0

L1I PREFETCH  REQUESTED:    1486242  ISSUED:    1486242  USEFUL:          0  USELESS:          0
L1I USEFUL LOAD PREFETCHES:          0 PREFETCH ISSUED TO LOWER LEVEL:          0  ACCURACY: -nan
 TIMELY PREFETCHES:          0 LATE PREFETCHES: 0 DROPPED PREFETCHES: 0
L1I AVERAGE MISS LATENCY: 16.6862 cycles
L1I RQ	ACCESS:    9479016	FORWARD:          0	MERGED:    2668705	TO_CACHE:    6810311
L1I PQ	ACCESS:    1486242	FORWARD:          0	MERGED:     399977	TO_CACHE:    1086265

L1BTB TOTAL     ACCESS:    5668595  HIT:    2032217  MISS:    3636378  HIT %:    35.8505  MISS %:    64.1495   MPKI: 72.7276
L1BTB BRANCH_DIRECT_JUMP	ACCESS:     548633  HIT:     144521  MISS:     404112	AVERAGE STALL: 45.4465
L1BTB BRANCH_INDIRECT	ACCESS:     182860  HIT:      65726  MISS:     117134	AVERAGE STALL: 97.4855
L1BTB BRANCH_CONDITIONAL	ACCESS:    2703104  HIT:    1408382  MISS:    1294722	AVERAGE STALL: 47.5466
L1BTB BRANCH_DIRECT_CALL	ACCESS:     945272  HIT:     104019  MISS:     841253	AVERAGE STALL: 52.7723
L1BTB BRANCH_INDIRECT_CALL	ACCESS:     171743  HIT:      20894  MISS:     150849	AVERAGE STALL: 120.699
L1BTB BRANCH_RETURN	ACCESS:    1116983  HIT:     288675  MISS:     828308	AVERAGE STALL: 44.3352
L1BTB BRANCH_OTHER ACCESS:          0  HIT:          0  MISS:          0	AVERAGE STALL: -nan
L1BTB TOTAL ROB OCCUPANCY AT BTB MISS: 6.56979

L2BTB TOTAL     ACCESS:    3610938  HIT:    3463504  MISS:     147434  HIT %:     95.917  MISS %:    4.08298   MPKI: 2.94868
L2BTB BRANCH_DIRECT_JUMP	ACCESS:     399955  HIT:     385453  MISS:      14502	AVERAGE STALL: 45.4465
L2BTB BRANCH_INDIRECT	ACCESS:     106804  HIT:     103658  MISS:       3146	AVERAGE STALL: 97.4855
L2BTB BRANCH_CONDITIONAL	ACCESS:    1294722  HIT:    1241534  MISS:      53188	AVERAGE STALL: 47.5466
L2BTB BRANCH_DIRECT_CALL	ACCESS:     841253  HIT:     821972  MISS:      19281	AVERAGE STALL: 52.7723
L2BTB BRANCH_INDIRECT_CALL	ACCESS:     141303  HIT:     129057  MISS:      12246	AVERAGE STALL: 120.699
L2BTB BRANCH_RETURN	ACCESS:     826901  HIT:     781830  MISS:      45071	AVERAGE STALL: 44.3352
L2BTB BRANCH_OTHER ACCESS:          0  HIT:          0  MISS:          0	AVERAGE STALL: -nan
L2BTB TOTAL ROB OCCUPANCY AT BTB MISS: 162.04

L2C TOTAL     ACCESS:    4495010  HIT:    4078613  MISS:     416397  HIT %:    90.7365  MISS %:    9.26354   MPKI: 8.32794
L2C LOAD INSTRUCTION	ACCESS:    2770054  HIT:    2559502  MISS:     210552  HIT %:     92.399  MISS %:    7.60101  MPKI: 4.21104
L2C LOAD TRANSLATION INSTRUCTION	ACCESS:        603  HIT:        232  MISS:        371  HIT %:    38.4743  MISS %:    61.5257  MPKI: 0.00742
L2C LOAD DATA	ACCESS:     726969  HIT:     655327  MISS:      71642  HIT %:    90.1451  MISS %:    9.85489  MPKI: 1.43284
L2C RFO DATA	ACCESS:     288802  HIT:     239361  MISS:      49441  HIT %:    82.8807  MISS %:    17.1193  MPKI: 0.98882
L2C PREFETCH DATA	ACCESS:     181279  HIT:     111357  MISS:      69922  HIT %:    61.4285  MISS %:    38.5715  MPKI: 1.39844
L2C WRITEBACK DATA	ACCESS:     525108  HIT:     512161  MISS:      12947  HIT %:    97.5344  MISS %:    2.46559  MPKI: 0.25894
L2C LOAD TRANSLATION DATA	ACCESS:       2135  HIT:        628  MISS:       1507  HIT %:    29.4145  MISS %:    70.5855  MPKI: 0.03014
L2C TRANSLATION FROM L1D PREFETCHER DATA	ACCESS:         60  HIT:         45  MISS:         15  HIT %:         75  MISS %:         25  MPKI: 0.0003

L2C PREFETCH  REQUESTED:      87128  ISSUED:      87128  USEFUL:       7674  USELESS:      62653
L2C USEFUL LOAD PREFETCHES:       7674 PREFETCH ISSUED TO LOWER LEVEL:      70301  ACCURACY: 10.9159
 TIMELY PREFETCHES:       7674 LATE PREFETCHES: 379 DROPPED PREFETCHES: 0
L2C AVERAGE MISS LATENCY: 41.0224 cycles
L2C RQ	ACCESS:    3788672	FORWARD:          0	MERGED:          0	TO_CACHE:    3788625
L2C WQ	ACCESS:     525108	FORWARD:         47	MERGED:          0	TO_CACHE:     525108
L2C PQ	ACCESS:     189238	FORWARD:          0	MERGED:       3718	TO_CACHE:     185520

L2C Dense regions hint from L2: 0
PSCL5 TOTAL     ACCESS:       5246  HIT:       2623  MISS:       2623  HIT %:         50  MISS %:         50   MPKI: 0.05246
PSCL5 LOAD TRANSLATION INSTRUCTION	ACCESS:       5126  HIT:       2563  MISS:       2563  HIT %:         50  MISS %:         50  MPKI: 0.05126
PSCL5 TRANSLATION FROM L1D PREFETCHER INSTRUCTION	ACCESS:        120  HIT:         60  MISS:         60  HIT %:         50  MISS %:         50  MPKI: 0.0012


PSCL4 TOTAL     ACCESS:       3364  HIT:       1676  MISS:       1688  HIT %:    49.8216  MISS %:    50.1784   MPKI: 0.03376
PSCL4 LOAD TRANSLATION INSTRUCTION	ACCESS:       2377  HIT:       1636  MISS:        741  HIT %:    68.8263  MISS %:    31.1737  MPKI: 0.01482
PSCL4 TRANSLATION FROM L1D PREFETCHER INSTRUCTION	ACCESS:         61  HIT:         40  MISS:         21  HIT %:    65.5738  MISS %:    34.4262  MPKI: 0.00042
PSCL4 LOAD TRANSLATION DATA	ACCESS:        907  HIT:          0  MISS:        907  HIT %:          0  MISS %:        100  MPKI: 0.01814
PSCL4 TRANSLATION FROM L1D PREFETCHER DATA	ACCESS:         19  HIT:          0  MISS:         19  HIT %:          0  MISS %:        100  MPKI: 0.00038


PSCL3 TOTAL     ACCESS:       5011  HIT:       2495  MISS:       2516  HIT %:    49.7905  MISS %:    50.2095   MPKI: 0.05032
PSCL3 LOAD TRANSLATION INSTRUCTION	ACCESS:       3435  HIT:       2450  MISS:        985  HIT %:    71.3246  MISS %:    28.6754  MPKI: 0.0197
PSCL3 TRANSLATION FROM L1D PREFETCHER INSTRUCTION	ACCESS:         60  HIT:         45  MISS:         15  HIT %:         75  MISS %:         25  MPKI: 0.0003
PSCL3 LOAD TRANSLATION DATA	ACCESS:       1486  HIT:          0  MISS:       1486  HIT %:          0  MISS %:        100  MPKI: 0.02972
PSCL3 TRANSLATION FROM L1D PREFETCHER DATA	ACCESS:         30  HIT:          0  MISS:         30  HIT %:          0  MISS %:        100  MPKI: 0.0006


PSCL2 TOTAL     ACCESS:       5100  HIT:       2477  MISS:       2623  HIT %:    48.5686  MISS %:    51.4314   MPKI: 0.05246
PSCL2 LOAD TRANSLATION INSTRUCTION	ACCESS:       2973  HIT:       2417  MISS:        556  HIT %:    81.2984  MISS %:    18.7016  MPKI: 0.01112
PSCL2 TRANSLATION FROM L1D PREFETCHER INSTRUCTION	ACCESS:         60  HIT:         60  MISS:          0  HIT %:        100  MISS %:          0  MPKI: 0
PSCL2 LOAD TRANSLATION DATA	ACCESS:       2007  HIT:          0  MISS:       2007  HIT %:          0  MISS %:        100  MPKI: 0.04014
PSCL2 TRANSLATION FROM L1D PREFETCHER DATA	ACCESS:         60  HIT:          0  MISS:         60  HIT %:          0  MISS %:        100  MPKI: 0.0012


LLC TOTAL     ACCESS:     474591  HIT:     443159  MISS:      31432  HIT %:     93.377  MISS %:    6.62297   MPKI: 0.62864
LLC LOAD INSTRUCTION	ACCESS:     210552  HIT:     209240  MISS:       1312  HIT %:    99.3769  MISS %:   0.623124  MPKI: 0.02624
LLC LOAD TRANSLATION INSTRUCTION	ACCESS:        371  HIT:        324  MISS:         47  HIT %:    87.3315  MISS %:    12.6685  MPKI: 0.00094
LLC LOAD DATA	ACCESS:      71282  HIT:      67481  MISS:       3801  HIT %:    94.6677  MISS %:    5.33234  MPKI: 0.07602
LLC RFO DATA	ACCESS:      49404  HIT:      33938  MISS:      15466  HIT %:    68.6948  MISS %:    31.3052  MPKI: 0.30932
LLC PREFETCH DATA	ACCESS:      70301  HIT:      59994  MISS:      10307  HIT %:    85.3388  MISS %:    14.6612  MPKI: 0.20614
LLC WRITEBACK DATA	ACCESS:      71159  HIT:      70742  MISS:        417  HIT %:     99.414  MISS %:   0.586012  MPKI: 0.00834
LLC LOAD TRANSLATION DATA	ACCESS:       1507  HIT:       1425  MISS:         82  HIT %:    94.5587  MISS %:    5.44127  MPKI: 0.00164
LLC TRANSLATION FROM L1D PREFETCHER DATA	ACCESS:         15  HIT:         15  MISS:          0  HIT %:        100  MISS %:          0  MPKI: 0

LLC AVERAGE MISS LATENCY: 156.83 cycles
LLC RQ	ACCESS:     333149	FORWARD:          0	MERGED:          0	TO_CACHE:     333131
LLC WQ	ACCESS:      71159	FORWARD:         18	MERGED:          0	TO_CACHE:      71159
LLC PQ	ACCESS:      70301	FORWARD:          0	MERGED:          0	TO_CACHE:      70301

LLC Dense regions hint to LLC: 0

RAW hits: 1916076
Loads Generated: 12644860
Loads sent to L1D: 10728784
Stores Generated: 6958351
Stores sent to L1D: 6958357
Major fault: 0 Minor fault: 2646
Allocated PAGES: 2646

stream: 
stream:times selected: 1181154
stream:pref_filled: 121956
stream:pref_useful: 24017
stream:pref_late: 6654
stream:misses: 6721
stream:misses_by_poll: 0

CS: 
CS:times selected: 178697
CS:pref_filled: 59522
CS:pref_useful: 36119
CS:pref_late: 6468
CS:misses: 15846
CS:misses_by_poll: 2

CPLX: 
CPLX:times selected: 1001367
CPLX:pref_filled: 19187
CPLX:pref_useful: 4357
CPLX:pref_late: 2949
CPLX:misses: 89953
CPLX:misses_by_poll: 0

NL_L1: 
NL:times selected: 19992
NL:pref_filled: 587
NL:pref_useful: 245
NL:pref_late: 194
NL:misses: 1005
NL:misses_by_poll: 0

total selections: 2381210
total_filled: 94345
total_useful: 34063
total_late: 17586
total_polluted: 2
total_misses_after_warmup: 768533
conflicts: 5545248

test: 115277

DRAM Statistics
 CHANNEL 0
 RQ ROW_BUFFER_HIT:      11800  ROW_BUFFER_MISS:      19212
 DBUS_CONGESTED:         12
 WQ ROW_BUFFER_HIT:       1558  ROW_BUFFER_MISS:      13237  FULL:          0

 AVG_CONGESTED_CYCLE: 4

CPU 0 Branch Prediction Accuracy: 99.8088% MPKI: 0.3495 Average ROB Occupancy at Mispredict: 164.735
Branch types
NOT_BRANCH: 40858069 81.7161%
BRANCH_DIRECT_JUMP: 548633 1.09727%
BRANCH_INDIRECT: 182860 0.36572%
BRANCH_CONDITIONAL: 6175962 12.3519%
BRANCH_DIRECT_CALL: 945272 1.89054%
BRANCH_INDIRECT_CALL: 171743 0.343486%
BRANCH_RETURN: 1116983 2.23397%
BRANCH_OTHER: 0 0%

DRAM PAGES: 1048576
Allocated PAGES: 2646
Average_ROB_Occupancy: 201.728
Average_Decode_Occupancy: 25.8569
Average_FTQ_Occupancy: 10.357
Indirect max targets: 14 Average targets: 1.17778
Branch_type:  BRANCH_DIRECT_JUMP:  Count Percentage: 3.30499 5.44852 4.87371 7.1683 3.47564 6.01704 1.74866 67.9631 
Branch_type:  BRANCH_INDIRECT:  Count Percentage: 6.13629 3.39484 8.16914 9.6806 3.34783 2.81086 3.88344 62.577 
Branch_type:  BRANCH_CONDITIONAL:  Count Percentage: 25.0858 2.46298 2.26188 4.07741 2.33052 4.14494 2.74646 56.89 
Branch_type:  BRANCH_DIRECT_CALL:  Count Percentage: 0.388846 1.27446 0.734298 3.50994 3.15204 2.93523 3.32609 84.6791 
Branch_type:  BRANCH_INDIRECT_CALL:  Count Percentage: 9.574 0 3.0021 0.000874738 0 2.57727 5.00058 79.8452 
Branch_type:  BRANCH_RETURN:  Count Percentage: 7.90705 1.82136 1.14603 3.49522 3.99379 4.57765 3.58495 73.4739 
Branch_type:  BRANCH_DIRECT_JUMP:  Total Count: 36275 59802 53493 78678 38148 66042 19193 745951 
Branch_type:  BRANCH_INDIRECT:  Total Count: 22455 12423 29894 35425 12251 10286 14211 228993 
Branch_type:  BRANCH_CONDITIONAL:  Total Count: 3098226 304191 279354 503581 287831 511922 339202 7026213 
Branch_type:  BRANCH_DIRECT_CALL:  Total Count: 7339 24054 13859 66246 59491 55399 62776 1598218 
Branch_type:  BRANCH_INDIRECT_CALL:  Total Count: 32835 0 10296 3 0 8839 17150 273837 
Branch_type:  BRANCH_RETURN:  Total Count: 176421 40638 25570 77985 89109 102136 79987 1639341 
Number of unique branch instructions: 10788
Upper 32 bits: 
aaaa
ffff
ffff0000
Unique upper 32 bits: 3
Unique upper 36 bits: 3
Unique upper 40 bits: 5
Unique upper 44 bits: 32
Unique upper 48 bits: 158
Variant_0 : 1487 0.181519
Variant_1 : 1641 0.200317
Variant_2 : 1596 0.194824
Variant_3 : 0 0
Offset_3 4463
Offset_4 257
Offset_5 482
Offset_6 538
Offset_7 641
Offset_8 578
Offset_9 520
Offset_10 422
Offset_11 350
Offset_12 326
Offset_13 237
Offset_14 248
Offset_15 187
Offset_16 232
Offset_17 168
Offset_18 153
Offset_19 261
Offset_20 140
Offset_21 235
Offset_22 416
Offset_23 241
Offset_24 351
Offset_25 117
Offset_47 94
Offset_64 1
decode_dispatch_called: 23087127 61.9403
Dispatch_width: 0 12275088 53.1685 32.9327
Dispatch_width: 1 714888 3.09648 1.91797
Dispatch_width: 2 707202 3.06319 1.89735
Dispatch_width: 3 448676 1.9434 1.20375
Dispatch_width: 4 3444832 14.921 9.24211
Dispatch_width: 5 233606 1.01185 0.62674
Dispatch_width: 6 5262835 22.7955 14.1196
Empty_decode_cycles: 14186088 38.0597
ROB_full_cycles: 5519397 14.8079
Starvation_cycles_per_kilo_instr: 264.91
Starvation_cycles_per_kilo_instr_3: 228.125
Starvation_cycles_per_kilo_instr_0: 209.418
Branch_type_1  (3,1)  (4,9)  (5,39)  (6,73)  (7,126)  (8,149)  (9,136)  (10,111)  (11,79)  (12,55)  (13,11)  (14,2)  (15,3)  (16,4)  (18,1)  (19,5)  (20,2)  (21,1)  (22,3)  (23,2)  (24,10)  (25,12) 
Branch_type_2  (3,1)  (4,1)  (5,1)  (8,4)  (9,4)  (10,1)  (12,1)  (13,1)  (14,1)  (16,3)  (17,2)  (20,2)  (21,2)  (23,5)  (24,1)  (47,43) 
Branch_type_3  (3,4461)  (4,247)  (5,438)  (6,449)  (7,486)  (8,359)  (9,285)  (10,170)  (11,138)  (12,62)  (13,10)  (64,1) 
Branch_type_4  (6,3)  (7,8)  (8,25)  (9,56)  (10,67)  (11,68)  (12,116)  (13,100)  (14,112)  (15,88)  (16,102)  (17,78)  (18,67)  (19,128)  (20,71)  (21,124)  (22,221)  (23,136)  (24,206)  (25,101) 
Branch_type_5  (8,3)  (9,1)  (10,4)  (11,5)  (12,3)  (13,14)  (14,16)  (15,11)  (16,22)  (17,11)  (18,23)  (19,14)  (20,11)  (21,13)  (22,43)  (23,26)  (24,38) 
Branch_type_6  (5,4)  (6,13)  (7,21)  (8,38)  (9,38)  (10,69)  (11,60)  (12,89)  (13,101)  (14,117)  (15,85)  (16,101)  (17,77)  (18,62)  (19,114)  (20,54)  (21,95)  (22,149)  (23,72)  (24,96)  (25,4)  (47,51) 
Unique trigger count: 
Variant_0_evicts_0 : 0
Variant_0_evicts_1 : 0
Variant_0_evicts_2 : 0
Variant_0_evicts_3 : 0
Variant_1_evicts_0 : 0
Variant_1_evicts_1 : 0
Variant_1_evicts_2 : 0
Variant_1_evicts_3 : 0
Variant_2_evicts_0 : 0
Variant_2_evicts_1 : 0
Variant_2_evicts_2 : 0
Variant_2_evicts_3 : 0
Variant_3_evicts_0 : 0
Variant_3_evicts_1 : 0
Variant_3_evicts_2 : 0
Variant_3_evicts_3 : 0
BTB PER SET UNIQUE ADDR: 3 4 3 3 1 2 3 2 4 0 2 0 5 3 1 3 3 2 4 5 3 4 2 3 4 5 1 3 3 2 7 6 4 4 5 2 1 4 5 2 4 4 4 7 6 4 4 4 6 3 3 2 3 1 0 3 4 3 3 3 1 4 2 3 1 4 6 4 3 5 5 1 1 4 2 3 3 7 2 4 2 2 1 4 3 4 2 5 3 3 6 5 3 5 3 0 2 4 2 3 3 4 3 3 4 2 1 2 3 2 2 2 3 6 2 6 2 5 4 1 5 4 2 0 1 2 2 2 7 6 6 2 3 3 6 4 2 2 3 3 4 4 4 2 2 4 3 5 5 5 3 9 3 5 4 1 4 4 3 3 5 6 4 4 7 6 2 2 8 3 2 3 4 3 1 2 4 4 6 1 3 5 7 4 7 6 4 1 2 3 6 2 3 4 4 4 4 3 1 5 3 2 3 2 3 3 2 5 3 1 2 4 5 3 4 2 2 5 3 0 1 3 2 4 3 2 4 3 0 4 7 4 2 4 4 4 5 1 2 3 1 0 6 4 12 7 1 3 4 3 3 1 1 4 2 7 3 5 4 3 4 4 4 2 3 7 3 2 4 2 3 2 2 3 4 2 1 1 2 3 4 3 5 2 5 5 3 3 1 1 0 3 1 5 2 1 5 3 2 2 3 3 2 2 3 2 4 2 8 5 4 1 3 2 5 2 7 6 2 4 4 7 3 4 2 3 2 7 1 2 5 0 2 4 5 2 3 4 6 0 4 0 1 5 5 3 1 4 4 5 4 8 6 3 5 3 2 0 5 1 2 5 2 4 7 5 1 1 2 1 3 2 2 4 4 4 3 4 3 3 5 3 1 5 3 2 5 2 6 1 5 4 4 2 3 1 5 0 1 3 4 2 5 2 2 4 4 3 1 1 1 3 6 4 2 3 5 3 1 3 1 1 4 4 4 6 2 0 2 5 2 2 9 4 5 5 3 3 4 0 3 4 5 4 5 6 2 4 3 2 4 3 2 3 5 1 1 4 7 3 3 3 5 6 1 3 6 2 1 3 0 4 5 2 2 1 4 5 3 1 2 1 2 2 0 4 3 0 6 1 5 2 3 4 0 6 4 3 3 1 5 1 1 1 1 2 3 2 3 3 3 2 5 8 2 2 2 6 4 6 4 5 4 3 6 6 1 7 6 4 6 3 4 6 3 4 2 1 4 1 2 5 7 3 5 2 8 3 6 9 4 6 3 6 1 3 3 1 4 4 7 3 5 3 2 1 4 4 3 7 4 2 3 8 3 2 3 4 1 5 5 2 2 0 1 0 0 9 4 3 6 8 2 2 3 3 6 2 4 2 7 2 6 7 3 4 3 4 2 2 5 3 3 3 2 3 2 0 3 1 5 3 8 2 2 4 3 5 2 3 5 4 3 3 4 5 3 4 3 3 8 1 4 4 1 0 4 4 3 5 3 2 5 2 3 1 5 3 2 3 6 2 5 4 6 4 5 3 2 4 5 5 4 3 5 6 3 3 3 2 4 2 5 2 5 3 5 4 4 3 1 5 2 3 3 3 6 4 5 5 0 6 0 3 3 3 3 1 3 1 3 4 3 1 2 1 8 2 0 3 2 0 1 1 1 3 1 4 2 4 6 5 2 1 3 5 8 3 2 2 2 3 2 4 2 2 4 2 4 2 0 2 1 4 2 2 3 6 4 1 3 3 1 5 4 4 8 2 2 3 4 3 0 3 3 4 4 2 2 3 5 4 0 3 8 6 3 5 0 3 2 4 2 1 4 7 7 2 3 2 6 3 4 3 4 4 3 3 2 3 1 3 4 0 5 3 1 2 0 4 5 2 4 2 2 3 3 3 4 4 3 1 3 2 5 3 2 2 5 3 2 2 3 4 2 4 7 5 5 2 6 3 5 4 5 5 4 2 4 4 2 6 2 1 9 3 3 3 5 4 1 4 3 6 4 0 2 3 5 4 3 5 4 4 5 3 2 3 3 4 4 2 3 4 3 1 6 4 2 1 5 2 1 4 5 5 4 5 3 5 5 4 1 3 1 6 0 3 6 2 6 4 5 3 4 1 3 2 5 9 5 4 9 6 6 4 6 4 2 6 4 2 1 4 4 6 5 5 4 4 6 1 5 4 3 4 6 6 4 2 3 2 4 5 2 6 9 5 6 3 3 3 0 5 6 1 7 5 1 3 7 5 3 4 2 1 2 4 4 3 5 4 2 7 4 5 4 5 3 5 3 3 4 2 2 5 4 3 4 4 5 3 4 3 6 2 5 3 2 5 5 2 10 5 3 3 3 2 2 3 3 7 6 2 3 2 3 2 2 1 3 2 4 4 2 4 6 5 4 6 0 3 3 4 4 4 2 1 3 2 3 1 2 1 4 1 3 3 3 5 2 8 5 3 2 1 9 1 2 4 1 2 6 5 3 8 3 4 5 5 3 5 3 1 1 1 5 1 4 4 3 8 4 1 6 4 6 2 3 4 5 3 5 7 4 4 6 1 5 5 7 4 3 3 4 3 6 6 3 6 6 6 4 3 5 5 1 2 3 5 1 3 2 1 3 5 2 3 5 2 2 5 4 2 5 1 7 3 3 2 3 1 3 5 3 4 3 4 2 6 2 3 7 3 3 5 3 5 2 8 4 5 3 8 6 2 6 1 5 2 1 2 4 3 3 1 3 4 3 1 2 3 4 4 3 3 3 4 2 5 2 5 4 5 0 5 3 3 2 6 8 1 7 0 1 4 5 2 5 1 3 3 4 1 1 2 4 5 3 4 1 4 4 6 5 1 4 3 3 6 10 4 3 7 6 5 1 1 3 5 6 3 2 2 4 3 4 4 5 3 1 4 2 3 6 8 5 3 3 6 1 3 7 3 4 1 3 2 6 9 4 3 3 3 4 5 2 5 5 6 6 2 1 5 5 2 4 3 4 3 4 4 6 3 5 4 3 5 5 3 1 7 4 4 3 3 3 2 3 3 2 2 5 4 3 3 5 2 1 3 3 8 5 2 3 4 2 4 3 3 4 3 2 1 4 2 4 2 5 3 3 4 2 1 2 6 1 4 2 4 2 4 6 1 1 5 5 3 3 4 5 2 3 4 5 5 4 4 4 3 3 3 2 3 5 2 4 1 4 0 7 3 3 6 4 4 5 7 3 2 3 3 2 3 4 1 4 2 4 3 0 5 1 6 2 3 3 5 3 2 5 3 4 2 4 1 6 3 0 3 3 1 1 4 1 5 3 3 6 3 2 2 2 3 2 2 7 2 3 5 3 3 3 4 2 2 5 0 2 3 4 3 2 2 2 0 3 0 4 2 3 4 2 3 2 1 2 5 4 2 6 1 3 4 2 2 5 5 2 2 6 0 1 2 3 1 1 2 3 3 5 3 1 1 8 2 1 4 1 6 1 4 3 3 6 2 4 2 1 3 3 1 2 3 5 2 3 3 1 3 0 5 2 3 3 0 4 3 4 3 5 3 3 4 2 3 2 1 2 3 5 0 2 3 3 3 4 1 3 3 2 10 7 2 3 3 4 2 1 3 5 2 3 0 3 2 4 2 3 5 6 6 8 0 4 2 8 4 4 5 3 7 2 5 8 3 0 6 4 3 3 6 3 3 2 1 1 5 3 2 3 3 2 3 6 3 5 5 6 2 1 5 5 3 3 5 5 4 5 2 5 5 2 6 4 3 3 2 3 6 5 3 2 3 3 3 4 4 2 4 3 2 3 1 3 7 0 2 2 3 3 4 5 3 3 3 5 1 2 3 6 2 4 5 6 1 1 7 2 4 2 3 4 7 2 3 2 4 6 3 5 3 5 3 5 10 3 3 3 5 2 5 4 3 2 3 1 2 2 4 4 3 2 4 3 6 6 2 4 9 0 3 2 4 4 3 3 4 3 6 3 4 1 5 3 3 4 3 3 0 2 5 0 7 2 6 5 1 4 3 2 0 4 2 3 5 3 6 2 3 2 2 3 5 6 1 3 3 0 3 2 4 5 3 2 3 5 2 3 2 6 4 3 1 4 3 0 2 4 1 1 8 2 0 4 2 4 3 2 3 6 3 2 6 1 5 4 6 2 6 5 3 3 2 7 1 4 1 3 3 4 4 3 4 2 1 2 5 0 3 0 3 5 6 2 2 5 2 3 3 3 1 3 2 4 2 4 2 5 3 2 3 1 1 3 2 4 2 3 4 2 1 1 2 2 5 1 5 1 6 4 3 3 2 5 1 2 3 5 4 3 4 5 6 3 3 3 4 3 2 0 3 2 0 2 1 2 2 4 2 5 2 2 3 4 1 2 4 3 2 3 9 3 2 7 7 4 2 5 2 3 6 3 4 5 3 4 1 2 4 6 4 2 4 3 2 5 3 5 7 3 3 0 4 1 0 2 3 0 4 4 6 1 3 3 7 5 0 2 2 4 2 5 2 3 3 8 3 2 2 3 7 2 7 3 3 7 0 1 3 1 4 4 2 0 2 2 4 6 5 1 0 3 4 6 1 1 1 3 6 2 1 5 4 3 3 5 4 1 6 2 6 1 1 2 2 2 2 5 1 3 3 3 3 4 1 4 3 4 3 4 2 1 3 6 4 3 0 
BTB PER SET COUNT: 3 4 3 3 1 2 4 3 6 0 2 0 9 6 1 3 4 2 4 1475 3 5 3 3 4 6 1 4 1472 2 12 15 6 5 7 2 2940 4 8 2 6 4 7 1245 4906 7 4 5 7 3 3 2 3 1 0 3 5 3 4 3 1 4 2 3 1 366 467 4 3 5 917 1 1 4 2 3 492 751 2 4 2 2 1 5 3 6 2 7 3 3 10 494 3 5 3 0 2 7 2 3 3 4 4 3 4 2 1 2 4 2 2 2 4 12 2 10 2 7 4 1 5 5 2 0 1 2 3 2 16 9 986 2 3 5 11 4 2 2 3 3 5 9 6 2 4 966 5 5 5 6 3 57 3 5 10 1 4 6 979 3 6 9 983 4 13 1970 2 2 3438 3 2 3 4 3 1 2 4 4 989 1 3 5 16 4 12 6 5 1 2 3 6 2 3 4 4 9 5 4 1 5 4 2 3 2 4 3 2 1478 3 1 3 5 5 3 4 3 3 9 3 0 1 3 2 4 3 2 9 38 0 4 1187 4 2 4 4 4 8 1 2 3 1 0 14 4 18 15 1 3 10 3 3 1 1 4 2 12 4 5 4 4 6 4 4 2 1472 25 3 2 5 3 3 2 3 3 5 2 1 1 3 3 9 980 7 2 6 1473 3 3 1 1 0 1963 1 6 5 1 10 3 2 2 3 3 2 2 3 2 4 2 1965 5 5 1 3 2 5 2 7 6 2 6 5 13 3 4 2 3 2 14 1 2 988 0 2 5 1964 2 983 5 6 0 5 0 1 984 984 4 1 4 5 9 4 14 7 3 5 5 2 0 8 1 3 5 3 4 9 10 1 3 3 2 5 2 2 5 7 4 4 4 3 4 28 3 1 7 5 2 13 2 6 1 6 5 4 2 4 1 1476 0 1 3 5 2 8 2 2 4 1474 3 1 980 1 3 6 5 981 3 142 3 1 90 1 1 7 4 4 11 8 0 2 7 150 2 2699 6 5 5 4 3 5 0 3 5 8 4 7 38 2 5 3 2 6 3 2 6 5 1 1 4 991 4 4 3 8 8 1 3 7 2 1 3 0 4 2960 491 2 1 5 5 4 1 3 1 2 491 0 7 3 0 6 1 8 2 5 5 0 10 7 5 3 1 5 11 1 1 1 2 5 2 5 3 3 2 6 35 3 2 2 6 6 990 5 1474 4 4 7 9 1 9 6 7 6 3 4 9 3 984 2 1 9 1 4 5 11 8 985 2 16 6 8 14 7 20 5 10 1 3 7 1 4 5 11 1964 6 4 2 1 4 4 3 988 4 3 3 1964 3 2 3 4 4 5 5 33 3 0 2 0 0 2295 4 4 11 21 3 2 982 6 6 2 7 2 11 4 6 8 3 4 3 4 3 2 5 3 5 3 2 4 987 0 3 1 10 493 16 3 2 4 4 5 2 4 494 1473 3 8 4 8 5 4 3 3 1997 1 6 4 1 0 5 4 3 6 4 2 6 2 6 1 6 4 2 4 7842 3 16 4 8 8 2949 984 2 4 989 5 5 7 5 985 3 3 7 2 6 4 7 982 8 4 5 1473 4 3 1 992 2 6 3 4 6 9 18 39 0 6 0 3 3 983 4 1 3 2 3 4 6 1 981 1 1491 2 0 3 2 0 1 1 1 5 1 967 2 4 1966 5 982 1 3 9 14 5 2 2 2 3 2 4 2 3 494 2 4 981 0 3 1 5 2 2 3 6 4 1 3 3 1 5 4 4 14 2 7 3 4 26 0 109 4 4 7 2 2 3 6 27 0 1965 730 11 4 6 0 3 2 1341 3 1 6 9 1097 2 4 2 6 3 4 983 1961 6 3 4 3 6 1 3 6 0 6 3 2 2 0 4 12 2 4 2 4 3 3 3 4 125 4 1 3 2 10 984 2 2 5 3 2 2 4 1478 2 12 2959 7 11 2 9 3 10 6 9 8 4 2 7 7 2 7 3 1 2948 982 4 4 8 9 1 5 3 15 9 0 3 5 6 4 3 5 9 6 11 3 2 4 3 6 4 2 3 7 3 2 10 4 3 1 6 2 1 41 9 7 4 5 3 11 5 4 1 3 1 7 0 3 8 2 9 7 5 3 6 1 3 2 5 990 5 495 3011 1471 9 4 53 7 3 9 5 2 1 983 5 15 5 249 5 4 7 1 7 4 3 4 12 9 6 3 3 492 4 5 2 6 15 8 6 3 4 3 0 369 6 1 989 5 1 3 988 6 493 4 2 2 2 6 5 3 5 982 2 985 4 7 5 1959 3 9 5 7 4 2 2 5 4 6 5 5 1963 3 2455 363 1720 5 10 3 2 6 655 6 2217 9 3 980 3 2 2 3 3 27 6 2 3 1963 3 2 2 3 980 2 6 4 2 4 9 5 4 6 0 3 3 4 1473 364 2 1 6 4 4 1 5 1 4 1 3 3 3 10 2 13 5 3 2 1 1970 1 2 4 1 2 7 113 4 8 3 4 6 5 4 6 3 1 1 1 8 1 981 4 3 12 4 1 6 4 20 2 493 4 7 4 5 649 4 4 10 2 6 8 10 4 3 3 4 3 7 973 3 6 6 1740 7 3 6 10 1 2 3 6 1 3 2 1 3 9 2 7 1736 3 2 6 6 2 5 1 8 3 3 2 4 1 3 7 3 9 3 4 2 12 2 3 17 3 6 9 3 7 2 14 7 983 4 989 9 2 987 1 16 4 1 2 493 982 3 1 3 173 4 1 2 493 7 4 3 3 6 4 2 1472 2 7 4 5 0 8 3 3 2 14 999 1 11 0 1 4 5 3 8 1 3 1470 6 1 1 2 5 4904 3 4 1 4 6 6 5 1 4 3 3 9 15 1983 5 2178 6 5 1 1 5 5 12 4 2 2 4 4 4 4 5 3 1 4 2 3 6 352 7 3 3 6 1 5 7 3 4 1 3 2 8 1491 983 3 3 3 4 9 2 5 6 7 7 2 1 28 6 2 4 3 2944 3 4 4 8 3 5 4 982 5 2448 988 1 2144 4 4 3 4 3 2 3 3 2 2 6 4 3 3 5 2 1 4 4 1970 9 3 3 4 2 4 6 3 4 3 3 1 4 2 6 2 6 4 983 4 2 1 2 6 1 4 2 4 4 7 13 1 1 5 5 982 3 4 11 3 3 40 8 5 5 4 4 3 3 3 3 3 8 10 10 1 5 0 9 3 3 6 6 7 6 2700 5 2 4 3 2 4 5 2 8 4 981 4 0 6 1 7 2 4 4 8 4 2 1474 3 4 1342 15 1 501 4 0 3 3 1 2 1344 1 983 3 3 8 4 3 2 2 3 2 2 3447 2 4 14 5 3 3 4 2 2 8 0 5 984 6 984 2 2 2 0 4 0 4 2 5 4 2 3 981 1 16 22 30 2 2449 1 4 4 2 2 6 991 142 2 20596 0 1 2 3 1 1 2 3 4 263 395 1 1 44 2 1 4 1 15 1 4 3 3 31 2 11 2 1 3 3 1 3 3 5 3 3 3 1 3 0 3926 2 3 6 0 7 423 5 3 8 3 3 5 2 3 2 1 3 5 8 0 2 3 3 3 18 1 982 3 2 94 7 2 4 3 4 2 1 6 989 2 3 0 3 2 4 2 3 5 6 9 15 0 983 2 15 4 4 9 4 7 2 8 4896 3 0 984 1473 3 3 9 3 4 2 1 1 990 5 2 3 3 2 4 7 7 5 8 2948 2936 1 11 5 5 7 11 6 4 8 3 984 8 2 7 7 1221 364 2 1472 19 6 248 10 3 3 3 5 4 2 15 4 3 3 1 3 8 0 4 2 3 3 4 495 3 3 4 12 1 2 3 9 2 1475 10 9 1 1 8 2 985 2 5 4 10 492 3 3 982 6 3 497 3 965 3 1962 6564 3 3 14714 990 2 1962 1474 5 2 981 1 4 2 4 5 3 2 4 3 6 6 2 170 12 0 2454 2 1473 235 3 3 4 3 9 3 810 1 6 8 4 5 3 1963 0 980 635 0 2441 3 9 11 1 5 3 2 0 4 2 7 5 3 6 2 3 3 3 3 6 8 1 3 530 0 3 2 4 5 1963 2 4 986 2 4 2 1071 4 4 1 6 3 0 2 11 1470 1 2684 2 0 4 3 5 3 6 3 8 4 406 6 1 5 4 6 198 987 90 3 3 2 868 2 380 1 6 2941 5 7 3 6 2 1 2 495 0 3 0 3 9 12 2 2 1969 369 3 3 983 1 3 3 5 2 4 2 28 5 980 3 1 1 395 2 6 2 3 6 2 1 2 2 2 5 1 5 1 3930 4 3 3 12 8 1 2 3 5 4 9 983 9 8 4 4 3 4 3 3 0 3 2 0 2 1 2 2 4 6 5 2 2 3 4 1 2 4 3 2 3 22 3 2 1463 18 151 2 5 3 3 9 3 5 7 7 4 1 3 6 8 983 2 6 3 2 5 7 5 13 3 4 0 1964 1 0 2 4 0 7 2944 19 1 3 3 955 6 0 3 2 8 3 5 2 7 3 4234 3 3 2 3 528 7 989 3 3 5152 0 1 3 1 4 4 2 0 2 2 2943 6 8 4 0 3 5 6 1 1 1 3 10 2 1 5 6 3 5 5 4 1 28 2 7 1 1 2 2 2 2 5 1 3 3 3 4 5 1 5 3 398 3 5 2 1 3 1499 4 5 0 
To predecode: 0
Predecoding something: 0
Predecode request dropped: 0
sizeofblock_0 0
sizeofblock_1 107714
sizeofblock_2 85047
sizeofblock_3 64071
sizeofblock_4 5676
sizeofblock_5 0
sizeofblock_6 0
sizeofblock_7 0
sizeofblock_8 0
