
*** ChampSim Multicore Out-of-Order Simulator ***

Warmup Instructions: 50000000
Simulation Instructions: 50000000
Number of CPUs: 1
LLC sets: 2048
LLC ways: 16
Off-chip DRAM Size: 4096 MB Channels: 1 Width: 64-bit Data Rate: 6400 MT/s
CPU 0 runs ./micro_traces/srv183.trace.gz
.gz
ITLB has LRU replacement policy
DTLB has LRU replacement policy
STLB has LRU replacement policy
FDIP Prefetcher at L1I
L1I has LRU replacement policy
L1D has LRU replacement policy
Initialize SRRIP state for L2C
Initialize DRRIP state for LLC
Heartbeat_Variant_0 : 1326 0.32373 per_variant_size: 0 1326 0 0 0 0 0 0 0 
Heartbeat_Variant_1 : 2609 0.636963 per_variant_size: 0 533 2076 0 0 0 0 0 0 
Heartbeat_Variant_2 : 0 0 per_variant_size: 0 0 0 0 0 0 0 0 0 
Heartbeat_Variant_3 : 0 0 per_variant_size: 0 0 0 0 0 0 0 0 0 
Heartbeat_Variant_0_evicts 0 : 5777 1 : 569 2 : 0 3 : 0 
Heartbeat_Variant_1_evicts 0 : 537 1 : 0 2 : 0 3 : 0 
Heartbeat_Variant_2_evicts 0 : 0 1 : 0 2 : 0 3 : 0 
Heartbeat_Variant_3_evicts 0 : 0 1 : 0 2 : 0 3 : 0 
Heartbeat CPU 0 instructions: 10000002 cycles: 2797704 heartbeat IPC: 3.57436 cumulative IPC: 3.57436 (Simulation time: 0 hr 1 min 38 sec) 
Heartbeat_Variant_0 : 1356 0.331055 per_variant_size: 0 1356 0 0 0 0 0 0 0 
Heartbeat_Variant_1 : 2620 0.639648 per_variant_size: 0 513 2107 0 0 0 0 0 0 
Heartbeat_Variant_2 : 0 0 per_variant_size: 0 0 0 0 0 0 0 0 0 
Heartbeat_Variant_3 : 0 0 per_variant_size: 0 0 0 0 0 0 0 0 0 
Heartbeat_Variant_0_evicts 0 : 5676 1 : 324 2 : 0 3 : 0 
Heartbeat_Variant_1_evicts 0 : 302 1 : 0 2 : 0 3 : 0 
Heartbeat_Variant_2_evicts 0 : 0 1 : 0 2 : 0 3 : 0 
Heartbeat_Variant_3_evicts 0 : 0 1 : 0 2 : 0 3 : 0 
Heartbeat CPU 0 instructions: 20000003 cycles: 5594167 heartbeat IPC: 3.57595 cumulative IPC: 3.57515 (Simulation time: 0 hr 3 min 16 sec) 
Heartbeat_Variant_0 : 1365 0.333252 per_variant_size: 0 1365 0 0 0 0 0 0 0 
Heartbeat_Variant_1 : 2621 0.639893 per_variant_size: 0 477 2144 0 0 0 0 0 0 
Heartbeat_Variant_2 : 0 0 per_variant_size: 0 0 0 0 0 0 0 0 0 
Heartbeat_Variant_3 : 0 0 per_variant_size: 0 0 0 0 0 0 0 0 0 
Heartbeat_Variant_0_evicts 0 : 5578 1 : 99 2 : 0 3 : 0 
Heartbeat_Variant_1_evicts 0 : 94 1 : 0 2 : 0 3 : 0 
Heartbeat_Variant_2_evicts 0 : 0 1 : 0 2 : 0 3 : 0 
Heartbeat_Variant_3_evicts 0 : 0 1 : 0 2 : 0 3 : 0 
Heartbeat CPU 0 instructions: 30000000 cycles: 8391784 heartbeat IPC: 3.57447 cumulative IPC: 3.57493 (Simulation time: 0 hr 4 min 49 sec) 
Heartbeat_Variant_0 : 1374 0.335449 per_variant_size: 0 1374 0 0 0 0 0 0 0 
Heartbeat_Variant_1 : 2631 0.642334 per_variant_size: 0 442 2189 0 0 0 0 0 0 
Heartbeat_Variant_2 : 0 0 per_variant_size: 0 0 0 0 0 0 0 0 0 
Heartbeat_Variant_3 : 0 0 per_variant_size: 0 0 0 0 0 0 0 0 0 
Heartbeat_Variant_0_evicts 0 : 5720 1 : 228 2 : 0 3 : 0 
Heartbeat_Variant_1_evicts 0 : 225 1 : 0 2 : 0 3 : 0 
Heartbeat_Variant_2_evicts 0 : 0 1 : 0 2 : 0 3 : 0 
Heartbeat_Variant_3_evicts 0 : 0 1 : 0 2 : 0 3 : 0 
Heartbeat CPU 0 instructions: 40000002 cycles: 11187742 heartbeat IPC: 3.57659 cumulative IPC: 3.57534 (Simulation time: 0 hr 6 min 25 sec) 
Heartbeat_Variant_0 : 1367 0.33374 per_variant_size: 0 1367 0 0 0 0 0 0 0 
Heartbeat_Variant_1 : 2645 0.645752 per_variant_size: 0 452 2193 0 0 0 0 0 0 
Heartbeat_Variant_2 : 0 0 per_variant_size: 0 0 0 0 0 0 0 0 0 
Heartbeat_Variant_3 : 0 0 per_variant_size: 0 0 0 0 0 0 0 0 0 
Heartbeat_Variant_0_evicts 0 : 5603 1 : 80 2 : 0 3 : 0 
Heartbeat_Variant_1_evicts 0 : 89 1 : 0 2 : 0 3 : 0 
Heartbeat_Variant_2_evicts 0 : 0 1 : 0 2 : 0 3 : 0 
Heartbeat_Variant_3_evicts 0 : 0 1 : 0 2 : 0 3 : 0 
Heartbeat CPU 0 instructions: 50000003 cycles: 13984917 heartbeat IPC: 3.57504 cumulative IPC: 3.57528 (Simulation time: 0 hr 8 min 3 sec) 

Warmup complete CPU 0 instructions: 50000003 cycles: 13984917 (Simulation time: 0 hr 8 min 3 sec) 

Cycle: 20000000 FTQ IN: 58213516 FTQ occupancy: 20.4303 DECODE IN: 58213379 DECODE occupancy: 52.985 ROB IN: 58213319 ROB occupancy: 316.755 ROB OUT: 58212967
Heartbeat_Variant_0 : 1377 0.336182 per_variant_size: 0 1377 0 0 0 0 0 0 0 
Heartbeat_Variant_1 : 2657 0.648682 per_variant_size: 0 448 2209 0 0 0 0 0 0 
Heartbeat_Variant_2 : 0 0 per_variant_size: 0 0 0 0 0 0 0 0 0 
Heartbeat_Variant_3 : 0 0 per_variant_size: 0 0 0 0 0 0 0 0 0 
Heartbeat_Variant_0_evicts 0 : 5713 1 : 345 2 : 0 3 : 0 
Heartbeat_Variant_1_evicts 0 : 342 1 : 0 2 : 0 3 : 0 
Heartbeat_Variant_2_evicts 0 : 0 1 : 0 2 : 0 3 : 0 
Heartbeat_Variant_3_evicts 0 : 0 1 : 0 2 : 0 3 : 0 
Heartbeat CPU 0 instructions: 60000002 cycles: 21290413 heartbeat IPC: 1.36883 cumulative IPC: 1.36883 (Simulation time: 0 hr 9 min 58 sec) 
Heartbeat_Variant_0 : 1377 0.336182 per_variant_size: 0 1377 0 0 0 0 0 0 0 
Heartbeat_Variant_1 : 2658 0.648926 per_variant_size: 0 460 2198 0 0 0 0 0 0 
Heartbeat_Variant_2 : 0 0 per_variant_size: 0 0 0 0 0 0 0 0 0 
Heartbeat_Variant_3 : 0 0 per_variant_size: 0 0 0 0 0 0 0 0 0 
Heartbeat_Variant_0_evicts 0 : 5569 1 : 20 2 : 0 3 : 0 
Heartbeat_Variant_1_evicts 0 : 20 1 : 0 2 : 0 3 : 0 
Heartbeat_Variant_2_evicts 0 : 0 1 : 0 2 : 0 3 : 0 
Heartbeat_Variant_3_evicts 0 : 0 1 : 0 2 : 0 3 : 0 
Heartbeat CPU 0 instructions: 70000002 cycles: 28458089 heartbeat IPC: 1.39515 cumulative IPC: 1.38187 (Simulation time: 0 hr 11 min 55 sec) 
Cycle: 30000000 FTQ IN: 13817833 FTQ occupancy: 14.8907 DECODE IN: 13817935 DECODE occupancy: 37.9311 ROB IN: 13817975 ROB occupancy: 246.681 ROB OUT: 13818194
Heartbeat_Variant_0 : 1388 0.338867 per_variant_size: 0 1388 0 0 0 0 0 0 0 
Heartbeat_Variant_1 : 2666 0.650879 per_variant_size: 0 451 2215 0 0 0 0 0 0 
Heartbeat_Variant_2 : 0 0 per_variant_size: 0 0 0 0 0 0 0 0 0 
Heartbeat_Variant_3 : 0 0 per_variant_size: 0 0 0 0 0 0 0 0 0 
Heartbeat_Variant_0_evicts 0 : 5811 1 : 474 2 : 0 3 : 0 
Heartbeat_Variant_1_evicts 0 : 467 1 : 0 2 : 0 3 : 0 
Heartbeat_Variant_2_evicts 0 : 0 1 : 0 2 : 0 3 : 0 
Heartbeat_Variant_3_evicts 0 : 0 1 : 0 2 : 0 3 : 0 
Heartbeat CPU 0 instructions: 80000001 cycles: 35744841 heartbeat IPC: 1.37235 cumulative IPC: 1.37868 (Simulation time: 0 hr 13 min 50 sec) 
Cycle: 40000000 FTQ IN: 13879405 FTQ occupancy: 14.6337 DECODE IN: 13879313 DECODE occupancy: 37.4488 ROB IN: 13879273 ROB occupancy: 244.275 ROB OUT: 13879054
Heartbeat_Variant_0 : 1397 0.341064 per_variant_size: 0 1397 0 0 0 0 0 0 0 
Heartbeat_Variant_1 : 2671 0.6521 per_variant_size: 0 441 2230 0 0 0 0 0 0 
Heartbeat_Variant_2 : 0 0 per_variant_size: 0 0 0 0 0 0 0 0 0 
Heartbeat_Variant_3 : 0 0 per_variant_size: 0 0 0 0 0 0 0 0 0 
Heartbeat_Variant_0_evicts 0 : 5663 1 : 197 2 : 0 3 : 0 
Heartbeat_Variant_1_evicts 0 : 192 1 : 0 2 : 0 3 : 0 
Heartbeat_Variant_2_evicts 0 : 0 1 : 0 2 : 0 3 : 0 
Heartbeat_Variant_3_evicts 0 : 0 1 : 0 2 : 0 3 : 0 
Heartbeat CPU 0 instructions: 90000002 cycles: 42918389 heartbeat IPC: 1.39401 cumulative IPC: 1.38248 (Simulation time: 0 hr 15 min 50 sec) 
Cycle: 50000000 FTQ IN: 13589457 FTQ occupancy: 14.2929 DECODE IN: 13589472 DECODE occupancy: 36.1881 ROB IN: 13589532 ROB occupancy: 239.731 ROB OUT: 13589583
Heartbeat_Variant_0 : 1391 0.3396 per_variant_size: 0 1391 0 0 0 0 0 0 0 
Heartbeat_Variant_1 : 2695 0.657959 per_variant_size: 0 413 2282 0 0 0 0 0 0 
Heartbeat_Variant_2 : 0 0 per_variant_size: 0 0 0 0 0 0 0 0 0 
Heartbeat_Variant_3 : 0 0 per_variant_size: 0 0 0 0 0 0 0 0 0 
Heartbeat_Variant_0_evicts 0 : 6053 1 : 1044 2 : 0 3 : 0 
Heartbeat_Variant_1_evicts 0 : 1052 1 : 0 2 : 0 3 : 0 
Heartbeat_Variant_2_evicts 0 : 0 1 : 0 2 : 0 3 : 0 
Heartbeat_Variant_3_evicts 0 : 0 1 : 0 2 : 0 3 : 0 
Heartbeat CPU 0 instructions: 100000000 cycles: 50357926 heartbeat IPC: 1.34417 cumulative IPC: 1.37465 (Simulation time: 0 hr 17 min 45 sec) 
Finished CPU 0 instructions: 50000001 cycles: 36373010 cumulative IPC: 1.37465 (Simulation time: 0 hr 17 min 45 sec) 

ChampSim completed all CPUs

Region of Interest Statistics

CPU 0 cumulative IPC: 1.37465 instructions: 50000001 cycles: 36373010
 Fetch stage stalled: 46.9337  Sim cycles: 36373010 fetch stall cycle: 17071194
 Empty decode stage: 26.5644  Sim cycles: 36373010 fetch stall cycle: 9662258
ITLB TOTAL     ACCESS:    5834539  HIT:    5338424  MISS:     496115  HIT %:    91.4969  MISS %:    8.50307   MPKI: 9.9223
ITLB LOAD TRANSLATION INSTRUCTION	ACCESS:    5699984  HIT:    5203869  MISS:     496115  HIT %:    91.2962  MISS %:     8.7038  MPKI: 9.9223
ITLB TRANSLATION FROM L1D PREFETCHER INSTRUCTION	ACCESS:     134555  HIT:     134555  MISS:          0  HIT %:        100  MISS %:          0  MPKI: 0

ITLB AVERAGE MISS LATENCY: 9.06968 cycles
ITLB RQ	ACCESS:    7923573	FORWARD:          0	MERGED:    1608270	TO_CACHE:    6315303

DTLB TOTAL     ACCESS:    8966675  HIT:    8494333  MISS:     472342  HIT %:    94.7323  MISS %:    5.26775   MPKI: 9.44684
DTLB LOAD TRANSLATION DATA	ACCESS:    8966675  HIT:    8494333  MISS:     472342  HIT %:    94.7323  MISS %:    5.26775  MPKI: 9.44684

DTLB AVERAGE MISS LATENCY: 9.38312 cycles
DTLB RQ	ACCESS:   13340430	FORWARD:          0	MERGED:    4336387	TO_CACHE:    9004043

STLB TOTAL     ACCESS:    1216181  HIT:    1213894  MISS:       2287  HIT %:     99.812  MISS %:   0.188048   MPKI: 0.04574
STLB LOAD TRANSLATION INSTRUCTION	ACCESS:     496115  HIT:     495794  MISS:        321  HIT %:    99.9353  MISS %:  0.0647027  MPKI: 0.00642
STLB LOAD TRANSLATION DATA	ACCESS:     472338  HIT:     470416  MISS:       1922  HIT %:    99.5931  MISS %:   0.406912  MPKI: 0.03844
STLB TRANSLATION FROM L1D PREFETCHER DATA	ACCESS:     247728  HIT:     247684  MISS:         44  HIT %:    99.9822  MISS %:  0.0177614  MPKI: 0.00088

STLB AVERAGE MISS LATENCY: 80.8461 cycles
STLB RQ	ACCESS:    1337341	FORWARD:          0	MERGED:     121118	TO_CACHE:    1216223

STLB Hit, L1D data hit: 0
STLB Hit, L2C data hit: 0
STLB Hit, LLC data hit: 0
STLB Hit, LLC data miss: 0
STLB STLB hints to L2: 0
L1D TOTAL     ACCESS:   13081856  HIT:   11955305  MISS:    1126551  HIT %:    91.3884  MISS %:    8.61155   MPKI: 22.531
L1D LOAD DATA	ACCESS:    6548898  HIT:    5806135  MISS:     742763  HIT %:    88.6582  MISS %:    11.3418  MPKI: 14.8553
L1D RFO DATA	ACCESS:    6205376  HIT:    5917024  MISS:     288352  HIT %:    95.3532  MISS %:    4.64681  MPKI: 5.76704
L1D PREFETCH DATA	ACCESS:     327582  HIT:     232146  MISS:      95436  HIT %:    70.8665  MISS %:    29.1335  MPKI: 1.90872

L1D PREFETCH  REQUESTED:     738114  ISSUED:     738114  USEFUL:      35125  USELESS:      68152
L1D USEFUL LOAD PREFETCHES:      35125 PREFETCH ISSUED TO LOWER LEVEL:     103382  ACCURACY: 33.9759
 TIMELY PREFETCHES:      35125 LATE PREFETCHES: 7875 DROPPED PREFETCHES: 11
L1D AVERAGE MISS LATENCY: 224512 cycles
L1D RQ	ACCESS:   10690685	FORWARD:          0	MERGED:    3940393	TO_CACHE:    6584858
L1D WQ	ACCESS:    6954528	FORWARD:     165780	MERGED:     198956	TO_CACHE:    6755572
L1D PQ	ACCESS:     369230	FORWARD:          0	MERGED:          0	TO_CACHE:     368884

L1D UNIQUE REGIONS ACCESSED: 0
L1D REGIONS CONFLICTS: 0
L1D Cross Page Prefetch Requests: 6978
L1D Same Page Prefetch Requests: 748458
L1D ROI Sum of L1D PQ occupancy: 4696032
L1D PREFETCHES PUSHED FROM L2C: 0
L1I TOTAL     ACCESS:    7115521  HIT:    4341667  MISS:    2773854  HIT %:    61.0169  MISS %:    38.9831   MPKI: 55.4771
L1I LOAD INSTRUCTION	ACCESS:    6454372  HIT:    3680518  MISS:    2773854  HIT %:    57.0236  MISS %:    42.9764  MPKI: 55.4771
L1I PREFETCH INSTRUCTION	ACCESS:     661149  HIT:     661149  MISS:          0  HIT %:        100  MISS %:          0  MPKI: 0

L1I PREFETCH  REQUESTED:    1600460  ISSUED:    1600460  USEFUL:          0  USELESS:          0
L1I USEFUL LOAD PREFETCHES:          0 PREFETCH ISSUED TO LOWER LEVEL:          0  ACCURACY: -nan
 TIMELY PREFETCHES:          0 LATE PREFETCHES: 0 DROPPED PREFETCHES: 0
L1I AVERAGE MISS LATENCY: 17.2572 cycles
L1I RQ	ACCESS:    9564701	FORWARD:          0	MERGED:    2812875	TO_CACHE:    6751826
L1I PQ	ACCESS:    1600460	FORWARD:          0	MERGED:     428713	TO_CACHE:    1171747

L1BTB TOTAL     ACCESS:    5670139  HIT:    2034376  MISS:    3635763  HIT %:    35.8788  MISS %:    64.1212   MPKI: 72.7153
L1BTB BRANCH_DIRECT_JUMP	ACCESS:     546743 HIT:     143375 MISS:     403368 AVERAGE STALL: 55.6264 AVERAGE FETCH STALL: 14.508 AVERAGE FETCH QUEUE STALL: 19.7886 AVERAGE DECODE STALL: 20.4343 AVERAGE EXECUTE STALL: 2.18952e+15
L1BTB BRANCH_INDIRECT	ACCESS:     182459 HIT:      65638 MISS:     116821 AVERAGE STALL: 110.875 AVERAGE FETCH STALL: 10.9943 AVERAGE FETCH QUEUE STALL: 16.743 AVERAGE DECODE STALL: 13.1771 AVERAGE EXECUTE STALL: 68.9988
L1BTB BRANCH_CONDITIONAL	ACCESS:    2705177 HIT:    1411052 MISS:    1294125 AVERAGE STALL: 57.0905 AVERAGE FETCH STALL: 25.211 AVERAGE FETCH QUEUE STALL: 17.1722 AVERAGE DECODE STALL: 14.0085 AVERAGE EXECUTE STALL: 2.3535e+15
L1BTB BRANCH_DIRECT_CALL	ACCESS:     946771 HIT:     104163 MISS:     842608 AVERAGE STALL: 71.3993 AVERAGE FETCH STALL: 29.8374 AVERAGE FETCH QUEUE STALL: 22.4666 AVERAGE DECODE STALL: 18.2899 AVERAGE EXECUTE STALL: 5.30994e+15
L1BTB BRANCH_INDIRECT_CALL	ACCESS:     171107 HIT:      20725 MISS:     150382 AVERAGE STALL: 140.669 AVERAGE FETCH STALL: 12.3346 AVERAGE FETCH QUEUE STALL: 17.1947 AVERAGE DECODE STALL: 11.453 AVERAGE EXECUTE STALL: 99.1995
L1BTB BRANCH_RETURN	ACCESS:    1117882 HIT:     289423 MISS:     828459 AVERAGE STALL: 51.2935 AVERAGE FETCH STALL: 17.3084 AVERAGE FETCH QUEUE STALL: 6.32051 AVERAGE DECODE STALL: 6.53697 AVERAGE EXECUTE STALL: 4.06155e+14
L1BTB BRANCH_OTHER ACCESS:          0 HIT:          0 MISS:          0 AVERAGE STALL: -nan AVERAGE FETCH STALL: -nan AVERAGE FETCH QUEUE STALL: -nan AVERAGE DECODE STALL: -nan AVERAGE EXECUTE STALL: -nan
L1BTB TOTAL ROB OCCUPANCY AT BTB MISS: 2.92478

L2BTB TOTAL     ACCESS:    3610387  HIT:    3537128  MISS:      73259  HIT %:    97.9709  MISS %:    2.02912   MPKI: 1.46518
L2BTB BRANCH_DIRECT_JUMP	ACCESS:     399224 HIT:     394887 MISS:       4337 AVERAGE STALL: 55.6264 AVERAGE FETCH STALL: 14.508 AVERAGE FETCH QUEUE STALL: 19.7886 AVERAGE DECODE STALL: 20.4343 AVERAGE EXECUTE STALL: 2.18952e+15
L2BTB BRANCH_INDIRECT	ACCESS:     106507 HIT:     103746 MISS:       2761 AVERAGE STALL: 110.875 AVERAGE FETCH STALL: 10.9943 AVERAGE FETCH QUEUE STALL: 16.743 AVERAGE DECODE STALL: 13.1771 AVERAGE EXECUTE STALL: 68.9988
L2BTB BRANCH_CONDITIONAL	ACCESS:    1294125 HIT:    1286086 MISS:       8039 AVERAGE STALL: 57.0905 AVERAGE FETCH STALL: 25.211 AVERAGE FETCH QUEUE STALL: 17.1722 AVERAGE DECODE STALL: 14.0085 AVERAGE EXECUTE STALL: 2.3535e+15
L2BTB BRANCH_DIRECT_CALL	ACCESS:     842608 HIT:     839039 MISS:       3569 AVERAGE STALL: 71.3993 AVERAGE FETCH STALL: 29.8374 AVERAGE FETCH QUEUE STALL: 22.4666 AVERAGE DECODE STALL: 18.2899 AVERAGE EXECUTE STALL: 5.30994e+15
L2BTB BRANCH_INDIRECT_CALL	ACCESS:     140895 HIT:     130423 MISS:      10472 AVERAGE STALL: 140.669 AVERAGE FETCH STALL: 12.3346 AVERAGE FETCH QUEUE STALL: 17.1947 AVERAGE DECODE STALL: 11.453 AVERAGE EXECUTE STALL: 99.1995
L2BTB BRANCH_RETURN	ACCESS:     827028 HIT:     782947 MISS:      44081 AVERAGE STALL: 51.2935 AVERAGE FETCH STALL: 17.3084 AVERAGE FETCH QUEUE STALL: 6.32051 AVERAGE DECODE STALL: 6.53697 AVERAGE EXECUTE STALL: 4.06155e+14
L2BTB BRANCH_OTHER ACCESS:          0 HIT:          0 MISS:          0 AVERAGE STALL: -nan AVERAGE FETCH STALL: -nan AVERAGE FETCH QUEUE STALL: -nan AVERAGE DECODE STALL: -nan AVERAGE EXECUTE STALL: -nan
L2BTB TOTAL ROB OCCUPANCY AT BTB MISS: 145.154

L2C TOTAL     ACCESS:    4514909  HIT:    4030701  MISS:     484208  HIT %:    89.2754  MISS %:    10.7246   MPKI: 9.68416
L2C LOAD INSTRUCTION	ACCESS:    2773852  HIT:    2516437  MISS:     257415  HIT %:    90.7199  MISS %:    9.28006  MPKI: 5.1483
L2C LOAD TRANSLATION INSTRUCTION	ACCESS:        378  HIT:        125  MISS:        253  HIT %:    33.0688  MISS %:    66.9312  MPKI: 0.00506
L2C LOAD DATA	ACCESS:     734863  HIT:     660726  MISS:      74137  HIT %:    89.9115  MISS %:    10.0885  MPKI: 1.48274
L2C RFO DATA	ACCESS:     288258  HIT:     228907  MISS:      59351  HIT %:    79.4105  MISS %:    20.5895  MPKI: 1.18702
L2C PREFETCH DATA	ACCESS:     188618  HIT:     113650  MISS:      74968  HIT %:    60.2541  MISS %:    39.7459  MPKI: 1.49936
L2C WRITEBACK DATA	ACCESS:     526816  HIT:     510210  MISS:      16606  HIT %:    96.8479  MISS %:    3.15214  MPKI: 0.33212
L2C LOAD TRANSLATION DATA	ACCESS:       2050  HIT:        597  MISS:       1453  HIT %:     29.122  MISS %:     70.878  MPKI: 0.02906
L2C TRANSLATION FROM L1D PREFETCHER DATA	ACCESS:         74  HIT:         49  MISS:         25  HIT %:    66.2162  MISS %:    33.7838  MPKI: 0.0005

L2C PREFETCH  REQUESTED:      92403  ISSUED:      92403  USEFUL:       7539  USELESS:      67911
L2C USEFUL LOAD PREFETCHES:       7539 PREFETCH ISSUED TO LOWER LEVEL:      75352  ACCURACY: 10.005
 TIMELY PREFETCHES:       7539 LATE PREFETCHES: 384 DROPPED PREFETCHES: 0
L2C AVERAGE MISS LATENCY: 39.6709 cycles
L2C RQ	ACCESS:    3799524	FORWARD:          0	MERGED:          0	TO_CACHE:    3799476
L2C WQ	ACCESS:     526816	FORWARD:         49	MERGED:          0	TO_CACHE:     526816
L2C PQ	ACCESS:     195785	FORWARD:          0	MERGED:       3209	TO_CACHE:     192575

L2C Dense regions hint from L2: 0
PSCL5 TOTAL     ACCESS:       4602  HIT:       2301  MISS:       2301  HIT %:         50  MISS %:         50   MPKI: 0.04602
PSCL5 LOAD TRANSLATION INSTRUCTION	ACCESS:       4456  HIT:       2228  MISS:       2228  HIT %:         50  MISS %:         50  MPKI: 0.04456
PSCL5 TRANSLATION FROM L1D PREFETCHER INSTRUCTION	ACCESS:        146  HIT:         73  MISS:         73  HIT %:         50  MISS %:         50  MPKI: 0.00146


PSCL4 TOTAL     ACCESS:       4452  HIT:       2219  MISS:       2233  HIT %:    49.8428  MISS %:    50.1572   MPKI: 0.04466
PSCL4 LOAD TRANSLATION INSTRUCTION	ACCESS:       3543  HIT:       2146  MISS:       1397  HIT %:    60.5701  MISS %:    39.4299  MPKI: 0.02794
PSCL4 TRANSLATION FROM L1D PREFETCHER INSTRUCTION	ACCESS:        128  HIT:         73  MISS:         55  HIT %:    57.0312  MISS %:    42.9688  MPKI: 0.0011
PSCL4 LOAD TRANSLATION DATA	ACCESS:        763  HIT:          0  MISS:        763  HIT %:          0  MISS %:        100  MPKI: 0.01526
PSCL4 TRANSLATION FROM L1D PREFETCHER DATA	ACCESS:         18  HIT:          0  MISS:         18  HIT %:          0  MISS %:        100  MPKI: 0.00036


PSCL3 TOTAL     ACCESS:       4520  HIT:       2253  MISS:       2267  HIT %:    49.8451  MISS %:    50.1549   MPKI: 0.04534
PSCL3 LOAD TRANSLATION INSTRUCTION	ACCESS:       3577  HIT:       2180  MISS:       1397  HIT %:    60.9449  MISS %:    39.0551  MPKI: 0.02794
PSCL3 TRANSLATION FROM L1D PREFETCHER INSTRUCTION	ACCESS:        128  HIT:         73  MISS:         55  HIT %:    57.0312  MISS %:    42.9688  MPKI: 0.0011
PSCL3 LOAD TRANSLATION DATA	ACCESS:        797  HIT:          0  MISS:        797  HIT %:          0  MISS %:        100  MPKI: 0.01594
PSCL3 TRANSLATION FROM L1D PREFETCHER DATA	ACCESS:         18  HIT:          0  MISS:         18  HIT %:          0  MISS %:        100  MPKI: 0.00036


PSCL2 TOTAL     ACCESS:       4423  HIT:       2122  MISS:       2301  HIT %:    47.9765  MISS %:    52.0235   MPKI: 0.04602
PSCL2 LOAD TRANSLATION INSTRUCTION	ACCESS:       2387  HIT:       2050  MISS:        337  HIT %:    85.8819  MISS %:    14.1181  MPKI: 0.00674
PSCL2 TRANSLATION FROM L1D PREFETCHER INSTRUCTION	ACCESS:         72  HIT:         72  MISS:          0  HIT %:        100  MISS %:          0  MPKI: 0
PSCL2 LOAD TRANSLATION DATA	ACCESS:       1892  HIT:          0  MISS:       1892  HIT %:          0  MISS %:        100  MPKI: 0.03784
PSCL2 TRANSLATION FROM L1D PREFETCHER DATA	ACCESS:         72  HIT:          0  MISS:         72  HIT %:          0  MISS %:        100  MPKI: 0.00144


LLC TOTAL     ACCESS:     547056  HIT:     514973  MISS:      32083  HIT %:    94.1353  MISS %:    5.86466   MPKI: 0.64166
LLC LOAD INSTRUCTION	ACCESS:     257415  HIT:     255962  MISS:       1453  HIT %:    99.4355  MISS %:   0.564458  MPKI: 0.02906
LLC LOAD TRANSLATION INSTRUCTION	ACCESS:        253  HIT:        213  MISS:         40  HIT %:    84.1897  MISS %:    15.8103  MPKI: 0.0008
LLC LOAD DATA	ACCESS:      73800  HIT:      69879  MISS:       3921  HIT %:     94.687  MISS %:    5.31301  MPKI: 0.07842
LLC RFO DATA	ACCESS:      59278  HIT:      43658  MISS:      15620  HIT %:    73.6496  MISS %:    26.3504  MPKI: 0.3124
LLC PREFETCH DATA	ACCESS:      75352  HIT:      64821  MISS:      10531  HIT %:    86.0243  MISS %:    13.9757  MPKI: 0.21062
LLC WRITEBACK DATA	ACCESS:      79480  HIT:      79092  MISS:        388  HIT %:    99.5118  MISS %:   0.488173  MPKI: 0.00776
LLC LOAD TRANSLATION DATA	ACCESS:       1453  HIT:       1324  MISS:        129  HIT %:    91.1218  MISS %:    8.87818  MPKI: 0.00258
LLC TRANSLATION FROM L1D PREFETCHER DATA	ACCESS:         25  HIT:         24  MISS:          1  HIT %:         96  MISS %:          4  MPKI: 2e-05

LLC AVERAGE MISS LATENCY: 160.152 cycles
LLC RQ	ACCESS:     392250	FORWARD:          0	MERGED:          0	TO_CACHE:     392224
LLC WQ	ACCESS:      79480	FORWARD:         26	MERGED:          0	TO_CACHE:      79480
LLC PQ	ACCESS:      75352	FORWARD:          0	MERGED:          0	TO_CACHE:      75352

LLC Dense regions hint to LLC: 0

RAW hits: 1948079
Loads Generated: 12638764
Loads sent to L1D: 10690685
Stores Generated: 6954524
Stores sent to L1D: 6954528
Major fault: 0 Minor fault: 2672
Allocated PAGES: 2672

stream: 
stream:times selected: 1188140
stream:pref_filled: 122108
stream:pref_useful: 24824
stream:pref_late: 6729
stream:misses: 8126
stream:misses_by_poll: 0

CS: 
CS:times selected: 178956
CS:pref_filled: 60138
CS:pref_useful: 36698
CS:pref_late: 6828
CS:misses: 16067
CS:misses_by_poll: 13

CPLX: 
CPLX:times selected: 1007996
CPLX:pref_filled: 19635
CPLX:pref_useful: 4752
CPLX:pref_late: 2974
CPLX:misses: 93944
CPLX:misses_by_poll: 2

NL_L1: 
NL:times selected: 21518
NL:pref_filled: 657
NL:pref_useful: 266
NL:pref_late: 368
NL:misses: 1844
NL:misses_by_poll: 0

total selections: 2396610
total_filled: 95436
total_useful: 35125
total_late: 18219
total_polluted: 15
total_misses_after_warmup: 778725
conflicts: 5521050

test: 116452

DRAM Statistics
 CHANNEL 0
 RQ ROW_BUFFER_HIT:      11587  ROW_BUFFER_MISS:      20095
 DBUS_CONGESTED:          8
 WQ ROW_BUFFER_HIT:       1778  ROW_BUFFER_MISS:      13608  FULL:          0

 AVG_CONGESTED_CYCLE: 7

CPU 0 Branch Prediction Accuracy: 99.7901% MPKI: 0.3838 Average ROB Occupancy at Mispredict: 173.887
Branch types
NOT_BRANCH: 40858643 81.7173%
BRANCH_DIRECT_JUMP: 546743 1.09349%
BRANCH_INDIRECT: 182459 0.364918%
BRANCH_CONDITIONAL: 6176393 12.3528%
BRANCH_DIRECT_CALL: 946771 1.89354%
BRANCH_INDIRECT_CALL: 171107 0.342214%
BRANCH_RETURN: 1117882 2.23576%
BRANCH_OTHER: 0 0%

DRAM PAGES: 1048576
Allocated PAGES: 2672
Average_ROB_Occupancy: 244.596
Average_Decode_Occupancy: 37.0618
Average_FTQ_Occupancy: 14.5697
Indirect max targets: 14 Average targets: 1.18266
Branch_type:  BRANCH_DIRECT_JUMP:  Count Percentage: 2.117 7.16123 4.13221 8.54386 9.65518 4.36117 0.90289 63.1265 
Branch_type:  BRANCH_INDIRECT:  Count Percentage: 11.7457 3.43481 2.55791 0 16.6757 9.68397 2.27217 53.6298 
Branch_type:  BRANCH_CONDITIONAL:  Count Percentage: 25.2881 2.75396 1.70479 5.25749 4.90105 4.53203 0.510389 55.0522 
Branch_type:  BRANCH_DIRECT_CALL:  Count Percentage: 0.774726 1.29441 1.37467 3.9975 4.18531 0.988976 0.938116 86.4463 
Branch_type:  BRANCH_INDIRECT_CALL:  Count Percentage: 9.56615 0 2.99692 8.72297 2.42915 0.00292668 1.28862 74.9933 
Branch_type:  BRANCH_RETURN:  Count Percentage: 8.40549 1.09493 1.32088 5.8674 6.58122 5.20846 1.47697 70.0447 
Branch_type:  BRANCH_DIRECT_JUMP:  Total Count: 23189 78442 45263 93587 105760 47771 9890 691469 
Branch_type:  BRANCH_INDIRECT:  Total Count: 42916 12550 9346 0 60929 35383 8302 195951 
Branch_type:  BRANCH_CONDITIONAL:  Total Count: 3125748 340405 210722 649855 605798 560185 63087 6804766 
Branch_type:  BRANCH_DIRECT_CALL:  Total Count: 14623 24432 25947 75453 78998 18667 17707 1631680 
Branch_type:  BRANCH_INDIRECT_CALL:  Total Count: 32686 0 10240 29805 8300 10 4403 256240 
Branch_type:  BRANCH_RETURN:  Total Count: 187451 24418 29457 130849 146768 116154 32938 1562068 
Number of unique branch instructions: 11118
Upper 32 bits: 
aaaa
ffff
ffff0000
Unique upper 32 bits: 3
Unique upper 36 bits: 3
Unique upper 40 bits: 5
Unique upper 44 bits: 32
Unique upper 48 bits: 160
Variant_0 : 1391 0.3396
Variant_1 : 2695 0.657959
Variant_2 : 0 0
Variant_3 : 0 0
Offset_3 4608
Offset_4 284
Offset_5 501
Offset_6 557
Offset_7 661
Offset_8 615
Offset_9 547
Offset_10 433
Offset_11 357
Offset_12 336
Offset_13 248
Offset_14 252
Offset_15 203
Offset_16 234
Offset_17 178
Offset_18 152
Offset_19 270
Offset_20 148
Offset_21 262
Offset_22 412
Offset_23 245
Offset_24 373
Offset_25 117
Offset_47 100
Offset_64 21
decode_dispatch_called: 26215123 72.073
Dispatch_width: 0 14164196 54.0306 38.9415
Dispatch_width: 1 1006888 3.84087 2.76823
Dispatch_width: 2 843908 3.21916 2.32015
Dispatch_width: 3 496357 1.8934 1.36463
Dispatch_width: 4 6145595 23.4429 16.896
Dispatch_width: 5 115228 0.439548 0.316795
Dispatch_width: 6 3442951 13.1335 9.46568
Empty_decode_cycles: 10157887 27.927
ROB_full_cycles: 9857093 27.1
Starvation_cycles_per_kilo_instr: 230.73
Starvation_cycles_per_kilo_instr_3: 168.121
Starvation_cycles_per_kilo_instr_0: 144.65
Branch_type_1  (3,1)  (4,10)  (5,41)  (6,75)  (7,129)  (8,159)  (9,144)  (10,113)  (11,79)  (12,55)  (13,11)  (14,2)  (15,3)  (16,4)  (18,1)  (19,5)  (20,2)  (21,1)  (22,3)  (23,2)  (24,10)  (25,12)  (64,2) 
Branch_type_2  (3,1)  (4,1)  (5,1)  (8,4)  (9,4)  (10,1)  (12,1)  (13,1)  (14,1)  (16,3)  (17,2)  (20,2)  (21,2)  (23,5)  (24,1)  (47,46) 
Branch_type_3  (3,4606)  (4,273)  (5,455)  (6,464)  (7,498)  (8,381)  (9,302)  (10,175)  (11,138)  (12,62)  (13,10)  (24,3)  (64,15) 
Branch_type_4  (6,4)  (7,8)  (8,30)  (9,58)  (10,68)  (11,73)  (12,121)  (13,106)  (14,113)  (15,97)  (16,103)  (17,84)  (18,65)  (19,130)  (20,74)  (21,141)  (22,218)  (23,138)  (24,216)  (25,101)  (64,2) 
Branch_type_5  (8,3)  (9,1)  (10,4)  (11,5)  (12,3)  (13,14)  (14,16)  (15,11)  (16,22)  (17,11)  (18,23)  (19,15)  (20,12)  (21,13)  (22,43)  (23,26)  (24,42)  (64,1) 
Branch_type_6  (5,4)  (6,14)  (7,26)  (8,38)  (9,38)  (10,72)  (11,62)  (12,94)  (13,106)  (14,120)  (15,92)  (16,102)  (17,81)  (18,63)  (19,120)  (20,58)  (21,105)  (22,148)  (23,74)  (24,101)  (25,4)  (47,54)  (64,1) 
Unique trigger count: 
Variant_0_evicts_0 : 0
Variant_0_evicts_1 : 0
Variant_0_evicts_2 : 0
Variant_0_evicts_3 : 0
Variant_1_evicts_0 : 0
Variant_1_evicts_1 : 0
Variant_1_evicts_2 : 0
Variant_1_evicts_3 : 0
Variant_2_evicts_0 : 0
Variant_2_evicts_1 : 0
Variant_2_evicts_2 : 0
Variant_2_evicts_3 : 0
Variant_3_evicts_0 : 0
Variant_3_evicts_1 : 0
Variant_3_evicts_2 : 0
Variant_3_evicts_3 : 0
BTB PER SET UNIQUE ADDR: 19 17 15 17 13 11 7 15 11 14 12 19 14 9 16 8 13 14 12 15 15 13 13 17 14 18 13 11 18 12 10 16 16 11 11 10 13 17 10 12 12 13 16 15 15 14 15 14 12 19 16 10 16 17 10 10 20 10 12 16 11 18 16 14 15 13 14 14 17 15 14 15 19 12 15 11 12 13 12 22 15 11 13 17 17 12 16 11 8 21 14 9 12 14 6 16 15 13 8 13 20 21 13 10 13 11 12 14 9 9 11 18 16 17 14 9 12 16 13 11 16 10 11 14 15 16 8 13 21 10 12 18 16 16 12 20 11 14 12 22 10 19 14 16 15 14 17 9 8 15 11 13 11 13 12 14 15 14 17 13 16 11 13 14 8 16 18 9 15 11 11 14 10 18 17 16 14 10 16 11 16 14 13 14 14 14 9 13 15 9 17 16 13 12 16 13 12 15 14 11 17 16 8 13 12 12 13 15 15 17 11 13 11 13 10 12 10 10 12 21 6 15 7 14 12 14 17 14 14 13 11 11 12 16 11 19 16 15 14 11 12 13 13 18 13 13 12 9 15 14 15 17 11 12 11 18 11 12 12 10 14 11 5 13 11 7 10 10 18 12 12 19 14 8 10 12 14 17 12 13 10 17 16 12 14 11 10 15 15 21 13 10 18 17 11 12 11 13 17 12 9 13 11 22 16 21 14 10 12 21 12 18 10 22 15 12 14 12 13 18 12 16 9 14 16 21 10 11 12 12 14 20 12 16 13 16 14 9 14 17 10 20 10 17 16 13 12 14 16 16 14 10 12 10 12 13 11 14 10 10 14 19 11 16 10 14 8 15 18 10 11 9 14 15 12 18 15 18 10 13 12 10 12 13 9 10 16 16 17 14 18 11 18 20 16 12 10 7 15 14 10 11 13 15 16 16 16 18 13 12 15 12 10 16 17 14 13 19 22 22 13 12 9 15 18 13 16 11 11 14 15 14 13 16 18 19 15 11 10 12 15 14 14 15 16 11 9 12 17 15 17 20 12 11 17 18 14 15 13 15 13 10 14 15 21 9 13 12 13 14 13 11 15 15 14 19 11 17 10 14 20 14 15 17 8 14 18 17 12 15 15 14 16 12 14 11 18 14 8 15 13 19 11 17 16 8 10 15 16 13 14 13 16 11 14 16 11 15 11 10 14 13 14 13 15 12 20 8 11 15 18 17 9 11 17 19 12 22 17 14 23 13 14 14 16 15 12 16 15 20 17 16 14 11 15 16 12 16 19 20 12 14 10 16 15 15 14 14 14 17 15 14 15 15 15 14 18 19 13 17 14 20 14 13 13 14 14 17 14 15 13 10 14 14 11 15 12 15 16 11 13 9 11 9 12 17 17 8 12 15 15 17 14 13 8 20 13 13 18 13 18 16 9 12 11 14 13 17 10 14 12 14 17 13 15 14 19 13 11 18 13 12 12 16 16 12 17 14 18 13 12 13 14 13 17 15 15 14 15 15 12 8 12 18 14 14 10 9 14 10 15 17 15 15 24 12 17 18 15 21 10 17 14 16 13 14 9 16 15 13 13 16 14 9 12 16 12 19 12 22 12 16 13 21 10 19 14 11 11 12 12 16 13 10 13 13 15 11 10 16 14 13 17 16 12 14 9 12 9 16 16 12 11 8 11 12 14 16 20 11 10 10 12 14 12 19 13 15 12 14 15 10 11 16 16 14 23 15 11 10 16 8 13 9 16 19 7 15 14 14 15 13 8 11 15 15 14 13 17 16 11 15 15 9 12 16 16 14 7 12 14 6 13 9 14 20 10 13 14 13 25 13 20 21 17 15 16 13 10 16 14 18 18 14 13 14 20 19 9 17 17 21 10 16 16 15 13 13 12 13 14 16 16 14 12 14 14 15 16 13 13 13 11 10 13 17 11 26 14 21 13 17 10 13 12 18 12 11 15 17 10 10 12 12 22 11 14 17 20 10 13 18 12 12 16 9 17 15 11 10 14 9 11 17 11 14 15 9 17 10 14 13 14 14 16 18 24 14 13 12 13 18 16 15 11 15 15 19 13 18 14 15 18 11 16 24 12 11 16 16 12 17 12 16 11 15 8 17 14 10 12 15 17 10 17 19 11 11 18 17 12 15 10 9 11 11 17 21 13 17 13 13 11 15 11 11 13 13 18 17 19 10 11 17 12 14 17 14 11 13 15 14 13 16 16 12 26 17 13 16 13 16 17 17 13 15 18 11 16 12 19 15 15 12 12 11 11 13 14 12 21 19 15 18 14 15 10 17 13 14 18 14 11 8 16 18 7 9 10 10 14 18 18 11 
BTB PER SET COUNT: 1017 23 1859 19 13 17 10 507 1397 19 19 1386 13201 61 23 13 1205 20 14 100 33 31 492 541 18 27 19 12 484 17 20 749 24 16 17 16 28 24 22 44 20 29 26 278 1111 70 26 23 252 236 26 13 28 28 15 489 71 12 332 32 19 32 437 22 21 23 20 2665 28 17 27 228 28 17 27 19 19 16 15 53 27 17 95 27 33 14 23 16 10 34 876 610 20 510 27 20 44 15 9 20 27 148 23 334 3933 16 14 29 462 16 15 40 1215 46 26 1440 20 22 1480 19 258 38 24 19 20 127 11 575 39 1094 18 34 22 26 26 34 997 20 22 46 13 650 23 26 82 21 412 62 12 54 20 289 108 23 15 27 922 26 27 27 29 17 37 20 59 209 28 10 25 1781 14 16 19 22 28 1327 38 10 101 15 108 15 56 16 471 644 13 23 33 9 24 22 18 31 35 18 19 41 20 55 19 24 977 14 22 14 16 20 29 1058 26 20 19 27 12 141 16 16 2940 38 32 24 10 29 20 36 22 19 449 20 11 12 21 20 385 28 33 129 33 18 17 25 22 93 24 282 88 11 19 28 23 36 14 15 14 31 87 25 26 26 27 18 5 327 13 9 13 20 621 22 17 402 42 10 14 16 15 27 14 16 26 22 34 16 17 13 10 346 21 28 22 12 26 216 22 16 60 18 32 27 15 24 603 35 26 132 105 108 21 327 102 27 14 30 1335 414 26 24 30 43 16 25 10 31 64 97 401 11 19 19 26 30 13 23 20 39 22 976 18 34 14 1051 11 394 28 43 26 20 26 48 21 229 22 19 17 21 18 27 161 14 26 33 16 34 16 131 8 17 25 15 46 490 22 33 20 27 23 38 14 142 297 12 290 21 16 13 619 26 29 1167 234 16 24 392 25 19 10 10 2198 128 13 20 1479 21 33 23 22 401 17 16 25 17 13 82 20 31 22 3001 29 37 22 21 21 23 27 17 44 49 23 18 24 20 14 32 191 84 28 14 12 17 78 30 33 20 22 18 11 19 25 27 696 33 17 15 80 65 17 20 17 18 27 11 18 21 32 11 55 17 17 19 20 17 25 18 20 45 15 27 13 24 26 29 22 24 12 1006 823 31 16 54 548 115 590 19 16 22 1289 16 10 33 129 34 17 35 28 8 16 34 21 20 58 21 1053 1407 22 28 36 17 18 152 28 21 18 607 27 65 438 9 16 1267 54 29 12 21 31 41 967 971 22 17 38 19 17 23 22 28 18 27 18 582 22 20 904 30 25 23 28 25 30 42 20 19 11 33 33 20 173 19 25 356 659 42 27 30 27 17 39 760 23 23 28 34 62 2950 18 22 1057 32 21 41 28 33 18 15 19 30 1039 516 190 37 17 13 12 20 24 32 27 2248 56 23 24 30 133 18 9 32 22 17 25 27 35 33 17 903 21 18 21 98 389 20 25 25 149 164 31 19 23 878 20 36 28 16 16 22 25 42 38 28 31 18 13 28 24 22 42 496 27 32 23 22 25 9 19 30 4363 20 27 981 342 14 29 29 277 23 160 17 21 49 17 42 12 40 166 40 23 24 13 27 434 19 15 28 21 15 1846 21 175 1795 18 37 35 27 25 37 16 760 27 21 13 14 17 63 626 16 14 25 66 640 22 38 30 1086 21 2111 18 20 12 19 9 1951 193 13725 27 10 51 16 21 23 30 13 30 20 424 102 21 26 38 18 16 22 1417 14 528 189 1478 21 40 20 15 19 28 10 19 15 27 35 7 21 31 213 22 17 11 24 30 48 15 67 37 34 1544 25 1002 12 26 29 25 23 7 17 318 976 22 13 1387 30 16 20 28 18 38 32 30 258 21 26 25 16 14 74 26 7870 34 17 94 96 33 2268 13 1481 21 39 18 18 25 18 19 16 21 26 19 26 27 27 29 228 22 23 900 15 19 771 15 11 556 25 612 34 21 920 31 413 11 16 20 31 28 17 30 26 17 1472 29 18 32 15 16 26 42 15 456 52 21 19 28 12 29 42 2952 24 23 13 13 34 14 1652 29 12 25 743 21 594 89 48 24 70 42 18 21 19 26 27 20 982 16 24 23 26 33 212 21 637 34 17 22 635 1614 981 17 20 18 32 105 772 14 658 13 22 23 19 23 27 814 21 40 30 56 17 1228 30 14 100 16 14 16 13 27 35 27 25 25 1847 47 3416 17 14 16 22 28 244 382 21 190 32 19 21 111 14 15 22 80 26 25 25 61 20 151 30 18 45 30 40 31 612 19 72 33 14 25 16 30 26 22 21 844 14 16 1489 19 16 137 50 28 33 21 834 11 24 16 984 383 26 60 11 25 24 9 34 16 19 28 25 26 15 
To predecode: 0
Predecoding something: 0
Predecode request dropped: 0
sizeofblock_0 0
sizeofblock_1 51208
sizeofblock_2 96069
sizeofblock_3 0
sizeofblock_4 0
sizeofblock_5 0
sizeofblock_6 0
sizeofblock_7 0
sizeofblock_8 0
Variant_0 Correct: 1610099 Incorrect: 0 Accuracy: 1
Variant_1 Correct: 5736718 Incorrect: 0 Accuracy: 1
Variant_2 Correct: 0 Incorrect: 0 Accuracy: -nan
Variant_3 Correct: 0 Incorrect: 0 Accuracy: -nan
