
*** ChampSim Multicore Out-of-Order Simulator ***

Warmup Instructions: 50000000
Simulation Instructions: 50000000
Number of CPUs: 1
LLC sets: 2048
LLC ways: 16
Off-chip DRAM Size: 4096 MB Channels: 1 Width: 64-bit Data Rate: 6400 MT/s
CPU 0 runs ./micro_traces/srv122.trace.gz
.gz
ITLB has LRU replacement policy
DTLB has LRU replacement policy
STLB has LRU replacement policy
FDIP Prefetcher at L1I
L1I has LRU replacement policy
L1D has LRU replacement policy
Initialize SRRIP state for L2C
Initialize DRRIP state for LLC
Heartbeat CPU 0 instructions: 10000002 cycles: 2796505 heartbeat IPC: 3.57589 cumulative IPC: 3.57589 (Simulation time: 0 hr 1 min 35 sec) 
Heartbeat CPU 0 instructions: 20000003 cycles: 5590553 heartbeat IPC: 3.57904 cumulative IPC: 3.57746 (Simulation time: 0 hr 3 min 8 sec) 
Heartbeat CPU 0 instructions: 30000001 cycles: 8385773 heartbeat IPC: 3.57754 cumulative IPC: 3.57749 (Simulation time: 0 hr 4 min 45 sec) 
Heartbeat CPU 0 instructions: 40000003 cycles: 11182290 heartbeat IPC: 3.57588 cumulative IPC: 3.57709 (Simulation time: 0 hr 6 min 19 sec) 
Heartbeat CPU 0 instructions: 50000002 cycles: 13977888 heartbeat IPC: 3.57705 cumulative IPC: 3.57708 (Simulation time: 0 hr 7 min 53 sec) 

Warmup complete CPU 0 instructions: 50000002 cycles: 13977888 (Simulation time: 0 hr 7 min 53 sec) 

Cycle: 20000000 FTQ IN: 58414417 FTQ occupancy: 20.102 DECODE IN: 58414413 DECODE occupancy: 52.6598 ROB IN: 58414413 ROB occupancy: 315.815 ROB OUT: 58414407
Heartbeat CPU 0 instructions: 60000000 cycles: 21133073 heartbeat IPC: 1.39759 cumulative IPC: 1.39759 (Simulation time: 0 hr 9 min 40 sec) 
Heartbeat CPU 0 instructions: 70000002 cycles: 28401023 heartbeat IPC: 1.3759 cumulative IPC: 1.38666 (Simulation time: 0 hr 11 min 30 sec) 
Cycle: 30000000 FTQ IN: 13817958 FTQ occupancy: 13.4952 DECODE IN: 13817863 DECODE occupancy: 35.4641 ROB IN: 13817803 ROB occupancy: 239.707 ROB OUT: 13817457
Heartbeat CPU 0 instructions: 80000001 cycles: 35565388 heartbeat IPC: 1.3958 cumulative IPC: 1.38969 (Simulation time: 0 hr 13 min 15 sec) 
Cycle: 40000000 FTQ IN: 13834842 FTQ occupancy: 13.5012 DECODE IN: 13834858 DECODE occupancy: 35.7026 ROB IN: 13834858 ROB occupancy: 243.137 ROB OUT: 13834862
Heartbeat CPU 0 instructions: 90000002 cycles: 42819925 heartbeat IPC: 1.37845 cumulative IPC: 1.38686 (Simulation time: 0 hr 15 min 3 sec) 
Heartbeat CPU 0 instructions: 100000000 cycles: 49990522 heartbeat IPC: 1.39458 cumulative IPC: 1.3884 (Simulation time: 0 hr 16 min 53 sec) 
Finished CPU 0 instructions: 50000002 cycles: 36012635 cumulative IPC: 1.3884 (Simulation time: 0 hr 16 min 53 sec) 

ChampSim completed all CPUs

Region of Interest Statistics

CPU 0 cumulative IPC: 1.3884 instructions: 50000002 cycles: 36012635
 Fetch stage stalled: 52.4225  Sim cycles: 36012635 fetch stall cycle: 18878717
 Empty decode stage: 32.185  Sim cycles: 36012635 fetch stall cycle: 11590676
ITLB TOTAL     ACCESS:    5881249  HIT:    5383005  MISS:     498244  HIT %:    91.5283  MISS %:    8.47174   MPKI: 9.96488
ITLB LOAD TRANSLATION INSTRUCTION	ACCESS:    5757206  HIT:    5258962  MISS:     498244  HIT %:    91.3457  MISS %:    8.65427  MPKI: 9.96488
ITLB TRANSLATION FROM L1D PREFETCHER INSTRUCTION	ACCESS:     124043  HIT:     124043  MISS:          0  HIT %:        100  MISS %:          0  MPKI: 0

ITLB AVERAGE MISS LATENCY: 9.05494 cycles
ITLB RQ	ACCESS:    8041183	FORWARD:          0	MERGED:    1713739	TO_CACHE:    6327444

DTLB TOTAL     ACCESS:    8961246  HIT:    8489445  MISS:     471801  HIT %:    94.7351  MISS %:     5.2649   MPKI: 9.43602
DTLB LOAD TRANSLATION DATA	ACCESS:    8961246  HIT:    8489445  MISS:     471801  HIT %:    94.7351  MISS %:     5.2649  MPKI: 9.43602

DTLB AVERAGE MISS LATENCY: 9.31254 cycles
DTLB RQ	ACCESS:   13335820	FORWARD:          0	MERGED:    4338512	TO_CACHE:    8997308

STLB TOTAL     ACCESS:    1216553  HIT:    1214624  MISS:       1929  HIT %:    99.8414  MISS %:   0.158563   MPKI: 0.03858
STLB LOAD TRANSLATION INSTRUCTION	ACCESS:     498243  HIT:     498014  MISS:        229  HIT %:     99.954  MISS %:  0.0459615  MPKI: 0.00458
STLB LOAD TRANSLATION DATA	ACCESS:     471801  HIT:     470118  MISS:       1683  HIT %:    99.6433  MISS %:   0.356718  MPKI: 0.03366
STLB TRANSLATION FROM L1D PREFETCHER DATA	ACCESS:     246509  HIT:     246492  MISS:         17  HIT %:    99.9931  MISS %:  0.0068963  MPKI: 0.00034

STLB AVERAGE MISS LATENCY: 74.5889 cycles
STLB RQ	ACCESS:    1344303	FORWARD:          0	MERGED:     127716	TO_CACHE:    1216587

STLB Hit, L1D data hit: 0
STLB Hit, L2C data hit: 0
STLB Hit, LLC data hit: 0
STLB Hit, LLC data miss: 0
STLB STLB hints to L2: 0
L1D TOTAL     ACCESS:   13077003  HIT:   11933679  MISS:    1143324  HIT %:     91.257  MISS %:    8.74301   MPKI: 22.8665
L1D LOAD DATA	ACCESS:    6551681  HIT:    5795996  MISS:     755685  HIT %:    88.4658  MISS %:    11.5342  MPKI: 15.1137
L1D RFO DATA	ACCESS:    6200669  HIT:    5913649  MISS:     287020  HIT %:    95.3711  MISS %:    4.62886  MPKI: 5.7404
L1D PREFETCH DATA	ACCESS:     324653  HIT:     224034  MISS:     100619  HIT %:    69.0072  MISS %:    30.9928  MPKI: 2.01238

L1D PREFETCH  REQUESTED:     748988  ISSUED:     748988  USEFUL:      38660  USELESS:      71178
L1D USEFUL LOAD PREFETCHES:      38660 PREFETCH ISSUED TO LOWER LEVEL:     109845  ACCURACY: 35.195
 TIMELY PREFETCHES:      38660 LATE PREFETCHES: 9199 DROPPED PREFETCHES: 2
L1D AVERAGE MISS LATENCY: 257874 cycles
L1D RQ	ACCESS:   10673381	FORWARD:          0	MERGED:    3920656	TO_CACHE:    6587348
L1D WQ	ACCESS:    6945468	FORWARD:     165847	MERGED:     196996	TO_CACHE:    6748472
L1D PQ	ACCESS:     374729	FORWARD:          0	MERGED:          0	TO_CACHE:     374259

L1D UNIQUE REGIONS ACCESSED: 0
L1D REGIONS CONFLICTS: 0
L1D Cross Page Prefetch Requests: 5237
L1D Same Page Prefetch Requests: 762275
L1D ROI Sum of L1D PQ occupancy: 4746050
L1D PREFETCHES PUSHED FROM L2C: 0
L1I TOTAL     ACCESS:    7197433  HIT:    4415484  MISS:    2781949  HIT %:     61.348  MISS %:     38.652   MPKI: 55.639
L1I LOAD INSTRUCTION	ACCESS:    6523740  HIT:    3741791  MISS:    2781949  HIT %:    57.3565  MISS %:    42.6435  MPKI: 55.639
L1I PREFETCH INSTRUCTION	ACCESS:     673693  HIT:     673693  MISS:          0  HIT %:        100  MISS %:          0  MPKI: 0

L1I PREFETCH  REQUESTED:    1632061  ISSUED:    1632061  USEFUL:          0  USELESS:          0
L1I USEFUL LOAD PREFETCHES:          0 PREFETCH ISSUED TO LOWER LEVEL:          0  ACCURACY: -nan
 TIMELY PREFETCHES:          0 LATE PREFETCHES: 0 DROPPED PREFETCHES: 0
L1I AVERAGE MISS LATENCY: 16.7649 cycles
L1I RQ	ACCESS:    9525866	FORWARD:          0	MERGED:    2682702	TO_CACHE:    6843164
L1I PQ	ACCESS:    1632061	FORWARD:          0	MERGED:     434042	TO_CACHE:    1198019

L1BTB TOTAL     ACCESS:    5676337  HIT:    2029571  MISS:    3646766  HIT %:    35.7549  MISS %:    64.2451   MPKI: 72.9353
L1BTB BRANCH_DIRECT_JUMP	ACCESS:     546511  HIT:     142151  MISS:     404360	AVERAGE STALL: 50.7495
L1BTB BRANCH_INDIRECT	ACCESS:     181659  HIT:      65038  MISS:     116621	AVERAGE STALL: 104.329
L1BTB BRANCH_CONDITIONAL	ACCESS:    2705092  HIT:    1407587  MISS:    1297505	AVERAGE STALL: 89.141
L1BTB BRANCH_DIRECT_CALL	ACCESS:     949345  HIT:     104589  MISS:     844756	AVERAGE STALL: 98.459
L1BTB BRANCH_INDIRECT_CALL	ACCESS:     172193  HIT:      21010  MISS:     151183	AVERAGE STALL: 133.994
L1BTB BRANCH_RETURN	ACCESS:    1121537  HIT:     289196  MISS:     832341	AVERAGE STALL: 47.7507
L1BTB BRANCH_OTHER ACCESS:          0  HIT:          0  MISS:          0	AVERAGE STALL: -nan
L1BTB TOTAL ROB OCCUPANCY AT BTB MISS: 1.93418

L2BTB TOTAL     ACCESS:    3621610  HIT:    3566624  MISS:      54986  HIT %:    98.4817  MISS %:    1.51828   MPKI: 1.09972
L2BTB BRANCH_DIRECT_JUMP	ACCESS:     400334  HIT:     397727  MISS:       2607	AVERAGE STALL: 50.7495
L2BTB BRANCH_INDIRECT	ACCESS:     106298  HIT:     103599  MISS:       2699	AVERAGE STALL: 104.329
L2BTB BRANCH_CONDITIONAL	ACCESS:    1297505  HIT:    1297403  MISS:        102	AVERAGE STALL: 89.141
L2BTB BRANCH_DIRECT_CALL	ACCESS:     844756  HIT:     844679  MISS:         77	AVERAGE STALL: 98.459
L2BTB BRANCH_INDIRECT_CALL	ACCESS:     141798  HIT:     131938  MISS:       9860	AVERAGE STALL: 133.994
L2BTB BRANCH_RETURN	ACCESS:     830919  HIT:     791278  MISS:      39641	AVERAGE STALL: 47.7507
L2BTB BRANCH_OTHER ACCESS:          0  HIT:          0  MISS:          0	AVERAGE STALL: -nan
L2BTB TOTAL ROB OCCUPANCY AT BTB MISS: 128.278

L2C TOTAL     ACCESS:    4533754  HIT:    4103529  MISS:     430225  HIT %:    90.5106  MISS %:    9.48938   MPKI: 8.6045
L2C LOAD INSTRUCTION	ACCESS:    2781949  HIT:    2560278  MISS:     221671  HIT %:    92.0318  MISS %:    7.96819  MPKI: 4.43342
L2C LOAD TRANSLATION INSTRUCTION	ACCESS:        255  HIT:         67  MISS:        188  HIT %:    26.2745  MISS %:    73.7255  MPKI: 0.00376
L2C LOAD DATA	ACCESS:     746447  HIT:     677394  MISS:      69053  HIT %:    90.7491  MISS %:    9.25089  MPKI: 1.38106
L2C RFO DATA	ACCESS:     286946  HIT:     235358  MISS:      51588  HIT %:    82.0217  MISS %:    17.9783  MPKI: 1.03176
L2C PREFETCH DATA	ACCESS:     189078  HIT:     116623  MISS:      72455  HIT %:    61.6798  MISS %:    38.3202  MPKI: 1.4491
L2C WRITEBACK DATA	ACCESS:     527320  HIT:     513387  MISS:      13933  HIT %:    97.3578  MISS %:    2.64223  MPKI: 0.27866
L2C LOAD TRANSLATION DATA	ACCESS:       1735  HIT:        404  MISS:       1331  HIT %:    23.2853  MISS %:    76.7147  MPKI: 0.02662
L2C TRANSLATION FROM L1D PREFETCHER DATA	ACCESS:         24  HIT:         18  MISS:          6  HIT %:         75  MISS %:         25  MPKI: 0.00012

L2C PREFETCH  REQUESTED:      87239  ISSUED:      87239  USEFUL:       7616  USELESS:      65311
L2C USEFUL LOAD PREFETCHES:       7616 PREFETCH ISSUED TO LOWER LEVEL:      72846  ACCURACY: 10.4549
 TIMELY PREFETCHES:       7616 LATE PREFETCHES: 390 DROPPED PREFETCHES: 0
L2C AVERAGE MISS LATENCY: 38.8938 cycles
L2C RQ	ACCESS:    3817446	FORWARD:          0	MERGED:          0	TO_CACHE:    3817360
L2C WQ	ACCESS:     527321	FORWARD:         86	MERGED:          0	TO_CACHE:     527321
L2C PQ	ACCESS:     197084	FORWARD:          0	MERGED:       3932	TO_CACHE:     193152

L2C Dense regions hint from L2: 0
PSCL5 TOTAL     ACCESS:       3864  HIT:       1932  MISS:       1932  HIT %:         50  MISS %:         50   MPKI: 0.03864
PSCL5 LOAD TRANSLATION INSTRUCTION	ACCESS:       3816  HIT:       1908  MISS:       1908  HIT %:         50  MISS %:         50  MPKI: 0.03816
PSCL5 TRANSLATION FROM L1D PREFETCHER INSTRUCTION	ACCESS:         48  HIT:         24  MISS:         24  HIT %:         50  MISS %:         50  MPKI: 0.00048


PSCL4 TOTAL     ACCESS:       3713  HIT:       1854  MISS:       1859  HIT %:    49.9327  MISS %:    50.0673   MPKI: 0.03718
PSCL4 LOAD TRANSLATION INSTRUCTION	ACCESS:       2385  HIT:       1832  MISS:        553  HIT %:    76.8134  MISS %:    23.1866  MPKI: 0.01106
PSCL4 TRANSLATION FROM L1D PREFETCHER INSTRUCTION	ACCESS:         27  HIT:         22  MISS:          5  HIT %:    81.4815  MISS %:    18.5185  MPKI: 0.0001
PSCL4 LOAD TRANSLATION DATA	ACCESS:       1284  HIT:          0  MISS:       1284  HIT %:          0  MISS %:        100  MPKI: 0.02568
PSCL4 TRANSLATION FROM L1D PREFETCHER DATA	ACCESS:         17  HIT:          0  MISS:         17  HIT %:          0  MISS %:        100  MPKI: 0.00034


PSCL3 TOTAL     ACCESS:       3807  HIT:       1901  MISS:       1906  HIT %:    49.9343  MISS %:    50.0657   MPKI: 0.03812
PSCL3 LOAD TRANSLATION INSTRUCTION	ACCESS:       2432  HIT:       1879  MISS:        553  HIT %:    77.2615  MISS %:    22.7385  MPKI: 0.01106
PSCL3 TRANSLATION FROM L1D PREFETCHER INSTRUCTION	ACCESS:         27  HIT:         22  MISS:          5  HIT %:    81.4815  MISS %:    18.5185  MPKI: 0.0001
PSCL3 LOAD TRANSLATION DATA	ACCESS:       1331  HIT:          0  MISS:       1331  HIT %:          0  MISS %:        100  MPKI: 0.02662
PSCL3 TRANSLATION FROM L1D PREFETCHER DATA	ACCESS:         17  HIT:          0  MISS:         17  HIT %:          0  MISS %:        100  MPKI: 0.00034


PSCL2 TOTAL     ACCESS:       3792  HIT:       1860  MISS:       1932  HIT %:    49.0506  MISS %:    50.9494   MPKI: 0.03864
PSCL2 LOAD TRANSLATION INSTRUCTION	ACCESS:       2063  HIT:       1836  MISS:        227  HIT %:    88.9966  MISS %:    11.0034  MPKI: 0.00454
PSCL2 TRANSLATION FROM L1D PREFETCHER INSTRUCTION	ACCESS:         24  HIT:         24  MISS:          0  HIT %:        100  MISS %:          0  MPKI: 0
PSCL2 LOAD TRANSLATION DATA	ACCESS:       1681  HIT:          0  MISS:       1681  HIT %:          0  MISS %:        100  MPKI: 0.03362
PSCL2 TRANSLATION FROM L1D PREFETCHER DATA	ACCESS:         24  HIT:          0  MISS:         24  HIT %:          0  MISS %:        100  MPKI: 0.00048


LLC TOTAL     ACCESS:     488391  HIT:     460856  MISS:      27535  HIT %:    94.3621  MISS %:     5.6379   MPKI: 0.5507
LLC LOAD INSTRUCTION	ACCESS:     221671  HIT:     220862  MISS:        809  HIT %:     99.635  MISS %:   0.364955  MPKI: 0.01618
LLC LOAD TRANSLATION INSTRUCTION	ACCESS:        188  HIT:        165  MISS:         23  HIT %:     87.766  MISS %:     12.234  MPKI: 0.00046
LLC LOAD DATA	ACCESS:      68693  HIT:      65240  MISS:       3453  HIT %:    94.9733  MISS %:    5.02671  MPKI: 0.06906
LLC RFO DATA	ACCESS:      51558  HIT:      38697  MISS:      12861  HIT %:    75.0553  MISS %:    24.9447  MPKI: 0.25722
LLC PREFETCH DATA	ACCESS:      72846  HIT:      62852  MISS:       9994  HIT %:    86.2806  MISS %:    13.7194  MPKI: 0.19988
LLC WRITEBACK DATA	ACCESS:      72098  HIT:      71774  MISS:        324  HIT %:    99.5506  MISS %:   0.449388  MPKI: 0.00648
LLC LOAD TRANSLATION DATA	ACCESS:       1331  HIT:       1260  MISS:         71  HIT %:    94.6657  MISS %:    5.33434  MPKI: 0.00142
LLC TRANSLATION FROM L1D PREFETCHER DATA	ACCESS:          6  HIT:          6  MISS:          0  HIT %:        100  MISS %:          0  MPKI: 0

LLC AVERAGE MISS LATENCY: 153.002 cycles
LLC RQ	ACCESS:     343448	FORWARD:          0	MERGED:          0	TO_CACHE:     343448
LLC WQ	ACCESS:      72098	FORWARD:          0	MERGED:          0	TO_CACHE:      72098
LLC PQ	ACCESS:      72846	FORWARD:          0	MERGED:          0	TO_CACHE:      72846

LLC Dense regions hint to LLC: 0

RAW hits: 1949382
Loads Generated: 12622763
Loads sent to L1D: 10673381
Stores Generated: 6945471
Stores sent to L1D: 6945468
Major fault: 0 Minor fault: 2477
Allocated PAGES: 2477

stream: 
stream:times selected: 1189297
stream:pref_filled: 126619
stream:pref_useful: 26230
stream:pref_late: 7399
stream:misses: 9206
stream:misses_by_poll: 0

CS: 
CS:times selected: 180729
CS:pref_filled: 64460
CS:pref_useful: 40460
CS:pref_late: 7210
CS:misses: 18696
CS:misses_by_poll: 4

CPLX: 
CPLX:times selected: 1007415
CPLX:pref_filled: 22638
CPLX:pref_useful: 6437
CPLX:pref_late: 3108
CPLX:misses: 108383
CPLX:misses_by_poll: 0

NL_L1: 
NL:times selected: 12803
NL:pref_filled: 762
NL:pref_useful: 210
NL:pref_late: 269
NL:misses: 1158
NL:misses_by_poll: 0

total selections: 2390244
total_filled: 100619
total_useful: 38660
total_late: 19653
total_polluted: 4
total_misses_after_warmup: 791355
conflicts: 5524748

test: 114147

DRAM Statistics
 CHANNEL 0
 RQ ROW_BUFFER_HIT:      10189  ROW_BUFFER_MISS:      17008
 DBUS_CONGESTED:         17
 WQ ROW_BUFFER_HIT:       1245  ROW_BUFFER_MISS:      11184  FULL:          0

 AVG_CONGESTED_CYCLE: 6

CPU 0 Branch Prediction Accuracy: 99.8244% MPKI: 0.3217 Average ROB Occupancy at Mispredict: 188.534
Branch types
NOT_BRANCH: 40838298 81.6766%
BRANCH_DIRECT_JUMP: 546511 1.09302%
BRANCH_INDIRECT: 181659 0.363318%
BRANCH_CONDITIONAL: 6190436 12.3809%
BRANCH_DIRECT_CALL: 949345 1.89869%
BRANCH_INDIRECT_CALL: 172193 0.344386%
BRANCH_RETURN: 1121537 2.24307%
BRANCH_OTHER: 0 0%

DRAM PAGES: 1048576
Allocated PAGES: 2477
Average_ROB_Occupancy: 242.445
Average_Decode_Occupancy: 35.5759
Average_FTQ_Occupancy: 13.4547
Indirect max targets: 14 Average targets: 1.14527
Branch_type:  BRANCH_DIRECT_JUMP:  Count Percentage: 3.59886 5.89908 4.35202 9.75361 2.75148 6.50234 1.64019 65.5024 
Branch_type:  BRANCH_INDIRECT:  Count Percentage: 19.726 3.35594 5.25442 3.80853 3.35594 10.8769 3.25105 50.3712 
Branch_type:  BRANCH_CONDITIONAL:  Count Percentage: 21.4842 6.55547 2.67338 4.89998 2.73745 8.57622 1.08029 51.993 
Branch_type:  BRANCH_DIRECT_CALL:  Count Percentage: 0.795755 1.301 0.982275 4.77922 2.96549 3.0043 0.775505 85.3965 
Branch_type:  BRANCH_INDIRECT_CALL:  Count Percentage: 9.56259 0 3.00024 4.30824 0 3.74726 0.991375 78.3903 
Branch_type:  BRANCH_RETURN:  Count Percentage: 5.13063 4.33377 2.69156 4.07276 5.66942 9.98441 1.4387 66.6787 
Branch_type:  BRANCH_DIRECT_JUMP:  Total Count: 39302 64422 47527 106516 30048 71010 17912 715331 
Branch_type:  BRANCH_INDIRECT:  Total Count: 71652 12190 19086 13834 12190 39509 11809 182967 
Branch_type:  BRANCH_CONDITIONAL:  Total Count: 2658193 811095 330772 606265 338699 1061118 133662 6432995 
Branch_type:  BRANCH_DIRECT_CALL:  Total Count: 15090 24671 18627 90629 56235 56971 14706 1619384 
Branch_type:  BRANCH_INDIRECT_CALL:  Total Count: 32950 0 10338 14845 0 12912 3416 270111 
Branch_type:  BRANCH_RETURN:  Total Count: 115012 97149 60336 91298 127090 223818 32251 1494720 
Number of unique branch instructions: 9804
Upper 32 bits: 
aaaa
ffff
ffff0000
Unique upper 32 bits: 3
Unique upper 36 bits: 3
Unique upper 40 bits: 5
Unique upper 44 bits: 32
Unique upper 48 bits: 154
Offset_3 4031
Offset_4 243
Offset_5 449
Offset_6 498
Offset_7 571
Offset_8 507
Offset_9 463
Offset_10 374
Offset_11 301
Offset_12 269
Offset_13 203
Offset_14 227
Offset_15 184
Offset_16 220
Offset_17 145
Offset_18 118
Offset_19 234
Offset_20 136
Offset_21 235
Offset_22 391
Offset_23 241
Offset_24 331
Offset_25 88
Offset_47 82
Offset_64 2
decode_dispatch_called: 25986356 72.159
Dispatch_width: 0 14031731 53.9965 38.9634
Dispatch_width: 1 998974 3.84423 2.77395
Dispatch_width: 2 827152 3.18302 2.29684
Dispatch_width: 3 509615 1.96109 1.4151
Dispatch_width: 4 5876896 22.6153 16.319
Dispatch_width: 5 141633 0.545028 0.393287
Dispatch_width: 6 3600355 13.8548 9.99748
Empty_decode_cycles: 10026279 27.841
ROB_full_cycles: 9297662 25.8178
Starvation_cycles_per_kilo_instr: 231.146
Starvation_cycles_per_kilo_instr_3: 170.961
Starvation_cycles_per_kilo_instr_0: 147.603
Branch_type_1  (3,1)  (4,9)  (5,37)  (6,68)  (7,112)  (8,128)  (9,122)  (10,97)  (11,67)  (12,43)  (13,5)  (14,2)  (15,3)  (16,4)  (18,1)  (19,4)  (20,2)  (21,1)  (22,3)  (23,2)  (24,10)  (25,12)  (64,1) 
Branch_type_2  (3,1)  (5,1)  (8,3)  (9,3)  (12,1)  (13,1)  (14,1)  (16,3)  (17,2)  (20,2)  (21,2)  (23,5)  (24,1)  (47,38) 
Branch_type_3  (3,4029)  (4,234)  (5,407)  (6,415)  (7,430)  (8,315)  (9,255)  (10,151)  (11,120)  (12,50)  (13,4)  (64,1) 
Branch_type_4  (6,3)  (7,8)  (8,25)  (9,51)  (10,60)  (11,58)  (12,96)  (13,88)  (14,100)  (15,86)  (16,98)  (17,64)  (18,53)  (19,115)  (20,71)  (21,124)  (22,208)  (23,136)  (24,192)  (25,72) 
Branch_type_5  (8,2)  (9,1)  (10,3)  (11,5)  (12,3)  (13,14)  (14,16)  (15,11)  (16,20)  (17,11)  (18,16)  (19,12)  (20,10)  (21,13)  (22,42)  (23,26)  (24,37) 
Branch_type_6  (5,4)  (6,12)  (7,21)  (8,34)  (9,31)  (10,63)  (11,51)  (12,76)  (13,91)  (14,108)  (15,84)  (16,95)  (17,68)  (18,48)  (19,103)  (20,51)  (21,95)  (22,138)  (23,72)  (24,91)  (25,4)  (47,44) 
Unique trigger count: 
BTB PER SET UNIQUE ADDR: 3 3 3 5 3 2 3 2 2 4 3 3 3 4 3 3 2 3 2 2 2 3 4 4 3 5 2 2 3 3 3 2 3 3 4 3 3 3 5 3 3 3 3 5 3 2 4 3 5 2 3 4 2 3 2 3 4 3 5 4 4 2 4 4 5 0 3 4 3 3 2 4 4 4 3 3 4 2 4 4 6 3 4 4 4 3 4 3 4 3 4 3 3 2 3 1 4 4 3 5 3 3 3 3 4 4 4 4 3 3 3 3 3 2 3 2 3 3 3 4 2 6 3 2 4 3 4 4 5 3 4 2 3 2 3 4 2 2 3 4 3 3 3 4 5 3 2 4 5 5 4 3 3 3 4 4 4 2 4 5 3 2 1 3 2 1 1 3 3 3 3 4 6 3 4 4 3 4 2 1 3 4 4 3 3 3 3 5 5 3 4 4 3 3 2 2 4 3 3 2 3 3 4 4 1 5 4 4 3 3 4 3 5 3 2 5 4 3 4 5 4 3 4 3 3 2 3 1 5 3 2 4 4 2 3 3 3 6 4 4 5 6 6 6 3 3 3 3 4 3 2 4 4 3 3 4 4 4 3 2 4 4 2 3 4 4 4 5 2 3 4 2 5 3 4 5 6 2 3 4 4 3 2 6 3 4 3 4 2 4 3 3 2 3 3 6 3 4 5 3 4 2 3 3 3 4 4 6 3 3 6 3 4 2 3 3 4 3 5 2 6 4 3 2 5 5 3 5 3 5 3 5 3 3 4 4 4 3 5 3 3 3 5 2 4 5 2 3 5 5 3 3 4 2 2 4 4 3 4 4 2 3 3 3 3 5 4 5 3 1 4 3 3 4 3 3 4 4 3 2 4 4 2 3 6 4 3 3 3 2 2 2 4 4 4 4 4 3 4 4 4 5 5 2 2 4 3 4 6 4 4 2 1 3 3 4 3 2 3 2 3 4 2 5 4 2 4 3 1 2 3 3 4 3 3 3 4 2 3 3 2 3 3 3 3 0 4 2 3 4 3 1 3 4 2 4 3 3 4 3 3 3 4 3 4 3 2 2 3 3 3 2 4 3 4 4 3 2 5 4 3 2 3 3 2 4 4 4 4 6 5 3 4 3 7 7 6 3 3 3 3 5 4 4 4 3 2 4 4 4 4 3 3 4 2 3 4 3 4 4 2 3 2 3 4 4 1 3 2 4 3 3 4 4 2 4 3 3 3 3 4 4 5 4 4 5 4 4 2 2 4 4 3 4 3 3 5 2 4 2 3 3 4 4 2 2 3 4 2 3 4 3 1 3 1 4 3 5 2 2 2 3 3 3 3 4 3 4 3 4 3 3 2 3 3 5 3 4 3 2 3 3 2 2 2 2 4 3 2 3 2 3 2 5 2 4 3 2 4 4 5 2 4 3 3 3 1 6 1 4 3 4 3 4 4 3 2 5 4 4 3 3 1 3 5 4 3 3 2 3 2 4 2 3 3 6 4 5 3 2 2 3 3 4 3 3 3 2 3 4 3 2 3 3 2 3 4 4 4 4 4 3 3 6 2 4 2 3 4 2 3 5 3 3 4 3 2 3 3 4 3 4 3 3 3 3 5 2 3 4 4 3 3 3 4 6 4 2 3 3 4 4 3 4 4 4 4 3 1 3 4 4 3 3 2 4 5 3 2 4 4 2 4 4 3 2 4 2 3 3 5 4 3 5 3 4 2 3 2 2 3 4 4 3 3 3 4 4 2 3 4 3 4 3 4 5 3 4 2 4 2 4 3 4 5 3 3 3 4 4 4 3 4 5 3 3 4 2 4 2 4 2 3 2 4 3 3 3 3 4 3 2 1 5 2 3 3 2 3 4 5 3 3 4 3 3 4 2 3 4 4 3 3 4 4 3 5 4 3 3 2 3 2 4 4 2 3 3 3 5 3 2 3 4 5 4 4 2 3 3 2 4 3 3 4 2 3 2 3 4 3 1 5 3 3 3 3 5 3 4 4 4 3 3 4 3 4 4 2 1 3 2 2 3 2 5 3 3 5 3 3 2 3 3 4 2 6 4 4 4 3 2 4 5 5 3 3 3 4 3 2 3 4 4 3 4 5 2 5 4 3 3 3 4 3 3 6 4 2 3 3 3 3 4 4 3 3 4 4 4 5 3 3 2 3 3 2 3 3 2 3 4 4 3 3 3 3 4 2 4 3 3 1 3 4 5 2 3 5 2 4 3 2 4 3 4 5 3 5 4 3 3 4 4 3 4 3 3 3 3 3 3 2 2 2 4 4 3 4 3 4 4 4 3 3 5 3 3 3 4 3 3 3 3 4 3 4 5 3 4 5 5 3 3 3 3 6 4 2 4 4 5 3 4 4 3 4 3 2 3 3 3 3 4 2 2 3 4 3 3 5 4 4 2 2 2 3 3 4 3 4 3 3 3 4 3 4 4 4 2 3 1 3 3 4 2 5 3 3 4 2 4 2 7 4 3 4 3 3 3 4 3 4 4 4 2 2 4 4 2 3 4 3 2 5 3 4 3 5 3 3 4 3 2 4 3 4 4 3 2 3 4 3 2 3 3 3 3 4 2 5 3 4 3 3 3 2 3 4 3 3 2 2 4 3 2 3 3 3 3 3 3 2 3 2 2 3 5 3 4 3 4 3 3 1 2 3 3 3 6 3 1 4 3 4 4 5 3 4 2 6 2 3 2 3 4 4 3 5 2 3 3 2 3 4 3 3 3 3 2 3 3 3 4 3 4 5 3 2 4 4 2 3 5 2 4 4 3 3 2 3 2 2 4 3 4 3 3 4 4 3 4 3 3 2 4 5 3 3 4 3 4 4 3 3 3 3 3 2 4 4 3 4 3 3 3 3 4 3 3 6 4 2 3 3 3 3 4 4 3 5 3 4 3 4 3 3 3 3 4 5 5 3 6 3 4 5 4 3 4 5 2 3 3 3 3 3 3 4 3 2 5 3 2 3 5 4 3 3 5 4 3 3 4 5 2 4 3 2 2 3 4 5 3 2 3 3 4 5 4 3 2 3 3 5 5 3 4 4 3 4 4 4 3 6 4 3 2 5 3 3 3 3 2 3 3 3 3 4 5 3 3 2 3 2 3 3 4 4 3 4 4 4 1 4 4 3 2 4 3 4 4 4 3 2 6 4 2 5 3 5 3 4 2 2 4 4 2 2 3 3 3 3 3 3 4 3 4 4 4 4 2 3 3 3 4 4 4 4 4 3 4 2 3 3 4 2 3 3 4 3 5 3 3 4 3 4 3 2 2 4 2 2 3 2 3 3 3 3 4 5 3 4 3 3 3 2 3 3 4 4 1 3 3 3 4 3 2 5 5 3 3 3 3 4 3 6 3 4 4 2 3 3 2 5 3 4 4 2 4 2 3 3 3 3 3 3 3 4 3 2 4 3 4 4 4 4 5 3 3 3 1 3 5 3 2 3 4 3 4 3 3 4 2 3 2 5 2 2 4 2 3 3 4 2 4 2 3 2 2 3 3 3 4 2 2 3 5 4 2 4 3 3 3 2 2 1 3 3 4 4 5 3 3 2 3 3 2 3 4 2 2 3 3 1 2 5 4 2 2 3 4 3 3 3 4 3 3 3 4 4 4 4 3 4 2 4 3 5 2 4 4 3 4 5 4 4 4 4 5 4 3 3 2 3 5 3 3 2 3 3 4 3 3 4 4 3 2 4 4 2 3 3 2 5 2 5 2 4 3 5 4 3 2 3 2 4 4 2 3 3 2 4 4 4 3 2 4 3 2 5 2 2 4 4 4 2 3 3 3 3 2 3 3 3 3 4 5 4 3 2 3 3 2 2 4 3 3 4 3 3 4 3 2 2 4 2 4 3 3 4 2 2 3 4 4 3 2 3 4 4 2 4 2 3 4 4 2 4 1 3 3 4 2 3 4 4 3 4 4 6 5 6 5 1 3 3 4 5 4 4 2 2 2 3 4 2 2 4 4 3 2 3 4 3 3 4 3 2 3 3 2 4 4 1 4 4 7 3 4 3 4 1 5 2 4 4 3 2 3 2 3 2 3 3 3 4 3 2 4 3 2 5 4 4 3 5 2 3 4 3 4 5 4 5 2 3 4 1 4 3 4 4 3 2 2 4 4 3 2 3 2 4 1 4 3 4 3 5 3 4 3 4 2 4 2 2 1 4 4 3 4 4 4 3 4 4 3 4 4 3 3 4 3 3 2 3 4 4 1 2 2 4 3 3 4 3 4 3 4 2 3 4 2 3 3 3 3 3 3 2 4 3 4 3 4 3 4 3 3 3 3 2 3 2 4 2 0 4 3 3 4 4 3 3 3 4 4 2 4 4 3 2 2 2 4 2 5 5 4 2 2 3 3 5 4 4 5 2 3 4 3 2 3 5 4 4 2 4 2 3 4 2 4 3 3 5 4 3 4 4 3 4 4 3 4 4 3 3 3 2 4 4 2 3 4 5 2 1 3 2 3 4 3 4 4 3 4 3 3 4 3 5 4 3 4 4 3 3 4 4 3 2 4 3 4 2 2 4 3 1 4 6 6 3 3 3 3 3 2 5 4 3 3 6 2 5 5 3 5 3 3 3 4 2 4 4 6 4 5 3 3 3 3 3 2 2 3 
BTB PER SET COUNT: 3 1480 1479 5 4 2 3 2 2 4 63 3 3 4 3 3 2 3 2 2 2 4 4 5 3 9 2 2 3 3 3 2 3 1014 380 3 3 3 5 3 3 933 3 5 3 2 4 3 6 2 3 4 2 4 2 3 469 933 6 4 1015 2 5 1864 6 0 3 4 3 3 2 4 5 4 3 177 4 2 1017 4 8 3 7 4 5 3 4 3 471 3 5 10 650 3 3 1 4 5 3 5 5 3 3 3 4 4 4 6 3 3 3 3 3 2 5 2 3 4 3 1945 6 8 1481 2 4 3 4 5 453 3 4 2 3 2 3 4 2 2 3 4 4 3 3 5 9 3 3 4 5 8 4 549 5 3 5 1017 4 2 4 10 3 2 1 3 2 1 1 3 3 3 3 4 11 3 4 4 3 4 2 1 3 4 4 3 3 3 3 5 5 3 4 4 3 3 2 548 4 3 1479 2 5 1480 5 5 1 5 6 4 26 3 217 4 5 3 2 7 4 4 4 5 4 3 4 3 3 2 3 1 5 3 333 4 4 14771 3 3 3 7 4 4 6 7 7 17 3 3 3 3 4 3 2 355 4 4 6 10 1480 4 4 2 5 5 2 3 4 4 4 7 2 5 4 2 5 3 4 9 6 2 4 6 6 3 2 8 3 4 3 4 2 4 3 4 2 3 468 6 3 4 5 3 4 2 1483 3 3 4 4 6 3 8 8 6 4 2 3 3 5 3 5 2 6 4 3 2 5 6 34 10 3 6 3 5 3 3 7 4 4 3 5 3 3 3 5 2 4 5 2 3 5 5 3 3 4 2 2 356 4 3 5 17 2 5 3 4 3 5 120 5 3 1 4 3 1014 4 3 3 4 4 3 2 7 227 2 3 7 5 5 3 3 2 4 2 4 4 4 5 1367 3 4 5 4 11 5 2 2 4 3 14 8 4 5 2 1 3 3 4 3 2 3 2 3 4 2 7 4 249 4 3 1 2 3 6 4 3 3 3 4 4 3 3 2 3 6 3 384 0 1482 33 3 6 3 255 3 4 2 6 3 3 933 3 933 4 934 3 5 3 2 2 3 3 3 4 4 3 1118 4 3 2 6 4 3 2 3 4 2 5 4 4 6 6 1016 5 4 3 7 7 6 3 3 3 3 5 4 4 4 3 2 4 6 4 4 3 4 5 2 3 4 468 4 4 2 3 2 3 4 5 1 3 2 4 3 3 4 9 2 4 3 3 3 3 5 4 7 4 4 1478 4 4 2 2 5 4 933 4 3 3 5 2 4 2 933 3 4 4 2 2 3 4 932 3 4 3 1 3 1 4 3 5 2 2 6 3 3 3 7 4 3 4 3 4 3 3 2 933 5 5 3 5 3 2 3 4 932 2 3 2 934 3 2 3 2 3 1013 5 2 4 3 2 4 4 7 2 362 3 3 3 1 6 1 4 933 5 3 4 6 3 2 6 4 4 3 4 1 3 7 4 3 3 2 467 2 4 2 3 3 6 5 6 3 2 2 3 4 4 3 467 3 2 3 4 3 2 3 3 2 3 4 4 4 469 1015 3 3 6 2 4 2 3 5 2 3 5 3 4 4 3 2 3 3 4 3 4 3 3 3 3 7 2 3 4 5 3 3 3 4 474 4 2 3 3 4 4 4 4 4 4 4 3 1 12 4 4 3 3 2 4 5 5 2 4 4 2 5 4 3 2 2789 2 3 4 5 4 3 6 5 4 2 3 2 1013 3 6 4 42 3 3 4 3423 2 3 4 3 5 3 4 5 3 5 2 5 2 4 3 4 7 3 3 3 122 4 5 3 4 5 3 4 4 2 4 2 4 2 3 2 5 3 4 3 2491 8 4 2 1 5 2 3 3 2 4 4 11 3 3 4 3 3 5 2 3 475 4 3 3 4 4 3 5 5 3 3 2 3 2 4 4 2 4 3 3 6 3 2 3 469 1865 4 4 2 3 3 2 5 3 3 4 2 3 2 3 4 3 1 5 3 3 3 3 5 3 6 4 5 3 3 4 4 4 4 2 1 1479 2 2 9 2 9 354 3 5 3 3 2 3 933 4 2 6 6 6 4 3 2 4 6 5 550 3 3 4 5 1397 3 4 4 3 4 278 2 5 4 5 3 1014 4 3 4 6 4 2 3 4 3 3 4 4 3 3 468 6 4 6 3 3 2 3 3 2 3 3 2 3 4 6 3 3 3 468 4 2 6 3 3 1 5 5 7 2 3 5 2 4 3 2 4 3 6 5 1014 5 4 5 3 4 5 3 4 3 3 3 3 3 4 2 2 2 4 5 3 967 3 4 4 7 3 3 5 6 3 6 4 3 3 3 3 6 3 4 551 4 4 7 5 3 3 3 3 7 4 2 4 5 5 3 5 4 3 471 3 2 3 3 3 3 4 2 2 3 4 1479 3 6 4 5 2 2 2 3 3 6 3 4 3 3 3 7 3 4 4 4 2 3 1 3 1014 39 2 8 3 3 4 3 4 2 10 4 3 18 3 3 3 6 6 5 5 4 2 31 4 5 2 355 4 3 2 5 3 4 120 5 3 3 4 3 2 4 3 4 7 3 2 4 4 3 2 3 3 3 3 5 2 6 20705 4 3 468 4 2 3 4 3 3 2 2 4 3 2 3 3 3 3 3 3 2 3 2 2 3 5 3 4 468 5 3 3 1 2 3 4 8 6 1479 1 4 3 257 4 5 3 4 2 6 2 3 2 2034 6 4 3 5 2 5 3 3 5 4 3 3 3 3 354 3 3 3 1480 3 5 6 3 2 4 4 2 3 6 2 4 4 3 3 2 3 2 2 4 3 4 1209 3 5 4 3 12 3 3 2 4 18 3 3 4 3 93 5 3 3 3 3 3 2 4 4 3 4 3 1014 3 3 4 3 3 7 5 2 3 3 3 3 4 5 3 5 3 4 4 4 3 3 3 3 4 5 5 3 6 4 4 7 4 3 4 7 2 3 3 3 3 3 3 4 3 2 5 3 38 3 6 6 3 3 5 5 3 3 4 5 2 4 1479 2 1479 3 5 5 4 2 3 13 4 5 7 3 2 3 3 5 5 3 4 4 3 4 4 4 4 11 6 3 2 5 3 3 3 3 2 3 3 3 3 5 5 3 3 2 4 3 3 3 4 4 3 4 516 4 1 4 4 3 2 4 5 4 4 5 3 2 7 4 2 5 3 5 5 4 2 2 4 4 3 2 3 3 4 3 3 3 4 3 4 4 466 4 2 3 3 3 4 4 4 4 2027 55 4 3 2026 3 235 2 3 4 4 3 6 3 3 4 5 6 3 2 2 4 2 2 3 2 3 3 3 3 4 5 3 4 3 3 3 2 3 3 4 4 1 3 3 3 4 3 2 5 5 3 3 1014 3 4 3 1094 3 4 4 2 3 3 2 5 3 4 4 2 4 2 3 3 3 3 1014 3 3 7 3 6 4 3 4 4 4 5 6 3 4 4 1 3 6 3 2 3 4 1014 5 3 3 4 2 3 2 5 2 4 4 3 3 3 4 2 4 4 3 2 2 3 3 3 6 2 2 4 7 5 2 4 3 3 3 2 2 2952 4 4 4 4 7 4 3 2 3 3 2 3 1480 2 2 40 3 1 2 5 5 2 2 3 5 3 3 3 4 3 3 3 5 4 5 4 232 5 2 5 3 5 2 4 4 3 4 5 4 5 4 934 6 4 3 5 2 3 5 3 3 2 4 3 5 3 3 4 4 3 2 5 4 2 3 3 2 5 2 5 2 4 3 5 4 3 2 3 2 4 4 2 5 3 2 4 4 4 3 1013 4 3 2 5 3 3 5 4 4 2 3 3 3 3 2 4 3 3 3 4 6 4 3 2 3 3 2 2 5 4 3 4 3 3 4 3 2 2 933 180 4 3 4 5 2 2 3 4 4 3 2 3 5 4 2 5 2 3 4 4 2 4 931 3 3 4 2 3 4 4 3 4 5 7 7 6 6 1 3 3 4 9 4 4 2 2 2 355 5 2 2 4 5 3 2 3 6 3 3 4 3 2 3 5 2 4 4 1 4 4 8 3 470 3 5 1 6 2 5 136 3 2 3 2 3 2 3 4 3 4 3 2 4 3 2 1019 4 1084 3 5 2 3 4 3 4 5 5 5 2 3 87 1 933 3 4 4 4 2 2 7 4 3 2 468 4 4 597 4 4 4 3 6 3 188 3 4 2 4 1478 2 1 4 4 3 4 4 4 9 4 4 3 475 4 3 3 4 3 1465 2 3 4 10 1 2 2 7 3 3 4 3 1016 3 5 3 3 4 2 84 3 3 3 3 3 2 4 3 5 8 135 3 4 1479 3 3 3 122 3 2 4 2 0 4 3 3 4 6 3 3 3 4 4 2 4 4 3 2 2 2 5 2 5 6 4 3 2 3 3 8 4 5 5 3 4 4 3 2 3 6 4 4 2 4 2 3 4 2 29 4 3 5 4 3 4 385 3 4 4 3 5 4 933 4 3 3 4 4 2 3 4 6 2 1 3 2 3 4 7693 4 4 3 4 3 3 137 3 5 4 3 4 4 469 3 5 4 3 2 4 3 4 1365 2 5 3 1 5 6 1470 3 3 3 3 3 1478 7 10 4 1944 6 3 5 5 3 6 3 3 3 4 2 4 4 6 4 5 4 3 3 3 4 2 2 832 
