
*** ChampSim Multicore Out-of-Order Simulator ***

Warmup Instructions: 50000000
Simulation Instructions: 50000000
Number of CPUs: 1
LLC sets: 2048
LLC ways: 16
Off-chip DRAM Size: 4096 MB Channels: 1 Width: 64-bit Data Rate: 6400 MT/s
CPU 0 runs ./micro_traces/srv106.trace.gz
.gz
ITLB has LRU replacement policy
DTLB has LRU replacement policy
STLB has LRU replacement policy
FDIP Prefetcher at L1I
L1I has LRU replacement policy
L1D has LRU replacement policy
Initialize SRRIP state for L2C
Initialize DRRIP state for LLC
Heartbeat_Variant_0 : 1364 0.333008 per_variant_size: 0 1364 0 0 0 0 0 0 0 
Heartbeat_Variant_1 : 2638 0.644043 per_variant_size: 0 474 2164 0 0 0 0 0 0 
Heartbeat_Variant_2 : 0 0 per_variant_size: 0 0 0 0 0 0 0 0 0 
Heartbeat_Variant_3 : 0 0 per_variant_size: 0 0 0 0 0 0 0 0 0 
Heartbeat_Variant_0_evicts 0 : 6095 1 : 1083 2 : 0 3 : 0 
Heartbeat_Variant_1_evicts 0 : 1016 1 : 0 2 : 0 3 : 0 
Heartbeat_Variant_2_evicts 0 : 0 1 : 0 2 : 0 3 : 0 
Heartbeat_Variant_3_evicts 0 : 0 1 : 0 2 : 0 3 : 0 
Heartbeat CPU 0 instructions: 10000000 cycles: 2797383 heartbeat IPC: 3.57477 cumulative IPC: 3.57477 (Simulation time: 0 hr 1 min 36 sec) 
Heartbeat_Variant_0 : 1361 0.332275 per_variant_size: 0 1361 0 0 0 0 0 0 0 
Heartbeat_Variant_1 : 2689 0.656494 per_variant_size: 0 456 2233 0 0 0 0 0 0 
Heartbeat_Variant_2 : 0 0 per_variant_size: 0 0 0 0 0 0 0 0 0 
Heartbeat_Variant_3 : 0 0 per_variant_size: 0 0 0 0 0 0 0 0 0 
Heartbeat_Variant_0_evicts 0 : 5952 1 : 467 2 : 0 3 : 0 
Heartbeat_Variant_1_evicts 0 : 482 1 : 0 2 : 0 3 : 0 
Heartbeat_Variant_2_evicts 0 : 0 1 : 0 2 : 0 3 : 0 
Heartbeat_Variant_3_evicts 0 : 0 1 : 0 2 : 0 3 : 0 
Heartbeat CPU 0 instructions: 20000003 cycles: 5593257 heartbeat IPC: 3.5767 cumulative IPC: 3.57573 (Simulation time: 0 hr 3 min 14 sec) 
Heartbeat_Variant_0 : 1382 0.337402 per_variant_size: 0 1382 0 0 0 0 0 0 0 
Heartbeat_Variant_1 : 2684 0.655273 per_variant_size: 0 433 2251 0 0 0 0 0 0 
Heartbeat_Variant_2 : 0 0 per_variant_size: 0 0 0 0 0 0 0 0 0 
Heartbeat_Variant_3 : 0 0 per_variant_size: 0 0 0 0 0 0 0 0 0 
Heartbeat_Variant_0_evicts 0 : 5827 1 : 423 2 : 0 3 : 0 
Heartbeat_Variant_1_evicts 0 : 403 1 : 0 2 : 0 3 : 0 
Heartbeat_Variant_2_evicts 0 : 0 1 : 0 2 : 0 3 : 0 
Heartbeat_Variant_3_evicts 0 : 0 1 : 0 2 : 0 3 : 0 
Heartbeat CPU 0 instructions: 30000001 cycles: 8389647 heartbeat IPC: 3.57604 cumulative IPC: 3.57584 (Simulation time: 0 hr 4 min 57 sec) 
Heartbeat_Variant_0 : 1381 0.337158 per_variant_size: 0 1381 0 0 0 0 0 0 0 
Heartbeat_Variant_1 : 2686 0.655762 per_variant_size: 0 437 2249 0 0 0 0 0 0 
Heartbeat_Variant_2 : 0 0 per_variant_size: 0 0 0 0 0 0 0 0 0 
Heartbeat_Variant_3 : 0 0 per_variant_size: 0 0 0 0 0 0 0 0 0 
Heartbeat_Variant_0_evicts 0 : 5597 1 : 13 2 : 0 3 : 0 
Heartbeat_Variant_1_evicts 0 : 14 1 : 0 2 : 0 3 : 0 
Heartbeat_Variant_2_evicts 0 : 0 1 : 0 2 : 0 3 : 0 
Heartbeat_Variant_3_evicts 0 : 0 1 : 0 2 : 0 3 : 0 
Heartbeat CPU 0 instructions: 40000001 cycles: 11185019 heartbeat IPC: 3.57734 cumulative IPC: 3.57621 (Simulation time: 0 hr 6 min 36 sec) 
Heartbeat_Variant_0 : 1388 0.338867 per_variant_size: 0 1388 0 0 0 0 0 0 0 
Heartbeat_Variant_1 : 2685 0.655518 per_variant_size: 0 429 2256 0 0 0 0 0 0 
Heartbeat_Variant_2 : 0 0 per_variant_size: 0 0 0 0 0 0 0 0 0 
Heartbeat_Variant_3 : 0 0 per_variant_size: 0 0 0 0 0 0 0 0 0 
Heartbeat_Variant_0_evicts 0 : 5758 1 : 401 2 : 0 3 : 0 
Heartbeat_Variant_1_evicts 0 : 395 1 : 0 2 : 0 3 : 0 
Heartbeat_Variant_2_evicts 0 : 0 1 : 0 2 : 0 3 : 0 
Heartbeat_Variant_3_evicts 0 : 0 1 : 0 2 : 0 3 : 0 
Heartbeat CPU 0 instructions: 50000003 cycles: 13980904 heartbeat IPC: 3.57669 cumulative IPC: 3.57631 (Simulation time: 0 hr 8 min 13 sec) 

Warmup complete CPU 0 instructions: 50000003 cycles: 13980904 (Simulation time: 0 hr 8 min 13 sec) 

Cycle: 20000000 FTQ IN: 58442161 FTQ occupancy: 20.528 DECODE IN: 58442039 DECODE occupancy: 53.4413 ROB IN: 58441979 ROB occupancy: 319.479 ROB OUT: 58441954
Heartbeat_Variant_0 : 1385 0.338135 per_variant_size: 0 1385 0 0 0 0 0 0 0 
Heartbeat_Variant_1 : 2688 0.65625 per_variant_size: 0 444 2244 0 0 0 0 0 0 
Heartbeat_Variant_2 : 0 0 per_variant_size: 0 0 0 0 0 0 0 0 0 
Heartbeat_Variant_3 : 0 0 per_variant_size: 0 0 0 0 0 0 0 0 0 
Heartbeat_Variant_0_evicts 0 : 5540 1 : 8 2 : 0 3 : 0 
Heartbeat_Variant_1_evicts 0 : 11 1 : 0 2 : 0 3 : 0 
Heartbeat_Variant_2_evicts 0 : 0 1 : 0 2 : 0 3 : 0 
Heartbeat_Variant_3_evicts 0 : 0 1 : 0 2 : 0 3 : 0 
Heartbeat CPU 0 instructions: 60000001 cycles: 21106093 heartbeat IPC: 1.40347 cumulative IPC: 1.40347 (Simulation time: 0 hr 10 min 11 sec) 
Heartbeat_Variant_0 : 1385 0.338135 per_variant_size: 0 1385 0 0 0 0 0 0 0 
Heartbeat_Variant_1 : 2691 0.656982 per_variant_size: 0 460 2231 0 0 0 0 0 0 
Heartbeat_Variant_2 : 0 0 per_variant_size: 0 0 0 0 0 0 0 0 0 
Heartbeat_Variant_3 : 0 0 per_variant_size: 0 0 0 0 0 0 0 0 0 
Heartbeat_Variant_0_evicts 0 : 5753 1 : 341 2 : 0 3 : 0 
Heartbeat_Variant_1_evicts 0 : 342 1 : 0 2 : 0 3 : 0 
Heartbeat_Variant_2_evicts 0 : 0 1 : 0 2 : 0 3 : 0 
Heartbeat_Variant_3_evicts 0 : 0 1 : 0 2 : 0 3 : 0 
Heartbeat CPU 0 instructions: 70000000 cycles: 28345151 heartbeat IPC: 1.3814 cumulative IPC: 1.39235 (Simulation time: 0 hr 12 min 7 sec) 
Cycle: 30000000 FTQ IN: 13867824 FTQ occupancy: 14.6042 DECODE IN: 13867946 DECODE occupancy: 37.2026 ROB IN: 13868006 ROB occupancy: 247.877 ROB OUT: 13867994
Heartbeat_Variant_0 : 1383 0.337646 per_variant_size: 0 1383 0 0 0 0 0 0 0 
Heartbeat_Variant_1 : 2693 0.657471 per_variant_size: 0 458 2235 0 0 0 0 0 0 
Heartbeat_Variant_2 : 0 0 per_variant_size: 0 0 0 0 0 0 0 0 0 
Heartbeat_Variant_3 : 0 0 per_variant_size: 0 0 0 0 0 0 0 0 0 
Heartbeat_Variant_0_evicts 0 : 5585 1 : 22 2 : 0 3 : 0 
Heartbeat_Variant_1_evicts 0 : 24 1 : 0 2 : 0 3 : 0 
Heartbeat_Variant_2_evicts 0 : 0 1 : 0 2 : 0 3 : 0 
Heartbeat_Variant_3_evicts 0 : 0 1 : 0 2 : 0 3 : 0 
Heartbeat CPU 0 instructions: 80000003 cycles: 35494872 heartbeat IPC: 1.39866 cumulative IPC: 1.39444 (Simulation time: 0 hr 14 min 0 sec) 
Cycle: 40000000 FTQ IN: 13896029 FTQ occupancy: 14.8804 DECODE IN: 13895996 DECODE occupancy: 37.9364 ROB IN: 13895947 ROB occupancy: 251.414 ROB OUT: 13895782
Heartbeat_Variant_0 : 1385 0.338135 per_variant_size: 0 1385 0 0 0 0 0 0 0 
Heartbeat_Variant_1 : 2691 0.656982 per_variant_size: 0 437 2254 0 0 0 0 0 0 
Heartbeat_Variant_2 : 0 0 per_variant_size: 0 0 0 0 0 0 0 0 0 
Heartbeat_Variant_3 : 0 0 per_variant_size: 0 0 0 0 0 0 0 0 0 
Heartbeat_Variant_0_evicts 0 : 5642 1 : 60 2 : 0 3 : 0 
Heartbeat_Variant_1_evicts 0 : 58 1 : 0 2 : 0 3 : 0 
Heartbeat_Variant_2_evicts 0 : 0 1 : 0 2 : 0 3 : 0 
Heartbeat_Variant_3_evicts 0 : 0 1 : 0 2 : 0 3 : 0 
Heartbeat CPU 0 instructions: 90000001 cycles: 42702229 heartbeat IPC: 1.38747 cumulative IPC: 1.39269 (Simulation time: 0 hr 16 min 0 sec) 
*** Reached end of trace for Core: 0 Repeating trace: ./micro_traces/srv106.trace.gz
Heartbeat_Variant_0 : 1383 0.337646 per_variant_size: 0 1383 0 0 0 0 0 0 0 
Heartbeat_Variant_1 : 2696 0.658203 per_variant_size: 0 472 2224 0 0 0 0 0 0 
Heartbeat_Variant_2 : 0 0 per_variant_size: 0 0 0 0 0 0 0 0 0 
Heartbeat_Variant_3 : 0 0 per_variant_size: 0 0 0 0 0 0 0 0 0 
Heartbeat_Variant_0_evicts 0 : 5735 1 : 295 2 : 0 3 : 0 
Heartbeat_Variant_1_evicts 0 : 297 1 : 0 2 : 0 3 : 0 
Heartbeat_Variant_2_evicts 0 : 0 1 : 0 2 : 0 3 : 0 
Heartbeat_Variant_3_evicts 0 : 0 1 : 0 2 : 0 3 : 0 
Heartbeat CPU 0 instructions: 100000000 cycles: 49865784 heartbeat IPC: 1.39595 cumulative IPC: 1.39334 (Simulation time: 0 hr 17 min 53 sec) 
Finished CPU 0 instructions: 50000001 cycles: 35884881 cumulative IPC: 1.39334 (Simulation time: 0 hr 17 min 53 sec) 

ChampSim completed all CPUs

Region of Interest Statistics

CPU 0 cumulative IPC: 1.39334 instructions: 50000001 cycles: 35884881
 Fetch stage stalled: 46.432  Sim cycles: 35884881 fetch stall cycle: 16662063
 Empty decode stage: 26.2594  Sim cycles: 35884881 fetch stall cycle: 9423144
ITLB TOTAL     ACCESS:    5835405  HIT:    5341797  MISS:     493608  HIT %:    91.5412  MISS %:    8.45885   MPKI: 9.87216
ITLB LOAD TRANSLATION INSTRUCTION	ACCESS:    5696539  HIT:    5202931  MISS:     493608  HIT %:    91.3349  MISS %:    8.66505  MPKI: 9.87216
ITLB TRANSLATION FROM L1D PREFETCHER INSTRUCTION	ACCESS:     138866  HIT:     138866  MISS:          0  HIT %:        100  MISS %:          0  MPKI: 0

ITLB AVERAGE MISS LATENCY: 9.04301 cycles
ITLB RQ	ACCESS:    7930870	FORWARD:          0	MERGED:    1614265	TO_CACHE:    6316605

DTLB TOTAL     ACCESS:    8950467  HIT:    8477427  MISS:     473040  HIT %:    94.7149  MISS %:    5.28509   MPKI: 9.4608
DTLB LOAD TRANSLATION DATA	ACCESS:    8950467  HIT:    8477427  MISS:     473040  HIT %:    94.7149  MISS %:    5.28509  MPKI: 9.4608

DTLB AVERAGE MISS LATENCY: 9.28776 cycles
DTLB RQ	ACCESS:   13319029	FORWARD:          0	MERGED:    4332531	TO_CACHE:    8986498

STLB TOTAL     ACCESS:    1215168  HIT:    1213282  MISS:       1886  HIT %:    99.8448  MISS %:   0.155205   MPKI: 0.03772
STLB LOAD TRANSLATION INSTRUCTION	ACCESS:     493608  HIT:     493382  MISS:        226  HIT %:    99.9542  MISS %:  0.0457853  MPKI: 0.00452
STLB LOAD TRANSLATION DATA	ACCESS:     473038  HIT:     471401  MISS:       1637  HIT %:    99.6539  MISS %:   0.346061  MPKI: 0.03274
STLB TRANSLATION FROM L1D PREFETCHER DATA	ACCESS:     248522  HIT:     248499  MISS:         23  HIT %:    99.9907  MISS %: 0.00925471  MPKI: 0.00046

STLB AVERAGE MISS LATENCY: 67.8218 cycles
STLB RQ	ACCESS:    1335993	FORWARD:          0	MERGED:     120791	TO_CACHE:    1215202

STLB Hit, L1D data hit: 0
STLB Hit, L2C data hit: 0
STLB Hit, LLC data hit: 0
STLB Hit, LLC data miss: 0
STLB STLB hints to L2: 0
L1D TOTAL     ACCESS:   13074454  HIT:   11959886  MISS:    1114568  HIT %:    91.4752  MISS %:    8.52478   MPKI: 22.2914
L1D LOAD DATA	ACCESS:    6540938  HIT:    5804988  MISS:     735950  HIT %:    88.7486  MISS %:    11.2514  MPKI: 14.719
L1D RFO DATA	ACCESS:    6204817  HIT:    5920389  MISS:     284428  HIT %:     95.416  MISS %:    4.58399  MPKI: 5.68856
L1D PREFETCH DATA	ACCESS:     328699  HIT:     234509  MISS:      94190  HIT %:    71.3446  MISS %:    28.6554  MPKI: 1.8838

L1D PREFETCH  REQUESTED:     739050  ISSUED:     739050  USEFUL:      33570  USELESS:      68410
L1D USEFUL LOAD PREFETCHES:      33570 PREFETCH ISSUED TO LOWER LEVEL:     102022  ACCURACY: 32.9047
 TIMELY PREFETCHES:      33570 LATE PREFETCHES: 7797 DROPPED PREFETCHES: 7
L1D AVERAGE MISS LATENCY: 222588 cycles
L1D RQ	ACCESS:   10682943	FORWARD:          0	MERGED:    3941906	TO_CACHE:    6574677
L1D WQ	ACCESS:    6941900	FORWARD:     166722	MERGED:     197548	TO_CACHE:    6744352
L1D PQ	ACCESS:     369706	FORWARD:          0	MERGED:          0	TO_CACHE:     369344

L1D UNIQUE REGIONS ACCESSED: 0
L1D REGIONS CONFLICTS: 0
L1D Cross Page Prefetch Requests: 6795
L1D Same Page Prefetch Requests: 748992
L1D ROI Sum of L1D PQ occupancy: 4689949
L1D PREFETCHES PUSHED FROM L2C: 0
L1I TOTAL     ACCESS:    7120120  HIT:    4359873  MISS:    2760247  HIT %:    61.2331  MISS %:    38.7669   MPKI: 55.2049
L1I LOAD INSTRUCTION	ACCESS:    6452657  HIT:    3692410  MISS:    2760247  HIT %:    57.2231  MISS %:    42.7769  MPKI: 55.2049
L1I PREFETCH INSTRUCTION	ACCESS:     667463  HIT:     667463  MISS:          0  HIT %:        100  MISS %:          0  MPKI: 0

L1I PREFETCH  REQUESTED:    1610970  ISSUED:    1610970  USEFUL:          0  USELESS:          0
L1I USEFUL LOAD PREFETCHES:          0 PREFETCH ISSUED TO LOWER LEVEL:          0  ACCURACY: -nan
 TIMELY PREFETCHES:          0 LATE PREFETCHES: 0 DROPPED PREFETCHES: 0
L1I AVERAGE MISS LATENCY: 17.11 cycles
L1I RQ	ACCESS:    9561787	FORWARD:          0	MERGED:    2808806	TO_CACHE:    6752981
L1I PQ	ACCESS:    1610970	FORWARD:          0	MERGED:     433081	TO_CACHE:    1177889

L1BTB TOTAL     ACCESS:    5671299  HIT:    2044392  MISS:    3626907  HIT %:     36.048  MISS %:     63.952   MPKI: 72.5381
L1BTB BRANCH_DIRECT_JUMP	ACCESS:     548143 HIT:     144817 MISS:     403326 AVERAGE STALL: 55.0007 AVERAGE FETCH STALL: 13.5933 AVERAGE FETCH QUEUE STALL: 20.6988 AVERAGE DECODE STALL: 19.8534 AVERAGE EXECUTE STALL: 2.11013e+15
L1BTB BRANCH_INDIRECT	ACCESS:     182829 HIT:      66051 MISS:     116778 AVERAGE STALL: 111.513 AVERAGE FETCH STALL: 11.044 AVERAGE FETCH QUEUE STALL: 20.7428 AVERAGE DECODE STALL: 13.1189 AVERAGE EXECUTE STALL: 65.6457
L1BTB BRANCH_CONDITIONAL	ACCESS:    2706415 HIT:    1414247 MISS:    1292168 AVERAGE STALL: 76.8746 AVERAGE FETCH STALL: 24.3967 AVERAGE FETCH QUEUE STALL: 33.7175 AVERAGE DECODE STALL: 18.1783 AVERAGE EXECUTE STALL: 2.5796e+15
L1BTB BRANCH_DIRECT_CALL	ACCESS:     944788 HIT:     106338 MISS:     838450 AVERAGE STALL: 92.1004 AVERAGE FETCH STALL: 19.819 AVERAGE FETCH QUEUE STALL: 43.1411 AVERAGE DECODE STALL: 28.5136 AVERAGE EXECUTE STALL: 7.1499e+15
L1BTB BRANCH_INDIRECT_CALL	ACCESS:     172168 HIT:      21818 MISS:     150350 AVERAGE STALL: 138.678 AVERAGE FETCH STALL: 12.4312 AVERAGE FETCH QUEUE STALL: 16.1962 AVERAGE DECODE STALL: 11.4102 AVERAGE EXECUTE STALL: 98.1482
L1BTB BRANCH_RETURN	ACCESS:    1116956 HIT:     291121 MISS:     825835 AVERAGE STALL: 49.1085 AVERAGE FETCH STALL: 16.9932 AVERAGE FETCH QUEUE STALL: 5.03687 AVERAGE DECODE STALL: 6.04405 AVERAGE EXECUTE STALL: 4.26998e+14
L1BTB BRANCH_OTHER ACCESS:          0 HIT:          0 MISS:          0 AVERAGE STALL: -nan AVERAGE FETCH STALL: -nan AVERAGE FETCH QUEUE STALL: -nan AVERAGE DECODE STALL: -nan AVERAGE EXECUTE STALL: -nan
L1BTB TOTAL ROB OCCUPANCY AT BTB MISS: 3.00224

L2BTB TOTAL     ACCESS:    3601567  HIT:    3532392  MISS:      69175  HIT %:    98.0793  MISS %:    1.92069   MPKI: 1.3835
L2BTB BRANCH_DIRECT_JUMP	ACCESS:     399165 HIT:     394583 MISS:       4582 AVERAGE STALL: 55.0007 AVERAGE FETCH STALL: 13.5933 AVERAGE FETCH QUEUE STALL: 20.6988 AVERAGE DECODE STALL: 19.8534 AVERAGE EXECUTE STALL: 2.11013e+15
L2BTB BRANCH_INDIRECT	ACCESS:     106533 HIT:     103855 MISS:       2678 AVERAGE STALL: 111.513 AVERAGE FETCH STALL: 11.044 AVERAGE FETCH QUEUE STALL: 20.7428 AVERAGE DECODE STALL: 13.1189 AVERAGE EXECUTE STALL: 65.6457
L2BTB BRANCH_CONDITIONAL	ACCESS:    1292168 HIT:    1284986 MISS:       7182 AVERAGE STALL: 76.8746 AVERAGE FETCH STALL: 24.3967 AVERAGE FETCH QUEUE STALL: 33.7175 AVERAGE DECODE STALL: 18.1783 AVERAGE EXECUTE STALL: 2.5796e+15
L2BTB BRANCH_DIRECT_CALL	ACCESS:     838450 HIT:     835852 MISS:       2598 AVERAGE STALL: 92.1004 AVERAGE FETCH STALL: 19.819 AVERAGE FETCH QUEUE STALL: 43.1411 AVERAGE DECODE STALL: 28.5136 AVERAGE EXECUTE STALL: 7.1499e+15
L2BTB BRANCH_INDIRECT_CALL	ACCESS:     140815 HIT:     130493 MISS:      10322 AVERAGE STALL: 138.678 AVERAGE FETCH STALL: 12.4312 AVERAGE FETCH QUEUE STALL: 16.1962 AVERAGE DECODE STALL: 11.4102 AVERAGE EXECUTE STALL: 98.1482
L2BTB BRANCH_RETURN	ACCESS:     824436 HIT:     782623 MISS:      41813 AVERAGE STALL: 49.1085 AVERAGE FETCH STALL: 16.9932 AVERAGE FETCH QUEUE STALL: 5.03687 AVERAGE DECODE STALL: 6.04405 AVERAGE EXECUTE STALL: 4.26998e+14
L2BTB BRANCH_OTHER ACCESS:          0 HIT:          0 MISS:          0 AVERAGE STALL: -nan AVERAGE FETCH STALL: -nan AVERAGE FETCH QUEUE STALL: -nan AVERAGE DECODE STALL: -nan AVERAGE EXECUTE STALL: -nan
L2BTB TOTAL ROB OCCUPANCY AT BTB MISS: 157.41

L2C TOTAL     ACCESS:    4477585  HIT:    4027332  MISS:     450253  HIT %:    89.9443  MISS %:    10.0557   MPKI: 9.00506
L2C LOAD INSTRUCTION	ACCESS:    2760247  HIT:    2513933  MISS:     246314  HIT %:    91.0764  MISS %:    8.92362  MPKI: 4.92628
L2C LOAD TRANSLATION INSTRUCTION	ACCESS:        258  HIT:         76  MISS:        182  HIT %:    29.4574  MISS %:    70.5426  MPKI: 0.00364
L2C LOAD DATA	ACCESS:     728127  HIT:     654608  MISS:      73519  HIT %:     89.903  MISS %:     10.097  MPKI: 1.47038
L2C RFO DATA	ACCESS:     284370  HIT:     239257  MISS:      45113  HIT %:    84.1358  MISS %:    15.8642  MPKI: 0.90226
L2C PREFETCH DATA	ACCESS:     182450  HIT:     111615  MISS:      70835  HIT %:    61.1757  MISS %:    38.8243  MPKI: 1.4167
L2C WRITEBACK DATA	ACCESS:     520388  HIT:     507364  MISS:      13024  HIT %:    97.4973  MISS %:    2.50275  MPKI: 0.26048
L2C LOAD TRANSLATION DATA	ACCESS:       1702  HIT:        448  MISS:       1254  HIT %:     26.322  MISS %:     73.678  MPKI: 0.02508
L2C TRANSLATION FROM L1D PREFETCHER DATA	ACCESS:         43  HIT:         31  MISS:         12  HIT %:     72.093  MISS %:     27.907  MPKI: 0.00024

L2C PREFETCH  REQUESTED:      88194  ISSUED:      88194  USEFUL:       7617  USELESS:      63659
L2C USEFUL LOAD PREFETCHES:       7617 PREFETCH ISSUED TO LOWER LEVEL:      71193  ACCURACY: 10.6991
 TIMELY PREFETCHES:       7617 LATE PREFETCHES: 358 DROPPED PREFETCHES: 0
L2C AVERAGE MISS LATENCY: 38.3519 cycles
L2C RQ	ACCESS:    3774797	FORWARD:          0	MERGED:          0	TO_CACHE:    3774748
L2C WQ	ACCESS:     520388	FORWARD:         49	MERGED:          0	TO_CACHE:     520388
L2C PQ	ACCESS:     190216	FORWARD:          0	MERGED:       3448	TO_CACHE:     186768

L2C Dense regions hint from L2: 0
PSCL5 TOTAL     ACCESS:       3796  HIT:       1898  MISS:       1898  HIT %:         50  MISS %:         50   MPKI: 0.03796
PSCL5 LOAD TRANSLATION INSTRUCTION	ACCESS:       3710  HIT:       1855  MISS:       1855  HIT %:         50  MISS %:         50  MPKI: 0.0371
PSCL5 TRANSLATION FROM L1D PREFETCHER INSTRUCTION	ACCESS:         86  HIT:         43  MISS:         43  HIT %:         50  MISS %:         50  MPKI: 0.00086


PSCL4 TOTAL     ACCESS:       3689  HIT:       1840  MISS:       1849  HIT %:     49.878  MISS %:     50.122   MPKI: 0.03698
PSCL4 LOAD TRANSLATION INSTRUCTION	ACCESS:       3289  HIT:       1807  MISS:       1482  HIT %:    54.9407  MISS %:    45.0593  MPKI: 0.02964
PSCL4 TRANSLATION FROM L1D PREFETCHER INSTRUCTION	ACCESS:         66  HIT:         33  MISS:         33  HIT %:         50  MISS %:         50  MPKI: 0.00066
PSCL4 LOAD TRANSLATION DATA	ACCESS:        334  HIT:          0  MISS:        334  HIT %:          0  MISS %:        100  MPKI: 0.00668


PSCL3 TOTAL     ACCESS:       3713  HIT:       1852  MISS:       1861  HIT %:    49.8788  MISS %:    50.1212   MPKI: 0.03722
PSCL3 LOAD TRANSLATION INSTRUCTION	ACCESS:       3301  HIT:       1819  MISS:       1482  HIT %:    55.1045  MISS %:    44.8955  MPKI: 0.02964
PSCL3 TRANSLATION FROM L1D PREFETCHER INSTRUCTION	ACCESS:         66  HIT:         33  MISS:         33  HIT %:         50  MISS %:         50  MPKI: 0.00066
PSCL3 LOAD TRANSLATION DATA	ACCESS:        346  HIT:          0  MISS:        346  HIT %:          0  MISS %:        100  MPKI: 0.00692


PSCL2 TOTAL     ACCESS:       3706  HIT:       1809  MISS:       1897  HIT %:    48.8127  MISS %:    51.1873   MPKI: 0.03794
PSCL2 LOAD TRANSLATION INSTRUCTION	ACCESS:       1995  HIT:       1766  MISS:        229  HIT %:    88.5213  MISS %:    11.4787  MPKI: 0.00458
PSCL2 TRANSLATION FROM L1D PREFETCHER INSTRUCTION	ACCESS:         43  HIT:         43  MISS:          0  HIT %:        100  MISS %:          0  MPKI: 0
PSCL2 LOAD TRANSLATION DATA	ACCESS:       1625  HIT:          0  MISS:       1625  HIT %:          0  MISS %:        100  MPKI: 0.0325
PSCL2 TRANSLATION FROM L1D PREFETCHER DATA	ACCESS:         43  HIT:          0  MISS:         43  HIT %:          0  MISS %:        100  MPKI: 0.00086


LLC TOTAL     ACCESS:     502356  HIT:     475818  MISS:      26538  HIT %:    94.7173  MISS %:    5.28271   MPKI: 0.53076
LLC LOAD INSTRUCTION	ACCESS:     246314  HIT:     245562  MISS:        752  HIT %:    99.6947  MISS %:   0.305301  MPKI: 0.01504
LLC LOAD TRANSLATION INSTRUCTION	ACCESS:        182  HIT:        161  MISS:         21  HIT %:    88.4615  MISS %:    11.5385  MPKI: 0.00042
LLC LOAD DATA	ACCESS:      73209  HIT:      70062  MISS:       3147  HIT %:    95.7013  MISS %:    4.29865  MPKI: 0.06294
LLC RFO DATA	ACCESS:      45063  HIT:      31980  MISS:      13083  HIT %:    70.9673  MISS %:    29.0327  MPKI: 0.26166
LLC PREFETCH DATA	ACCESS:      71193  HIT:      62010  MISS:       9183  HIT %:    87.1013  MISS %:    12.8987  MPKI: 0.18366
LLC WRITEBACK DATA	ACCESS:      65129  HIT:      64825  MISS:        304  HIT %:    99.5332  MISS %:   0.466766  MPKI: 0.00608
LLC LOAD TRANSLATION DATA	ACCESS:       1254  HIT:       1206  MISS:         48  HIT %:    96.1722  MISS %:    3.82775  MPKI: 0.00096
LLC TRANSLATION FROM L1D PREFETCHER DATA	ACCESS:         12  HIT:         12  MISS:          0  HIT %:        100  MISS %:          0  MPKI: 0

LLC AVERAGE MISS LATENCY: 155.102 cycles
LLC RQ	ACCESS:     366036	FORWARD:          0	MERGED:          0	TO_CACHE:     366034
LLC WQ	ACCESS:      65129	FORWARD:          2	MERGED:          0	TO_CACHE:      65129
LLC PQ	ACCESS:      71193	FORWARD:          0	MERGED:          0	TO_CACHE:      71193

LLC Dense regions hint to LLC: 0

RAW hits: 1947045
Loads Generated: 12629988
Loads sent to L1D: 10682943
Stores Generated: 6941893
Stores sent to L1D: 6941900
Major fault: 0 Minor fault: 2625
Allocated PAGES: 2625

stream: 
stream:times selected: 1184521
stream:pref_filled: 121207
stream:pref_useful: 23691
stream:pref_late: 6739
stream:misses: 7908
stream:misses_by_poll: 0

CS: 
CS:times selected: 177268
CS:pref_filled: 60142
CS:pref_useful: 36827
CS:pref_late: 6812
CS:misses: 15830
CS:misses_by_poll: 3

CPLX: 
CPLX:times selected: 1006162
CPLX:pref_filled: 19593
CPLX:pref_useful: 4697
CPLX:pref_late: 3221
CPLX:misses: 93769
CPLX:misses_by_poll: 0

NL_L1: 
NL:times selected: 20889
NL:pref_filled: 852
NL:pref_useful: 379
NL:pref_late: 270
NL:misses: 1761
NL:misses_by_poll: 0

total selections: 2388840
total_filled: 94190
total_useful: 33570
total_late: 18376
total_polluted: 3
total_misses_after_warmup: 769690
conflicts: 5511282

test: 116685

DRAM Statistics
 CHANNEL 0
 RQ ROW_BUFFER_HIT:       9835  ROW_BUFFER_MISS:      16388
 DBUS_CONGESTED:         14
 WQ ROW_BUFFER_HIT:       1297  ROW_BUFFER_MISS:      11679  FULL:          0

 AVG_CONGESTED_CYCLE: 5

CPU 0 Branch Prediction Accuracy: 99.831% MPKI: 0.3092 Average ROB Occupancy at Mispredict: 200.947
Branch types
NOT_BRANCH: 40853241 81.7065%
BRANCH_DIRECT_JUMP: 548143 1.09629%
BRANCH_INDIRECT: 182829 0.365658%
BRANCH_CONDITIONAL: 6181886 12.3638%
BRANCH_DIRECT_CALL: 944788 1.88958%
BRANCH_INDIRECT_CALL: 172168 0.344336%
BRANCH_RETURN: 1116956 2.23391%
BRANCH_OTHER: 0 0%

DRAM PAGES: 1048576
Allocated PAGES: 2625
Average_ROB_Occupancy: 251.225
Average_Decode_Occupancy: 37.6459
Average_FTQ_Occupancy: 14.7256
Indirect max targets: 14 Average targets: 1.17778
Branch_type:  BRANCH_DIRECT_JUMP:  Count Percentage: 2.90034 4.15039 4.87237 3.14877 8.35219 6.01524 7.41584 63.1449 
Branch_type:  BRANCH_INDIRECT:  Count Percentage: 11.7663 0.802757 2.54238 0 13.0165 2.80814 17.3601 51.7038 
Branch_type:  BRANCH_CONDITIONAL:  Count Percentage: 21.9378 1.74858 2.09562 2.6853 4.30817 4.13998 5.32325 57.7613 
Branch_type:  BRANCH_DIRECT_CALL:  Count Percentage: 0.38813 1.76777 1.14628 1.60448 5.6825 2.7301 4.30211 82.3786 
Branch_type:  BRANCH_INDIRECT_CALL:  Count Percentage: 9.51419 0 2.98247 6.39017 1.40651 2.02503 2.84237 74.8393 
Branch_type:  BRANCH_RETURN:  Count Percentage: 4.44136 1.87972 2.90267 3.31182 5.77045 4.19742 6.49407 71.0025 
Branch_type:  BRANCH_DIRECT_JUMP:  Total Count: 31768 45460 53368 34489 91483 65886 81227 691637 
Branch_type:  BRANCH_INDIRECT:  Total Count: 42990 2933 9289 0 47558 10260 63428 188908 
Branch_type:  BRANCH_CONDITIONAL:  Total Count: 2710464 216041 258918 331774 532283 511503 657698 7136517 
Branch_type:  BRANCH_DIRECT_CALL:  Total Count: 7328 33376 21642 30293 107287 51545 81225 1555330 
Branch_type:  BRANCH_INDIRECT_CALL:  Total Count: 32733 0 10261 21985 4839 6967 9779 257480 
Branch_type:  BRANCH_RETURN:  Total Count: 99173 41973 64815 73951 128851 93726 145009 1585446 
Number of unique branch instructions: 10774
Upper 32 bits: 
aaaa
ffff
ffff0000
Unique upper 32 bits: 3
Unique upper 36 bits: 3
Unique upper 40 bits: 5
Unique upper 44 bits: 32
Unique upper 48 bits: 158
Variant_0 : 1383 0.337646
Variant_1 : 2696 0.658203
Variant_2 : 0 0
Variant_3 : 0 0
Offset_3 4459
Offset_4 256
Offset_5 480
Offset_6 537
Offset_7 639
Offset_8 572
Offset_9 521
Offset_10 425
Offset_11 354
Offset_12 327
Offset_13 238
Offset_14 245
Offset_15 194
Offset_16 230
Offset_17 167
Offset_18 149
Offset_19 256
Offset_20 143
Offset_21 235
Offset_22 411
Offset_23 241
Offset_24 351
Offset_25 117
Offset_47 94
decode_dispatch_called: 26220741 73.069
Dispatch_width: 0 14086873 53.7242 39.2557
Dispatch_width: 1 1027161 3.91736 2.86238
Dispatch_width: 2 858739 3.27504 2.39304
Dispatch_width: 3 500380 1.90834 1.3944
Dispatch_width: 4 6309198 24.0619 17.5818
Dispatch_width: 5 112910 0.430613 0.314645
Dispatch_width: 6 3325480 12.6826 9.26708
Empty_decode_cycles: 9664140 26.931
ROB_full_cycles: 10077112 28.0818
Starvation_cycles_per_kilo_instr: 224.823
Starvation_cycles_per_kilo_instr_3: 160.602
Starvation_cycles_per_kilo_instr_0: 136.739
Branch_type_1  (3,1)  (4,9)  (5,39)  (6,72)  (7,125)  (8,146)  (9,136)  (10,111)  (11,79)  (12,55)  (13,11)  (14,2)  (15,3)  (16,4)  (18,1)  (19,5)  (20,2)  (21,1)  (22,3)  (23,2)  (24,10)  (25,12) 
Branch_type_2  (3,1)  (4,1)  (5,1)  (8,4)  (9,4)  (10,1)  (12,1)  (13,1)  (14,1)  (16,3)  (17,2)  (20,2)  (21,2)  (23,5)  (24,1)  (47,43) 
Branch_type_3  (3,4457)  (4,246)  (5,436)  (6,449)  (7,485)  (8,357)  (9,287)  (10,171)  (11,140)  (12,62)  (13,10) 
Branch_type_4  (6,3)  (7,8)  (8,24)  (9,56)  (10,67)  (11,69)  (12,117)  (13,101)  (14,111)  (15,92)  (16,101)  (17,78)  (18,65)  (19,124)  (20,73)  (21,124)  (22,216)  (23,136)  (24,206)  (25,101) 
Branch_type_5  (8,3)  (9,1)  (10,4)  (11,5)  (12,3)  (13,14)  (14,16)  (15,11)  (16,22)  (17,11)  (18,23)  (19,14)  (20,11)  (21,13)  (22,43)  (23,26)  (24,38) 
Branch_type_6  (5,4)  (6,13)  (7,21)  (8,38)  (9,37)  (10,71)  (11,61)  (12,89)  (13,101)  (14,115)  (15,88)  (16,100)  (17,76)  (18,60)  (19,113)  (20,55)  (21,95)  (22,149)  (23,72)  (24,96)  (25,4)  (47,51) 
Unique trigger count: 
Variant_0_evicts_0 : 0
Variant_0_evicts_1 : 0
Variant_0_evicts_2 : 0
Variant_0_evicts_3 : 0
Variant_1_evicts_0 : 0
Variant_1_evicts_1 : 0
Variant_1_evicts_2 : 0
Variant_1_evicts_3 : 0
Variant_2_evicts_0 : 0
Variant_2_evicts_1 : 0
Variant_2_evicts_2 : 0
Variant_2_evicts_3 : 0
Variant_3_evicts_0 : 0
Variant_3_evicts_1 : 0
Variant_3_evicts_2 : 0
Variant_3_evicts_3 : 0
BTB PER SET UNIQUE ADDR: 17 16 10 15 14 15 12 13 10 21 11 17 14 12 11 10 14 12 12 13 15 12 13 14 9 17 9 15 11 14 9 14 13 11 11 11 10 15 7 11 11 9 20 18 13 11 18 11 16 13 18 11 16 10 11 7 15 7 12 14 14 16 10 9 12 22 17 10 15 12 11 13 16 11 13 8 9 13 12 10 14 11 14 15 12 10 13 12 12 16 13 11 13 9 8 14 8 10 15 15 16 17 13 14 14 10 11 15 8 11 13 20 18 14 11 10 14 15 11 13 11 10 9 13 10 12 7 13 23 12 9 16 11 16 14 11 8 18 14 23 12 13 14 14 15 13 15 13 10 13 11 11 9 12 9 17 15 12 11 11 11 15 15 11 8 14 15 10 18 12 14 19 12 10 12 11 11 15 15 12 13 12 14 13 16 11 10 10 13 13 14 15 14 13 14 9 11 13 8 13 19 12 11 8 13 15 11 14 13 14 13 17 16 13 11 17 11 16 11 21 10 15 12 8 10 14 15 13 8 14 10 10 15 12 12 13 15 9 12 10 10 12 18 15 11 9 9 10 16 12 14 18 13 8 11 17 13 10 11 10 15 12 9 13 14 9 12 12 14 13 16 10 10 8 10 10 9 11 11 14 13 18 11 11 18 10 13 18 15 13 10 9 15 15 9 12 10 13 15 14 11 9 10 22 13 15 11 13 17 16 12 18 13 23 13 11 18 12 16 17 11 15 13 15 15 15 11 13 14 12 12 21 14 15 14 15 11 14 9 22 13 11 9 18 17 12 12 15 13 12 12 13 14 10 13 14 9 15 13 10 17 16 13 16 12 15 9 12 13 15 15 10 16 12 15 11 16 16 13 15 16 9 6 10 11 11 17 18 9 15 15 12 16 15 6 11 12 10 17 12 11 13 9 12 16 18 14 17 12 15 13 8 10 17 10 14 12 15 16 15 14 14 14 15 18 15 11 11 12 10 20 12 14 13 18 19 12 8 14 16 14 16 13 12 17 8 13 19 15 12 16 19 21 11 18 16 17 12 13 15 10 14 9 15 13 6 12 17 15 11 10 11 19 14 13 15 17 18 12 11 12 16 13 15 10 16 15 18 18 16 13 16 13 13 11 10 18 10 10 12 10 14 7 16 11 12 11 11 14 11 14 17 14 12 17 14 10 19 12 11 15 9 12 10 11 22 20 10 12 14 14 18 16 14 14 14 10 16 12 18 12 12 11 13 15 18 9 15 10 13 15 18 13 12 10 16 15 13 13 13 18 13 10 12 9 21 9 16 11 13 16 13 17 20 12 10 19 10 15 15 12 14 9 15 14 15 11 14 19 12 16 14 14 14 10 9 10 14 15 9 14 15 12 10 9 18 20 15 13 13 19 13 16 14 9 18 8 12 15 16 13 12 9 13 13 19 10 15 10 14 13 15 13 16 12 13 18 14 11 14 14 14 12 14 12 17 11 13 20 10 12 13 12 12 11 17 11 15 16 12 12 11 17 16 14 14 11 14 13 8 12 10 11 15 19 11 17 14 12 15 9 14 9 17 17 14 11 14 16 14 13 14 15 8 10 11 9 16 12 16 8 14 13 16 10 16 14 13 12 12 11 15 9 15 14 15 18 15 11 15 15 10 13 13 12 11 10 10 8 10 12 10 15 12 12 16 11 15 20 13 8 9 11 15 13 11 13 12 11 11 13 12 10 13 10 15 11 13 12 12 15 11 10 11 9 19 10 17 13 15 11 18 10 10 15 12 17 9 14 17 10 13 16 12 17 15 11 14 11 9 12 7 11 12 15 13 9 11 18 15 16 12 20 21 15 13 13 16 14 10 15 16 11 20 12 12 15 13 7 15 15 16 11 15 14 13 13 14 12 16 15 13 16 13 11 16 12 11 10 11 12 14 8 14 9 14 12 19 13 13 16 11 8 17 18 15 19 13 15 13 13 15 9 15 15 8 10 13 16 12 16 15 16 12 18 9 9 11 10 15 16 5 14 17 11 16 13 13 13 12 15 15 14 13 10 14 21 14 11 9 14 10 13 13 12 17 12 18 14 17 10 11 15 14 10 15 17 11 14 16 11 12 13 14 15 10 8 12 9 12 15 14 13 12 8 24 10 17 14 14 11 14 16 13 10 10 18 19 13 12 11 12 10 13 8 11 12 17 17 15 11 15 15 13 12 14 15 13 7 13 13 13 13 12 14 9 17 19 12 20 14 22 19 17 10 17 15 10 14 15 18 17 14 15 11 9 12 17 13 13 18 16 11 14 16 12 11 13 17 14 16 13 11 12 14 12 8 11 8 9 9 17 9 14 
BTB PER SET COUNT: 1012 23 1604 21 150 25 1324 16 30 30 18 23 19013 19 14 12 17 2464 34 13 22 16 20 24 20 25 11 20 376 18 10 19 15 15 21 430 12 21 8 51 16 10 29 30 44 17 19 16 41 16 25 225 19 12 377 370 29 8 503 18 18 24 221 16 15 54 25 1459 17 18 1482 599 26 15 21 9 13 21 17 10 601 12 231 22 23 13 16 18 287 23 20 1028 234 9 10 17 988 12 16 18 35 563 17 91 2032 11 17 27 1917 2918 18 50 1374 18 18 13 18 22 1481 39 835 43 10 17 10 24 9 23 42 988 13 27 15 27 67 15 965 31 25 40 22 14 18 27 29 22 18 16 16 23 14 315 991 16 14 42 201 13 104 17 11 380 34 13 10 22 22 10 30 1544 18 24 17 13 17 1223 12 24 76 263 16 186 37 27 26 12 17 13 259 432 30 16 21 18 21 13 11 990 9 27 32 22 990 10 26 17 11 15 806 2058 19 32 29 4017 18 124 13 23 45 39 14 18 20 8 14 27 24 21 12 22 16 12 24 15 17 1549 111 12 22 13 16 18 30 411 20 15 13 15 466 18 17 24 17 9 12 38 51 15 13 20 657 18 9 410 15 10 21 17 942 23 23 13 496 10 13 16 15 17 13 19 16 39 23 569 32 11 14 32 19 13 10 9 19 26 11 17 13 19 18 782 11 10 32 51 17 23 15 16 23 282 16 33 16 50 1470 674 25 21 25 31 22 22 17 21 176 457 22 17 17 22 12 31 19 24 17 843 13 819 9 31 21 1512 11 34 21 19 19 23 16 111 17 21 19 15 20 21 15 21 15 13 22 23 23 30 14 2380 11 20 21 17 22 11 28 508 344 12 20 26 26 501 230 12 7 10 11 14 324 20 9 1427 19 13 30 19 9 902 17 16 81 1498 15 23 10 18 28 29 20 746 16 24 21 10 11 34 12 19 17 17 27 20 19 17 21 29 20 18 18 11 16 11 65 23 17 24 117 24 23 25 22 28 808 26 52 18 1425 8 550 26 18 15 31 26 36 16 406 57 26 18 15 16 18 28 22 22 15 8 2765 28 24 17 11 13 26 16 19 22 20 24 16 30 18 31 22 22 321 26 21 33 894 131 17 22 5313 16 11 15 28 951 10 20 11 23 8 137 16 14 11 11 17 15 19 307 30 55 24 19 11 24 19 12 18 10 20 10 18 372 701 715 19 1115 18 27 90 17 22 28 13 21 16 672 13 13 13 23 20 28 10 20 15 344 32 27 228 32 12 24 23 16 20 21 25 16 13 13 12 30 181 21 16 1083 36 17 23 29 18 21 34 14 21 30 12 18 14 61 19 24 56 15 36 17 1572 179 24 19 14 19 1081 530 61 10 17 28 119 12 9 25 30 595 18 17 26 268 236 19 12 31 8 17 27 187 16 14 14 44 16 23 15 22 1452 21 19 29 18 20 16 139 33 983 15 25 25 23 15 17 1288 112 113 15 242 18 17 23 16 18 17 24 19 28 57 991 17 18 673 21 1631 15 16 29 1798 11 18 14 995 21 1008 20 25 16 30 21 9 16 816 418 33 25 17 21 278 23 16 19 20 10 17 20 336 2834 19 30 12 40 17 22 17 95 35 16 16 23 27 516 446 20 517 150 33 17 27 572 19 93 16 21 1483 14 11 13 8 110 19 7924 20 19 18 21 179 19 27 25 23 9 991 24 229 11 512 13 16 23 23 24 401 19 16 23 23 1482 12 13 18 21 11 101 2941 29 13 219 20 21 20 112 32 10 24 15 36 843 16 1172 1477 22 234 13 22 24 20 19 14 12 391 8 22 14 194 496 16 16 28 352 18 17 419 64 513 16 16 28 34 59 20 2554 15 189 21 1041 21 1561 12 338 16 1071 16 27 1487 13 16 28 16 30 17 22 26 23 48 1985 23 14 19 14 19 26 12 18 758 21 125 30 23 23 992 189 18 35 29 25 33 18 15 17 25 22 11 20 964 10 12 18 27 24 21 43 25 20 34 10 14 12 12 28 28 5 162 25 17 331 16 19 16 17 25 30 464 16 16 25 29 24 17 19 23 10 27 1000 19 32 18 36 134 236 15 12 25 24 25 1615 1114 678 21 23 12 27 14 25 26 678 9 18 9 42 27 20 16 13 10 31 14 89 17 15 17 60 31 17 11 16 111 25 21 18 14 1026 23 4672 12 18 18 24 48 24 16 17 29 19 14 21 1494 19 7 52 56 18 16 16 23 15 24 31 18 34 705 1494 692 31 14 89 27 995 16 19 25 1548 17 26 986 9 12 1496 31 28 27 27 25 19 27 839 21 19 31 201 1489 576 15 17 21 17 8 22 11 11 9 1187 10 19 
To predecode: 0
Predecoding something: 0
Predecode request dropped: 0
sizeofblock_0 0
sizeofblock_1 50361
sizeofblock_2 94490
sizeofblock_3 0
sizeofblock_4 0
sizeofblock_5 0
sizeofblock_6 0
sizeofblock_7 0
sizeofblock_8 0
Variant_0 Correct: 1609710 Incorrect: 0 Accuracy: 1
Variant_1 Correct: 5721271 Incorrect: 0 Accuracy: 1
Variant_2 Correct: 0 Incorrect: 0 Accuracy: -nan
Variant_3 Correct: 0 Incorrect: 0 Accuracy: -nan
