
*** ChampSim Multicore Out-of-Order Simulator ***

Warmup Instructions: 50000000
Simulation Instructions: 50000000
Number of CPUs: 1
LLC sets: 2048
LLC ways: 16
Off-chip DRAM Size: 4096 MB Channels: 1 Width: 64-bit Data Rate: 6400 MT/s
CPU 0 runs ./micro_traces/srv173.trace.gz
.gz
ITLB has LRU replacement policy
DTLB has LRU replacement policy
STLB has LRU replacement policy
FDIP Prefetcher at L1I
L1I has LRU replacement policy
L1D has LRU replacement policy
Initialize SRRIP state for L2C
Initialize DRRIP state for LLC
Heartbeat_Variant_0 : 1132 0.276367 per_variant_size: 0 1132 0 0 0 0 0 0 0 
Heartbeat_Variant_1 : 2633 0.642822 per_variant_size: 0 1056 1577 0 0 0 0 0 0 
Heartbeat_Variant_2 : 0 0 per_variant_size: 0 0 0 0 0 0 0 0 0 
Heartbeat_Variant_3 : 0 0 per_variant_size: 0 0 0 0 0 0 0 0 0 
Heartbeat_Variant_0_evicts 0 : 11835 1 : 14954 2 : 0 3 : 0 
Heartbeat_Variant_1_evicts 0 : 14810 1 : 0 2 : 0 3 : 0 
Heartbeat_Variant_2_evicts 0 : 0 1 : 0 2 : 0 3 : 0 
Heartbeat_Variant_3_evicts 0 : 0 1 : 0 2 : 0 3 : 0 
Heartbeat CPU 0 instructions: 10000001 cycles: 2798468 heartbeat IPC: 3.57338 cumulative IPC: 3.57338 (Simulation time: 0 hr 1 min 39 sec) 
Heartbeat_Variant_0 : 1142 0.278809 per_variant_size: 0 1142 0 0 0 0 0 0 0 
Heartbeat_Variant_1 : 2673 0.652588 per_variant_size: 0 975 1698 0 0 0 0 0 0 
Heartbeat_Variant_2 : 0 0 per_variant_size: 0 0 0 0 0 0 0 0 0 
Heartbeat_Variant_3 : 0 0 per_variant_size: 0 0 0 0 0 0 0 0 0 
Heartbeat_Variant_0_evicts 0 : 11940 1 : 14937 2 : 0 3 : 0 
Heartbeat_Variant_1_evicts 0 : 14933 1 : 0 2 : 0 3 : 0 
Heartbeat_Variant_2_evicts 0 : 0 1 : 0 2 : 0 3 : 0 
Heartbeat_Variant_3_evicts 0 : 0 1 : 0 2 : 0 3 : 0 
Heartbeat CPU 0 instructions: 20000001 cycles: 5596778 heartbeat IPC: 3.57359 cumulative IPC: 3.57348 (Simulation time: 0 hr 3 min 18 sec) 
Heartbeat_Variant_0 : 1146 0.279785 per_variant_size: 0 1146 0 0 0 0 0 0 0 
Heartbeat_Variant_1 : 2677 0.653564 per_variant_size: 0 974 1703 0 0 0 0 0 0 
Heartbeat_Variant_2 : 0 0 per_variant_size: 0 0 0 0 0 0 0 0 0 
Heartbeat_Variant_3 : 0 0 per_variant_size: 0 0 0 0 0 0 0 0 0 
Heartbeat_Variant_0_evicts 0 : 12811 1 : 15672 2 : 0 3 : 0 
Heartbeat_Variant_1_evicts 0 : 15669 1 : 0 2 : 0 3 : 0 
Heartbeat_Variant_2_evicts 0 : 0 1 : 0 2 : 0 3 : 0 
Heartbeat_Variant_3_evicts 0 : 0 1 : 0 2 : 0 3 : 0 
Heartbeat CPU 0 instructions: 30000002 cycles: 8393342 heartbeat IPC: 3.57582 cumulative IPC: 3.57426 (Simulation time: 0 hr 4 min 57 sec) 
Heartbeat_Variant_0 : 1142 0.278809 per_variant_size: 0 1142 0 0 0 0 0 0 0 
Heartbeat_Variant_1 : 2681 0.654541 per_variant_size: 0 984 1697 0 0 0 0 0 0 
Heartbeat_Variant_2 : 0 0 per_variant_size: 0 0 0 0 0 0 0 0 0 
Heartbeat_Variant_3 : 0 0 per_variant_size: 0 0 0 0 0 0 0 0 0 
Heartbeat_Variant_0_evicts 0 : 12025 1 : 14597 2 : 0 3 : 0 
Heartbeat_Variant_1_evicts 0 : 14601 1 : 0 2 : 0 3 : 0 
Heartbeat_Variant_2_evicts 0 : 0 1 : 0 2 : 0 3 : 0 
Heartbeat_Variant_3_evicts 0 : 0 1 : 0 2 : 0 3 : 0 
Heartbeat CPU 0 instructions: 40000002 cycles: 11191326 heartbeat IPC: 3.574 cumulative IPC: 3.5742 (Simulation time: 0 hr 6 min 37 sec) 
Heartbeat_Variant_0 : 1152 0.28125 per_variant_size: 0 1152 0 0 0 0 0 0 0 
Heartbeat_Variant_1 : 2674 0.652832 per_variant_size: 0 981 1693 0 0 0 0 0 0 
Heartbeat_Variant_2 : 0 0 per_variant_size: 0 0 0 0 0 0 0 0 0 
Heartbeat_Variant_3 : 0 0 per_variant_size: 0 0 0 0 0 0 0 0 0 
Heartbeat_Variant_0_evicts 0 : 12309 1 : 15246 2 : 0 3 : 0 
Heartbeat_Variant_1_evicts 0 : 15236 1 : 0 2 : 0 3 : 0 
Heartbeat_Variant_2_evicts 0 : 0 1 : 0 2 : 0 3 : 0 
Heartbeat_Variant_3_evicts 0 : 0 1 : 0 2 : 0 3 : 0 
Heartbeat CPU 0 instructions: 50000002 cycles: 13988123 heartbeat IPC: 3.57552 cumulative IPC: 3.57446 (Simulation time: 0 hr 8 min 17 sec) 

Warmup complete CPU 0 instructions: 50000002 cycles: 13988123 (Simulation time: 0 hr 8 min 17 sec) 

Cycle: 20000000 FTQ IN: 57415687 FTQ occupancy: 18.5652 DECODE IN: 57415638 DECODE occupancy: 47.6781 ROB IN: 57415638 ROB occupancy: 289.899 ROB OUT: 57415638
Heartbeat_Variant_0 : 1133 0.276611 per_variant_size: 0 1133 0 0 0 0 0 0 0 
Heartbeat_Variant_1 : 2705 0.6604 per_variant_size: 0 968 1737 0 0 0 0 0 0 
Heartbeat_Variant_2 : 0 0 per_variant_size: 0 0 0 0 0 0 0 0 0 
Heartbeat_Variant_3 : 0 0 per_variant_size: 0 0 0 0 0 0 0 0 0 
Heartbeat_Variant_0_evicts 0 : 12552 1 : 15626 2 : 0 3 : 0 
Heartbeat_Variant_1_evicts 0 : 15646 1 : 0 2 : 0 3 : 0 
Heartbeat_Variant_2_evicts 0 : 0 1 : 0 2 : 0 3 : 0 
Heartbeat_Variant_3_evicts 0 : 0 1 : 0 2 : 0 3 : 0 
Heartbeat CPU 0 instructions: 60000001 cycles: 22068214 heartbeat IPC: 1.23761 cumulative IPC: 1.23761 (Simulation time: 0 hr 9 min 46 sec) 
Cycle: 30000000 FTQ IN: 12185549 FTQ occupancy: 8.43174 DECODE IN: 12185514 DECODE occupancy: 19.2177 ROB IN: 12185454 ROB occupancy: 153.811 ROB OUT: 12185453
Heartbeat_Variant_0 : 1134 0.276855 per_variant_size: 0 1134 0 0 0 0 0 0 0 
Heartbeat_Variant_1 : 2726 0.665527 per_variant_size: 0 967 1759 0 0 0 0 0 0 
Heartbeat_Variant_2 : 0 0 per_variant_size: 0 0 0 0 0 0 0 0 0 
Heartbeat_Variant_3 : 0 0 per_variant_size: 0 0 0 0 0 0 0 0 0 
Heartbeat_Variant_0_evicts 0 : 12249 1 : 15948 2 : 0 3 : 0 
Heartbeat_Variant_1_evicts 0 : 15950 1 : 0 2 : 0 3 : 0 
Heartbeat_Variant_2_evicts 0 : 0 1 : 0 2 : 0 3 : 0 
Heartbeat_Variant_3_evicts 0 : 0 1 : 0 2 : 0 3 : 0 
Heartbeat CPU 0 instructions: 70000002 cycles: 30316728 heartbeat IPC: 1.21234 cumulative IPC: 1.22484 (Simulation time: 0 hr 11 min 16 sec) 
Heartbeat_Variant_0 : 1120 0.273438 per_variant_size: 0 1120 0 0 0 0 0 0 0 
Heartbeat_Variant_1 : 2741 0.669189 per_variant_size: 0 978 1763 0 0 0 0 0 0 
Heartbeat_Variant_2 : 0 0 per_variant_size: 0 0 0 0 0 0 0 0 0 
Heartbeat_Variant_3 : 0 0 per_variant_size: 0 0 0 0 0 0 0 0 0 
Heartbeat_Variant_0_evicts 0 : 12311 1 : 15537 2 : 0 3 : 0 
Heartbeat_Variant_1_evicts 0 : 15551 1 : 0 2 : 0 3 : 0 
Heartbeat_Variant_2_evicts 0 : 0 1 : 0 2 : 0 3 : 0 
Heartbeat_Variant_3_evicts 0 : 0 1 : 0 2 : 0 3 : 0 
Heartbeat CPU 0 instructions: 80000003 cycles: 38398540 heartbeat IPC: 1.23735 cumulative IPC: 1.22898 (Simulation time: 0 hr 12 min 47 sec) 
Cycle: 40000000 FTQ IN: 12402135 FTQ occupancy: 8.37373 DECODE IN: 12402219 DECODE occupancy: 19.2474 ROB IN: 12402269 ROB occupancy: 156.048 ROB OUT: 12402211
Heartbeat_Variant_0 : 1153 0.281494 per_variant_size: 0 1153 0 0 0 0 0 0 0 
Heartbeat_Variant_1 : 2708 0.661133 per_variant_size: 0 952 1756 0 0 0 0 0 0 
Heartbeat_Variant_2 : 0 0 per_variant_size: 0 0 0 0 0 0 0 0 0 
Heartbeat_Variant_3 : 0 0 per_variant_size: 0 0 0 0 0 0 0 0 0 
Heartbeat_Variant_0_evicts 0 : 12414 1 : 15644 2 : 0 3 : 0 
Heartbeat_Variant_1_evicts 0 : 15611 1 : 0 2 : 0 3 : 0 
Heartbeat_Variant_2_evicts 0 : 0 1 : 0 2 : 0 3 : 0 
Heartbeat_Variant_3_evicts 0 : 0 1 : 0 2 : 0 3 : 0 
Heartbeat CPU 0 instructions: 90000003 cycles: 46572125 heartbeat IPC: 1.22345 cumulative IPC: 1.2276 (Simulation time: 0 hr 14 min 21 sec) 
Cycle: 50000000 FTQ IN: 12236038 FTQ occupancy: 8.41929 DECODE IN: 12236008 DECODE occupancy: 19.1136 ROB IN: 12236018 ROB occupancy: 152.072 ROB OUT: 12236077
Heartbeat_Variant_0 : 1145 0.279541 per_variant_size: 0 1145 0 0 0 0 0 0 0 
Heartbeat_Variant_1 : 2716 0.663086 per_variant_size: 0 964 1752 0 0 0 0 0 0 
Heartbeat_Variant_2 : 0 0 per_variant_size: 0 0 0 0 0 0 0 0 0 
Heartbeat_Variant_3 : 0 0 per_variant_size: 0 0 0 0 0 0 0 0 0 
Heartbeat_Variant_0_evicts 0 : 12377 1 : 15794 2 : 0 3 : 0 
Heartbeat_Variant_1_evicts 0 : 15802 1 : 0 2 : 0 3 : 0 
Heartbeat_Variant_2_evicts 0 : 0 1 : 0 2 : 0 3 : 0 
Heartbeat_Variant_3_evicts 0 : 0 1 : 0 2 : 0 3 : 0 
Heartbeat CPU 0 instructions: 100000003 cycles: 54645320 heartbeat IPC: 1.23867 cumulative IPC: 1.22979 (Simulation time: 0 hr 15 min 52 sec) 
Finished CPU 0 instructions: 50000001 cycles: 40657197 cumulative IPC: 1.22979 (Simulation time: 0 hr 15 min 52 sec) 

ChampSim completed all CPUs

Region of Interest Statistics

CPU 0 cumulative IPC: 1.22979 instructions: 50000001 cycles: 40657197
 Fetch stage stalled: 66.1119  Sim cycles: 40657197 fetch stall cycle: 26879259
 Empty decode stage: 53.1407  Sim cycles: 40657197 fetch stall cycle: 21605529
ITLB TOTAL     ACCESS:    5655318  HIT:    5158390  MISS:     496928  HIT %:    91.2131  MISS %:    8.78692   MPKI: 9.93856
ITLB LOAD TRANSLATION INSTRUCTION	ACCESS:    5538033  HIT:    5041105  MISS:     496928  HIT %:     91.027  MISS %:    8.97301  MPKI: 9.93856
ITLB TRANSLATION FROM L1D PREFETCHER INSTRUCTION	ACCESS:     117285  HIT:     117285  MISS:          0  HIT %:        100  MISS %:          0  MPKI: 0

ITLB AVERAGE MISS LATENCY: 9.05407 cycles
ITLB RQ	ACCESS:    7586272	FORWARD:          0	MERGED:    1431394	TO_CACHE:    6154878

DTLB TOTAL     ACCESS:    9177391  HIT:    8705866  MISS:     471525  HIT %:    94.8621  MISS %:     5.1379   MPKI: 9.4305
DTLB LOAD TRANSLATION DATA	ACCESS:    9177391  HIT:    8705866  MISS:     471525  HIT %:    94.8621  MISS %:     5.1379  MPKI: 9.4305

DTLB AVERAGE MISS LATENCY: 9.3284 cycles
DTLB RQ	ACCESS:   13533921	FORWARD:          0	MERGED:    4319511	TO_CACHE:    9214410

STLB TOTAL     ACCESS:    1213993  HIT:    1211738  MISS:       2255  HIT %:    99.8142  MISS %:   0.185751   MPKI: 0.0451
STLB LOAD TRANSLATION INSTRUCTION	ACCESS:     496928  HIT:     496549  MISS:        379  HIT %:    99.9237  MISS %:  0.0762686  MPKI: 0.00758
STLB LOAD TRANSLATION DATA	ACCESS:     471288  HIT:     469443  MISS:       1845  HIT %:    99.6085  MISS %:    0.39148  MPKI: 0.0369
STLB TRANSLATION FROM L1D PREFETCHER DATA	ACCESS:     245777  HIT:     245746  MISS:         31  HIT %:    99.9874  MISS %:  0.0126131  MPKI: 0.00062

STLB AVERAGE MISS LATENCY: 69.0931 cycles
STLB RQ	ACCESS:    1329628	FORWARD:          0	MERGED:     115596	TO_CACHE:    1214032

STLB Hit, L1D data hit: 0
STLB Hit, L2C data hit: 0
STLB Hit, LLC data hit: 0
STLB Hit, LLC data miss: 0
STLB STLB hints to L2: 0
L1D TOTAL     ACCESS:   13294854  HIT:   12175898  MISS:    1118956  HIT %:    91.5835  MISS %:    8.41646   MPKI: 22.3791
L1D LOAD DATA	ACCESS:    6725659  HIT:    5985509  MISS:     740150  HIT %:    88.9951  MISS %:    11.0049  MPKI: 14.803
L1D RFO DATA	ACCESS:    6245421  HIT:    5959518  MISS:     285903  HIT %:    95.4222  MISS %:     4.5778  MPKI: 5.71806
L1D PREFETCH DATA	ACCESS:     323774  HIT:     230871  MISS:      92903  HIT %:    71.3062  MISS %:    28.6938  MPKI: 1.85806

L1D PREFETCH  REQUESTED:     722736  ISSUED:     722736  USEFUL:      32244  USELESS:      68107
L1D USEFUL LOAD PREFETCHES:      32244 PREFETCH ISSUED TO LOWER LEVEL:     100399  ACCURACY: 32.1159
 TIMELY PREFETCHES:      32244 LATE PREFETCHES: 7433 DROPPED PREFETCHES: 10
L1D AVERAGE MISS LATENCY: 227552 cycles
L1D RQ	ACCESS:   10797881	FORWARD:          0	MERGED:    3869343	TO_CACHE:    6760015
L1D WQ	ACCESS:    6957886	FORWARD:     168909	MERGED:     183980	TO_CACHE:    6773906
L1D PQ	ACCESS:     361561	FORWARD:          0	MERGED:          0	TO_CACHE:     361175

L1D UNIQUE REGIONS ACCESSED: 0
L1D REGIONS CONFLICTS: 0
L1D Cross Page Prefetch Requests: 6001
L1D Same Page Prefetch Requests: 732604
L1D ROI Sum of L1D PQ occupancy: 4582110
L1D PREFETCHES PUSHED FROM L2C: 0
L1I TOTAL     ACCESS:    6978342  HIT:    4203387  MISS:    2774955  HIT %:    60.2348  MISS %:    39.7652   MPKI: 55.4991
L1I LOAD INSTRUCTION	ACCESS:    6440034  HIT:    3665079  MISS:    2774955  HIT %:    56.9109  MISS %:    43.0891  MPKI: 55.4991
L1I PREFETCH INSTRUCTION	ACCESS:     538308  HIT:     538308  MISS:          0  HIT %:        100  MISS %:          0  MPKI: 0

L1I PREFETCH  REQUESTED:    1249479  ISSUED:    1249479  USEFUL:          0  USELESS:          0
L1I USEFUL LOAD PREFETCHES:          0 PREFETCH ISSUED TO LOWER LEVEL:          0  ACCURACY: -nan
 TIMELY PREFETCHES:          0 LATE PREFETCHES: 0 DROPPED PREFETCHES: 0
L1I AVERAGE MISS LATENCY: 17.1646 cycles
L1I RQ	ACCESS:    9462045	FORWARD:          0	MERGED:    2774070	TO_CACHE:    6687975
L1I PQ	ACCESS:    1249479	FORWARD:          0	MERGED:     351182	TO_CACHE:     898297

L1BTB TOTAL     ACCESS:    5673782  HIT:    2032599  MISS:    3641183  HIT %:    35.8244  MISS %:    64.1756   MPKI: 72.8237
L1BTB BRANCH_DIRECT_JUMP	ACCESS:     548575 HIT:     144031 MISS:     404544 AVERAGE STALL: 40.3484 AVERAGE FETCH STALL: 18.4316 AVERAGE FETCH QUEUE STALL: 11.6299 AVERAGE DECODE STALL: 9.45646 AVERAGE EXECUTE STALL: 5.75939e+14
L1BTB BRANCH_INDIRECT	ACCESS:     183033 HIT:      65847 MISS:     117186 AVERAGE STALL: 94.5716 AVERAGE FETCH STALL: 12.9269 AVERAGE FETCH QUEUE STALL: 10.3012 AVERAGE DECODE STALL: 8.34637 AVERAGE EXECUTE STALL: 62.049
L1BTB BRANCH_CONDITIONAL	ACCESS:    2703498 HIT:    1407003 MISS:    1296495 AVERAGE STALL: 40.2996 AVERAGE FETCH STALL: 21.8351 AVERAGE FETCH QUEUE STALL: 9.54618 AVERAGE DECODE STALL: 8.17625 AVERAGE EXECUTE STALL: 2.19732e+14
L1BTB BRANCH_DIRECT_CALL	ACCESS:     947459 HIT:     105095 MISS:     842364 AVERAGE STALL: 42.3422 AVERAGE FETCH STALL: 21.6616 AVERAGE FETCH QUEUE STALL: 10.9956 AVERAGE DECODE STALL: 8.92728 AVERAGE EXECUTE STALL: 1.69827e+14
L1BTB BRANCH_INDIRECT_CALL	ACCESS:     171879 HIT:      20863 MISS:     151016 AVERAGE STALL: 126.006 AVERAGE FETCH STALL: 16.8485 AVERAGE FETCH QUEUE STALL: 9.58728 AVERAGE DECODE STALL: 7.83089 AVERAGE EXECUTE STALL: 91.2175
L1BTB BRANCH_RETURN	ACCESS:    1119338 HIT:     289760 MISS:     829578 AVERAGE STALL: 40.9728 AVERAGE FETCH STALL: 17.7803 AVERAGE FETCH QUEUE STALL: 6.94575 AVERAGE DECODE STALL: 6.90083 AVERAGE EXECUTE STALL: 2.39236e+14
L1BTB BRANCH_OTHER ACCESS:          0 HIT:          0 MISS:          0 AVERAGE STALL: -nan AVERAGE FETCH STALL: -nan AVERAGE FETCH QUEUE STALL: -nan AVERAGE DECODE STALL: -nan AVERAGE EXECUTE STALL: -nan
L1BTB TOTAL ROB OCCUPANCY AT BTB MISS: 11.7716

L2BTB TOTAL     ACCESS:    3615810  HIT:    3286621  MISS:     329189  HIT %:    90.8958  MISS %:    9.10416   MPKI: 6.58378
L2BTB BRANCH_DIRECT_JUMP	ACCESS:     400424 HIT:     372484 MISS:      27940 AVERAGE STALL: 40.3484 AVERAGE FETCH STALL: 18.4316 AVERAGE FETCH QUEUE STALL: 11.6299 AVERAGE DECODE STALL: 9.45646 AVERAGE EXECUTE STALL: 5.75939e+14
L2BTB BRANCH_INDIRECT	ACCESS:     106870 HIT:     100443 MISS:       6427 AVERAGE STALL: 94.5716 AVERAGE FETCH STALL: 12.9269 AVERAGE FETCH QUEUE STALL: 10.3012 AVERAGE DECODE STALL: 8.34637 AVERAGE EXECUTE STALL: 62.049
L2BTB BRANCH_CONDITIONAL	ACCESS:    1296495 HIT:    1212013 MISS:      84482 AVERAGE STALL: 40.2996 AVERAGE FETCH STALL: 21.8351 AVERAGE FETCH QUEUE STALL: 9.54618 AVERAGE DECODE STALL: 8.17625 AVERAGE EXECUTE STALL: 2.19732e+14
L2BTB BRANCH_DIRECT_CALL	ACCESS:     842364 HIT:     733671 MISS:     108693 AVERAGE STALL: 42.3422 AVERAGE FETCH STALL: 21.6616 AVERAGE FETCH QUEUE STALL: 10.9956 AVERAGE DECODE STALL: 8.92728 AVERAGE EXECUTE STALL: 1.69827e+14
L2BTB BRANCH_INDIRECT_CALL	ACCESS:     141502 HIT:     115589 MISS:      25913 AVERAGE STALL: 126.006 AVERAGE FETCH STALL: 16.8485 AVERAGE FETCH QUEUE STALL: 9.58728 AVERAGE DECODE STALL: 7.83089 AVERAGE EXECUTE STALL: 91.2175
L2BTB BRANCH_RETURN	ACCESS:     828155 HIT:     752421 MISS:      75734 AVERAGE STALL: 40.9728 AVERAGE FETCH STALL: 17.7803 AVERAGE FETCH QUEUE STALL: 6.94575 AVERAGE DECODE STALL: 6.90083 AVERAGE EXECUTE STALL: 2.39236e+14
L2BTB BRANCH_OTHER ACCESS:          0 HIT:          0 MISS:          0 AVERAGE STALL: -nan AVERAGE FETCH STALL: -nan AVERAGE FETCH QUEUE STALL: -nan AVERAGE DECODE STALL: -nan AVERAGE EXECUTE STALL: -nan
L2BTB TOTAL ROB OCCUPANCY AT BTB MISS: 130.207

L2C TOTAL     ACCESS:    4509426  HIT:    4037935  MISS:     471491  HIT %:    89.5443  MISS %:    10.4557   MPKI: 9.42982
L2C LOAD INSTRUCTION	ACCESS:    2774955  HIT:    2523527  MISS:     251428  HIT %:    90.9394  MISS %:    9.06062  MPKI: 5.02856
L2C LOAD TRANSLATION INSTRUCTION	ACCESS:        423  HIT:        162  MISS:        261  HIT %:    38.2979  MISS %:    61.7021  MPKI: 0.00522
L2C LOAD DATA	ACCESS:     732693  HIT:     653862  MISS:      78831  HIT %:    89.2409  MISS %:    10.7591  MPKI: 1.57662
L2C RFO DATA	ACCESS:     285809  HIT:     234670  MISS:      51139  HIT %:    82.1073  MISS %:    17.8927  MPKI: 1.02278
L2C PREFETCH DATA	ACCESS:     186829  HIT:     111054  MISS:      75775  HIT %:    59.4415  MISS %:    40.5585  MPKI: 1.5155
L2C WRITEBACK DATA	ACCESS:     526735  HIT:     514063  MISS:      12672  HIT %:    97.5942  MISS %:    2.40576  MPKI: 0.25344
L2C LOAD TRANSLATION DATA	ACCESS:       1927  HIT:        558  MISS:       1369  HIT %:    28.9569  MISS %:    71.0431  MPKI: 0.02738
L2C TRANSLATION FROM L1D PREFETCHER DATA	ACCESS:         55  HIT:         39  MISS:         16  HIT %:    70.9091  MISS %:    29.0909  MPKI: 0.00032

L2C PREFETCH  REQUESTED:      95080  ISSUED:      95080  USEFUL:       9590  USELESS:      66985
L2C USEFUL LOAD PREFETCHES:       9590 PREFETCH ISSUED TO LOWER LEVEL:      76463  ACCURACY: 12.542
 TIMELY PREFETCHES:       9590 LATE PREFETCHES: 688 DROPPED PREFETCHES: 0
L2C AVERAGE MISS LATENCY: 38.2579 cycles
L2C RQ	ACCESS:    3795917	FORWARD:          0	MERGED:          0	TO_CACHE:    3795862
L2C WQ	ACCESS:     526735	FORWARD:         55	MERGED:          0	TO_CACHE:     526735
L2C PQ	ACCESS:     195479	FORWARD:          0	MERGED:       4148	TO_CACHE:     191331

L2C Dense regions hint from L2: 0
PSCL5 TOTAL     ACCESS:       4532  HIT:       2266  MISS:       2266  HIT %:         50  MISS %:         50   MPKI: 0.04532
PSCL5 LOAD TRANSLATION INSTRUCTION	ACCESS:       4422  HIT:       2211  MISS:       2211  HIT %:         50  MISS %:         50  MPKI: 0.04422
PSCL5 TRANSLATION FROM L1D PREFETCHER INSTRUCTION	ACCESS:        110  HIT:         55  MISS:         55  HIT %:         50  MISS %:         50  MPKI: 0.0011


PSCL4 TOTAL     ACCESS:       3550  HIT:       1771  MISS:       1779  HIT %:    49.8873  MISS %:    50.1127   MPKI: 0.03558
PSCL4 LOAD TRANSLATION INSTRUCTION	ACCESS:       2057  HIT:       1734  MISS:        323  HIT %:    84.2975  MISS %:    15.7025  MPKI: 0.00646
PSCL4 TRANSLATION FROM L1D PREFETCHER INSTRUCTION	ACCESS:         37  HIT:         37  MISS:          0  HIT %:        100  MISS %:          0  MPKI: 0
PSCL4 LOAD TRANSLATION DATA	ACCESS:       1419  HIT:          0  MISS:       1419  HIT %:          0  MISS %:        100  MPKI: 0.02838
PSCL4 TRANSLATION FROM L1D PREFETCHER DATA	ACCESS:         37  HIT:          0  MISS:         37  HIT %:          0  MISS %:        100  MPKI: 0.00074


PSCL3 TOTAL     ACCESS:       4219  HIT:       2101  MISS:       2118  HIT %:    49.7985  MISS %:    50.2015   MPKI: 0.04236
PSCL3 LOAD TRANSLATION INSTRUCTION	ACCESS:       2989  HIT:       2060  MISS:        929  HIT %:    68.9194  MISS %:    31.0806  MPKI: 0.01858
PSCL3 TRANSLATION FROM L1D PREFETCHER INSTRUCTION	ACCESS:         56  HIT:         41  MISS:         15  HIT %:    73.2143  MISS %:    26.7857  MPKI: 0.0003
PSCL3 LOAD TRANSLATION DATA	ACCESS:       1148  HIT:          0  MISS:       1148  HIT %:          0  MISS %:        100  MPKI: 0.02296
PSCL3 TRANSLATION FROM L1D PREFETCHER DATA	ACCESS:         26  HIT:          0  MISS:         26  HIT %:          0  MISS %:        100  MPKI: 0.00052


PSCL2 TOTAL     ACCESS:       4414  HIT:       2148  MISS:       2266  HIT %:    48.6633  MISS %:    51.3367   MPKI: 0.04532
PSCL2 LOAD TRANSLATION INSTRUCTION	ACCESS:       2472  HIT:       2093  MISS:        379  HIT %:    84.6683  MISS %:    15.3317  MPKI: 0.00758
PSCL2 TRANSLATION FROM L1D PREFETCHER INSTRUCTION	ACCESS:         55  HIT:         55  MISS:          0  HIT %:        100  MISS %:          0  MPKI: 0
PSCL2 LOAD TRANSLATION DATA	ACCESS:       1832  HIT:          0  MISS:       1832  HIT %:          0  MISS %:        100  MPKI: 0.03664
PSCL2 TRANSLATION FROM L1D PREFETCHER DATA	ACCESS:         55  HIT:          0  MISS:         55  HIT %:          0  MISS %:        100  MPKI: 0.0011


LLC TOTAL     ACCESS:     536911  HIT:     509282  MISS:      27629  HIT %:    94.8541  MISS %:    5.14592   MPKI: 0.55258
LLC LOAD INSTRUCTION	ACCESS:     251428  HIT:     250472  MISS:        956  HIT %:    99.6198  MISS %:   0.380228  MPKI: 0.01912
LLC LOAD TRANSLATION INSTRUCTION	ACCESS:        261  HIT:        239  MISS:         22  HIT %:    91.5709  MISS %:    8.42912  MPKI: 0.00044
LLC LOAD DATA	ACCESS:      78173  HIT:      74772  MISS:       3401  HIT %:    95.6494  MISS %:    4.35061  MPKI: 0.06802
LLC RFO DATA	ACCESS:      51096  HIT:      37860  MISS:      13236  HIT %:    74.0958  MISS %:    25.9042  MPKI: 0.26472
LLC PREFETCH DATA	ACCESS:      76463  HIT:      66868  MISS:       9595  HIT %:    87.4514  MISS %:    12.5486  MPKI: 0.1919
LLC WRITEBACK DATA	ACCESS:      78105  HIT:      77781  MISS:        324  HIT %:    99.5852  MISS %:   0.414826  MPKI: 0.00648
LLC LOAD TRANSLATION DATA	ACCESS:       1369  HIT:       1275  MISS:         94  HIT %:    93.1337  MISS %:    6.86633  MPKI: 0.00188
LLC TRANSLATION FROM L1D PREFETCHER DATA	ACCESS:         16  HIT:         15  MISS:          1  HIT %:      93.75  MISS %:       6.25  MPKI: 2e-05

LLC AVERAGE MISS LATENCY: 153.364 cycles
LLC RQ	ACCESS:     382356	FORWARD:          0	MERGED:          0	TO_CACHE:     382343
LLC WQ	ACCESS:      78105	FORWARD:         13	MERGED:          0	TO_CACHE:      78105
LLC PQ	ACCESS:      76463	FORWARD:          0	MERGED:          0	TO_CACHE:      76463

LLC Dense regions hint to LLC: 0

RAW hits: 1841283
Loads Generated: 12639164
Loads sent to L1D: 10797881
Stores Generated: 6957855
Stores sent to L1D: 6957886
Major fault: 0 Minor fault: 2551
Allocated PAGES: 2551

stream: 
stream:times selected: 1167445
stream:pref_filled: 120525
stream:pref_useful: 23330
stream:pref_late: 6622
stream:misses: 6651
stream:misses_by_poll: 0

CS: 
CS:times selected: 174544
CS:pref_filled: 58849
CS:pref_useful: 34336
CS:pref_late: 6638
CS:misses: 15186
CS:misses_by_poll: 2

CPLX: 
CPLX:times selected: 991529
CPLX:pref_filled: 18799
CPLX:pref_useful: 4150
CPLX:pref_late: 2992
CPLX:misses: 89046
CPLX:misses_by_poll: 1

NL_L1: 
NL:times selected: 19096
NL:pref_filled: 501
NL:pref_useful: 218
NL:pref_late: 194
NL:misses: 995
NL:misses_by_poll: 0

total selections: 2352614
total_filled: 92903
total_useful: 32244
total_late: 17664
total_polluted: 3
total_misses_after_warmup: 774509
conflicts: 5626254

test: 112050

DRAM Statistics
 CHANNEL 0
 RQ ROW_BUFFER_HIT:      10163  ROW_BUFFER_MISS:      17136
 DBUS_CONGESTED:         11
 WQ ROW_BUFFER_HIT:       1358  ROW_BUFFER_MISS:      11761  FULL:          0

 AVG_CONGESTED_CYCLE: 5

CPU 0 Branch Prediction Accuracy: 99.8156% MPKI: 0.33736 Average ROB Occupancy at Mispredict: 147.652
Branch types
NOT_BRANCH: 40852019 81.704%
BRANCH_DIRECT_JUMP: 548575 1.09715%
BRANCH_INDIRECT: 183033 0.366066%
BRANCH_CONDITIONAL: 6177336 12.3547%
BRANCH_DIRECT_CALL: 947459 1.89492%
BRANCH_INDIRECT_CALL: 171879 0.343758%
BRANCH_RETURN: 1119338 2.23868%
BRANCH_OTHER: 0 0%

DRAM PAGES: 1048576
Allocated PAGES: 2551
Average_ROB_Occupancy: 155.146
Average_Decode_Occupancy: 19.1357
Average_FTQ_Occupancy: 8.37407
Indirect max targets: 14 Average targets: 1.16722
Branch_type:  BRANCH_DIRECT_JUMP:  Count Percentage: 3.77654 5.38057 4.32716 7.55674 3.1034 6.02625 1.21563 68.6137 
Branch_type:  BRANCH_INDIRECT:  Count Percentage: 6.07027 3.42292 8.1471 9.67635 3.35129 2.81849 0.937947 65.5756 
Branch_type:  BRANCH_CONDITIONAL:  Count Percentage: 21.5961 3.13403 1.63861 6.79326 3.09943 3.63091 1.3509 58.7568 
Branch_type:  BRANCH_DIRECT_CALL:  Count Percentage: 0.387647 1.80701 0.723545 3.57638 3.37181 2.80784 2.1756 85.1502 
Branch_type:  BRANCH_INDIRECT_CALL:  Count Percentage: 9.58753 0 3.00874 0.00378092 0 2.24732 0.997871 84.1548 
Branch_type:  BRANCH_RETURN:  Count Percentage: 3.94705 5.42806 1.0226 4.37494 3.68365 3.79994 2.17476 75.569 
Branch_type:  BRANCH_DIRECT_JUMP:  Total Count: 41393 58974 47428 82826 34015 66051 13324 752044 
Branch_type:  BRANCH_INDIRECT:  Total Count: 22205 12521 29802 35396 12259 10310 3431 239875 
Branch_type:  BRANCH_CONDITIONAL:  Total Count: 2666596 386977 202329 838803 382704 448330 166804 7255037 
Branch_type:  BRANCH_DIRECT_CALL:  Total Count: 7341 34220 13702 67727 63853 53173 41200 1612516 
Branch_type:  BRANCH_INDIRECT_CALL:  Total Count: 32965 0 10345 13 0 7727 3431 289351 
Branch_type:  BRANCH_RETURN:  Total Count: 88351 121502 22890 97929 82455 85058 48680 1691541 
Number of unique branch instructions: 10428
Upper 32 bits: 
aaaa
ffff
ffff0000
Unique upper 32 bits: 3
Unique upper 36 bits: 3
Unique upper 40 bits: 5
Unique upper 44 bits: 32
Unique upper 48 bits: 155
Variant_0 : 1145 0.279541
Variant_1 : 2716 0.663086
Variant_2 : 0 0
Variant_3 : 0 0
Offset_3 4320
Offset_4 261
Offset_5 479
Offset_6 528
Offset_7 627
Offset_8 530
Offset_9 493
Offset_10 406
Offset_11 338
Offset_12 307
Offset_13 224
Offset_14 246
Offset_15 190
Offset_16 231
Offset_17 158
Offset_18 129
Offset_19 249
Offset_20 143
Offset_21 249
Offset_22 413
Offset_23 242
Offset_24 345
Offset_25 100
Offset_47 87
Offset_64 1
decode_dispatch_called: 20708494 50.9344
Dispatch_width: 0 10510775 50.7559 25.8522
Dispatch_width: 1 584901 2.82445 1.43862
Dispatch_width: 2 617478 2.98176 1.51874
Dispatch_width: 3 411728 1.98821 1.01268
Dispatch_width: 4 2145527 10.3606 5.27711
Dispatch_width: 5 265846 1.28375 0.653872
Dispatch_width: 6 6172239 29.8053 15.1812
Empty_decode_cycles: 19948703 49.0656
ROB_full_cycles: 3271299 8.04605
Starvation_cycles_per_kilo_instr: 312.137
Starvation_cycles_per_kilo_instr_3: 288.023
Starvation_cycles_per_kilo_instr_0: 271.882
Branch_type_1  (3,1)  (4,9)  (5,38)  (6,73)  (7,124)  (8,133)  (9,128)  (10,104)  (11,74)  (12,51)  (13,9)  (14,2)  (15,3)  (16,4)  (18,1)  (19,4)  (20,2)  (21,1)  (22,3)  (23,2)  (24,10)  (25,13) 
Branch_type_2  (3,1)  (4,1)  (5,1)  (8,3)  (9,3)  (12,1)  (13,1)  (14,1)  (16,3)  (17,2)  (20,2)  (21,2)  (23,5)  (24,1)  (47,40) 
Branch_type_3  (3,4318)  (4,251)  (5,436)  (6,439)  (7,474)  (8,331)  (9,270)  (10,164)  (11,138)  (12,58)  (13,8)  (64,1) 
Branch_type_4  (6,3)  (7,8)  (8,24)  (9,54)  (10,65)  (11,63)  (12,109)  (13,96)  (14,111)  (15,90)  (16,103)  (17,74)  (18,60)  (19,123)  (20,74)  (21,135)  (22,221)  (23,137)  (24,200)  (25,83) 
Branch_type_5  (8,2)  (9,1)  (10,4)  (11,6)  (12,3)  (13,14)  (14,16)  (15,11)  (16,20)  (17,11)  (18,16)  (19,12)  (20,11)  (21,13)  (22,42)  (23,26)  (24,37) 
Branch_type_6  (5,4)  (6,13)  (7,21)  (8,37)  (9,37)  (10,69)  (11,57)  (12,85)  (13,96)  (14,116)  (15,86)  (16,101)  (17,71)  (18,52)  (19,110)  (20,54)  (21,98)  (22,147)  (23,72)  (24,97)  (25,4)  (47,47) 
Unique trigger count: 
Variant_0_evicts_0 : 0
Variant_0_evicts_1 : 0
Variant_0_evicts_2 : 0
Variant_0_evicts_3 : 0
Variant_1_evicts_0 : 0
Variant_1_evicts_1 : 0
Variant_1_evicts_2 : 0
Variant_1_evicts_3 : 0
Variant_2_evicts_0 : 0
Variant_2_evicts_1 : 0
Variant_2_evicts_2 : 0
Variant_2_evicts_3 : 0
Variant_3_evicts_0 : 0
Variant_3_evicts_1 : 0
Variant_3_evicts_2 : 0
Variant_3_evicts_3 : 0
BTB PER SET UNIQUE ADDR: 2 7 3 4 5 4 7 5 1 6 5 5 2 4 10 9 3 4 4 2 5 6 6 9 5 7 4 4 6 8 5 5 5 10 5 6 8 4 5 9 5 7 4 4 7 5 5 4 7 7 8 3 7 3 2 8 5 3 7 5 4 7 3 7 5 2 4 4 4 7 7 4 5 6 7 8 3 5 7 6 10 6 6 7 8 2 6 3 6 7 6 5 6 6 3 1 5 4 4 7 4 3 4 8 4 5 4 6 5 7 5 3 3 9 2 6 4 6 4 10 6 4 5 4 9 7 3 6 6 2 2 5 4 6 9 5 5 2 5 5 3 4 8 7 3 8 5 5 5 8 3 2 3 10 2 7 7 3 6 5 2 7 4 5 9 3 1 3 7 8 7 6 6 4 4 5 3 6 6 5 5 4 4 9 5 5 4 5 5 5 4 3 7 6 1 4 6 6 5 4 6 6 3 7 1 7 2 4 7 6 3 4 8 6 5 4 8 3 4 6 5 10 7 8 5 9 7 4 6 10 3 5 6 9 3 7 5 7 5 6 5 5 5 5 5 4 4 4 4 5 3 6 4 4 5 6 5 4 7 2 8 6 6 3 4 4 7 6 9 4 7 7 6 6 7 5 5 2 6 9 10 3 4 8 3 5 11 5 9 5 5 3 9 7 7 5 4 3 6 4 13 2 6 8 3 3 6 6 9 4 7 3 6 4 5 5 4 7 6 3 8 7 4 4 11 5 3 4 3 7 4 11 4 5 3 5 6 7 7 7 2 6 6 4 5 4 4 5 2 4 6 6 3 2 8 4 4 6 5 6 11 5 2 7 5 11 5 7 4 3 9 8 9 6 5 5 7 6 4 1 5 5 6 5 9 4 3 6 4 5 5 3 4 7 4 6 5 3 5 4 7 7 7 4 4 10 11 4 8 1 5 3 1 6 6 2 5 4 6 6 8 0 5 5 8 3 7 7 6 7 8 3 3 4 4 1 4 2 2 3 9 6 3 1 5 0 4 5 4 5 8 3 6 4 5 2 7 2 11 5 4 6 4 13 2 7 5 5 2 7 6 7 2 7 4 8 3 2 3 8 5 3 6 6 3 4 5 5 7 5 7 5 5 5 6 5 6 5 2 9 3 3 4 4 5 6 5 5 3 4 6 2 6 3 3 5 8 6 8 3 7 5 9 5 5 12 2 3 5 3 8 7 4 3 4 4 8 8 3 7 4 8 10 11 6 4 8 12 6 3 4 6 3 4 6 7 8 0 3 6 3 3 5 9 5 3 4 5 9 3 4 6 2 7 3 8 7 2 5 5 1 9 3 7 4 3 3 1 6 7 8 5 5 6 3 7 10 9 3 5 9 4 4 2 4 10 7 0 4 5 4 3 4 7 1 3 10 5 8 8 3 4 5 2 8 6 3 7 5 4 5 8 4 6 7 5 3 7 5 11 3 5 3 3 3 7 8 7 6 7 6 4 5 8 5 6 5 5 3 6 4 4 7 8 5 5 4 10 6 6 8 5 8 4 7 4 5 5 5 8 7 8 3 7 6 7 3 5 8 4 6 2 4 6 5 11 4 9 5 10 7 6 4 3 9 4 4 7 6 8 4 4 3 6 5 5 8 8 3 4 5 6 3 7 6 9 9 7 3 6 4 5 8 4 4 5 4 5 2 7 3 9 6 5 5 3 5 3 4 6 7 3 8 5 9 9 10 1 3 8 7 6 6 7 9 5 6 13 7 4 7 5 1 6 10 6 4 7 3 5 6 4 5 3 11 4 4 8 6 7 6 4 7 5 8 6 6 3 6 6 6 5 7 4 3 3 5 3 6 5 7 2 0 5 6 6 10 4 8 5 8 6 4 4 5 7 5 7 10 4 6 5 2 8 5 5 6 5 2 5 1 9 6 4 4 4 5 6 3 4 3 6 4 4 6 4 9 7 4 3 2 5 5 9 6 6 8 6 5 5 3 4 6 5 3 3 4 7 0 6 5 5 6 4 4 6 7 11 0 0 7 3 4 3 3 6 4 8 7 2 6 4 6 5 5 2 5 6 6 8 7 5 5 7 10 9 6 4 8 6 9 1 7 4 4 3 6 7 6 5 2 8 7 5 6 7 4 3 2 4 6 4 4 3 6 4 3 3 6 4 8 7 3 2 10 5 10 4 4 3 4 4 7 6 7 2 6 5 2 3 5 1 2 5 2 4 3 10 5 5 4 4 7 5 9 3 3 5 7 3 3 6 7 11 8 4 4 5 3 3 8 5 8 4 3 3 5 8 5 4 4 10 7 5 6 5 6 6 4 4 5 3 7 8 7 4 7 8 4 6 7 2 5 5 5 7 8 5 3 4 4 4 5 6 8 6 5 6 2 4 6 4 6 4 3 7 10 7 6 4 4 7 5 5 4 7 8 6 9 6 1 5 2 8 9 4 6 6 6 4 8 2 4 5 7 5 4 3 3 9 7 9 7 5 6 3 3 4 4 3 6 11 6 10 4 6 4 6 4 1 7 6 4 4 8 3 7 6 4 5 5 4 3 9 2 7 6 8 4 2 7 5 7 2 5 4 5 6 3 4 8 9 7 3 5 5 2 6 5 5 5 6 2 4 4 4 5 10 7 4 4 2 7 5 3 3 6 4 4 7 7 4 6 4 4 9 4 7 4 6 7 2 10 4 4 3 8 4 7 8 8 6 4 2 6 4 7 5 4 5 6 3 5 3 6 4 5 2 7 4 5 4 7 7 1 6 7 3 8 5 8 2 6 5 5 6 10 5 5 4 5 2 5 2 8 4 3 6 4 3 5 6 4 5 6 6 9 4 2 6 5 10 4 3 4 3 4 4 3 6 2 4 5 4 5 2 6 7 4 10 5 4 10 3 5 7 7 6 6 4 7 5 3 7 5 4 4 5 10 8 7 5 7 10 5 5 7 4 6 7 2 6 5 6 7 5 9 8 7 9 12 6 4 5 8 4 3 4 4 4 3 6 4 5 5 3 5 4 8 9 5 4 3 6 6 3 5 6 5 4 6 5 5 4 8 12 4 6 8 6 5 3 5 7 4 3 7 2 4 5 3 8 7 9 6 3 5 4 4 6 3 5 4 14 8 6 4 4 2 5 2 5 3 4 4 3 7 6 5 2 2 4 7 7 2 5 7 5 5 3 7 4 9 3 3 5 8 6 5 5 3 6 9 5 10 6 5 1 2 6 8 6 5 7 8 7 5 4 4 7 7 2 5 6 8 6 5 8 6 2 7 6 6 4 4 4 9 5 7 4 4 4 2 6 5 4 5 4 9 6 5 4 7 6 10 6 3 5 5 8 6 4 7 1 4 2 7 6 5 11 6 7 5 7 6 4 4 5 6 5 5 6 4 9 4 9 6 4 6 2 5 5 10 8 6 4 8 5 6 3 6 6 11 3 3 7 5 9 8 11 9 2 4 7 8 4 11 6 6 2 4 5 5 2 5 9 4 6 2 6 5 3 6 5 5 6 4 10 3 2 5 5 4 4 3 4 4 8 5 4 3 9 6 5 3 4 4 8 6 6 8 4 6 4 2 7 5 8 5 3 4 4 5 7 4 7 7 5 4 9 7 5 3 5 5 4 4 6 4 5 5 4 6 6 5 6 9 4 8 6 4 6 8 6 5 6 4 6 9 4 4 8 7 8 4 6 4 3 3 4 4 7 6 4 8 5 9 5 7 4 4 6 8 4 5 7 6 4 4 8 8 6 3 4 3 4 5 5 7 3 4 6 3 6 5 4 5 5 1 2 6 4 3 2 5 4 1 5 3 5 6 4 5 1 1 3 4 5 14 1 4 8 2 3 4 3 0 5 3 6 3 5 4 2 3 8 7 4 4 4 3 1 7 4 4 4 4 6 4 6 2 4 3 8 7 5 8 5 4 3 2 2 5 6 3 6 3 5 9 7 4 3 6 4 1 6 6 7 7 5 7 3 3 3 5 6 1 1 4 4 7 9 3 8 5 6 6 5 7 4 4 5 7 10 0 7 5 7 6 9 5 8 2 5 11 7 5 6 3 6 4 7 4 5 4 4 6 4 4 5 5 4 3 3 2 1 4 2 7 2 5 5 6 2 5 3 3 8 2 5 3 3 8 6 6 7 4 4 6 3 4 7 4 1 5 5 6 4 3 7 5 5 2 3 5 5 4 5 4 6 3 5 5 5 6 2 6 6 4 4 3 2 6 4 5 5 2 7 5 3 3 8 3 6 4 4 5 8 5 8 2 6 3 5 4 8 4 6 3 2 4 3 2 5 3 9 1 5 2 7 3 3 3 4 3 5 2 1 3 7 3 4 3 4 3 6 4 1 5 6 5 6 8 2 6 7 2 5 10 4 1 1 7 8 3 6 7 6 7 4 6 5 9 7 7 7 4 1 5 4 5 7 5 6 8 9 5 4 2 7 3 7 5 6 7 8 6 7 6 9 7 6 4 6 5 5 5 5 3 7 3 6 6 13 7 3 5 9 3 4 6 4 2 3 8 6 4 8 4 6 4 5 7 7 5 5 2 3 7 4 0 4 5 8 3 4 5 10 7 7 4 9 7 4 4 7 6 4 6 3 3 11 5 3 6 4 4 15 5 5 5 7 3 5 3 4 7 6 
BTB PER SET COUNT: 2 1752 76 709 206 92 332 241 1 827 692 376 2 1443 1136 149 273 180 5 2 247 702 568 123 394 840 143 271 413 482 356 160 181 1140 544 220 787 280 172 1214 16 1710 5 16 1894 731 5 120 242 603 796 3 747 3 2 371 540 1178 549 149 1226 718 168 18 13 9 159 241 4 670 1242 100 251 848 19 809 3 478 834 234 758 262 238 542 562 2 620 3 547 1656 346 565 651 455 4 1 244 5 140 500 114 4 127 16 316 8 128 199 651 622 42 3 244 1200 2 243 282 14 256 1940 448 243 1608 4 500 950 6 450 1127 2 2 141 4 188 198 321 172 2 539 635 8 992 976 418 3 269 7 8 90 361 209 519 10 851 3 744 275 965 360 245 2 90 5 320 775 98 1 3 259 287 312 210 390 133 293 91 3 305 94 424 147 245 154 498 151 215 35 6 9 49 80 3 600 285 1 536 11 870 776 5 187 151 90 172 1 325 2 398 270 8 6 5 669 483 255 224 708 330 4 237 10 428 310 692 360 1159 260 53 190 1046 158 227 8 3366 3 212 10 91 316 710 525 201 465 151 266 174 7792 9 6 245 3 703 4 121 382 106 1834 214 323 2 424 31 477 296 8 454 15 503 470 97 389 418 12 142 709 255 225 278 233 635 616 3 305 477 3 165 1166 235 415 11 18 3 1199 447 527 156 181 3 380 5 765 175 1445 346 4 3 71 62 98 12 133 3 77 212 11 370 28 461 266 3 387 326 279 183 1028 172 297 185 4 393 10 692 154 500 148 206 837 213 234 450 2 316 288 4 746 236 345 522 2 138 363 12 3 2 488 5 363 477 386 139 1248 403 2 632 139 2715 458 930 4 268 879 533 1253 13 261 197 1110 213 165 1 46 1055 89 865 1101 9 3 300 4 14 85 3 5 107 172 7 1822 4 312 134 1139 313 266 4 352 926 2451 459 61 1 7 61 1 258 627 3 374 369 427 105 370 0 5 364 129 349 471 499 973 142 700 55 18 195 88 2 4 4 2 3 908 207 4 2 796 0 717 42 340 186 1142 720 327 173 58 2 362 2 649 311 843 8 30 1095 7 728 223 12 2 440 161 1163 2 316 999 243 166 3 3 662 74 360 311 476 9 4 138 346 583 438 956 413 152 340 271 990 410 234 81 308 3 136 5 272 164 466 127 119 3 4 1054 2 837 1043 3 72 599 1001 458 274 415 129 950 7 94 1287 3 6 222 5 1337 441 5 6 5 4 899 490 4 146 129 558 830 1133 345 1483 859 965 273 181 4 1717 942 6 246 34 1090 0 4 87 571 4 510 419 163 3 1702 84 1816 234 161 281 2 942 3 650 689 3 181 5 2 498 5 426 4 130 211 1 6 1716 232 238 375 1094 222 918 768 431 3 165 382 14 198 2 52 1033 1084 0 108 130 4 3 991 473 1 200 731 332 12444 473 189 87 118 7 520 318 285 103 173 5 574 1280 101 433 560 647 5 390 192 1731 3 182 440 4 5 555 235 249 110 80 348 4 132 1085 13 162 272 193 3 9 277 34 11 16 435 726 4 1092 164 995 536 454 273 5 605 91 166 1178 139 727 722 224 46 1195 358 293 280 1482 31 8 437 2 155 489 6 964 7 746 7 901 286 721 9 5 731 5 8 228 435 544 9 4 277 321 63 881 369 322 5 5 337 290 786 443 712 569 538 347 380 429 304 226 380 153 4 9 97 189 2 2116 187 908 328 158 85 5 12 108 6 588 1891 3 385 241 30 447 747 1 3 774 162 11 75 192 263 96 248 3117 441 250 133 272 1 103 728 347 7 642 3 196 472 5 7 194 822 290 621 516 248 786 291 344 338 247 523 518 139 138 293 92 152 5 474 276 76 3 9 3 21 188 459 4 0 218 162 239 1315 300 282 6 432 309 5 7 187 1090 319 677 1526 254 486 210 126 839 7 120 947 6 2 99 12 636 321 4 274 7 214 743 80 1022 3 267 7 251 435 53 511 266 180 5 2 312 139 410 644 20 208 276 520 6 496 191 123 8 3 3 1140 748 0 111 349 903 303 4 4 710 216 1105 0 0 1533 3 129 4 3 374 378 724 671 233 278 127 474 1077 90 293 5 97 260 842 281 220 352 326 634 586 17 11 933 413 1281 1 286 167 5 5 1463 293 171 286 3 407 1254 214 154 199 5 999 195 234 584 151 4 9 700 64 3 4 521 4 700 1037 3 2 2069 325 1019 6 1830 209 221 231 249 210 209 2 558 144 2 152 6 1 2 459 3 4 82 868 139 96 221 4 477 12 652 3 3 964 352 3 4 455 281 994 244 7 260 1187 3 3 224 85 214 1515 3 3 412 1959 875 484 4 259 460 324 133 43 157 1180 8 95 285 349 329 46 381 263 597 842 5 122 271 2 565 408 120 384 308 124 1476 4 66 4 8 15 614 374 630 42 2 8 267 378 185 118 135 105 766 483 470 5 4 354 74 731 532 109 506 603 263 271 1 459 2 625 640 4 8 108 132 8 869 2 105 277 479 368 14 67 3 334 700 830 380 150 326 554 3 4 105 3 225 845 298 1523 61 556 34 41 5 1 138 511 411 330 359 4 116 279 8 12 170 6 340 132 2 582 272 13 12 3 79 324 183 5 128 174 5 479 5 395 540 16217 413 254 174 45 2 441 65 8 5 176 2 135 127 430 9 514 1035 50 6 2 104 238 3 3 301 117 9 401 596 6 407 6 159 531 9 32 20 114 426 2 1025 136 5 3 112 268 412 426 522 276 182 2 1579 483 866 385 414 189 294 4 12 5 609 270 510 2 262 374 869 4 600 1904 1 272 571 3 340 216 440 3 363 51 289 100 484 101 6 101 268 2 90 2 682 11 8 328 73 3 132 644 4 14 9 147 724 4 9 293 404 46 6 133 136 3 4 4 4 165 2 191 214 4 440 2 259 129 139 628 121 4 483 3 286 425 119 289 515 4 321 6 3 328 12 908 5 479 1977 388 135 370 12 1006 177 230 523 193 380 549 5 71 7 456 627 368 454 778 777 444 432 550 8 222 469 10 5 4 214 139 3 374 5 383 178 11 150 1482 78 1589 139 154 5 604 322 3 6 402 146 413 7 20 91 216 616 622 102 330 1206 473 770 3 8 349 11 3 414 2 4 27 372 667 812 286 18 3 121 4 5 634 3 152 136 1325 632 168 248 46 2 490 2 478 3 5 168 126 129 220 9 164 3 15 454 19 2 74 526 12 61 3 764 282 188 4 3 143 915 587 8 481 4 208 779 72 690 1117 9 1 2 504 731 224 33 229 43 482 325 4 168 2534 1492 2 245 3259 702 715 145 29 412 2 237 569 202 70 174 21 593 77 269 11 4 202 3 546 320 5 6 415 486 24 252 5 75 7 818 159 3 8 11 891 184 412 674 1 4 3 380 214 507 1370 132 661 1002 508 242 205 17 189 9 380 11 153 185 503 16 849 442 233 262 2 380 919 793 507 294 4 1028 491 282 4 317 323 1294 3 3 1292 6 434 700 1446 1129 2 4 1295 535 477 990 313 1008 2 120 8 732 2 151 481 4 221 2 657 95 3 191 15 8 303 170 677 180 2 671 138 171 13 115 7 72 523 133 653 547 625 508 328 21 181 2977 785 507 119 821 9 173 233 2 330 6 958 10 1479 609 11 47 373 6 764 915 5 149 452 140 210 3 515 552 13 4 725 32 265 192 293 299 475 270 472 936 6 1020 42 196 476 826 126 261 16 5 241 451 4 6 463 544 628 320 161 164 3 3 4 100 119 479 4 375 213 854 7 442 159 84 282 459 290 541 442 389 195 6 565 271 212 192 214 3 160 291 148 915 711 137 174 8 68 399 6 688 347 1 150 188 127 3 7 334 183 1 296 3 296 234 4 234 1 1 119 4 210 1750 1 6 1169 4 4 355 3 0 110 655 267 165 173 6 2 3 901 302 5 4 7 3 1 628 91 126 231 4 303 158 268 3 4 6 821 347 119 379 569 15 249 2 2 43 193 3 444 4 177 493 233 183 5 481 19 1 575 160 588 117 357 469 3 3 138 14 471 1 1 6 330 347 838 3 1221 134 328 353 320 1074 486 4 261 372 742 0 221 208 138 285 1384 363 354 2 466 1787 276 147 190 3 1164 4 400 4 160 228 26 94 7 55 325 8 298 954 3 3 1 4 2 730 2 336 366 169 4 154 3 4 151 2 363 121 322 313 692 577 424 183 76 379 3 106 713 5 1 99 12 232 780 169 654 432 423 2 276 155 1385 703 216 5 1034 3 43 54 258 608 2 308 18 132 305 4 2 368 251 60 169 2 440 5218 251 122 749 3 789 305 4 233 1108 234 899 421 363 217 10 256 181 11 15 4 2 9 3 2 1518 6 502 1 93 536 251 3 134 363 4 6 256 2 1 3 534 3 56 1470 669 3 217 114 1 214 936 25 250 828 2 494 701 3 912 317 41 1 1 215 709 6 210 332 212 69 156 396 336 558 186 614 589 5 4 115 162 204 794 169 435 1159 362 82 94 2 595 75 351 200 550 320 1168 494 698 566 566 801 643 85 533 2973 756 6 249 88 465 98 864 392 1129 78 221 463 851 451 442 490 143 2 3 809 1444 4 1240 48 257 5 148 746 400 99 213 1369 254 135 114 0 7 273 484 4 257 204 797 694 589 180 833 284 1457 4 521 1765 8 122 4 6 1788 1298 6 201 290 103 1753 224 432 6 530 196 13 4 244 618 28 
To predecode: 0
Predecoding something: 0
Predecode request dropped: 0
sizeofblock_0 0
sizeofblock_1 207313
sizeofblock_2 220680
sizeofblock_3 0
sizeofblock_4 0
sizeofblock_5 0
sizeofblock_6 0
sizeofblock_7 0
sizeofblock_8 0
Variant_0 Correct: 1397685 Incorrect: 0 Accuracy: 1
Variant_1 Correct: 5457518 Incorrect: 0 Accuracy: 1
Variant_2 Correct: 0 Incorrect: 0 Accuracy: -nan
Variant_3 Correct: 0 Incorrect: 0 Accuracy: -nan
