
*** ChampSim Multicore Out-of-Order Simulator ***

Warmup Instructions: 50000000
Simulation Instructions: 50000000
Number of CPUs: 1
LLC sets: 2048
LLC ways: 16
Off-chip DRAM Size: 4096 MB Channels: 1 Width: 64-bit Data Rate: 6400 MT/s
CPU 0 runs ./micro_traces/srv116.trace.gz
.gz
ITLB has LRU replacement policy
DTLB has LRU replacement policy
STLB has LRU replacement policy
L1I has LRU replacement policy
L1D has LRU replacement policy
Initialize SRRIP state for L2C
Initialize DRRIP state for LLC
Heartbeat_Variant_0 : 1302 0.317871 per_variant_size: 0 1302 0 0 0 0 0 0 0 
Heartbeat_Variant_1 : 1206 0.294434 per_variant_size: 0 628 578 0 0 0 0 0 0 
Heartbeat_Variant_2 : 1271 0.310303 per_variant_size: 0 533 332 217 189 0 0 0 0 
Heartbeat_Variant_3 : 0 0 per_variant_size: 0 0 0 0 0 0 0 0 0 
Heartbeat_Variant_0_evicts 0 : 5566 1 : 220 2 : 214 3 : 0 
Heartbeat_Variant_1_evicts 0 : 206 1 : 0 2 : 355 3 : 0 
Heartbeat_Variant_2_evicts 0 : 183 1 : 363 2 : 0 3 : 0 
Heartbeat_Variant_3_evicts 0 : 0 1 : 0 2 : 0 3 : 0 
Heartbeat CPU 0 instructions: 10000003 cycles: 2792259 heartbeat IPC: 3.58133 cumulative IPC: 3.58133 (Simulation time: 0 hr 1 min 15 sec) 
Heartbeat_Variant_0 : 1348 0.329102 per_variant_size: 0 1348 0 0 0 0 0 0 0 
Heartbeat_Variant_1 : 1238 0.302246 per_variant_size: 0 590 648 0 0 0 0 0 0 
Heartbeat_Variant_2 : 1335 0.325928 per_variant_size: 0 548 347 225 215 0 0 0 0 
Heartbeat_Variant_3 : 0 0 per_variant_size: 0 0 0 0 0 0 0 0 0 
Heartbeat_Variant_0_evicts 0 : 5430 1 : 166 2 : 183 3 : 0 
Heartbeat_Variant_1_evicts 0 : 168 1 : 0 2 : 334 3 : 0 
Heartbeat_Variant_2_evicts 0 : 174 1 : 350 2 : 0 3 : 0 
Heartbeat_Variant_3_evicts 0 : 0 1 : 0 2 : 0 3 : 0 
Heartbeat CPU 0 instructions: 20000000 cycles: 5582464 heartbeat IPC: 3.58397 cumulative IPC: 3.58265 (Simulation time: 0 hr 2 min 29 sec) 
Heartbeat_Variant_0 : 1352 0.330078 per_variant_size: 0 1352 0 0 0 0 0 0 0 
Heartbeat_Variant_1 : 1252 0.305664 per_variant_size: 0 586 666 0 0 0 0 0 0 
Heartbeat_Variant_2 : 1339 0.326904 per_variant_size: 0 535 360 233 211 0 0 0 0 
Heartbeat_Variant_3 : 0 0 per_variant_size: 0 0 0 0 0 0 0 0 0 
Heartbeat_Variant_0_evicts 0 : 5379 1 : 72 2 : 86 3 : 0 
Heartbeat_Variant_1_evicts 0 : 71 1 : 0 2 : 244 3 : 0 
Heartbeat_Variant_2_evicts 0 : 88 1 : 236 2 : 0 3 : 0 
Heartbeat_Variant_3_evicts 0 : 0 1 : 0 2 : 0 3 : 0 
Heartbeat CPU 0 instructions: 30000001 cycles: 8372337 heartbeat IPC: 3.58439 cumulative IPC: 3.58323 (Simulation time: 0 hr 3 min 47 sec) 
Heartbeat_Variant_0 : 1368 0.333984 per_variant_size: 0 1368 0 0 0 0 0 0 0 
Heartbeat_Variant_1 : 1247 0.304443 per_variant_size: 0 578 669 0 0 0 0 0 0 
Heartbeat_Variant_2 : 1343 0.327881 per_variant_size: 0 537 367 228 211 0 0 0 0 
Heartbeat_Variant_3 : 0 0 per_variant_size: 0 0 0 0 0 0 0 0 0 
Heartbeat_Variant_0_evicts 0 : 5496 1 : 48 2 : 45 3 : 0 
Heartbeat_Variant_1_evicts 0 : 40 1 : 0 2 : 216 3 : 0 
Heartbeat_Variant_2_evicts 0 : 41 1 : 219 2 : 0 3 : 0 
Heartbeat_Variant_3_evicts 0 : 0 1 : 0 2 : 0 3 : 0 
Heartbeat CPU 0 instructions: 40000002 cycles: 11163517 heartbeat IPC: 3.58271 cumulative IPC: 3.5831 (Simulation time: 0 hr 4 min 59 sec) 
Heartbeat_Variant_0 : 1373 0.335205 per_variant_size: 0 1373 0 0 0 0 0 0 0 
Heartbeat_Variant_1 : 1248 0.304688 per_variant_size: 0 580 668 0 0 0 0 0 0 
Heartbeat_Variant_2 : 1352 0.330078 per_variant_size: 0 547 359 226 220 0 0 0 0 
Heartbeat_Variant_3 : 0 0 per_variant_size: 0 0 0 0 0 0 0 0 0 
Heartbeat_Variant_0_evicts 0 : 5440 1 : 100 2 : 81 3 : 0 
Heartbeat_Variant_1_evicts 0 : 102 1 : 0 2 : 250 3 : 0 
Heartbeat_Variant_2_evicts 0 : 78 1 : 259 2 : 0 3 : 0 
Heartbeat_Variant_3_evicts 0 : 0 1 : 0 2 : 0 3 : 0 
Heartbeat CPU 0 instructions: 50000001 cycles: 13954406 heartbeat IPC: 3.58309 cumulative IPC: 3.5831 (Simulation time: 0 hr 6 min 17 sec) 

Warmup complete CPU 0 instructions: 50000001 cycles: 13954406 (Simulation time: 0 hr 6 min 17 sec) 

Cycle: 20000000 FTQ IN: 55558625 FTQ occupancy: 15.7187 DECODE IN: 55558607 DECODE occupancy: 9.55138 ROB IN: 55558599 ROB occupancy: 260.198 ROB OUT: 55558533
Heartbeat_Variant_0 : 1372 0.334961 per_variant_size: 0 1372 0 0 0 0 0 0 0 
Heartbeat_Variant_1 : 1257 0.306885 per_variant_size: 0 594 663 0 0 0 0 0 0 
Heartbeat_Variant_2 : 1350 0.32959 per_variant_size: 0 535 369 241 205 0 0 0 0 
Heartbeat_Variant_3 : 0 0 per_variant_size: 0 0 0 0 0 0 0 0 0 
Heartbeat_Variant_0_evicts 0 : 5309 1 : 20 2 : 25 3 : 0 
Heartbeat_Variant_1_evicts 0 : 21 1 : 0 2 : 198 3 : 0 
Heartbeat_Variant_2_evicts 0 : 26 1 : 192 2 : 0 3 : 0 
Heartbeat_Variant_3_evicts 0 : 0 1 : 0 2 : 0 3 : 0 
Heartbeat CPU 0 instructions: 60000000 cycles: 24943865 heartbeat IPC: 0.909963 cumulative IPC: 0.909963 (Simulation time: 0 hr 7 min 29 sec) 
Cycle: 30000000 FTQ IN: 9063573 FTQ occupancy: 14.3584 DECODE IN: 9063573 DECODE occupancy: 5.03786 ROB IN: 9063577 ROB occupancy: 58.748 ROB OUT: 9063615
Heartbeat_Variant_0 : 1378 0.336426 per_variant_size: 0 1378 0 0 0 0 0 0 0 
Heartbeat_Variant_1 : 1261 0.307861 per_variant_size: 0 599 662 0 0 0 0 0 0 
Heartbeat_Variant_2 : 1347 0.328857 per_variant_size: 0 529 368 247 203 0 0 0 0 
Heartbeat_Variant_3 : 0 0 per_variant_size: 0 0 0 0 0 0 0 0 0 
Heartbeat_Variant_0_evicts 0 : 5444 1 : 41 2 : 44 3 : 0 
Heartbeat_Variant_1_evicts 0 : 41 1 : 0 2 : 208 3 : 0 
Heartbeat_Variant_2_evicts 0 : 41 1 : 206 2 : 0 3 : 0 
Heartbeat_Variant_3_evicts 0 : 0 1 : 0 2 : 0 3 : 0 
Heartbeat CPU 0 instructions: 70000000 cycles: 36007318 heartbeat IPC: 0.903877 cumulative IPC: 0.90691 (Simulation time: 0 hr 8 min 40 sec) 
Cycle: 40000000 FTQ IN: 9005010 FTQ occupancy: 14.3043 DECODE IN: 9005013 DECODE occupancy: 4.96227 ROB IN: 9005005 ROB occupancy: 55.6614 ROB OUT: 9004988
Heartbeat_Variant_0 : 1379 0.33667 per_variant_size: 0 1379 0 0 0 0 0 0 0 
Heartbeat_Variant_1 : 1260 0.307617 per_variant_size: 0 598 662 0 0 0 0 0 0 
Heartbeat_Variant_2 : 1350 0.32959 per_variant_size: 0 529 374 237 210 0 0 0 0 
Heartbeat_Variant_3 : 0 0 per_variant_size: 0 0 0 0 0 0 0 0 0 
Heartbeat_Variant_0_evicts 0 : 5401 1 : 31 2 : 23 3 : 0 
Heartbeat_Variant_1_evicts 0 : 32 1 : 0 2 : 205 3 : 0 
Heartbeat_Variant_2_evicts 0 : 21 1 : 208 2 : 0 3 : 0 
Heartbeat_Variant_3_evicts 0 : 0 1 : 0 2 : 0 3 : 0 
Heartbeat CPU 0 instructions: 80000001 cycles: 47101194 heartbeat IPC: 0.901398 cumulative IPC: 0.905065 (Simulation time: 0 hr 9 min 51 sec) 
Cycle: 50000000 FTQ IN: 8981524 FTQ occupancy: 14.362 DECODE IN: 8981527 DECODE occupancy: 5.01721 ROB IN: 8981527 ROB occupancy: 58.6 ROB OUT: 8981469
Heartbeat_Variant_0 : 1377 0.336182 per_variant_size: 0 1377 0 0 0 0 0 0 0 
Heartbeat_Variant_1 : 1268 0.30957 per_variant_size: 0 611 657 0 0 0 0 0 0 
Heartbeat_Variant_2 : 1349 0.329346 per_variant_size: 0 524 370 256 199 0 0 0 0 
Heartbeat_Variant_3 : 0 0 per_variant_size: 0 0 0 0 0 0 0 0 0 
Heartbeat_Variant_0_evicts 0 : 5439 1 : 38 2 : 31 3 : 0 
Heartbeat_Variant_1_evicts 0 : 35 1 : 0 2 : 202 3 : 0 
Heartbeat_Variant_2_evicts 0 : 36 1 : 194 2 : 0 3 : 0 
Heartbeat_Variant_3_evicts 0 : 0 1 : 0 2 : 0 3 : 0 
Heartbeat CPU 0 instructions: 90000000 cycles: 58196108 heartbeat IPC: 0.901314 cumulative IPC: 0.904124 (Simulation time: 0 hr 11 min 5 sec) 
Cycle: 60000000 FTQ IN: 8992932 FTQ occupancy: 14.3718 DECODE IN: 8992940 DECODE occupancy: 5.00435 ROB IN: 8992940 ROB occupancy: 57.7069 ROB OUT: 8993018
Heartbeat_Variant_0 : 1380 0.336914 per_variant_size: 0 1380 0 0 0 0 0 0 0 
Heartbeat_Variant_1 : 1266 0.309082 per_variant_size: 0 602 664 0 0 0 0 0 0 
Heartbeat_Variant_2 : 1350 0.32959 per_variant_size: 0 524 375 245 206 0 0 0 0 
Heartbeat_Variant_3 : 0 0 per_variant_size: 0 0 0 0 0 0 0 0 0 
Heartbeat_Variant_0_evicts 0 : 5350 1 : 28 2 : 26 3 : 0 
Heartbeat_Variant_1_evicts 0 : 25 1 : 0 2 : 201 3 : 0 
Heartbeat_Variant_2_evicts 0 : 27 1 : 200 2 : 0 3 : 0 
Heartbeat_Variant_3_evicts 0 : 0 1 : 0 2 : 0 3 : 0 
Heartbeat CPU 0 instructions: 100000002 cycles: 69241373 heartbeat IPC: 0.905366 cumulative IPC: 0.904372 (Simulation time: 0 hr 12 min 18 sec) 
Finished CPU 0 instructions: 50000001 cycles: 55286967 cumulative IPC: 0.904372 (Simulation time: 0 hr 12 min 18 sec) 

ChampSim completed all CPUs

Region of Interest Statistics

CPU 0 cumulative IPC: 0.904372 instructions: 50000001 cycles: 55286967
 Fetch stage stalled: 32.4814  Sim cycles: 55286967 fetch stall cycle: 17957989
 Empty decode stage: 67.9213  Sim cycles: 55286967 fetch stall cycle: 37551613
ITLB TOTAL     ACCESS:    7197563  HIT:    6748128  MISS:     449435  HIT %:    93.7557  MISS %:    6.24427   MPKI: 8.9887
ITLB LOAD TRANSLATION INSTRUCTION	ACCESS:    7197563  HIT:    6748128  MISS:     449435  HIT %:    93.7557  MISS %:    6.24427  MPKI: 8.9887

ITLB AVERAGE MISS LATENCY: 9.07963 cycles
ITLB RQ	ACCESS:    8217928	FORWARD:          0	MERGED:     838133	TO_CACHE:    7379795

DTLB TOTAL     ACCESS:   10141411  HIT:    9667525  MISS:     473886  HIT %:    95.3272  MISS %:    4.67278   MPKI: 9.47772
DTLB LOAD TRANSLATION DATA	ACCESS:   10141411  HIT:    9667525  MISS:     473886  HIT %:    95.3272  MISS %:    4.67278  MPKI: 9.47772

DTLB AVERAGE MISS LATENCY: 9.40651 cycles
DTLB RQ	ACCESS:   14209146	FORWARD:          0	MERGED:    4036455	TO_CACHE:   10172691

STLB TOTAL     ACCESS:    1231453  HIT:    1227923  MISS:       3530  HIT %:    99.7133  MISS %:   0.286653   MPKI: 0.0706
STLB LOAD TRANSLATION INSTRUCTION	ACCESS:     449435  HIT:     448816  MISS:        619  HIT %:    99.8623  MISS %:   0.137728  MPKI: 0.01238
STLB LOAD TRANSLATION DATA	ACCESS:     473883  HIT:     471022  MISS:       2861  HIT %:    99.3963  MISS %:   0.603736  MPKI: 0.05722
STLB TRANSLATION FROM L1D PREFETCHER DATA	ACCESS:     308135  HIT:     308085  MISS:         50  HIT %:    99.9838  MISS %:  0.0162267  MPKI: 0.001

STLB AVERAGE MISS LATENCY: 58.6802 cycles
STLB RQ	ACCESS:    1407011	FORWARD:          0	MERGED:     175464	TO_CACHE:    1231547

STLB Hit, L1D data hit: 0
STLB Hit, L2C data hit: 0
STLB Hit, LLC data hit: 0
STLB Hit, LLC data miss: 0
STLB STLB hints to L2: 0
L1D TOTAL     ACCESS:   14082792  HIT:   12967609  MISS:    1115183  HIT %:    92.0812  MISS %:    7.91876   MPKI: 22.3037
L1D LOAD DATA	ACCESS:    7508317  HIT:    6790995  MISS:     717322  HIT %:    90.4463  MISS %:     9.5537  MPKI: 14.3464
L1D RFO DATA	ACCESS:    6171517  HIT:    5892175  MISS:     279342  HIT %:    95.4737  MISS %:    4.52631  MPKI: 5.58684
L1D PREFETCH DATA	ACCESS:     402958  HIT:     284439  MISS:     118519  HIT %:    70.5878  MISS %:    29.4122  MPKI: 2.37038

L1D PREFETCH  REQUESTED:     967547  ISSUED:     967547  USEFUL:      59269  USELESS:      77637
L1D USEFUL LOAD PREFETCHES:      59269 PREFETCH ISSUED TO LOWER LEVEL:     136952  ACCURACY: 43.2772
 TIMELY PREFETCHES:      59269 LATE PREFETCHES: 18413 DROPPED PREFETCHES: 41
L1D AVERAGE MISS LATENCY: 688396 cycles
L1D RQ	ACCESS:   11305196	FORWARD:          0	MERGED:    3611970	TO_CACHE:    7549796
L1D WQ	ACCESS:    6771162	FORWARD:     143597	MERGED:     111812	TO_CACHE:    6659350
L1D PQ	ACCESS:     483857	FORWARD:          0	MERGED:          0	TO_CACHE:     483690

L1D UNIQUE REGIONS ACCESSED: 0
L1D REGIONS CONFLICTS: 0
L1D Cross Page Prefetch Requests: 10440
L1D Same Page Prefetch Requests: 966138
L1D ROI Sum of L1D PQ occupancy: 6142038
L1D PREFETCHES PUSHED FROM L2C: 0
L1I TOTAL     ACCESS:    7737116  HIT:    5211606  MISS:    2525510  HIT %:    67.3585  MISS %:    32.6415   MPKI: 50.5102
L1I LOAD INSTRUCTION	ACCESS:    7737116  HIT:    5211606  MISS:    2525510  HIT %:    67.3585  MISS %:    32.6415  MPKI: 50.5102

L1I AVERAGE MISS LATENCY: 16.8021 cycles
L1I RQ	ACCESS:   15420085	FORWARD:          0	MERGED:    7202157	TO_CACHE:    8217928

L1BTB TOTAL     ACCESS:    5845804  HIT:    2440830  MISS:    3404974  HIT %:    41.7535  MISS %:    58.2465   MPKI: 68.0995
L1BTB BRANCH_DIRECT_JUMP	ACCESS:     588497  HIT:     196286  MISS:     392211	AVERAGE STALL: 20.2712
L1BTB BRANCH_INDIRECT	ACCESS:     171564  HIT:      56278  MISS:     115286	AVERAGE STALL: 49.6787
L1BTB BRANCH_CONDITIONAL	ACCESS:    2986042  HIT:    1771728  MISS:    1214314	AVERAGE STALL: 32.3807
L1BTB BRANCH_DIRECT_CALL	ACCESS:     889141  HIT:     108017  MISS:     781124	AVERAGE STALL: 28.0089
L1BTB BRANCH_INDIRECT_CALL	ACCESS:     160713  HIT:      20738  MISS:     139975	AVERAGE STALL: 67.4456
L1BTB BRANCH_RETURN	ACCESS:    1049847  HIT:     287783  MISS:     762064	AVERAGE STALL: 33.98
L1BTB BRANCH_OTHER ACCESS:          0  HIT:          0  MISS:          0	AVERAGE STALL: -nan
L1BTB TOTAL ROB OCCUPANCY AT BTB MISS: 0.585475

L2BTB TOTAL     ACCESS:    3379764  HIT:    3325090  MISS:      54674  HIT %:    98.3823  MISS %:    1.61769   MPKI: 1.09348
L2BTB BRANCH_DIRECT_JUMP	ACCESS:     387247  HIT:     383408  MISS:       3839	AVERAGE STALL: 20.2712
L2BTB BRANCH_INDIRECT	ACCESS:     105449  HIT:     102976  MISS:       2473	AVERAGE STALL: 49.6787
L2BTB BRANCH_CONDITIONAL	ACCESS:    1214314  HIT:    1209469  MISS:       4845	AVERAGE STALL: 32.3807
L2BTB BRANCH_DIRECT_CALL	ACCESS:     781124  HIT:     780214  MISS:        910	AVERAGE STALL: 28.0089
L2BTB BRANCH_INDIRECT_CALL	ACCESS:     130612  HIT:     121254  MISS:       9358	AVERAGE STALL: 67.4456
L2BTB BRANCH_RETURN	ACCESS:     761018  HIT:     727769  MISS:      33249	AVERAGE STALL: 33.98
L2BTB BRANCH_OTHER ACCESS:          0  HIT:          0  MISS:          0	AVERAGE STALL: -nan
L2BTB TOTAL ROB OCCUPANCY AT BTB MISS: 36.462

L2C TOTAL     ACCESS:    4216892  HIT:    3745813  MISS:     471079  HIT %:    88.8288  MISS %:    11.1712   MPKI: 9.42158
L2C LOAD INSTRUCTION	ACCESS:    2525510  HIT:    2305587  MISS:     219923  HIT %:    91.2919  MISS %:    8.70806  MPKI: 4.39846
L2C LOAD TRANSLATION INSTRUCTION	ACCESS:        689  HIT:        308  MISS:        381  HIT %:    44.7025  MISS %:    55.2975  MPKI: 0.00762
L2C LOAD DATA	ACCESS:     698897  HIT:     615538  MISS:      83359  HIT %:    88.0728  MISS %:    11.9272  MPKI: 1.66718
L2C RFO DATA	ACCESS:     279320  HIT:     216247  MISS:      63073  HIT %:    77.4191  MISS %:    22.5809  MPKI: 1.26146
L2C PREFETCH DATA	ACCESS:     221352  HIT:     134185  MISS:      87167  HIT %:    60.6206  MISS %:    39.3794  MPKI: 1.74334
L2C WRITEBACK DATA	ACCESS:     487946  HIT:     472900  MISS:      15046  HIT %:    96.9165  MISS %:    3.08354  MPKI: 0.30092
L2C LOAD TRANSLATION DATA	ACCESS:       3069  HIT:       1000  MISS:       2069  HIT %:    32.5839  MISS %:    67.4161  MPKI: 0.04138
L2C TRANSLATION FROM L1D PREFETCHER DATA	ACCESS:        109  HIT:         48  MISS:         61  HIT %:    44.0367  MISS %:    55.9633  MPKI: 0.00122

L2C PREFETCH  REQUESTED:      93384  ISSUED:      93384  USEFUL:      11241  USELESS:      76634
L2C USEFUL LOAD PREFETCHES:      11241 PREFETCH ISSUED TO LOWER LEVEL:      87840  ACCURACY: 12.7971
 TIMELY PREFETCHES:      11241 LATE PREFETCHES: 673 DROPPED PREFETCHES: 0
L2C AVERAGE MISS LATENCY: 42.0542 cycles
L2C RQ	ACCESS:    3507608	FORWARD:          0	MERGED:          0	TO_CACHE:    3507595
L2C WQ	ACCESS:     487946	FORWARD:         13	MERGED:          0	TO_CACHE:     487946
L2C PQ	ACCESS:     230336	FORWARD:          0	MERGED:       4172	TO_CACHE:     226164

L2C Dense regions hint from L2: 0
PSCL5 TOTAL     ACCESS:       7148  HIT:       3574  MISS:       3574  HIT %:         50  MISS %:         50   MPKI: 0.07148
PSCL5 LOAD TRANSLATION INSTRUCTION	ACCESS:       6936  HIT:       3468  MISS:       3468  HIT %:         50  MISS %:         50  MPKI: 0.06936
PSCL5 TRANSLATION FROM L1D PREFETCHER INSTRUCTION	ACCESS:        212  HIT:        106  MISS:        106  HIT %:         50  MISS %:         50  MPKI: 0.00212


PSCL4 TOTAL     ACCESS:       6839  HIT:       3413  MISS:       3426  HIT %:     49.905  MISS %:     50.095   MPKI: 0.06852
PSCL4 LOAD TRANSLATION INSTRUCTION	ACCESS:       3591  HIT:       3308  MISS:        283  HIT %:    92.1192  MISS %:    7.88081  MPKI: 0.00566
PSCL4 TRANSLATION FROM L1D PREFETCHER INSTRUCTION	ACCESS:        105  HIT:        105  MISS:          0  HIT %:        100  MISS %:          0  MPKI: 0
PSCL4 LOAD TRANSLATION DATA	ACCESS:       3038  HIT:          0  MISS:       3038  HIT %:          0  MISS %:        100  MPKI: 0.06076
PSCL4 TRANSLATION FROM L1D PREFETCHER DATA	ACCESS:        105  HIT:          0  MISS:        105  HIT %:          0  MISS %:        100  MPKI: 0.0021


PSCL3 TOTAL     ACCESS:       7069  HIT:       3528  MISS:       3541  HIT %:     49.908  MISS %:     50.092   MPKI: 0.07082
PSCL3 LOAD TRANSLATION INSTRUCTION	ACCESS:       3705  HIT:       3422  MISS:        283  HIT %:    92.3617  MISS %:    7.63833  MPKI: 0.00566
PSCL3 TRANSLATION FROM L1D PREFETCHER INSTRUCTION	ACCESS:        106  HIT:        106  MISS:          0  HIT %:        100  MISS %:          0  MPKI: 0
PSCL3 LOAD TRANSLATION DATA	ACCESS:       3152  HIT:          0  MISS:       3152  HIT %:          0  MISS %:        100  MPKI: 0.06304
PSCL3 TRANSLATION FROM L1D PREFETCHER DATA	ACCESS:        106  HIT:          0  MISS:        106  HIT %:          0  MISS %:        100  MPKI: 0.00212


PSCL2 TOTAL     ACCESS:       6876  HIT:       3305  MISS:       3571  HIT %:    48.0657  MISS %:    51.9343   MPKI: 0.07142
PSCL2 LOAD TRANSLATION INSTRUCTION	ACCESS:       3818  HIT:       3202  MISS:        616  HIT %:    83.8659  MISS %:    16.1341  MPKI: 0.01232
PSCL2 TRANSLATION FROM L1D PREFETCHER INSTRUCTION	ACCESS:        103  HIT:        103  MISS:          0  HIT %:        100  MISS %:          0  MPKI: 0
PSCL2 LOAD TRANSLATION DATA	ACCESS:       2852  HIT:          0  MISS:       2852  HIT %:          0  MISS %:        100  MPKI: 0.05704
PSCL2 TRANSLATION FROM L1D PREFETCHER DATA	ACCESS:        103  HIT:          0  MISS:        103  HIT %:          0  MISS %:        100  MPKI: 0.00206


LLC TOTAL     ACCESS:     544048  HIT:     505876  MISS:      38172  HIT %:    92.9837  MISS %:    7.01629   MPKI: 0.76344
LLC LOAD INSTRUCTION	ACCESS:     219923  HIT:     218835  MISS:       1088  HIT %:    99.5053  MISS %:   0.494719  MPKI: 0.02176
LLC LOAD TRANSLATION INSTRUCTION	ACCESS:        381  HIT:        337  MISS:         44  HIT %:    88.4514  MISS %:    11.5486  MPKI: 0.00088
LLC LOAD DATA	ACCESS:      82732  HIT:      78003  MISS:       4729  HIT %:     94.284  MISS %:    5.71605  MPKI: 0.09458
LLC RFO DATA	ACCESS:      63013  HIT:      44385  MISS:      18628  HIT %:    70.4378  MISS %:    29.5622  MPKI: 0.37256
LLC PREFETCH DATA	ACCESS:      87840  HIT:      74647  MISS:      13193  HIT %:    84.9806  MISS %:    15.0194  MPKI: 0.26386
LLC WRITEBACK DATA	ACCESS:      88029  HIT:      87635  MISS:        394  HIT %:    99.5524  MISS %:    0.44758  MPKI: 0.00788
LLC LOAD TRANSLATION DATA	ACCESS:       2069  HIT:       1974  MISS:         95  HIT %:    95.4084  MISS %:    4.59159  MPKI: 0.0019
LLC TRANSLATION FROM L1D PREFETCHER DATA	ACCESS:         61  HIT:         60  MISS:          1  HIT %:    98.3607  MISS %:    1.63934  MPKI: 2e-05

LLC AVERAGE MISS LATENCY: 159.723 cycles
LLC RQ	ACCESS:     368193	FORWARD:          0	MERGED:          0	TO_CACHE:     368179
LLC WQ	ACCESS:      88029	FORWARD:         14	MERGED:          0	TO_CACHE:      88029
LLC PQ	ACCESS:      87840	FORWARD:          0	MERGED:          0	TO_CACHE:      87840

LLC Dense regions hint to LLC: 0

RAW hits: 1144587
Loads Generated: 12449780
Loads sent to L1D: 11305196
Stores Generated: 6771131
Stores sent to L1D: 6771162
Major fault: 0 Minor fault: 2498
Allocated PAGES: 2498

stream: 
stream:times selected: 1496314
stream:pref_filled: 129858
stream:pref_useful: 30162
stream:pref_late: 10033
stream:misses: 12783
stream:misses_by_poll: 0

CS: 
CS:times selected: 239361
CS:pref_filled: 89028
CS:pref_useful: 61837
CS:pref_late: 10694
CS:misses: 29133
CS:misses_by_poll: 14

CPLX: 
CPLX:times selected: 1255020
CPLX:pref_filled: 29930
CPLX:pref_useful: 8585
CPLX:pref_late: 5619
CPLX:misses: 150291
CPLX:misses_by_poll: 1

NL_L1: 
NL:times selected: 28705
NL:pref_filled: 1998
NL:pref_useful: 974
NL:pref_late: 765
NL:misses: 3875
NL:misses_by_poll: 0

total selections: 3019400
total_filled: 118519
total_useful: 59269
total_late: 30313
total_polluted: 15
total_misses_after_warmup: 758801
conflicts: 5671216

test: 183909

DRAM Statistics
 CHANNEL 0
 RQ ROW_BUFFER_HIT:      13235  ROW_BUFFER_MISS:      24540
 DBUS_CONGESTED:          5
 WQ ROW_BUFFER_HIT:       2076  ROW_BUFFER_MISS:      18304  FULL:          0

 AVG_CONGESTED_CYCLE: 4

CPU 0 Branch Prediction Accuracy: 99.7658% MPKI: 0.42928 Average ROB Occupancy at Mispredict: 83.6348
Branch types
NOT_BRANCH: 40833580 81.6672%
BRANCH_DIRECT_JUMP: 588497 1.17699%
BRANCH_INDIRECT: 171564 0.343128%
BRANCH_CONDITIONAL: 6306529 12.6131%
BRANCH_DIRECT_CALL: 889141 1.77828%
BRANCH_INDIRECT_CALL: 160713 0.321426%
BRANCH_RETURN: 1049847 2.09969%
BRANCH_OTHER: 0 0%

DRAM PAGES: 1048576
Allocated PAGES: 2498
Average_ROB_Occupancy: 58.2806
Average_Decode_Occupancy: 5.00457
Average_FTQ_Occupancy: 14.3386
Indirect max targets: 14 Average targets: 1.14286
Branch_type:  BRANCH_DIRECT_JUMP:  Count Percentage: 12.3264 5.28008 4.70041 8.46858 3.59316 2.23903 1.14034 62.252 
Branch_type:  BRANCH_INDIRECT:  Count Percentage: 5.50811 1.17224 3.71244 0 2.94091 10.662 21.5089 54.4954 
Branch_type:  BRANCH_CONDITIONAL:  Count Percentage: 26.1905 2.75435 2.36096 8.47346 1.58756 3.01391 2.02364 53.5957 
Branch_type:  BRANCH_DIRECT_CALL:  Count Percentage: 0.711739 1.27878 1.85023 5.76355 2.23998 2.054 0.862084 85.2396 
Branch_type:  BRANCH_INDIRECT_CALL:  Count Percentage: 8.68819 0.84041 2.96409 5.07371 0 2.30152 1.47767 78.6544 
Branch_type:  BRANCH_RETURN:  Count Percentage: 3.72312 0.742109 1.63355 10.1069 2.1491 6.13464 3.60133 71.9093 
Branch_type:  BRANCH_DIRECT_JUMP:  Total Count: 145300 62240 55407 99825 42355 26393 13442 733807 
Branch_type:  BRANCH_INDIRECT:  Total Count: 18969 4037 12785 0 10128 36718 74073 187673 
Branch_type:  BRANCH_CONDITIONAL:  Total Count: 3302936 347357 297746 1068606 200210 380090 255206 6759062 
Branch_type:  BRANCH_DIRECT_CALL:  Total Count: 12602 22642 32760 102049 39661 36368 15264 1509248 
Branch_type:  BRANCH_INDIRECT_CALL:  Total Count: 27799 2689 9484 16234 0 7364 4728 251665 
Branch_type:  BRANCH_RETURN:  Total Count: 77863 15520 34163 211369 44945 128296 75316 1503866 
Number of unique branch instructions: 9748
Upper 32 bits: 
aaaa
ffff
ffff0000
Unique upper 32 bits: 3
Unique upper 36 bits: 3
Unique upper 40 bits: 5
Unique upper 44 bits: 32
Unique upper 48 bits: 153
Variant_0 : 1380 0.336914
Variant_1 : 1266 0.309082
Variant_2 : 1350 0.32959
Variant_3 : 0 0
Offset_3 4023
Offset_4 239
Offset_5 454
Offset_6 500
Offset_7 579
Offset_8 499
Offset_9 456
Offset_10 359
Offset_11 311
Offset_12 269
Offset_13 207
Offset_14 222
Offset_15 188
Offset_16 218
Offset_17 144
Offset_18 118
Offset_19 229
Offset_20 137
Offset_21 239
Offset_22 391
Offset_23 241
Offset_24 331
Offset_25 88
Offset_47 82
Offset_64 1
decode_dispatch_called: 30281136 54.7708
Dispatch_width: 0 18187224 60.0612 32.896
Dispatch_width: 1 2309227 7.62596 4.1768
Dispatch_width: 2 1103209 3.64322 1.99542
Dispatch_width: 3 1137933 3.75789 2.05823
Dispatch_width: 4 971009 3.20665 1.75631
Dispatch_width: 5 1248813 4.12406 2.25878
Dispatch_width: 6 5323721 17.581 9.62925
Empty_decode_cycles: 25005831 45.2292
ROB_full_cycles: 662383 1.19808
Starvation_cycles_per_kilo_instr: 493.009
Starvation_cycles_per_kilo_instr_3: 470.81
Starvation_cycles_per_kilo_instr_0: 425.307
Branch_type_1  (3,1)  (4,8)  (5,35)  (6,68)  (7,116)  (8,130)  (9,120)  (10,87)  (11,72)  (12,44)  (13,6)  (14,2)  (15,3)  (16,4)  (18,1)  (19,4)  (20,2)  (21,1)  (22,3)  (23,2)  (24,10)  (25,12) 
Branch_type_2  (3,1)  (5,1)  (8,2)  (9,3)  (12,1)  (13,1)  (14,1)  (16,3)  (17,2)  (20,2)  (21,2)  (23,5)  (24,1)  (47,38) 
Branch_type_3  (3,4021)  (4,231)  (5,414)  (6,417)  (7,434)  (8,309)  (9,252)  (10,148)  (11,126)  (12,54)  (13,5)  (64,1) 
Branch_type_4  (6,3)  (7,8)  (8,24)  (9,50)  (10,58)  (11,57)  (12,93)  (13,89)  (14,100)  (15,89)  (16,97)  (17,64)  (18,53)  (19,112)  (20,71)  (21,127)  (22,207)  (23,136)  (24,192)  (25,72) 
Branch_type_5  (8,2)  (9,1)  (10,3)  (11,5)  (12,3)  (13,14)  (14,16)  (15,11)  (16,20)  (17,11)  (18,16)  (19,12)  (20,10)  (21,13)  (22,42)  (23,26)  (24,36) 
Branch_type_6  (5,4)  (6,12)  (7,21)  (8,32)  (9,30)  (10,63)  (11,51)  (12,74)  (13,92)  (14,103)  (15,85)  (16,94)  (17,67)  (18,48)  (19,101)  (20,52)  (21,96)  (22,139)  (23,72)  (24,92)  (25,4)  (47,44) 
Unique trigger count: 
Variant_0_evicts_0 : 0
Variant_0_evicts_1 : 0
Variant_0_evicts_2 : 0
Variant_0_evicts_3 : 0
Variant_1_evicts_0 : 0
Variant_1_evicts_1 : 0
Variant_1_evicts_2 : 0
Variant_1_evicts_3 : 0
Variant_2_evicts_0 : 0
Variant_2_evicts_1 : 0
Variant_2_evicts_2 : 0
Variant_2_evicts_3 : 0
Variant_3_evicts_0 : 0
Variant_3_evicts_1 : 0
Variant_3_evicts_2 : 0
Variant_3_evicts_3 : 0
BTB PER SET UNIQUE ADDR: 10 15 8 13 13 8 6 10 9 12 7 15 11 13 9 7 12 10 12 13 5 9 10 10 9 11 15 16 11 8 12 19 11 6 9 10 11 11 8 9 10 8 9 14 6 7 9 6 8 10 13 7 6 11 8 5 8 10 6 8 10 15 13 9 10 5 12 9 15 11 9 12 12 6 7 6 10 9 8 14 9 8 14 9 11 13 14 6 10 18 10 6 10 10 9 14 6 9 14 13 13 14 12 11 9 11 10 7 5 5 9 13 11 8 10 6 7 11 9 9 10 9 5 8 10 9 4 9 15 7 6 9 7 15 8 10 8 16 10 12 7 10 10 5 12 11 12 7 4 10 13 13 11 11 7 13 9 13 14 10 6 11 11 10 11 12 13 11 12 8 12 9 12 14 11 8 12 11 12 11 6 7 11 9 14 13 3 9 11 5 10 14 9 13 11 11 6 12 10 13 13 9 9 7 6 7 6 10 12 11 8 14 9 12 11 10 7 10 11 16 9 12 10 7 10 8 16 6 6 17 7 5 9 13 11 10 12 13 9 7 9 13 17 12 11 8 11 8 8 8 13 12 11 12 10 8 8 8 6 6 10 9 5 9 10 6 11 7 10 10 8 11 6 4 7 10 9 12 7 9 8 8 6 6 9 9 12 7 14 11 12 9 11 11 8 13 11 11 9 8 7 6 11 11 11 12 9 7 9 13 14 14 6 12 7 4 14 8 10 13 10 12 9 11 12 11 18 11 7 7 12 14 5 10 12 9 7 11 8 11 11 15 10 11 11 12 10 13 9 7 11 10 10 9 7 14 7 13 7 8 11 14 11 11 12 11 10 14 8 14 10 8 16 5 7 13 9 14 9 7 7 7 7 8 7 13 12 7 9 11 6 6 12 11 9 7 10 9 13 7 11 7 9 9 14 11 12 11 10 9 13 5 9 17 9 9 11 11 10 15 6 12 10 7 9 12 12 9 10 11 12 8 9 10 14 15 16 10 11 12 13 11 10 7 16 10 6 10 18 12 12 8 15 10 8 11 13 15 5 13 9 6 13 10 9 5 13 12 12 12 11 13 14 13 9 15 9 16 6 13 11 10 10 11 8 12 13 10 13 11 10 13 12 7 8 8 10 14 6 9 8 14 9 18 11 6 7 10 16 11 8 13 8 8 8 13 10 13 10 8 7 10 11 9 11 13 12 7 5 8 14 14 14 10 10 11 8 11 11 17 12 7 10 8 11 13 10 8 6 9 14 14 10 13 9 13 11 11 12 15 10 12 13 10 10 10 10 10 12 14 7 14 16 13 11 10 11 14 11 9 10 11 7 9 12 8 14 11 11 11 7 12 11 13 9 9 9 9 9 8 11 9 15 6 15 15 8 15 12 11 14 10 7 10 5 13 9 9 12 11 15 12 8 5 10 14 11 10 9 14 9 9 11 8 9 9 10 19 9 13 7 15 10 17 14 9 14 14 17 9 6 11 9 12 15 10 10 12 12 14 8 8 15 9 6 10 9 9 10 8 10 11 11 12 15 8 11 14 10 8 8 13 10 13 17 11 8 12 10 15 13 14 6 7 7 10 10 15 7 17 9 14 12 11 7 11 9 10 11 8 11 11 6 9 10 5 17 12 6 14 8 5 9 7 12 7 11 14 9 10 14 9 10 5 10 12 13 11 17 13 5 9 11 11 9 13 10 12 7 12 16 7 11 12 11 13 9 9 9 6 9 11 6 7 10 7 8 12 6 11 9 9 11 4 8 6 11 9 12 6 5 14 11 10 13 14 8 11 9 6 8 5 8 14 13 12 10 7 15 7 15 14 14 9 16 14 10 6 10 12 13 17 9 12 8 15 14 13 6 12 8 8 6 12 9 4 5 7 6 14 10 13 8 6 7 11 8 12 8 9 10 11 9 11 10 12 9 16 9 10 8 10 9 10 19 12 13 10 13 9 13 10 6 8 13 5 10 7 14 8 7 9 16 10 9 3 10 10 9 11 17 9 10 12 8 10 15 10 12 13 11 6 13 12 11 10 13 10 8 6 12 11 9 13 8 12 10 12 11 19 9 8 7 8 13 4 15 12 9 9 10 13 8 11 7 11 12 11 8 9 9 9 19 8 8 10 10 12 8 11 7 13 13 10 10 8 10 10 7 11 14 9 8 14 11 7 8 9 19 11 10 12 12 13 15 9 10 13 10 8 13 14 12 11 9 11 16 13 16 15 7 17 11 7 5 20 14 13 15 14 9 11 9 9 9 10 10 12 12 9 12 16 8 8 15 14 10 18 7 14 9 10 11 9 7 9 6 8 5 10 7 15 11 9 
BTB PER SET COUNT: 404 23 2047 15 399 10 6 12 1097 12 8 694 193 2000 9 7 1111 43 471 19 5 12 558 112 17 12 24 22 247 889 16 41 13 6 10 13 15 15 10 223 10 8 36 186 12 7 14 6 619 13 18 7 9 11 8 7 8 12 6 10 10 24 20 12 11 6 15 12 22 18 9 1112 2361 14 9 6 12 12 8 20 10 8 1038 10 13 13 18 7 12 28 12 6 359 31 11 22 6 693 23 1602 15 154 17 63 1980 12 13 9 5 5 9 24 13 11 13 7 9 12 2196 9 12 12 5 8 12 9 4 10 22 569 8 10 8 20 12 14 623 23 11 15 10 12 12 5 22 11 24 7 4 156 14 14 1193 13 7 17 98 21 16 46 11 16 958 18 950 17 19 12 14 1257 23 10 14 25 15 8 16 22 160 376 221 7 2589 10 356 15 3 14 17 1352 21 20 10 21 13 99 7 70 16 15 17 14 10 7 6 8 6 281 16 534 9 17 14 18 17 460 7 13 121 25 12 17 14 13 11 23 16 10 6 24 8 5 9 15 1583 14 55 20 17 7 13 19 26 15 17 9 14 8 8 9 16 20 15 14 11 8 93 13 6 10 694 12 7 11 10 6 16 8 767 15 10 53 6 4 7 1630 10 16 8 12 10 13 688 6 9 10 16 12 17 13 64 9 16 17 8 19 192 13 9 10 7 11 699 21 12 17 159 316 146 23 15 28 8 17 1096 4 25 10 17 18 11 5469 14 16 953 15 471 15 8 12 13 22 11 11 14 13 8 16 11 523 15 236 11 414 13 14 11 20 10 10 312 46 22 11 8 14 7 21 7 8 11 20 11 14 22 56 15 23 8 20 15 272 20 8 660 19 9 20 14 1098 9 7 8 8 8 14 974 11 10 1399 6 7 21 523 32 9 12 15 21 9 12 9 9 15 23 12 15 109 13 11 19 5 12 451 9 14 13 14 14 22 6 16 62 9 13 13 22 12 13 26 20 8 12 30 63 26 22 10 14 14 14 13 10 7 1558 10 15 16 26 14 706 13 15 11 372 12 17 17 5 20 11 6 23 11 11 7 11516 17 24 18 14 18 16 21 9 20 12 29 7 16 13 796 10 12 268 507 375 15 15 14 35 19 909 12 8 9 15 14 8 13 10 19 9 102 11 7 9 14 25 12 8 1636 431 1353 10 14 11 18 14 123 10 12 16 11 13 16 24 9 8 1355 22 26 377 19 12 95 11 1361 11 595 12 7 15 9 16 276 13 14 7 1826 30 21 1026 983 10 13 20 16 24 22 16 22 17 15 396 16 152 15 14 160 11 17 20 15 1786 13 74 22 17 11 17 37 7 17 16 12 658 13 12 12 9 12 15 16 13 11 164 284 191 11 11 10 144 7 33 18 9 708 25 16 14 16 1014 12 5 14 330 13 517 1495 21 14 12 691 11 20 14 10 14 17 12 15 34 9 12 10 14 407 9 21 7 23 10 181 17 10 739 17 28 14 7 16 13 15 574 360 10 12 18 618 11 8 18 12 18977 12 16 693 1099 12 15 15 43 27 105 11 12 20 14 8 12 16 11 53 673 13 11 16 13 39 19 23 6 8 15 11 12 1769 7 26 578 21 587 17 9 14 11 12 11 25 46 12 9 11 16 5 152 14 7 21 10 5 9 807 16 8 11 14 12 13 24 11 10 5 20 180 20 14 17 22 5 10 12 14 11 14 247 17 7 17 1119 9 795 1536 884 19 10 300 11 6 10 15 7 7 17 14 12 1901 7 16 42 10 21 5 14 7 13 12 16 6 6 21 540 17 16 18 9 13 9 6 9 5 9 22 86 27 12 8 17 7 212 25 89 11 321 19 14 6 13 48 14 410 12 15 12 69 19 170 6 1361 9 8 6 19 11 4 5 7 9 17 12 20 17 7 344 11 14 15 12 10 14 18 9 14 231 14 11 24 10 15 9 11 10 21 1042 12 50 12 15 13 25 13 6 10 869 7 10 7 21 9 8 49 58 10 80 3 10 11 4038 14 23 9 88 14 11 16 16 11 15 20 16 6 411 7077 11 29 14 11 1371 7 25 11 11 1161 9 20 11 15 16 127 13 12 7 10 19 4 934 16 11 12 12 290 366 11 9 437 18 11 8 12 13 9 823 12 12 19 13 18 12 18 8 573 18 10 18 9 12 13 11 17 113 11 1103 3265 12 7 10 11 156 13 10 14 508 17 19 9 10 25 14 91 19 2032 16 18 9 17 17 19 207 20 10 102 16 7 8 1295 35 378 22 85 10 119 10 13 10 17 12 1066 19 11 13 329 13 9 22 14 10 26 10 15 25 19 13 13 8 10 12 8 5 11 11 22 17 12 
To predecode: 0
Predecoding something: 0
Predecode request dropped: 0
sizeofblock_0 0
sizeofblock_1 38492
sizeofblock_2 22190
sizeofblock_3 38374
sizeofblock_4 20066
sizeofblock_5 0
sizeofblock_6 0
sizeofblock_7 0
sizeofblock_8 0
Variant_0 Correct: 1526451 Incorrect: 0 Accuracy: 1
Variant_1 Correct: 1936592 Incorrect: 0 Accuracy: 1
Variant_2 Correct: 3390195 Incorrect: 0 Accuracy: 1
Variant_3 Correct: 0 Incorrect: 0 Accuracy: -nan
