
*** ChampSim Multicore Out-of-Order Simulator ***

Warmup Instructions: 50000000
Simulation Instructions: 50000000
Number of CPUs: 1
LLC sets: 2048
LLC ways: 16
Off-chip DRAM Size: 4096 MB Channels: 1 Width: 64-bit Data Rate: 6400 MT/s
CPU 0 runs ./micro_traces/srv178.trace.gz
.gz
ITLB has LRU replacement policy
DTLB has LRU replacement policy
STLB has LRU replacement policy
L1I has LRU replacement policy
L1D has LRU replacement policy
Initialize SRRIP state for L2C
Initialize DRRIP state for LLC
Heartbeat_Variant_0 : 1350 0.32959 per_variant_size: 0 1350 0 0 0 0 0 0 0 
Heartbeat_Variant_1 : 1263 0.30835 per_variant_size: 0 600 663 0 0 0 0 0 0 
Heartbeat_Variant_2 : 1337 0.326416 per_variant_size: 0 534 364 240 199 0 0 0 0 
Heartbeat_Variant_3 : 0 0 per_variant_size: 0 0 0 0 0 0 0 0 0 
Heartbeat_Variant_0_evicts 0 : 5951 1 : 386 2 : 438 3 : 0 
Heartbeat_Variant_1_evicts 0 : 372 1 : 0 2 : 523 3 : 0 
Heartbeat_Variant_2_evicts 0 : 416 1 : 552 2 : 0 3 : 0 
Heartbeat_Variant_3_evicts 0 : 0 1 : 0 2 : 0 3 : 0 
Heartbeat CPU 0 instructions: 10000000 cycles: 2798645 heartbeat IPC: 3.57316 cumulative IPC: 3.57316 (Simulation time: 0 hr 1 min 20 sec) 
Heartbeat_Variant_0 : 1364 0.333008 per_variant_size: 0 1364 0 0 0 0 0 0 0 
Heartbeat_Variant_1 : 1276 0.311523 per_variant_size: 0 578 698 0 0 0 0 0 0 
Heartbeat_Variant_2 : 1360 0.332031 per_variant_size: 0 535 369 240 216 0 0 0 0 
Heartbeat_Variant_3 : 0 0 per_variant_size: 0 0 0 0 0 0 0 0 0 
Heartbeat_Variant_0_evicts 0 : 5692 1 : 147 2 : 149 3 : 0 
Heartbeat_Variant_1_evicts 0 : 149 1 : 0 2 : 311 3 : 0 
Heartbeat_Variant_2_evicts 0 : 149 1 : 318 2 : 0 3 : 0 
Heartbeat_Variant_3_evicts 0 : 0 1 : 0 2 : 0 3 : 0 
Heartbeat CPU 0 instructions: 20000001 cycles: 5594974 heartbeat IPC: 3.57612 cumulative IPC: 3.57464 (Simulation time: 0 hr 2 min 37 sec) 
Heartbeat_Variant_0 : 1376 0.335938 per_variant_size: 0 1376 0 0 0 0 0 0 0 
Heartbeat_Variant_1 : 1279 0.312256 per_variant_size: 0 584 695 0 0 0 0 0 0 
Heartbeat_Variant_2 : 1364 0.333008 per_variant_size: 0 551 348 251 214 0 0 0 0 
Heartbeat_Variant_3 : 0 0 per_variant_size: 0 0 0 0 0 0 0 0 0 
Heartbeat_Variant_0_evicts 0 : 5664 1 : 91 2 : 109 3 : 0 
Heartbeat_Variant_1_evicts 0 : 83 1 : 0 2 : 286 3 : 0 
Heartbeat_Variant_2_evicts 0 : 109 1 : 285 2 : 0 3 : 0 
Heartbeat_Variant_3_evicts 0 : 0 1 : 0 2 : 0 3 : 0 
Heartbeat CPU 0 instructions: 30000000 cycles: 8391894 heartbeat IPC: 3.57536 cumulative IPC: 3.57488 (Simulation time: 0 hr 3 min 54 sec) 
Heartbeat_Variant_0 : 1382 0.337402 per_variant_size: 0 1382 0 0 0 0 0 0 0 
Heartbeat_Variant_1 : 1277 0.311768 per_variant_size: 0 572 705 0 0 0 0 0 0 
Heartbeat_Variant_2 : 1365 0.333252 per_variant_size: 0 534 370 257 204 0 0 0 0 
Heartbeat_Variant_3 : 0 0 per_variant_size: 0 0 0 0 0 0 0 0 0 
Heartbeat_Variant_0_evicts 0 : 5583 1 : 54 2 : 42 3 : 0 
Heartbeat_Variant_1_evicts 0 : 42 1 : 0 2 : 234 3 : 0 
Heartbeat_Variant_2_evicts 0 : 51 1 : 225 2 : 0 3 : 0 
Heartbeat_Variant_3_evicts 0 : 0 1 : 0 2 : 0 3 : 0 
Heartbeat CPU 0 instructions: 40000003 cycles: 11190231 heartbeat IPC: 3.57355 cumulative IPC: 3.57455 (Simulation time: 0 hr 5 min 13 sec) 
Heartbeat_Variant_0 : 1386 0.338379 per_variant_size: 0 1386 0 0 0 0 0 0 0 
Heartbeat_Variant_1 : 1278 0.312012 per_variant_size: 0 578 700 0 0 0 0 0 0 
Heartbeat_Variant_2 : 1363 0.332764 per_variant_size: 0 523 381 255 204 0 0 0 0 
Heartbeat_Variant_3 : 0 0 per_variant_size: 0 0 0 0 0 0 0 0 0 
Heartbeat_Variant_0_evicts 0 : 5754 1 : 38 2 : 32 3 : 0 
Heartbeat_Variant_1_evicts 0 : 37 1 : 0 2 : 223 3 : 0 
Heartbeat_Variant_2_evicts 0 : 29 1 : 223 2 : 0 3 : 0 
Heartbeat_Variant_3_evicts 0 : 0 1 : 0 2 : 0 3 : 0 
Heartbeat CPU 0 instructions: 50000000 cycles: 13987151 heartbeat IPC: 3.57536 cumulative IPC: 3.57471 (Simulation time: 0 hr 6 min 27 sec) 

Warmup complete CPU 0 instructions: 50000004 cycles: 13987152 (Simulation time: 0 hr 6 min 27 sec) 

Cycle: 20000000 FTQ IN: 55378124 FTQ occupancy: 15.9456 DECODE IN: 55378107 DECODE occupancy: 9.51813 ROB IN: 55378095 ROB occupancy: 261.305 ROB OUT: 55378041
Heartbeat_Variant_0 : 1400 0.341797 per_variant_size: 0 1400 0 0 0 0 0 0 0 
Heartbeat_Variant_1 : 1297 0.31665 per_variant_size: 0 569 728 0 0 0 0 0 0 
Heartbeat_Variant_2 : 1364 0.333008 per_variant_size: 0 523 361 265 215 0 0 0 0 
Heartbeat_Variant_3 : 0 0 per_variant_size: 0 0 0 0 0 0 0 0 0 
Heartbeat_Variant_0_evicts 0 : 5958 1 : 312 2 : 373 3 : 0 
Heartbeat_Variant_1_evicts 0 : 302 1 : 0 2 : 494 3 : 0 
Heartbeat_Variant_2_evicts 0 : 375 1 : 483 2 : 0 3 : 0 
Heartbeat_Variant_3_evicts 0 : 0 1 : 0 2 : 0 3 : 0 
Heartbeat CPU 0 instructions: 60000000 cycles: 24915148 heartbeat IPC: 0.915081 cumulative IPC: 0.91508 (Simulation time: 0 hr 7 min 41 sec) 
Cycle: 30000000 FTQ IN: 9405631 FTQ occupancy: 15.3251 DECODE IN: 9405630 DECODE occupancy: 5.069 ROB IN: 9405630 ROB occupancy: 59.024 ROB OUT: 9405480
Heartbeat_Variant_0 : 1402 0.342285 per_variant_size: 0 1402 0 0 0 0 0 0 0 
Heartbeat_Variant_1 : 1294 0.315918 per_variant_size: 0 561 733 0 0 0 0 0 0 
Heartbeat_Variant_2 : 1365 0.333252 per_variant_size: 0 524 362 259 220 0 0 0 0 
Heartbeat_Variant_3 : 0 0 per_variant_size: 0 0 0 0 0 0 0 0 0 
Heartbeat_Variant_0_evicts 0 : 5649 1 : 8 2 : 9 3 : 0 
Heartbeat_Variant_1_evicts 0 : 7 1 : 0 2 : 206 3 : 0 
Heartbeat_Variant_2_evicts 0 : 8 1 : 208 2 : 0 3 : 0 
Heartbeat_Variant_3_evicts 0 : 0 1 : 0 2 : 0 3 : 0 
Heartbeat CPU 0 instructions: 70000003 cycles: 35507633 heartbeat IPC: 0.944066 cumulative IPC: 0.929347 (Simulation time: 0 hr 8 min 52 sec) 
Cycle: 40000000 FTQ IN: 9310261 FTQ occupancy: 15.3298 DECODE IN: 9310261 DECODE occupancy: 5.06781 ROB IN: 9310267 ROB occupancy: 60.4801 ROB OUT: 9310251
Heartbeat_Variant_0 : 1402 0.342285 per_variant_size: 0 1402 0 0 0 0 0 0 0 
Heartbeat_Variant_1 : 1301 0.317627 per_variant_size: 0 564 737 0 0 0 0 0 0 
Heartbeat_Variant_2 : 1368 0.333984 per_variant_size: 0 506 379 266 217 0 0 0 0 
Heartbeat_Variant_3 : 0 0 per_variant_size: 0 0 0 0 0 0 0 0 0 
Heartbeat_Variant_0_evicts 0 : 5784 1 : 180 2 : 199 3 : 0 
Heartbeat_Variant_1_evicts 0 : 185 1 : 0 2 : 362 3 : 0 
Heartbeat_Variant_2_evicts 0 : 195 1 : 365 2 : 0 3 : 0 
Heartbeat_Variant_3_evicts 0 : 0 1 : 0 2 : 0 3 : 0 
Heartbeat CPU 0 instructions: 80000001 cycles: 46285730 heartbeat IPC: 0.927807 cumulative IPC: 0.928833 (Simulation time: 0 hr 10 min 0 sec) 
Cycle: 50000000 FTQ IN: 9401245 FTQ occupancy: 15.3195 DECODE IN: 9401247 DECODE occupancy: 5.07512 ROB IN: 9401241 ROB occupancy: 58.7218 ROB OUT: 9401451
Heartbeat_Variant_0 : 1400 0.341797 per_variant_size: 0 1400 0 0 0 0 0 0 0 
Heartbeat_Variant_1 : 1303 0.318115 per_variant_size: 0 566 737 0 0 0 0 0 0 
Heartbeat_Variant_2 : 1368 0.333984 per_variant_size: 0 507 379 270 212 0 0 0 0 
Heartbeat_Variant_3 : 0 0 per_variant_size: 0 0 0 0 0 0 0 0 0 
Heartbeat_Variant_0_evicts 0 : 5658 1 : 12 2 : 22 3 : 0 
Heartbeat_Variant_1_evicts 0 : 18 1 : 0 2 : 215 3 : 0 
Heartbeat_Variant_2_evicts 0 : 18 1 : 219 2 : 0 3 : 0 
Heartbeat_Variant_3_evicts 0 : 0 1 : 0 2 : 0 3 : 0 
Heartbeat CPU 0 instructions: 90000000 cycles: 56879494 heartbeat IPC: 0.943951 cumulative IPC: 0.932567 (Simulation time: 0 hr 11 min 14 sec) 
Cycle: 60000000 FTQ IN: 9456750 FTQ occupancy: 15.3561 DECODE IN: 9456750 DECODE occupancy: 5.08832 ROB IN: 9456750 ROB occupancy: 59.0772 ROB OUT: 9456619
Heartbeat_Variant_0 : 1408 0.34375 per_variant_size: 0 1408 0 0 0 0 0 0 0 
Heartbeat_Variant_1 : 1305 0.318604 per_variant_size: 0 566 739 0 0 0 0 0 0 
Heartbeat_Variant_2 : 1361 0.332275 per_variant_size: 0 500 368 268 225 0 0 0 0 
Heartbeat_Variant_3 : 0 0 per_variant_size: 0 0 0 0 0 0 0 0 0 
Heartbeat_Variant_0_evicts 0 : 5705 1 : 150 2 : 136 3 : 0 
Heartbeat_Variant_1_evicts 0 : 144 1 : 0 2 : 324 3 : 0 
Heartbeat_Variant_2_evicts 0 : 135 1 : 317 2 : 0 3 : 0 
Heartbeat_Variant_3_evicts 0 : 0 1 : 0 2 : 0 3 : 0 
Heartbeat CPU 0 instructions: 100000003 cycles: 67670823 heartbeat IPC: 0.92667 cumulative IPC: 0.931382 (Simulation time: 0 hr 12 min 23 sec) 
Finished CPU 0 instructions: 50000001 cycles: 53683672 cumulative IPC: 0.931382 (Simulation time: 0 hr 12 min 23 sec) 

ChampSim completed all CPUs

Region of Interest Statistics

CPU 0 cumulative IPC: 0.931382 instructions: 50000001 cycles: 53683672
 Fetch stage stalled: 22.5543  Sim cycles: 53683672 fetch stall cycle: 12107961
 Empty decode stage: 67.7733  Sim cycles: 53683672 fetch stall cycle: 36383211
ITLB TOTAL     ACCESS:    7287122  HIT:    6790814  MISS:     496308  HIT %:    93.1892  MISS %:    6.81075   MPKI: 9.92616
ITLB LOAD TRANSLATION INSTRUCTION	ACCESS:    7287122  HIT:    6790814  MISS:     496308  HIT %:    93.1892  MISS %:    6.81075  MPKI: 9.92616

ITLB AVERAGE MISS LATENCY: 9.0848 cycles
ITLB RQ	ACCESS:    8355745	FORWARD:          0	MERGED:     862467	TO_CACHE:    7493278

DTLB TOTAL     ACCESS:   10204952  HIT:    9727314  MISS:     477638  HIT %:    95.3195  MISS %:    4.68045   MPKI: 9.55276
DTLB LOAD TRANSLATION DATA	ACCESS:   10204952  HIT:    9727314  MISS:     477638  HIT %:    95.3195  MISS %:    4.68045  MPKI: 9.55276

DTLB AVERAGE MISS LATENCY: 9.33388 cycles
DTLB RQ	ACCESS:   14355722	FORWARD:          0	MERGED:    4119677	TO_CACHE:   10236045

STLB TOTAL     ACCESS:    1231184  HIT:    1228573  MISS:       2611  HIT %:    99.7879  MISS %:   0.212072   MPKI: 0.05222
STLB LOAD TRANSLATION INSTRUCTION	ACCESS:     496308  HIT:     495756  MISS:        552  HIT %:    99.8888  MISS %:   0.111221  MPKI: 0.01104
STLB LOAD TRANSLATION DATA	ACCESS:     477600  HIT:     475573  MISS:       2027  HIT %:    99.5756  MISS %:   0.424414  MPKI: 0.04054
STLB TRANSLATION FROM L1D PREFETCHER DATA	ACCESS:     257276  HIT:     257244  MISS:         32  HIT %:    99.9876  MISS %:   0.012438  MPKI: 0.00064

STLB AVERAGE MISS LATENCY: 70.1708 cycles
STLB RQ	ACCESS:    1344876	FORWARD:          0	MERGED:     113646	TO_CACHE:    1231230

STLB Hit, L1D data hit: 0
STLB Hit, L2C data hit: 0
STLB Hit, LLC data hit: 0
STLB Hit, LLC data miss: 0
STLB STLB hints to L2: 0
L1D TOTAL     ACCESS:   14135367  HIT:   13019013  MISS:    1116354  HIT %:    92.1024  MISS %:    7.89759   MPKI: 22.3271
L1D LOAD DATA	ACCESS:    7492056  HIT:    6758214  MISS:     733842  HIT %:    90.2051  MISS %:    9.79493  MPKI: 14.6768
L1D RFO DATA	ACCESS:    6311281  HIT:    6022418  MISS:     288863  HIT %:    95.4231  MISS %:    4.57693  MPKI: 5.77726
L1D PREFETCH DATA	ACCESS:     332030  HIT:     238381  MISS:      93649  HIT %:     71.795  MISS %:     28.205  MPKI: 1.87298

L1D PREFETCH  REQUESTED:     741957  ISSUED:     741957  USEFUL:      35038  USELESS:      66800
L1D USEFUL LOAD PREFETCHES:      35038 PREFETCH ISSUED TO LOWER LEVEL:     101931  ACCURACY: 34.3742
 TIMELY PREFETCHES:      35038 LATE PREFETCHES: 8197 DROPPED PREFETCHES: 8
L1D AVERAGE MISS LATENCY: 299088 cycles
L1D RQ	ACCESS:   11342811	FORWARD:          0	MERGED:    3660258	TO_CACHE:    7525316
L1D WQ	ACCESS:    6958357	FORWARD:     157334	MERGED:     127951	TO_CACHE:    6830406
L1D PQ	ACCESS:     371027	FORWARD:          0	MERGED:          0	TO_CACHE:     370930

L1D UNIQUE REGIONS ACCESSED: 0
L1D REGIONS CONFLICTS: 0
L1D Cross Page Prefetch Requests: 5953
L1D Same Page Prefetch Requests: 749013
L1D ROI Sum of L1D PQ occupancy: 4721352
L1D PREFETCHES PUSHED FROM L2C: 0
L1I TOTAL     ACCESS:    7871412  HIT:    5100185  MISS:    2771227  HIT %:    64.7938  MISS %:    35.2062   MPKI: 55.4245
L1I LOAD INSTRUCTION	ACCESS:    7871412  HIT:    5100185  MISS:    2771227  HIT %:    64.7938  MISS %:    35.2062  MPKI: 55.4245

L1I AVERAGE MISS LATENCY: 16.71 cycles
L1I RQ	ACCESS:   15716405	FORWARD:          0	MERGED:    7360660	TO_CACHE:    8355745

L1BTB TOTAL     ACCESS:    5667608  HIT:    2031324  MISS:    3636284  HIT %:    35.8409  MISS %:    64.1591   MPKI: 72.7257
L1BTB BRANCH_DIRECT_JUMP	ACCESS:     548634  HIT:     144522  MISS:     404112	AVERAGE STALL: 22.6573
L1BTB BRANCH_INDIRECT	ACCESS:     182862  HIT:      65808  MISS:     117054	AVERAGE STALL: 50.1913
L1BTB BRANCH_CONDITIONAL	ACCESS:    2702108  HIT:    1407400  MISS:    1294708	AVERAGE STALL: 29.5489
L1BTB BRANCH_DIRECT_CALL	ACCESS:     945277  HIT:     104017  MISS:     841260	AVERAGE STALL: 33.1502
L1BTB BRANCH_INDIRECT_CALL	ACCESS:     171743  HIT:      20902  MISS:     150841	AVERAGE STALL: 67.7127
L1BTB BRANCH_RETURN	ACCESS:    1116984  HIT:     288675  MISS:     828309	AVERAGE STALL: 33.1001
L1BTB BRANCH_OTHER ACCESS:          0  HIT:          0  MISS:          0	AVERAGE STALL: -nan
L1BTB TOTAL ROB OCCUPANCY AT BTB MISS: 0.752082

L2BTB TOTAL     ACCESS:    3610847  HIT:    3538746  MISS:      72101  HIT %:    98.0032  MISS %:    1.99679   MPKI: 1.44202
L2BTB BRANCH_DIRECT_JUMP	ACCESS:     399955  HIT:     394785  MISS:       5170	AVERAGE STALL: 22.6573
L2BTB BRANCH_INDIRECT	ACCESS:     106721  HIT:     104019  MISS:       2702	AVERAGE STALL: 50.1913
L2BTB BRANCH_CONDITIONAL	ACCESS:    1294708  HIT:    1288006  MISS:       6702	AVERAGE STALL: 29.5489
L2BTB BRANCH_DIRECT_CALL	ACCESS:     841260  HIT:     838329  MISS:       2931	AVERAGE STALL: 33.1502
L2BTB BRANCH_INDIRECT_CALL	ACCESS:     141301  HIT:     130753  MISS:      10548	AVERAGE STALL: 67.7127
L2BTB BRANCH_RETURN	ACCESS:     826902  HIT:     782854  MISS:      44048	AVERAGE STALL: 33.1001
L2BTB BRANCH_OTHER ACCESS:          0  HIT:          0  MISS:          0	AVERAGE STALL: -nan
L2BTB TOTAL ROB OCCUPANCY AT BTB MISS: 37.9299

L2C TOTAL     ACCESS:    4508021  HIT:    4046044  MISS:     461977  HIT %:    89.7521  MISS %:    10.2479   MPKI: 9.23954
L2C LOAD INSTRUCTION	ACCESS:    2771227  HIT:    2540805  MISS:     230422  HIT %:    91.6852  MISS %:     8.3148  MPKI: 4.60844
L2C LOAD TRANSLATION INSTRUCTION	ACCESS:        603  HIT:        184  MISS:        419  HIT %:    30.5141  MISS %:    69.4859  MPKI: 0.00838
L2C LOAD DATA	ACCESS:     725640  HIT:     645688  MISS:      79952  HIT %:    88.9819  MISS %:    11.0181  MPKI: 1.59904
L2C RFO DATA	ACCESS:     288757  HIT:     232925  MISS:      55832  HIT %:    80.6647  MISS %:    19.3353  MPKI: 1.11664
L2C PREFETCH DATA	ACCESS:     194843  HIT:     117824  MISS:      77019  HIT %:    60.4713  MISS %:    39.5287  MPKI: 1.54038
L2C WRITEBACK DATA	ACCESS:     524768  HIT:     507937  MISS:      16831  HIT %:    96.7927  MISS %:    3.20732  MPKI: 0.33662
L2C LOAD TRANSLATION DATA	ACCESS:       2128  HIT:        643  MISS:       1485  HIT %:    30.2162  MISS %:    69.7838  MPKI: 0.0297
L2C TRANSLATION FROM L1D PREFETCHER DATA	ACCESS:         55  HIT:         38  MISS:         17  HIT %:    69.0909  MISS %:    30.9091  MPKI: 0.00034

L2C PREFETCH  REQUESTED:     100490  ISSUED:     100490  USEFUL:       8174  USELESS:      69127
L2C USEFUL LOAD PREFETCHES:       8174 PREFETCH ISSUED TO LOWER LEVEL:      77318  ACCURACY: 10.5719
 TIMELY PREFETCHES:       8174 LATE PREFETCHES: 299 DROPPED PREFETCHES: 0
L2C AVERAGE MISS LATENCY: 39.4831 cycles
L2C RQ	ACCESS:    3788441	FORWARD:          0	MERGED:          0	TO_CACHE:    3788414
L2C WQ	ACCESS:     524768	FORWARD:         27	MERGED:          0	TO_CACHE:     524768
L2C PQ	ACCESS:     202421	FORWARD:          0	MERGED:       4237	TO_CACHE:     198184

L2C Dense regions hint from L2: 0
PSCL5 TOTAL     ACCESS:       5244  HIT:       2622  MISS:       2622  HIT %:         50  MISS %:         50   MPKI: 0.05244
PSCL5 LOAD TRANSLATION INSTRUCTION	ACCESS:       5134  HIT:       2567  MISS:       2567  HIT %:         50  MISS %:         50  MPKI: 0.05134
PSCL5 TRANSLATION FROM L1D PREFETCHER INSTRUCTION	ACCESS:        110  HIT:         55  MISS:         55  HIT %:         50  MISS %:         50  MPKI: 0.0011


PSCL4 TOTAL     ACCESS:       3815  HIT:       1905  MISS:       1910  HIT %:    49.9345  MISS %:    50.0655   MPKI: 0.0382
PSCL4 LOAD TRANSLATION INSTRUCTION	ACCESS:       2109  HIT:       1865  MISS:        244  HIT %:    88.4305  MISS %:    11.5695  MPKI: 0.00488
PSCL4 TRANSLATION FROM L1D PREFETCHER INSTRUCTION	ACCESS:         46  HIT:         40  MISS:          6  HIT %:    86.9565  MISS %:    13.0435  MPKI: 0.00012
PSCL4 LOAD TRANSLATION DATA	ACCESS:       1626  HIT:          0  MISS:       1626  HIT %:          0  MISS %:        100  MPKI: 0.03252
PSCL4 TRANSLATION FROM L1D PREFETCHER DATA	ACCESS:         34  HIT:          0  MISS:         34  HIT %:          0  MISS %:        100  MPKI: 0.00068


PSCL3 TOTAL     ACCESS:       5134  HIT:       2558  MISS:       2576  HIT %:    49.8247  MISS %:    50.1753   MPKI: 0.05152
PSCL3 LOAD TRANSLATION INSTRUCTION	ACCESS:       3543  HIT:       2510  MISS:       1033  HIT %:    70.8439  MISS %:    29.1561  MPKI: 0.02066
PSCL3 TRANSLATION FROM L1D PREFETCHER INSTRUCTION	ACCESS:         72  HIT:         48  MISS:         24  HIT %:    66.6667  MISS %:    33.3333  MPKI: 0.00048
PSCL3 LOAD TRANSLATION DATA	ACCESS:       1495  HIT:          0  MISS:       1495  HIT %:          0  MISS %:        100  MPKI: 0.0299
PSCL3 TRANSLATION FROM L1D PREFETCHER DATA	ACCESS:         24  HIT:          0  MISS:         24  HIT %:          0  MISS %:        100  MPKI: 0.00048


PSCL2 TOTAL     ACCESS:       5099  HIT:       2477  MISS:       2622  HIT %:    48.5782  MISS %:    51.4218   MPKI: 0.05244
PSCL2 LOAD TRANSLATION INSTRUCTION	ACCESS:       2987  HIT:       2422  MISS:        565  HIT %:    81.0847  MISS %:    18.9153  MPKI: 0.0113
PSCL2 TRANSLATION FROM L1D PREFETCHER INSTRUCTION	ACCESS:         55  HIT:         55  MISS:          0  HIT %:        100  MISS %:          0  MPKI: 0
PSCL2 LOAD TRANSLATION DATA	ACCESS:       2002  HIT:          0  MISS:       2002  HIT %:          0  MISS %:        100  MPKI: 0.04004
PSCL2 TRANSLATION FROM L1D PREFETCHER DATA	ACCESS:         55  HIT:          0  MISS:         55  HIT %:          0  MISS %:        100  MPKI: 0.0011


LLC TOTAL     ACCESS:     524077  HIT:     492922  MISS:      31155  HIT %:    94.0553  MISS %:    5.94474   MPKI: 0.6231
LLC LOAD INSTRUCTION	ACCESS:     230422  HIT:     229161  MISS:       1261  HIT %:    99.4527  MISS %:   0.547257  MPKI: 0.02522
LLC LOAD TRANSLATION INSTRUCTION	ACCESS:        419  HIT:        361  MISS:         58  HIT %:    86.1575  MISS %:    13.8425  MPKI: 0.00116
LLC LOAD DATA	ACCESS:      79664  HIT:      75823  MISS:       3841  HIT %:    95.1785  MISS %:     4.8215  MPKI: 0.07682
LLC RFO DATA	ACCESS:      55793  HIT:      40316  MISS:      15477  HIT %:      72.26  MISS %:      27.74  MPKI: 0.30954
LLC PREFETCH DATA	ACCESS:      77318  HIT:      67243  MISS:      10075  HIT %:    86.9694  MISS %:    13.0306  MPKI: 0.2015
LLC WRITEBACK DATA	ACCESS:      78959  HIT:      78610  MISS:        349  HIT %:     99.558  MISS %:   0.442002  MPKI: 0.00698
LLC LOAD TRANSLATION DATA	ACCESS:       1485  HIT:       1391  MISS:         94  HIT %:      93.67  MISS %:    6.32997  MPKI: 0.00188
LLC TRANSLATION FROM L1D PREFETCHER DATA	ACCESS:         17  HIT:         17  MISS:          0  HIT %:        100  MISS %:          0  MPKI: 0

LLC AVERAGE MISS LATENCY: 155.652 cycles
LLC RQ	ACCESS:     367829	FORWARD:          0	MERGED:          0	TO_CACHE:     367801
LLC WQ	ACCESS:      78959	FORWARD:         28	MERGED:          0	TO_CACHE:      78959
LLC PQ	ACCESS:      77318	FORWARD:          0	MERGED:          0	TO_CACHE:      77318

LLC Dense regions hint to LLC: 0

RAW hits: 1302049
Loads Generated: 12644860
Loads sent to L1D: 11342811
Stores Generated: 6958351
Stores sent to L1D: 6958357
Major fault: 0 Minor fault: 2646
Allocated PAGES: 2646

stream: 
stream:times selected: 1180087
stream:pref_filled: 120421
stream:pref_useful: 24781
stream:pref_late: 5931
stream:misses: 5815
stream:misses_by_poll: 0

CS: 
CS:times selected: 178787
CS:pref_filled: 58449
CS:pref_useful: 35229
CS:pref_late: 7310
CS:misses: 16908
CS:misses_by_poll: 1

CPLX: 
CPLX:times selected: 1000284
CPLX:pref_filled: 20411
CPLX:pref_useful: 4617
CPLX:pref_late: 3178
CPLX:misses: 89798
CPLX:misses_by_poll: 0

NL_L1: 
NL:times selected: 18949
NL:pref_filled: 512
NL:pref_useful: 253
NL:pref_late: 194
NL:misses: 733
NL:misses_by_poll: 0

total selections: 2378107
total_filled: 93649
total_useful: 35038
total_late: 18012
total_polluted: 1
total_misses_after_warmup: 767104
conflicts: 5957267

test: 116209

DRAM Statistics
 CHANNEL 0
 RQ ROW_BUFFER_HIT:      11739  ROW_BUFFER_MISS:      19063
 DBUS_CONGESTED:          7
 WQ ROW_BUFFER_HIT:       1591  ROW_BUFFER_MISS:      13082  FULL:          0

 AVG_CONGESTED_CYCLE: 4

CPU 0 Branch Prediction Accuracy: 99.8088% MPKI: 0.3495 Average ROB Occupancy at Mispredict: 72.9983
Branch types
NOT_BRANCH: 40858183 81.7164%
BRANCH_DIRECT_JUMP: 548634 1.09727%
BRANCH_INDIRECT: 182862 0.365724%
BRANCH_CONDITIONAL: 6175973 12.3519%
BRANCH_DIRECT_CALL: 945277 1.89055%
BRANCH_INDIRECT_CALL: 171743 0.343486%
BRANCH_RETURN: 1116984 2.23397%
BRANCH_OTHER: 0 0%

DRAM PAGES: 1048576
Allocated PAGES: 2646
Average_ROB_Occupancy: 60.4102
Average_Decode_Occupancy: 5.05009
Average_FTQ_Occupancy: 15.2918
Indirect max targets: 14 Average targets: 1.17778
Branch_type:  BRANCH_DIRECT_JUMP:  Count Percentage: 3.30499 5.44852 4.87371 7.1683 3.47564 6.01704 1.74866 67.9631 
Branch_type:  BRANCH_INDIRECT:  Count Percentage: 6.13629 3.39484 8.16914 9.6806 3.34783 2.81086 3.88344 62.577 
Branch_type:  BRANCH_CONDITIONAL:  Count Percentage: 25.0858 2.46298 2.26188 4.07741 2.33052 4.14494 2.74646 56.89 
Branch_type:  BRANCH_DIRECT_CALL:  Count Percentage: 0.388846 1.27446 0.734298 3.50994 3.15204 2.93523 3.32609 84.6791 
Branch_type:  BRANCH_INDIRECT_CALL:  Count Percentage: 9.574 0 3.0021 0.000874738 0 2.57727 5.00058 79.8452 
Branch_type:  BRANCH_RETURN:  Count Percentage: 7.90705 1.82136 1.14603 3.49523 3.9938 4.57766 3.7113 73.3476 
Branch_type:  BRANCH_DIRECT_JUMP:  Total Count: 36275 59802 53493 78678 38148 66042 19193 745951 
Branch_type:  BRANCH_INDIRECT:  Total Count: 22455 12423 29894 35425 12251 10286 14211 228993 
Branch_type:  BRANCH_CONDITIONAL:  Total Count: 3098226 304191 279354 503581 287831 511922 339202 7026213 
Branch_type:  BRANCH_DIRECT_CALL:  Total Count: 7339 24054 13859 66246 59491 55399 62776 1598218 
Branch_type:  BRANCH_INDIRECT_CALL:  Total Count: 32835 0 10296 3 0 8839 17150 273837 
Branch_type:  BRANCH_RETURN:  Total Count: 176421 40638 25570 77985 89109 102136 82806 1636521 
Number of unique branch instructions: 10788
Upper 32 bits: 
aaaa
ffff
ffff0000
Unique upper 32 bits: 3
Unique upper 36 bits: 3
Unique upper 40 bits: 5
Unique upper 44 bits: 32
Unique upper 48 bits: 158
Variant_0 : 1408 0.34375
Variant_1 : 1305 0.318604
Variant_2 : 1361 0.332275
Variant_3 : 0 0
Offset_3 4463
Offset_4 257
Offset_5 482
Offset_6 538
Offset_7 641
Offset_8 578
Offset_9 520
Offset_10 422
Offset_11 350
Offset_12 326
Offset_13 237
Offset_14 248
Offset_15 187
Offset_16 232
Offset_17 168
Offset_18 153
Offset_19 261
Offset_20 140
Offset_21 235
Offset_22 416
Offset_23 241
Offset_24 351
Offset_25 117
Offset_47 94
Offset_64 1
decode_dispatch_called: 29350703 54.6734
Dispatch_width: 0 17288895 58.9045 32.2051
Dispatch_width: 1 2143427 7.30281 3.9927
Dispatch_width: 2 1217690 4.14876 2.26827
Dispatch_width: 3 1091196 3.71778 2.03264
Dispatch_width: 4 1149668 3.917 2.14156
Dispatch_width: 5 1210363 4.1238 2.25462
Dispatch_width: 6 5249464 17.8853 9.77851
Empty_decode_cycles: 24332969 45.3266
ROB_full_cycles: 600832 1.11921
Starvation_cycles_per_kilo_instr: 478.334
Starvation_cycles_per_kilo_instr_3: 454.733
Starvation_cycles_per_kilo_instr_0: 410.21
Branch_type_1  (3,1)  (4,9)  (5,39)  (6,73)  (7,126)  (8,149)  (9,136)  (10,111)  (11,79)  (12,55)  (13,11)  (14,2)  (15,3)  (16,4)  (18,1)  (19,5)  (20,2)  (21,1)  (22,3)  (23,2)  (24,10)  (25,12) 
Branch_type_2  (3,1)  (4,1)  (5,1)  (8,4)  (9,4)  (10,1)  (12,1)  (13,1)  (14,1)  (16,3)  (17,2)  (20,2)  (21,2)  (23,5)  (24,1)  (47,43) 
Branch_type_3  (3,4461)  (4,247)  (5,438)  (6,449)  (7,486)  (8,359)  (9,285)  (10,170)  (11,138)  (12,62)  (13,10)  (64,1) 
Branch_type_4  (6,3)  (7,8)  (8,25)  (9,56)  (10,67)  (11,68)  (12,116)  (13,100)  (14,112)  (15,88)  (16,102)  (17,78)  (18,67)  (19,128)  (20,71)  (21,124)  (22,221)  (23,136)  (24,206)  (25,101) 
Branch_type_5  (8,3)  (9,1)  (10,4)  (11,5)  (12,3)  (13,14)  (14,16)  (15,11)  (16,22)  (17,11)  (18,23)  (19,14)  (20,11)  (21,13)  (22,43)  (23,26)  (24,38) 
Branch_type_6  (5,4)  (6,13)  (7,21)  (8,38)  (9,38)  (10,69)  (11,60)  (12,89)  (13,101)  (14,117)  (15,85)  (16,101)  (17,77)  (18,62)  (19,114)  (20,54)  (21,95)  (22,149)  (23,72)  (24,96)  (25,4)  (47,51) 
Unique trigger count: 
Variant_0_evicts_0 : 0
Variant_0_evicts_1 : 0
Variant_0_evicts_2 : 0
Variant_0_evicts_3 : 0
Variant_1_evicts_0 : 0
Variant_1_evicts_1 : 0
Variant_1_evicts_2 : 0
Variant_1_evicts_3 : 0
Variant_2_evicts_0 : 0
Variant_2_evicts_1 : 0
Variant_2_evicts_2 : 0
Variant_2_evicts_3 : 0
Variant_3_evicts_0 : 0
Variant_3_evicts_1 : 0
Variant_3_evicts_2 : 0
Variant_3_evicts_3 : 0
BTB PER SET UNIQUE ADDR: 16 15 13 17 11 14 8 13 14 12 10 23 17 12 13 10 10 12 16 12 10 12 13 12 10 14 12 8 14 10 16 15 16 8 9 12 14 13 10 12 11 10 16 16 11 11 19 8 14 12 17 11 15 16 9 8 10 11 11 16 13 17 14 11 13 14 14 13 18 9 11 14 15 14 12 9 12 17 11 18 15 12 7 17 18 17 18 14 12 27 10 9 19 11 10 13 11 9 11 19 23 18 13 11 12 11 16 13 9 7 14 19 17 11 11 5 14 17 12 16 13 12 12 10 13 15 9 10 21 16 17 16 14 15 10 17 10 16 14 19 7 15 14 13 14 9 15 10 11 13 15 18 12 9 11 15 20 16 13 13 17 12 16 19 10 12 13 9 14 14 14 14 14 11 12 13 11 14 9 10 13 11 12 17 22 17 9 18 11 10 20 12 12 18 11 13 11 13 13 16 21 13 12 9 14 9 14 12 10 14 12 13 13 12 10 16 10 18 12 21 12 11 10 12 15 13 23 16 8 18 9 11 13 14 14 16 13 11 11 10 13 11 16 14 8 13 10 13 12 12 15 11 17 12 15 15 11 13 15 9 13 10 6 14 14 9 11 12 12 12 12 17 14 11 11 9 15 15 15 16 14 16 10 14 17 10 13 16 24 17 14 12 10 18 6 16 14 17 17 14 10 12 12 20 16 15 16 9 20 12 13 22 16 25 10 11 18 14 9 16 7 17 12 16 12 17 11 13 11 8 11 17 10 11 12 13 13 14 10 18 12 14 9 17 13 12 13 17 11 11 17 13 12 14 13 18 14 13 9 11 15 14 9 18 13 11 8 16 13 16 13 11 19 14 8 21 16 19 15 16 13 12 11 11 12 14 15 13 20 20 17 14 13 16 12 8 13 10 16 12 7 12 10 14 21 13 12 15 16 14 18 9 12 18 16 15 16 14 24 22 9 15 13 16 15 14 17 12 9 12 18 14 13 15 12 18 15 10 14 13 17 12 8 18 19 9 10 15 10 12 16 14 16 12 19 20 17 14 10 21 13 12 12 16 19 11 12 12 17 16 13 16 15 10 18 14 9 19 9 14 17 14 12 17 9 15 16 15 14 12 14 13 8 9 12 13 12 17 14 16 12 16 14 20 16 8 10 17 15 15 18 20 12 13 14 17 15 14 10 8 11 10 15 12 14 18 21 9 11 20 14 19 21 11 9 14 11 17 14 12 19 14 13 15 16 13 11 16 12 11 16 14 14 13 12 17 13 12 15 16 12 15 15 13 14 14 10 14 11 12 18 12 15 21 16 18 19 18 10 13 16 8 10 15 15 15 15 15 19 15 12 17 14 13 19 11 12 12 13 14 13 10 12 7 15 18 16 11 10 16 24 14 15 12 5 21 12 10 16 10 20 16 10 11 12 12 9 23 15 18 12 15 13 12 13 13 18 13 14 19 13 14 20 20 13 12 14 16 15 10 14 17 9 14 14 12 14 16 14 16 9 7 16 18 14 19 12 12 8 15 16 14 10 17 17 7 16 14 14 12 17 13 13 11 19 17 14 14 15 15 15 16 17 10 12 11 11 14 12 10 6 9 13 14 6 17 11 10 13 11 10 15 11 14 13 13 18 9 10 16 13 11 14 17 13 14 12 9 9 11 12 13 12 12 11 19 13 17 11 11 11 9 15 10 19 18 19 9 12 13 13 9 17 15 12 14 15 9 8 11 9 10 11 19 13 21 7 15 10 13 15 23 11 8 14 12 14 18 17 20 8 15 18 13 16 16 11 10 12 8 10 8 14 14 15 17 15 14 18 12 17 12 21 12 22 11 14 16 15 7 13 22 14 13 12 18 14 16 7 13 12 19 11 13 16 11 12 13 12 12 16 19 15 15 13 13 17 10 12 11 17 11 11 14 19 18 13 18 13 11 10 15 13 15 20 17 19 12 17 13 17 7 8 15 21 8 15 12 18 15 11 15 20 10 16 6 18 8 10 9 14 9 13 15 15 15 16 11 14 18 15 14 9 19 14 17 15 11 14 8 13 9 17 16 5 11 9 12 16 16 9 9 14 16 16 15 18 15 13 17 12 15 11 9 9 15 9 13 13 6 14 19 19 17 9 20 12 14 17 15 9 21 13 13 13 17 11 15 9 17 11 15 8 15 14 11 13 14 12 12 19 11 14 19 16 10 17 13 12 10 14 17 18 14 16 10 20 16 17 20 14 14 13 13 15 18 15 16 20 13 16 13 12 16 17 13 13 16 15 14 17 12 10 11 19 18 10 17 11 13 14 15 16 11 14 15 8 13 6 12 13 21 12 13 
BTB PER SET COUNT: 971 21 1760 24 18 21 10 16 794 18 11 976 1963 19 18 12 11 2134 26 13 18 15 770 17 15 19 12 10 27 417 151 23 23 9 11 12 39 23 13 45 13 15 29 1101 23 17 23 9 1134 16 23 14 29 26 12 9 15 16 18 31 19 28 306 12 18 18 18 25 26 10 17 727 18 16 17 12 20 256 15 20 108 16 10 58 26 1611 27 19 2001 44 244 828 77 19 11 13 419 10 11 4656 41 916 23 17 1737 16 28 22 249 8 17 46 291 16 21 5 16 32 1487 525 91 17 12 13 24 73 14 19 36 890 23 1268 18 26 135 22 998 31 18 38 8 18 21 14 23 30 1360 16 14 19 28 291 1324 10 18 27 42 17 20 20 26 185 28 30 313 743 15 11 20 281 23 20 18 13 21 20 19 27 17 991 25 14 19 27 40 650 12 20 983 78 43 12 19 23 18 162 12 53 14 650 33 123 18 10 21 12 19 17 10 19 22 22 17 22 20 1214 12 26 930 32 21 12 43 15 20 28 38 23 210 27 16 12 17 15 473 13021 26 15 15 16 1100 17 144 141 11 269 12 21 20 24 19 15 24 18 19 30 37 216 23 17 15 10 7 267 21 14 20 22 214 15 14 999 44 14 27 10 20 23 26 25 17 31 16 20 25 10 13 28 44 24 17 19 10 253 6 21 899 28 27 988 13 20 961 30 30 166 121 13 32 230 18 34 24 32 692 90 24 23 16 27 8 3411 19 21 12 1005 13 20 14 13 16 30 18 15 15 13 21 790 11 35 15 1752 12 25 27 19 13 24 11 25 337 884 22 20 14 19 21 15 143 42 20 22 12 41 19 13 10 23 21 19 21 372 27 212 10 40 26 29 30 24 17 12 1000 12 15 21 383 19 29 63 194 17 15 24 12 11 17 17 27 1101 10 18 13 20 43 16 17 249 25 21 534 11 19 40 23 24 23 4320 48 34 9 29 20 24 21 19 599 21 11 20 40 15 23 22 504 30 40 43 28 23 23 18 44 26 2483 15 12 21 20 22 763 987 28 16 103 161 26 24 16 35 15 15 16 25 26 20 2656 18 20 24 22 26 20 15 36 23 11 34 11 21 26 156 15 32 484 71 31 23 20 55 538 15 1890 12 13 16 19 19 21 21 14 25 17 59 20 13 10 29 16 29 165 1634 17 1158 22 41 17 17 20 11 17 12 15 493 21 24 170 10 14 233 22 54 31 16 14 26 378 404 20 15 33 20 16 29 23 246 17 21 20 1155 30 15 1000 15 23 38 29 17 27 21 17 17 21 18 18 37 160 21 16 121 168 24 16 35 2467 26 27 1700 15 17 26 12 21 1587 35 33 972 25 34 22 67 29 21 23 41 17 21 356 247 17 17 12 23 10 21 28 21 1532 12 17 39 1383 26 13 6 28 505 14 714 41 35 22 16 22 14 15 13 38 19 27 16 27 17 154 19 18 32 991 18 471 19 21 31 904 13 16 997 31 21 16 18 27 12 20 35 19 20 27 21 529 10 7 418 23 3069 38 24 19 1483 26 27 25 16 28 490 7 29 20 16 15 26 16 1574 21 545 31 15 21 30 22 29 28 20 15 18 15 15 141 19 19 8 23 1084 20 8 24 14 10 16 19 15 24 634 14 368 21 30 23 26 649 146 482 16 28 1975 15 14 10 12 24 105 13057 20 18 13 48 998 37 15 12 21 17 1209 12 26 28 874 9 20 19 15 23 62 1977 997 19 26 10 11 14 14 13 13 147 664 36 7 17 10 39 52 47 17 15 25 13 30 297 24 35 988 24 359 19 23 28 16 10 21 9 10 990 20 23 77 35 22 19 30 17 28 18 80 22 28 16 18 22 22 9 18 1692 32 34 21 572 30 793 9 3180 23 832 12 16 1010 14 16 16 20 17 30 62 20 30 337 1914 24 991 14 15 22 14 13 20 604 27 20 30 19 11 826 393 411 22 1503 29 27 18 28 14 36 7 10 25 963 11 24 19 35 23 12 52 34 14 25 7 31 10 12 10 18 15 158 22 15 26 19 12 18 23 20 892 15 29 18 24 22 16 1971 9 16 11 29 288 6 22 10 19 23 117 9 17 21 23 34 515 1464 155 19 63 25 32 16 14 13 533 12 17 20 7 20 23 373 30 17 1349 22 21 28 23 11 660 19 20 17 23 17 25 12 24 15 1023 1479 1108 20 17 13 23 16 24 173 27 507 21 25 10 24 14 15 13 61 2282 26 20 847 14 26 25 1003 37 22 18 898 458 27 1860 23 511 26 18 25 16 12 28 36 19 13 1501 31 89 48 28 13 14 30 283 11 25 16 997 15 56 27 14 16 18 14 187 8 15 18 393 16 22 
To predecode: 0
Predecoding something: 0
Predecode request dropped: 0
sizeofblock_0 0
sizeofblock_1 42099
sizeofblock_2 32199
sizeofblock_3 46131
sizeofblock_4 26171
sizeofblock_5 0
sizeofblock_6 0
sizeofblock_7 0
sizeofblock_8 0
Variant_0 Correct: 1613990 Incorrect: 0 Accuracy: 1
Variant_1 Correct: 2092424 Incorrect: 0 Accuracy: 1
Variant_2 Correct: 3643707 Incorrect: 0 Accuracy: 1
Variant_3 Correct: 0 Incorrect: 0 Accuracy: -nan
