
*** ChampSim Multicore Out-of-Order Simulator ***

Warmup Instructions: 50000000
Simulation Instructions: 50000000
Number of CPUs: 1
LLC sets: 2048
LLC ways: 16
Off-chip DRAM Size: 4096 MB Channels: 1 Width: 64-bit Data Rate: 6400 MT/s
CPU 0 runs ./micro_traces/srv192.trace.gz
.gz
ITLB has LRU replacement policy
DTLB has LRU replacement policy
STLB has LRU replacement policy
FDIP Prefetcher at L1I
L1I has LRU replacement policy
L1D has LRU replacement policy
Initialize SRRIP state for L2C
Initialize DRRIP state for LLC
Heartbeat_Variant_0 : 1331 0.324951 per_variant_size: 0 1331 0 0 0 0 0 0 0 
Heartbeat_Variant_1 : 1231 0.300537 per_variant_size: 0 623 608 0 0 0 0 0 0 
Heartbeat_Variant_2 : 1300 0.317383 per_variant_size: 0 541 335 220 204 0 0 0 0 
Heartbeat_Variant_3 : 0 0 per_variant_size: 0 0 0 0 0 0 0 0 0 
Heartbeat_Variant_0_evicts 0 : 5839 1 : 285 2 : 291 3 : 0 
Heartbeat_Variant_1_evicts 0 : 262 1 : 0 2 : 423 3 : 0 
Heartbeat_Variant_2_evicts 0 : 270 1 : 432 2 : 0 3 : 0 
Heartbeat_Variant_3_evicts 0 : 0 1 : 0 2 : 0 3 : 0 
Heartbeat CPU 0 instructions: 10000000 cycles: 2797783 heartbeat IPC: 3.57426 cumulative IPC: 3.57426 (Simulation time: 0 hr 2 min 17 sec) 
Heartbeat_Variant_0 : 1355 0.330811 per_variant_size: 0 1355 0 0 0 0 0 0 0 
Heartbeat_Variant_1 : 1246 0.304199 per_variant_size: 0 602 644 0 0 0 0 0 0 
Heartbeat_Variant_2 : 1319 0.322021 per_variant_size: 0 530 340 235 214 0 0 0 0 
Heartbeat_Variant_3 : 0 0 per_variant_size: 0 0 0 0 0 0 0 0 0 
Heartbeat_Variant_0_evicts 0 : 5763 1 : 73 2 : 89 3 : 0 
Heartbeat_Variant_1_evicts 0 : 72 1 : 0 2 : 282 3 : 0 
Heartbeat_Variant_2_evicts 0 : 86 1 : 281 2 : 0 3 : 0 
Heartbeat_Variant_3_evicts 0 : 0 1 : 0 2 : 0 3 : 0 
Heartbeat CPU 0 instructions: 20000001 cycles: 5594061 heartbeat IPC: 3.57618 cumulative IPC: 3.57522 (Simulation time: 0 hr 3 min 59 sec) 
Heartbeat_Variant_0 : 1357 0.331299 per_variant_size: 0 1357 0 0 0 0 0 0 0 
Heartbeat_Variant_1 : 1255 0.306396 per_variant_size: 0 608 647 0 0 0 0 0 0 
Heartbeat_Variant_2 : 1331 0.324951 per_variant_size: 0 541 338 237 215 0 0 0 0 
Heartbeat_Variant_3 : 0 0 per_variant_size: 0 0 0 0 0 0 0 0 0 
Heartbeat_Variant_0_evicts 0 : 5628 1 : 56 2 : 70 3 : 0 
Heartbeat_Variant_1_evicts 0 : 57 1 : 0 2 : 255 3 : 0 
Heartbeat_Variant_2_evicts 0 : 71 1 : 254 2 : 0 3 : 0 
Heartbeat_Variant_3_evicts 0 : 0 1 : 0 2 : 0 3 : 0 
Heartbeat CPU 0 instructions: 30000002 cycles: 8390180 heartbeat IPC: 3.57639 cumulative IPC: 3.57561 (Simulation time: 0 hr 5 min 39 sec) 
Heartbeat_Variant_0 : 1360 0.332031 per_variant_size: 0 1360 0 0 0 0 0 0 0 
Heartbeat_Variant_1 : 1268 0.30957 per_variant_size: 0 625 643 0 0 0 0 0 0 
Heartbeat_Variant_2 : 1331 0.324951 per_variant_size: 0 529 357 229 216 0 0 0 0 
Heartbeat_Variant_3 : 0 0 per_variant_size: 0 0 0 0 0 0 0 0 0 
Heartbeat_Variant_0_evicts 0 : 5494 1 : 60 2 : 56 3 : 0 
Heartbeat_Variant_1_evicts 0 : 69 1 : 0 2 : 245 3 : 0 
Heartbeat_Variant_2_evicts 0 : 49 1 : 245 2 : 0 3 : 0 
Heartbeat_Variant_3_evicts 0 : 0 1 : 0 2 : 0 3 : 0 
Heartbeat CPU 0 instructions: 40000001 cycles: 11186624 heartbeat IPC: 3.57597 cumulative IPC: 3.5757 (Simulation time: 0 hr 7 min 18 sec) 
Heartbeat_Variant_0 : 1362 0.33252 per_variant_size: 0 1362 0 0 0 0 0 0 0 
Heartbeat_Variant_1 : 1268 0.30957 per_variant_size: 0 617 651 0 0 0 0 0 0 
Heartbeat_Variant_2 : 1332 0.325195 per_variant_size: 0 527 364 230 211 0 0 0 0 
Heartbeat_Variant_3 : 0 0 per_variant_size: 0 0 0 0 0 0 0 0 0 
Heartbeat_Variant_0_evicts 0 : 5638 1 : 33 2 : 24 3 : 0 
Heartbeat_Variant_1_evicts 0 : 30 1 : 0 2 : 216 3 : 0 
Heartbeat_Variant_2_evicts 0 : 26 1 : 213 2 : 0 3 : 0 
Heartbeat_Variant_3_evicts 0 : 0 1 : 0 2 : 0 3 : 0 
Heartbeat CPU 0 instructions: 50000002 cycles: 13982132 heartbeat IPC: 3.57717 cumulative IPC: 3.57599 (Simulation time: 0 hr 8 min 58 sec) 

Warmup complete CPU 0 instructions: 50000002 cycles: 13982132 (Simulation time: 0 hr 8 min 58 sec) 

Cycle: 20000000 FTQ IN: 57843414 FTQ occupancy: 18.7191 DECODE IN: 57843255 DECODE occupancy: 48.1525 ROB IN: 57843195 ROB occupancy: 295.067 ROB OUT: 57843138
Heartbeat_Variant_0 : 1383 0.337646 per_variant_size: 0 1383 0 0 0 0 0 0 0 
Heartbeat_Variant_1 : 1305 0.318604 per_variant_size: 0 575 730 0 0 0 0 0 0 
Heartbeat_Variant_2 : 1339 0.326904 per_variant_size: 0 493 350 267 229 0 0 0 0 
Heartbeat_Variant_3 : 0 0 per_variant_size: 0 0 0 0 0 0 0 0 0 
Heartbeat_Variant_0_evicts 0 : 5860 1 : 250 2 : 228 3 : 0 
Heartbeat_Variant_1_evicts 0 : 256 1 : 0 2 : 429 3 : 0 
Heartbeat_Variant_2_evicts 0 : 216 1 : 421 2 : 0 3 : 0 
Heartbeat_Variant_3_evicts 0 : 0 1 : 0 2 : 0 3 : 0 
Heartbeat CPU 0 instructions: 60000000 cycles: 21842273 heartbeat IPC: 1.27224 cumulative IPC: 1.27224 (Simulation time: 0 hr 10 min 31 sec) 
Heartbeat_Variant_0 : 1389 0.339111 per_variant_size: 0 1389 0 0 0 0 0 0 0 
Heartbeat_Variant_1 : 1300 0.317383 per_variant_size: 0 575 725 0 0 0 0 0 0 
Heartbeat_Variant_2 : 1348 0.329102 per_variant_size: 0 488 375 264 221 0 0 0 0 
Heartbeat_Variant_3 : 0 0 per_variant_size: 0 0 0 0 0 0 0 0 0 
Heartbeat_Variant_0_evicts 0 : 5509 1 : 95 2 : 92 3 : 0 
Heartbeat_Variant_1_evicts 0 : 83 1 : 0 2 : 282 3 : 0 
Heartbeat_Variant_2_evicts 0 : 98 1 : 277 2 : 0 3 : 0 
Heartbeat_Variant_3_evicts 0 : 0 1 : 0 2 : 0 3 : 0 
Heartbeat CPU 0 instructions: 70000002 cycles: 29464552 heartbeat IPC: 1.31194 cumulative IPC: 1.29179 (Simulation time: 0 hr 12 min 3 sec) 
Cycle: 30000000 FTQ IN: 12865889 FTQ occupancy: 8.24543 DECODE IN: 12865904 DECODE occupancy: 19.1971 ROB IN: 12865904 ROB occupancy: 164.338 ROB OUT: 12865640
Heartbeat_Variant_0 : 1386 0.338379 per_variant_size: 0 1386 0 0 0 0 0 0 0 
Heartbeat_Variant_1 : 1315 0.321045 per_variant_size: 0 583 732 0 0 0 0 0 0 
Heartbeat_Variant_2 : 1349 0.329346 per_variant_size: 0 484 385 257 223 0 0 0 0 
Heartbeat_Variant_3 : 0 0 per_variant_size: 0 0 0 0 0 0 0 0 0 
Heartbeat_Variant_0_evicts 0 : 5829 1 : 146 2 : 137 3 : 0 
Heartbeat_Variant_1_evicts 0 : 135 1 : 0 2 : 344 3 : 0 
Heartbeat_Variant_2_evicts 0 : 152 1 : 325 2 : 0 3 : 0 
Heartbeat_Variant_3_evicts 0 : 0 1 : 0 2 : 0 3 : 0 
Heartbeat CPU 0 instructions: 80000001 cycles: 37069504 heartbeat IPC: 1.31493 cumulative IPC: 1.29941 (Simulation time: 0 hr 13 min 35 sec) 
Cycle: 40000000 FTQ IN: 13025622 FTQ occupancy: 8.62531 DECODE IN: 13025754 DECODE occupancy: 20.1155 ROB IN: 13025814 ROB occupancy: 168.145 ROB OUT: 13025818
Heartbeat_Variant_0 : 1392 0.339844 per_variant_size: 0 1392 0 0 0 0 0 0 0 
Heartbeat_Variant_1 : 1306 0.318848 per_variant_size: 0 573 733 0 0 0 0 0 0 
Heartbeat_Variant_2 : 1354 0.330566 per_variant_size: 0 482 394 250 228 0 0 0 0 
Heartbeat_Variant_3 : 0 0 per_variant_size: 0 0 0 0 0 0 0 0 0 
Heartbeat_Variant_0_evicts 0 : 5643 1 : 62 2 : 67 3 : 0 
Heartbeat_Variant_1_evicts 0 : 68 1 : 0 2 : 236 3 : 0 
Heartbeat_Variant_2_evicts 0 : 56 1 : 251 2 : 0 3 : 0 
Heartbeat_Variant_3_evicts 0 : 0 1 : 0 2 : 0 3 : 0 
Heartbeat CPU 0 instructions: 90000002 cycles: 44742414 heartbeat IPC: 1.30329 cumulative IPC: 1.30038 (Simulation time: 0 hr 15 min 9 sec) 
Cycle: 50000000 FTQ IN: 13229876 FTQ occupancy: 8.66051 DECODE IN: 13229837 DECODE occupancy: 20.5951 ROB IN: 13229837 ROB occupancy: 172.374 ROB OUT: 13229945
Heartbeat_Variant_0 : 1399 0.341553 per_variant_size: 0 1399 0 0 0 0 0 0 0 
Heartbeat_Variant_1 : 1294 0.315918 per_variant_size: 0 566 728 0 0 0 0 0 0 
Heartbeat_Variant_2 : 1361 0.332275 per_variant_size: 0 490 394 253 224 0 0 0 0 
Heartbeat_Variant_3 : 0 0 per_variant_size: 0 0 0 0 0 0 0 0 0 
Heartbeat_Variant_0_evicts 0 : 5687 1 : 44 2 : 47 3 : 0 
Heartbeat_Variant_1_evicts 0 : 41 1 : 0 2 : 243 3 : 0 
Heartbeat_Variant_2_evicts 0 : 43 1 : 253 2 : 0 3 : 0 
Heartbeat_Variant_3_evicts 0 : 0 1 : 0 2 : 0 3 : 0 
Heartbeat CPU 0 instructions: 100000001 cycles: 52318931 heartbeat IPC: 1.31987 cumulative IPC: 1.30423 (Simulation time: 0 hr 16 min 43 sec) 
Finished CPU 0 instructions: 50000003 cycles: 38336800 cumulative IPC: 1.30423 (Simulation time: 0 hr 16 min 43 sec) 

ChampSim completed all CPUs

Region of Interest Statistics

CPU 0 cumulative IPC: 1.30423 instructions: 50000003 cycles: 38336800
 Fetch stage stalled: 64.9782  Sim cycles: 38336800 fetch stall cycle: 24910554
 Empty decode stage: 63.4264  Sim cycles: 38336800 fetch stall cycle: 24315665
ITLB TOTAL     ACCESS:    5880689  HIT:    5384959  MISS:     495730  HIT %:    91.5702  MISS %:    8.42979   MPKI: 9.9146
ITLB LOAD TRANSLATION INSTRUCTION	ACCESS:    5768074  HIT:    5272344  MISS:     495730  HIT %:    91.4056  MISS %:    8.59438  MPKI: 9.9146
ITLB TRANSLATION FROM L1D PREFETCHER INSTRUCTION	ACCESS:     112615  HIT:     112615  MISS:          0  HIT %:        100  MISS %:          0  MPKI: 0

ITLB AVERAGE MISS LATENCY: 9.0656 cycles
ITLB RQ	ACCESS:    7998192	FORWARD:          0	MERGED:    1706874	TO_CACHE:    6291318

DTLB TOTAL     ACCESS:    9113524  HIT:    8643819  MISS:     469705  HIT %:    94.8461  MISS %:    5.15393   MPKI: 9.3941
DTLB LOAD TRANSLATION DATA	ACCESS:    9113524  HIT:    8643819  MISS:     469705  HIT %:    94.8461  MISS %:    5.15393  MPKI: 9.3941

DTLB AVERAGE MISS LATENCY: 9.35265 cycles
DTLB RQ	ACCESS:   13460230	FORWARD:          0	MERGED:    4310304	TO_CACHE:    9149926

STLB TOTAL     ACCESS:    1213197  HIT:    1211124  MISS:       2073  HIT %:    99.8291  MISS %:   0.170871   MPKI: 0.04146
STLB LOAD TRANSLATION INSTRUCTION	ACCESS:     495730  HIT:     495472  MISS:        258  HIT %:     99.948  MISS %:  0.0520445  MPKI: 0.00516
STLB LOAD TRANSLATION DATA	ACCESS:     469668  HIT:     467886  MISS:       1782  HIT %:    99.6206  MISS %:   0.379417  MPKI: 0.03564
STLB TRANSLATION FROM L1D PREFETCHER DATA	ACCESS:     247799  HIT:     247766  MISS:         33  HIT %:    99.9867  MISS %:  0.0133172  MPKI: 0.00066

STLB AVERAGE MISS LATENCY: 79.6223 cycles
STLB RQ	ACCESS:    1332521	FORWARD:          0	MERGED:     119279	TO_CACHE:    1213242

STLB Hit, L1D data hit: 0
STLB Hit, L2C data hit: 0
STLB Hit, LLC data hit: 0
STLB Hit, LLC data miss: 0
STLB STLB hints to L2: 0
L1D TOTAL     ACCESS:   13208694  HIT:   12088058  MISS:    1120636  HIT %:    91.5159  MISS %:    8.48408   MPKI: 22.4127
L1D LOAD DATA	ACCESS:    6666622  HIT:    5926094  MISS:     740528  HIT %:     88.892  MISS %:     11.108  MPKI: 14.8106
L1D RFO DATA	ACCESS:    6216112  HIT:    5929940  MISS:     286172  HIT %:    95.3963  MISS %:    4.60371  MPKI: 5.72344
L1D PREFETCH DATA	ACCESS:     325960  HIT:     232024  MISS:      93936  HIT %:    71.1817  MISS %:    28.8183  MPKI: 1.87872

L1D PREFETCH  REQUESTED:     734522  ISSUED:     734522  USEFUL:      34253  USELESS:      68176
L1D USEFUL LOAD PREFETCHES:      34253 PREFETCH ISSUED TO LOWER LEVEL:     102487  ACCURACY: 33.4218
 TIMELY PREFETCHES:      34253 LATE PREFETCHES: 8492 DROPPED PREFETCHES: 9
L1D AVERAGE MISS LATENCY: 247807 cycles
L1D RQ	ACCESS:   10757671	FORWARD:          0	MERGED:    3896433	TO_CACHE:    6699887
L1D WQ	ACCESS:    6949231	FORWARD:     161701	MERGED:     188888	TO_CACHE:    6760343
L1D PQ	ACCESS:     367436	FORWARD:          0	MERGED:          0	TO_CACHE:     367086

L1D UNIQUE REGIONS ACCESSED: 0
L1D REGIONS CONFLICTS: 0
L1D Cross Page Prefetch Requests: 6809
L1D Same Page Prefetch Requests: 744961
L1D ROI Sum of L1D PQ occupancy: 4674399
L1D PREFETCHES PUSHED FROM L2C: 0
L1I TOTAL     ACCESS:    7246366  HIT:    4478032  MISS:    2768334  HIT %:    61.7969  MISS %:    38.2031   MPKI: 55.3667
L1I LOAD INSTRUCTION	ACCESS:    6611787  HIT:    3843453  MISS:    2768334  HIT %:    58.1303  MISS %:    41.8697  MPKI: 55.3667
L1I PREFETCH INSTRUCTION	ACCESS:     634579  HIT:     634579  MISS:          0  HIT %:        100  MISS %:          0  MPKI: 0

L1I PREFETCH  REQUESTED:    1523623  ISSUED:    1523623  USEFUL:          0  USELESS:          0
L1I USEFUL LOAD PREFETCHES:          0 PREFETCH ISSUED TO LOWER LEVEL:          0  ACCURACY: -nan
 TIMELY PREFETCHES:          0 LATE PREFETCHES: 0 DROPPED PREFETCHES: 0
L1I AVERAGE MISS LATENCY: 17.5171 cycles
L1I RQ	ACCESS:    9435584	FORWARD:          0	MERGED:    2540148	TO_CACHE:    6895436
L1I PQ	ACCESS:    1523623	FORWARD:          0	MERGED:     420867	TO_CACHE:    1102756

L1BTB TOTAL     ACCESS:    5669873  HIT:    2035135  MISS:    3634738  HIT %:    35.8938  MISS %:    64.1062   MPKI: 72.6948
L1BTB BRANCH_DIRECT_JUMP	ACCESS:     548318  HIT:     144298  MISS:     404020	AVERAGE STALL: 37.39
L1BTB BRANCH_INDIRECT	ACCESS:     182415  HIT:      65644  MISS:     116771	AVERAGE STALL: 76.6036
L1BTB BRANCH_CONDITIONAL	ACCESS:    2700554  HIT:    1405924  MISS:    1294630	AVERAGE STALL: 47.862
L1BTB BRANCH_DIRECT_CALL	ACCESS:     946964  HIT:     106412  MISS:     840552	AVERAGE STALL: 52.5002
L1BTB BRANCH_INDIRECT_CALL	ACCESS:     172330  HIT:      21724  MISS:     150606	AVERAGE STALL: 101.946
L1BTB BRANCH_RETURN	ACCESS:    1119292  HIT:     291133  MISS:     828159	AVERAGE STALL: 39.5618
L1BTB BRANCH_OTHER ACCESS:          0  HIT:          0  MISS:          0	AVERAGE STALL: -nan
L1BTB TOTAL ROB OCCUPANCY AT BTB MISS: 1.88794

L2BTB TOTAL     ACCESS:    3609395  HIT:    3539820  MISS:      69575  HIT %:    98.0724  MISS %:    1.92761   MPKI: 1.3915
L2BTB BRANCH_DIRECT_JUMP	ACCESS:     399908  HIT:     394988  MISS:       4920	AVERAGE STALL: 37.39
L2BTB BRANCH_INDIRECT	ACCESS:     106437  HIT:     103736  MISS:       2701	AVERAGE STALL: 76.6036
L2BTB BRANCH_CONDITIONAL	ACCESS:    1294630  HIT:    1288846  MISS:       5784	AVERAGE STALL: 47.862
L2BTB BRANCH_DIRECT_CALL	ACCESS:     840552  HIT:     837974  MISS:       2578	AVERAGE STALL: 52.5002
L2BTB BRANCH_INDIRECT_CALL	ACCESS:     141123  HIT:     130904  MISS:      10219	AVERAGE STALL: 101.946
L2BTB BRANCH_RETURN	ACCESS:     826745  HIT:     783372  MISS:      43373	AVERAGE STALL: 39.5618
L2BTB BRANCH_OTHER ACCESS:          0  HIT:          0  MISS:          0	AVERAGE STALL: -nan
L2BTB TOTAL ROB OCCUPANCY AT BTB MISS: 98.6296

L2C TOTAL     ACCESS:    4498218  HIT:    3976897  MISS:     521321  HIT %:    88.4105  MISS %:    11.5895   MPKI: 10.4264
L2C LOAD INSTRUCTION	ACCESS:    2768335  HIT:    2476654  MISS:     291681  HIT %:    89.4637  MISS %:    10.5363  MPKI: 5.83362
L2C LOAD TRANSLATION INSTRUCTION	ACCESS:        294  HIT:         78  MISS:        216  HIT %:    26.5306  MISS %:    73.4694  MPKI: 0.00432
L2C LOAD DATA	ACCESS:     732019  HIT:     655602  MISS:      76417  HIT %:    89.5608  MISS %:    10.4392  MPKI: 1.52834
L2C RFO DATA	ACCESS:     286082  HIT:     226308  MISS:      59774  HIT %:     79.106  MISS %:     20.894  MPKI: 1.19548
L2C PREFETCH DATA	ACCESS:     186667  HIT:     115092  MISS:      71575  HIT %:    61.6563  MISS %:    38.3437  MPKI: 1.4315
L2C WRITEBACK DATA	ACCESS:     522909  HIT:     502615  MISS:      20294  HIT %:     96.119  MISS %:    3.88098  MPKI: 0.40588
L2C LOAD TRANSLATION DATA	ACCESS:       1855  HIT:        505  MISS:       1350  HIT %:    27.2237  MISS %:    72.7763  MPKI: 0.027
L2C TRANSLATION FROM L1D PREFETCHER DATA	ACCESS:         57  HIT:         43  MISS:         14  HIT %:    75.4386  MISS %:    24.5614  MPKI: 0.00028

L2C PREFETCH  REQUESTED:      91302  ISSUED:      91302  USEFUL:       7358  USELESS:      64528
L2C USEFUL LOAD PREFETCHES:       7358 PREFETCH ISSUED TO LOWER LEVEL:      71905  ACCURACY: 10.2329
 TIMELY PREFETCHES:       7358 LATE PREFETCHES: 330 DROPPED PREFETCHES: 0
L2C AVERAGE MISS LATENCY: 37.4793 cycles
L2C RQ	ACCESS:    3788691	FORWARD:          0	MERGED:          0	TO_CACHE:    3788643
L2C WQ	ACCESS:     522909	FORWARD:         48	MERGED:          0	TO_CACHE:     522909
L2C PQ	ACCESS:     193789	FORWARD:          0	MERGED:       3135	TO_CACHE:     190654

L2C Dense regions hint from L2: 0
PSCL5 TOTAL     ACCESS:       4172  HIT:       2086  MISS:       2086  HIT %:         50  MISS %:         50   MPKI: 0.04172
PSCL5 LOAD TRANSLATION INSTRUCTION	ACCESS:       4058  HIT:       2029  MISS:       2029  HIT %:         50  MISS %:         50  MPKI: 0.04058
PSCL5 TRANSLATION FROM L1D PREFETCHER INSTRUCTION	ACCESS:        114  HIT:         57  MISS:         57  HIT %:         50  MISS %:         50  MPKI: 0.00114


PSCL4 TOTAL     ACCESS:       3854  HIT:       1924  MISS:       1930  HIT %:    49.9222  MISS %:    50.0778   MPKI: 0.0386
PSCL4 LOAD TRANSLATION INSTRUCTION	ACCESS:       2854  HIT:       1872  MISS:        982  HIT %:    65.5922  MISS %:    34.4078  MPKI: 0.01964
PSCL4 TRANSLATION FROM L1D PREFETCHER INSTRUCTION	ACCESS:         81  HIT:         52  MISS:         29  HIT %:    64.1975  MISS %:    35.8025  MPKI: 0.00058
PSCL4 LOAD TRANSLATION DATA	ACCESS:        896  HIT:          0  MISS:        896  HIT %:          0  MISS %:        100  MPKI: 0.01792
PSCL4 TRANSLATION FROM L1D PREFETCHER DATA	ACCESS:         23  HIT:          0  MISS:         23  HIT %:          0  MISS %:        100  MPKI: 0.00046


PSCL3 TOTAL     ACCESS:       3902  HIT:       1948  MISS:       1954  HIT %:    49.9231  MISS %:    50.0769   MPKI: 0.03908
PSCL3 LOAD TRANSLATION INSTRUCTION	ACCESS:       2878  HIT:       1896  MISS:        982  HIT %:    65.8791  MISS %:    34.1209  MPKI: 0.01964
PSCL3 TRANSLATION FROM L1D PREFETCHER INSTRUCTION	ACCESS:         81  HIT:         52  MISS:         29  HIT %:    64.1975  MISS %:    35.8025  MPKI: 0.00058
PSCL3 LOAD TRANSLATION DATA	ACCESS:        920  HIT:          0  MISS:        920  HIT %:          0  MISS %:        100  MPKI: 0.0184
PSCL3 TRANSLATION FROM L1D PREFETCHER DATA	ACCESS:         23  HIT:          0  MISS:         23  HIT %:          0  MISS %:        100  MPKI: 0.00046


PSCL2 TOTAL     ACCESS:       4059  HIT:       1973  MISS:       2086  HIT %:     48.608  MISS %:     51.392   MPKI: 0.04172
PSCL2 LOAD TRANSLATION INSTRUCTION	ACCESS:       2179  HIT:       1916  MISS:        263  HIT %:    87.9302  MISS %:    12.0698  MPKI: 0.00526
PSCL2 TRANSLATION FROM L1D PREFETCHER INSTRUCTION	ACCESS:         57  HIT:         57  MISS:          0  HIT %:        100  MISS %:          0  MPKI: 0
PSCL2 LOAD TRANSLATION DATA	ACCESS:       1766  HIT:          0  MISS:       1766  HIT %:          0  MISS %:        100  MPKI: 0.03532
PSCL2 TRANSLATION FROM L1D PREFETCHER DATA	ACCESS:         57  HIT:          0  MISS:         57  HIT %:          0  MISS %:        100  MPKI: 0.00114


LLC TOTAL     ACCESS:     583448  HIT:     554597  MISS:      28851  HIT %:    95.0551  MISS %:    4.94491   MPKI: 0.57702
LLC LOAD INSTRUCTION	ACCESS:     291681  HIT:     290386  MISS:       1295  HIT %:     99.556  MISS %:   0.443978  MPKI: 0.0259
LLC LOAD TRANSLATION INSTRUCTION	ACCESS:        216  HIT:        168  MISS:         48  HIT %:    77.7778  MISS %:    22.2222  MPKI: 0.00096
LLC LOAD DATA	ACCESS:      76093  HIT:      72512  MISS:       3581  HIT %:    95.2939  MISS %:    4.70608  MPKI: 0.07162
LLC RFO DATA	ACCESS:      59766  HIT:      46111  MISS:      13655  HIT %:    77.1526  MISS %:    22.8474  MPKI: 0.2731
LLC PREFETCH DATA	ACCESS:      71905  HIT:      62087  MISS:       9818  HIT %:    86.3459  MISS %:    13.6541  MPKI: 0.19636
LLC WRITEBACK DATA	ACCESS:      82423  HIT:      82077  MISS:        346  HIT %:    99.5802  MISS %:   0.419786  MPKI: 0.00692
LLC LOAD TRANSLATION DATA	ACCESS:       1350  HIT:       1242  MISS:        108  HIT %:         92  MISS %:          8  MPKI: 0.00216
LLC TRANSLATION FROM L1D PREFETCHER DATA	ACCESS:         14  HIT:         14  MISS:          0  HIT %:        100  MISS %:          0  MPKI: 0

LLC AVERAGE MISS LATENCY: 154.911 cycles
LLC RQ	ACCESS:     429122	FORWARD:          0	MERGED:          0	TO_CACHE:     429120
LLC WQ	ACCESS:      82423	FORWARD:          2	MERGED:          0	TO_CACHE:      82423
LLC PQ	ACCESS:      71905	FORWARD:          0	MERGED:          0	TO_CACHE:      71905

LLC Dense regions hint to LLC: 0

RAW hits: 1874012
Loads Generated: 12631682
Loads sent to L1D: 10757671
Stores Generated: 6949229
Stores sent to L1D: 6949231
Major fault: 0 Minor fault: 2596
Allocated PAGES: 2596

stream: 
stream:times selected: 1180973
stream:pref_filled: 121483
stream:pref_useful: 24240
stream:pref_late: 7132
stream:misses: 7885
stream:misses_by_poll: 0

CS: 
CS:times selected: 178579
CS:pref_filled: 59236
CS:pref_useful: 35880
CS:pref_late: 6878
CS:misses: 16003
CS:misses_by_poll: 4

CPLX: 
CPLX:times selected: 1001247
CPLX:pref_filled: 19858
CPLX:pref_useful: 4587
CPLX:pref_late: 3292
CPLX:misses: 94745
CPLX:misses_by_poll: 0

NL_L1: 
NL:times selected: 21483
NL:pref_filled: 697
NL:pref_useful: 318
NL:pref_late: 339
NL:misses: 1717
NL:misses_by_poll: 0

total selections: 2382282
total_filled: 93936
total_useful: 34253
total_late: 19247
total_polluted: 4
total_misses_after_warmup: 773796
conflicts: 5578061

test: 113992

DRAM Statistics
 CHANNEL 0
 RQ ROW_BUFFER_HIT:      10674  ROW_BUFFER_MISS:      17826
 DBUS_CONGESTED:          2
 WQ ROW_BUFFER_HIT:       1407  ROW_BUFFER_MISS:      11800  FULL:          0

 AVG_CONGESTED_CYCLE: 8

CPU 0 Branch Prediction Accuracy: 99.8107% MPKI: 0.3463 Average ROB Occupancy at Mispredict: 142.346
Branch types
NOT_BRANCH: 40850957 81.7019%
BRANCH_DIRECT_JUMP: 548318 1.09664%
BRANCH_INDIRECT: 182415 0.36483%
BRANCH_CONDITIONAL: 6179570 12.3591%
BRANCH_DIRECT_CALL: 946964 1.89393%
BRANCH_INDIRECT_CALL: 172330 0.34466%
BRANCH_RETURN: 1119292 2.23858%
BRANCH_OTHER: 0 0%

DRAM PAGES: 1048576
Allocated PAGES: 2596
Average_ROB_Occupancy: 169.792
Average_Decode_Occupancy: 20.0182
Average_FTQ_Occupancy: 8.54189
Indirect max targets: 14 Average targets: 1.17949
Branch_type:  BRANCH_DIRECT_JUMP:  Count Percentage: 3.23342 6.23305 3.41641 5.78579 4.6884 5.96085 0.92626 69.7558 
Branch_type:  BRANCH_INDIRECT:  Count Percentage: 11.7558 3.40708 2.50286 9.68463 11.3361 4.01629 2.01527 55.282 
Branch_type:  BRANCH_CONDITIONAL:  Count Percentage: 20.964 3.81135 1.17721 4.19443 3.2944 4.35091 0.695034 61.5127 
Branch_type:  BRANCH_DIRECT_CALL:  Count Percentage: 0.769625 1.27911 1.11834 3.35524 3.18152 2.3497 0.6995 87.247 
Branch_type:  BRANCH_INDIRECT_CALL:  Count Percentage: 9.55496 0.559713 2.9957 4.83883 1.09791 2.98989 0.995563 76.9674 
Branch_type:  BRANCH_RETURN:  Count Percentage: 5.64003 0.829495 1.62737 6.04178 3.84412 4.62106 1.13061 76.2655 
Branch_type:  BRANCH_DIRECT_JUMP:  Total Count: 35446 68329 37452 63426 51396 65345 10154 764689 
Branch_type:  BRANCH_INDIRECT:  Total Count: 42916 12438 9137 35355 41384 14662 7357 201814 
Branch_type:  BRANCH_CONDITIONAL:  Total Count: 2590387 470945 145461 518280 407068 537615 85881 7600738 
Branch_type:  BRANCH_DIRECT_CALL:  Total Count: 14553 24187 21147 63445 60160 44431 13227 1649771 
Branch_type:  BRANCH_INDIRECT_CALL:  Total Count: 32862 1925 10303 16642 3776 10283 3424 264711 
Branch_type:  BRANCH_RETURN:  Total Count: 126094 18545 36383 135076 85943 103313 25277 1705067 
Number of unique branch instructions: 10649
Upper 32 bits: 
aaaa
ffff
ffff0000
Unique upper 32 bits: 3
Unique upper 36 bits: 3
Unique upper 40 bits: 5
Unique upper 44 bits: 32
Unique upper 48 bits: 157
Variant_0 : 1399 0.341553
Variant_1 : 1294 0.315918
Variant_2 : 1361 0.332275
Variant_3 : 0 0
Offset_3 4410
Offset_4 251
Offset_5 474
Offset_6 534
Offset_7 629
Offset_8 564
Offset_9 513
Offset_10 418
Offset_11 353
Offset_12 322
Offset_13 232
Offset_14 245
Offset_15 194
Offset_16 227
Offset_17 164
Offset_18 149
Offset_19 251
Offset_20 140
Offset_21 235
Offset_22 410
Offset_23 241
Offset_24 341
Offset_25 117
Offset_47 92
decode_dispatch_called: 21495062 56.069
Dispatch_width: 0 11050450 51.4092 28.8247
Dispatch_width: 1 658026 3.06129 1.71643
Dispatch_width: 2 671685 3.12483 1.75206
Dispatch_width: 3 450574 2.09617 1.1753
Dispatch_width: 4 2524395 11.7441 6.58478
Dispatch_width: 5 290312 1.3506 0.757267
Dispatch_width: 6 5849620 27.2138 15.2585
Empty_decode_cycles: 16841738 43.931
ROB_full_cycles: 3785129 9.87336
Starvation_cycles_per_kilo_instr: 287.02
Starvation_cycles_per_kilo_instr_3: 258.873
Starvation_cycles_per_kilo_instr_0: 241.071
Branch_type_1  (3,1)  (4,7)  (5,38)  (6,73)  (7,123)  (8,147)  (9,137)  (10,111)  (11,79)  (12,55)  (13,11)  (14,2)  (15,3)  (16,4)  (18,1)  (19,5)  (20,2)  (21,1)  (22,3)  (23,2)  (24,10)  (25,12) 
Branch_type_2  (3,1)  (4,1)  (5,1)  (8,4)  (9,4)  (10,1)  (12,1)  (13,1)  (14,1)  (16,3)  (17,2)  (20,2)  (21,2)  (23,5)  (24,1)  (47,41) 
Branch_type_3  (3,4408)  (4,243)  (5,431)  (6,445)  (7,477)  (8,350)  (9,280)  (10,167)  (11,138)  (12,62)  (13,10) 
Branch_type_4  (6,3)  (7,8)  (8,25)  (9,53)  (10,66)  (11,70)  (12,113)  (13,98)  (14,111)  (15,92)  (16,99)  (17,76)  (18,65)  (19,122)  (20,71)  (21,124)  (22,216)  (23,136)  (24,197)  (25,101) 
Branch_type_5  (8,3)  (9,1)  (10,4)  (11,5)  (12,3)  (13,14)  (14,16)  (15,11)  (16,22)  (17,11)  (18,23)  (19,14)  (20,11)  (21,13)  (22,43)  (23,26)  (24,37) 
Branch_type_6  (5,4)  (6,13)  (7,21)  (8,35)  (9,38)  (10,69)  (11,61)  (12,88)  (13,98)  (14,115)  (15,88)  (16,99)  (17,75)  (18,60)  (19,110)  (20,54)  (21,95)  (22,148)  (23,72)  (24,96)  (25,4)  (47,51) 
Unique trigger count: 
Variant_0_evicts_0 : 0
Variant_0_evicts_1 : 0
Variant_0_evicts_2 : 0
Variant_0_evicts_3 : 0
Variant_1_evicts_0 : 0
Variant_1_evicts_1 : 0
Variant_1_evicts_2 : 0
Variant_1_evicts_3 : 0
Variant_2_evicts_0 : 0
Variant_2_evicts_1 : 0
Variant_2_evicts_2 : 0
Variant_2_evicts_3 : 0
Variant_3_evicts_0 : 0
Variant_3_evicts_1 : 0
Variant_3_evicts_2 : 0
Variant_3_evicts_3 : 0
BTB PER SET UNIQUE ADDR: 11 13 10 15 12 13 8 16 9 12 13 18 13 14 13 10 13 10 10 16 12 13 16 11 11 15 13 9 13 13 16 15 15 12 9 16 16 17 8 9 11 12 17 18 11 12 17 10 10 7 16 7 14 15 9 4 13 10 9 10 15 14 14 15 12 14 13 10 14 14 11 12 14 9 11 11 5 17 9 15 9 7 8 16 12 11 13 15 11 14 8 8 15 11 7 15 7 10 9 13 15 18 16 12 14 12 14 13 8 6 7 17 11 11 9 7 14 11 13 11 14 11 10 9 12 11 8 11 18 13 13 13 12 13 14 18 9 17 14 16 12 14 12 11 14 11 16 9 10 13 8 19 13 11 13 14 15 15 19 11 13 8 17 17 11 14 14 9 13 11 12 11 11 10 10 8 11 11 10 14 8 16 12 13 14 14 5 9 13 10 13 13 12 12 14 12 13 11 6 16 17 8 14 10 11 13 11 13 14 12 11 10 11 12 10 12 13 11 13 15 11 16 8 10 7 15 15 14 8 12 7 6 7 21 13 10 13 12 12 6 18 7 18 11 7 11 11 10 10 11 14 7 13 12 16 12 12 15 10 7 14 12 6 10 15 7 10 9 10 10 7 10 6 10 9 10 12 13 13 12 14 12 6 10 16 10 11 21 17 11 13 8 13 18 10 12 13 11 10 14 11 10 11 15 13 13 11 12 15 12 11 19 11 16 9 6 18 11 13 17 8 17 11 16 12 12 17 8 10 9 9 12 9 13 10 15 13 9 7 19 8 12 8 12 15 12 12 19 13 8 13 12 16 10 10 16 10 15 12 9 14 15 7 13 11 12 10 10 14 14 9 5 14 11 10 12 12 12 11 17 18 11 10 9 12 11 14 12 10 12 15 10 15 18 11 6 10 11 13 7 11 17 13 15 14 17 15 13 14 15 15 13 10 18 10 12 13 14 17 17 11 14 15 8 12 12 12 8 15 14 16 8 11 14 12 13 15 9 12 16 14 11 10 15 21 9 7 17 14 16 18 16 14 10 12 26 19 14 13 16 13 9 15 15 20 16 13 8 11 11 13 11 15 11 14 20 11 19 6 13 11 8 13 14 10 12 14 16 18 10 11 16 10 8 9 12 14 14 10 12 10 16 10 20 10 12 5 19 11 13 15 18 12 11 14 11 16 20 10 10 12 15 10 8 7 14 16 9 8 18 12 14 14 12 14 17 5 11 10 13 17 12 15 14 17 18 12 10 11 12 15 17 12 15 11 14 14 14 13 16 12 14 13 12 11 16 8 9 11 17 14 12 13 18 13 12 14 19 15 12 15 14 6 16 17 10 13 9 14 14 9 13 15 10 15 10 12 12 12 14 12 9 10 13 15 10 8 11 9 15 16 16 8 11 4 7 13 10 16 15 19 13 7 7 13 16 10 16 7 10 7 13 12 13 10 10 14 13 8 12 12 10 14 14 16 12 8 15 13 11 8 18 11 14 13 10 12 13 9 14 13 9 11 16 15 13 11 12 9 12 11 9 12 12 12 11 14 17 11 14 12 17 13 13 15 9 10 14 9 20 13 14 15 10 12 9 12 12 9 15 11 14 19 13 8 11 11 9 11 8 9 11 6 12 13 9 15 12 11 16 11 13 11 12 14 13 11 10 12 10 9 9 14 12 9 12 12 12 19 12 13 12 14 14 11 15 13 12 8 12 16 9 14 11 13 15 13 10 13 12 13 7 6 13 12 15 11 8 11 13 14 17 11 5 14 8 10 11 19 14 8 16 17 11 15 14 9 11 10 9 7 11 15 16 17 15 12 13 14 11 17 14 15 16 20 12 11 14 11 14 12 16 16 14 7 16 21 18 6 16 18 17 8 13 16 14 12 12 12 12 11 16 14 13 9 19 13 11 15 8 15 13 12 13 9 14 13 14 16 11 9 14 11 15 12 16 19 19 12 17 6 15 8 13 17 7 9 8 19 11 14 14 18 10 15 7 13 8 9 16 11 11 12 18 12 13 15 11 14 15 15 9 9 11 10 17 13 8 9 11 11 9 15 11 9 14 11 13 12 16 12 20 12 16 16 12 21 14 14 14 13 14 10 11 6 12 6 9 14 12 15 16 16 11 7 15 12 14 12 13 10 16 17 12 14 11 18 14 9 11 14 14 10 14 13 14 14 16 17 15 14 9 15 16 20 11 16 16 11 18 13 17 17 12 16 12 14 13 15 17 10 13 11 12 11 16 15 11 21 10 9 11 11 13 14 11 16 10 16 11 16 18 11 11 19 18 9 11 11 16 14 16 12 7 7 17 8 9 9 6 8 17 11 8 
BTB PER SET COUNT: 13 19 1946 26 13 21 13 178 874 17 26 228 20608 20 14 15 627 11 15 22 15 313 741 12 17 19 21 57 290 612 390 473 20 24 12 50 25 106 9 1053 11 15 28 34 1493 14 26 13 18 9 18 11 27 21 11 6 16 16 14 15 26 21 15 18 13 263 15 237 21 16 14 1167 23 14 14 19 7 21 11 18 978 7 9 282 19 57 18 20 13 24 9 814 306 26 9 26 489 11 11 16 25 27 24 208 2359 16 19 25 8 13 14 25 722 19 14 9 17 15 2097 1007 154 12 10 10 12 15 8 11 29 972 15 22 18 23 19 39 14 26 23 19 21 941 13 14 16 366 31 11 13 31 16 89 1069 15 21 34 668 18 477 15 19 181 29 23 20 981 29 9 18 218 12 17 19 10 17 11 14 11 16 27 11 235 20 16 19 46 6 11 18 1001 17 15 17 17 16 148 14 11 6 236 24 114 18 20 15 15 14 16 31 18 14 13 16 19 13 2979 17 15 2581 21 23 21 12 13 11 34 19 19 8 13 9 7 9 31 18 16 36 28 14 6 1122 7 25 12 8 715 14 13 19 12 16 7 23 16 26 15 19 395 16 11 129 14 7 16 19 7 10 10 792 10 9 13 8 17 17 16 15 17 14 29 21 27 12 10 25 15 11 32 23 14 25 9 20 26 15 12 928 13 10 660 14 15 13 21 16 22 19 15 21 718 13 22 16 20 1403 668 28 16 19 25 9 5165 22 23 15 18 152 12 13 13 17 20 11 30 11 27 15 14 7 33 11 1101 8 18 526 14 13 25 24 11 16 18 22 12 10 18 10 19 25 11 16 18 11 18 18 795 12 12 23 20 10 5 20 14 591 88 12 18 14 438 295 13 1002 12 17 13 374 19 10 16 16 12 23 32 11 24 12 11 15 10 13 27 13 21 23 24 25 693 22 18 273 14 11 24 11 12 20 51 19 21 17 25 26 10 17 16 21 8 27 18 23 8 13 27 481 24 19 49 20 23 187 11 37 28 1950 9 60 22 16 25 1079 27 23 12 187 33 29 17 16 32 34 15 22 662 25 23 208 13 14 13 18 22 19 13 22 37 14 34 11 15 12 11 14 17 851 13 19 25 30 12 14 34 7352 9 14 15 2103 18 12 17 14 19 11 163 16 18 6 21 14 17 36 152 329 11 18 18 17 32 23 13 14 18 12 381 9 22 161 12 8 35 14 58 20 12 18 26 7 980 11 439 20 13 23 28 21 31 16 11 14 1307 19 19 1002 35 15 21 20 20 17 20 17 23 18 16 272 29 151 12 12 36 22 17 19 25 2472 14 50 979 17 18 17 18 9 355 27 17 364 9 26 19 10 143 22 13 19 13 565 403 254 15 21 15 11 27 30 11 8 2433 11 24 28 373 10 12 4 13 245 13 22 23 23 20 9 968 15 19 15 21 7 11 8 21 12 16 13 13 18 967 10 13 16 16 17 15 22 93 8 25 22 12 11 49 15 17 2626 492 15 190 10 32 285 13 11 18 39 21 29 1007 1481 18 14 9 38 18 62 20 20 30 16 21 15 20 14 20 1159 11 12 20 359 22 16 19 17 15 2210 13 18 1082 11 21 16 35 1502 16 9 85 13 14 14 10 13 498 967 24 16 12 71 23 21 307 18 1015 14 1902 1888 18 13 17 13 14 9 10 18 123 10 1012 979 17 29 17 1028 14 18 41 15 16 19 17 9 18 1507 11 23 1963 1172 18 23 1316 16 15 15 8 8 17 19 19 14 14 15 13 77 25 13 8 18 11 12 131 28 20 1343 18 408 11 15 162 10 15 10 9 7 894 22 32 93 163 16 22 27 16 103 18 393 27 137 16 13 14 12 71 14 131 36 18 7 32 32 1634 7 26 21 28 9 20 274 17 16 13 12 18 18 34 18 18 14 1297 18 12 143 8 22 22 12 19 361 16 16 19 33 14736 154 1084 15 21 1485 23 394 28 13 21 8 18 8 21 24 7 9 8 32 43 21 36 21 10 17 7 17 8 9 23 20 12 145 21 931 1066 21 14 15 26 18 10 9 386 11 21 13 10 1990 12 18 14 17 975 11 21 17 16 14 317 26 702 22 20 41 402 30 180 21 22 21 988 492 11 8 302 9 13 19 16 17 21 216 17 10 2907 17 23 16 16 14 1251 25 12 17 17 110 27 14 11 24 36 1483 1652 15 20 44 25 24 27 384 10 593 19 27 12 904 20 14 41 57 1997 20 18 712 20 23 23 19 30 11 19 14 199 15 1366 20 495 48 13 15 13 17 23 25 12 22 1488 34 12 49 1507 19 11 30 32 16 14 18 1014 37 62 17 8 7 24 9 121 10 6 9 149 22 9 
To predecode: 0
Predecoding something: 0
Predecode request dropped: 0
sizeofblock_0 0
sizeofblock_1 34698
sizeofblock_2 34083
sizeofblock_3 50164
sizeofblock_4 21463
sizeofblock_5 0
sizeofblock_6 0
sizeofblock_7 0
sizeofblock_8 0
Variant_0 Correct: 1614880 Incorrect: 0 Accuracy: 1
Variant_1 Correct: 2093837 Incorrect: 0 Accuracy: 1
Variant_2 Correct: 3650201 Incorrect: 0 Accuracy: 1
Variant_3 Correct: 0 Incorrect: 0 Accuracy: -nan
