
*** ChampSim Multicore Out-of-Order Simulator ***

Warmup Instructions: 50000000
Simulation Instructions: 50000000
Number of CPUs: 1
LLC sets: 2048
LLC ways: 16
Off-chip DRAM Size: 4096 MB Channels: 1 Width: 64-bit Data Rate: 6400 MT/s
CPU 0 runs ./micro_traces/srv190.trace.gz
.gz
ITLB has LRU replacement policy
DTLB has LRU replacement policy
STLB has LRU replacement policy
FDIP Prefetcher at L1I
L1I has LRU replacement policy
L1D has LRU replacement policy
Initialize SRRIP state for L2C
Initialize DRRIP state for LLC
Heartbeat CPU 0 instructions: 10000000 cycles: 2797525 heartbeat IPC: 3.57459 cumulative IPC: 3.57459 (Simulation time: 0 hr 1 min 51 sec) 
Heartbeat CPU 0 instructions: 20000001 cycles: 5594225 heartbeat IPC: 3.57564 cumulative IPC: 3.57512 (Simulation time: 0 hr 3 min 29 sec) 
Heartbeat CPU 0 instructions: 30000001 cycles: 8389743 heartbeat IPC: 3.57715 cumulative IPC: 3.57579 (Simulation time: 0 hr 5 min 8 sec) 
Heartbeat CPU 0 instructions: 40000000 cycles: 11185402 heartbeat IPC: 3.57697 cumulative IPC: 3.57609 (Simulation time: 0 hr 6 min 43 sec) 
Heartbeat CPU 0 instructions: 50000003 cycles: 13981939 heartbeat IPC: 3.57585 cumulative IPC: 3.57604 (Simulation time: 0 hr 8 min 17 sec) 

Warmup complete CPU 0 instructions: 50000003 cycles: 13981939 (Simulation time: 0 hr 8 min 17 sec) 

Cycle: 20000000 FTQ IN: 56999357 FTQ occupancy: 18.4053 DECODE IN: 56999313 DECODE occupancy: 47.2145 ROB IN: 56999253 ROB occupancy: 285.907 ROB OUT: 56998961
Heartbeat CPU 0 instructions: 60000000 cycles: 22510977 heartbeat IPC: 1.17246 cumulative IPC: 1.17246 (Simulation time: 0 hr 9 min 46 sec) 
Cycle: 30000000 FTQ IN: 11897364 FTQ occupancy: 7.60549 DECODE IN: 11897399 DECODE occupancy: 17.2744 ROB IN: 11897459 ROB occupancy: 141.179 ROB OUT: 11897682
Heartbeat CPU 0 instructions: 70000002 cycles: 30926641 heartbeat IPC: 1.18826 cumulative IPC: 1.18031 (Simulation time: 0 hr 11 min 9 sec) 
Heartbeat CPU 0 instructions: 80000001 cycles: 39473652 heartbeat IPC: 1.17 cumulative IPC: 1.17685 (Simulation time: 0 hr 12 min 34 sec) 
Cycle: 40000000 FTQ IN: 11735544 FTQ occupancy: 7.76131 DECODE IN: 11735482 DECODE occupancy: 17.5585 ROB IN: 11735482 ROB occupancy: 141.541 ROB OUT: 11735550
Heartbeat CPU 0 instructions: 90000003 cycles: 47879925 heartbeat IPC: 1.18959 cumulative IPC: 1.18001 (Simulation time: 0 hr 13 min 58 sec) 
Cycle: 50000000 FTQ IN: 11876212 FTQ occupancy: 7.69995 DECODE IN: 11876283 DECODE occupancy: 17.5405 ROB IN: 11876262 ROB occupancy: 142.075 ROB OUT: 11876061
Heartbeat CPU 0 instructions: 100000003 cycles: 56449076 heartbeat IPC: 1.16698 cumulative IPC: 1.17738 (Simulation time: 0 hr 15 min 24 sec) 
Finished CPU 0 instructions: 50000000 cycles: 42467137 cumulative IPC: 1.17738 (Simulation time: 0 hr 15 min 24 sec) 

ChampSim completed all CPUs

Region of Interest Statistics

CPU 0 cumulative IPC: 1.17738 instructions: 50000000 cycles: 42467137
 Fetch stage stalled: 68.3185  Sim cycles: 42467137 fetch stall cycle: 29012909
 Empty decode stage: 57.3158  Sim cycles: 42467137 fetch stall cycle: 24340389
ITLB TOTAL     ACCESS:    5652457  HIT:    5156918  MISS:     495539  HIT %:    91.2332  MISS %:    8.76679   MPKI: 9.91078
ITLB LOAD TRANSLATION INSTRUCTION	ACCESS:    5539992  HIT:    5044453  MISS:     495539  HIT %:    91.0552  MISS %:    8.94476  MPKI: 9.91078
ITLB TRANSLATION FROM L1D PREFETCHER INSTRUCTION	ACCESS:     112465  HIT:     112465  MISS:          0  HIT %:        100  MISS %:          0  MPKI: 0

ITLB AVERAGE MISS LATENCY: 9.05125 cycles
ITLB RQ	ACCESS:    7512993	FORWARD:          0	MERGED:    1372524	TO_CACHE:    6140469

DTLB TOTAL     ACCESS:    9251739  HIT:    8776215  MISS:     475524  HIT %:    94.8602  MISS %:    5.13983   MPKI: 9.51048
DTLB LOAD TRANSLATION DATA	ACCESS:    9251739  HIT:    8776215  MISS:     475524  HIT %:    94.8602  MISS %:    5.13983  MPKI: 9.51048

DTLB AVERAGE MISS LATENCY: 9.35978 cycles
DTLB RQ	ACCESS:   13558139	FORWARD:          0	MERGED:    4270790	TO_CACHE:    9287349

STLB TOTAL     ACCESS:    1221302  HIT:    1218857  MISS:       2445  HIT %:    99.7998  MISS %:   0.200196   MPKI: 0.0489
STLB LOAD TRANSLATION INSTRUCTION	ACCESS:     495539  HIT:     495223  MISS:        316  HIT %:    99.9362  MISS %:  0.0637689  MPKI: 0.00632
STLB LOAD TRANSLATION DATA	ACCESS:     475290  HIT:     473197  MISS:       2093  HIT %:    99.5596  MISS %:   0.440363  MPKI: 0.04186
STLB TRANSLATION FROM L1D PREFETCHER DATA	ACCESS:     250473  HIT:     250437  MISS:         36  HIT %:    99.9856  MISS %:  0.0143728  MPKI: 0.00072

STLB AVERAGE MISS LATENCY: 69.7223 cycles
STLB RQ	ACCESS:    1340573	FORWARD:          0	MERGED:     119230	TO_CACHE:    1221343

STLB Hit, L1D data hit: 0
STLB Hit, L2C data hit: 0
STLB Hit, LLC data hit: 0
STLB Hit, LLC data miss: 0
STLB STLB hints to L2: 0
L1D TOTAL     ACCESS:   13315015  HIT:   12190153  MISS:    1124862  HIT %:    91.5519  MISS %:    8.44807   MPKI: 22.4972
L1D LOAD DATA	ACCESS:    6750003  HIT:    6008243  MISS:     741760  HIT %:     89.011  MISS %:     10.989  MPKI: 14.8352
L1D RFO DATA	ACCESS:    6236881  HIT:    5949005  MISS:     287876  HIT %:    95.3843  MISS %:     4.6157  MPKI: 5.75752
L1D PREFETCH DATA	ACCESS:     328131  HIT:     232905  MISS:      95226  HIT %:    70.9793  MISS %:    29.0207  MPKI: 1.90452

L1D PREFETCH  REQUESTED:     739366  ISSUED:     739366  USEFUL:      35024  USELESS:      68927
L1D USEFUL LOAD PREFETCHES:      35024 PREFETCH ISSUED TO LOWER LEVEL:     104035  ACCURACY: 33.6656
 TIMELY PREFETCHES:      35024 LATE PREFETCHES: 8746 DROPPED PREFETCHES: 6
L1D AVERAGE MISS LATENCY: 276319 cycles
L1D RQ	ACCESS:   10842476	FORWARD:          0	MERGED:    3896626	TO_CACHE:    6781915
L1D WQ	ACCESS:    6952185	FORWARD:     164281	MERGED:     175961	TO_CACHE:    6776224
L1D PQ	ACCESS:     369856	FORWARD:          0	MERGED:          0	TO_CACHE:     369510

L1D UNIQUE REGIONS ACCESSED: 0
L1D REGIONS CONFLICTS: 0
L1D Cross Page Prefetch Requests: 7005
L1D Same Page Prefetch Requests: 742693
L1D ROI Sum of L1D PQ occupancy: 4702140
L1D PREFETCHES PUSHED FROM L2C: 0
L1I TOTAL     ACCESS:    6978860  HIT:    4207812  MISS:    2771048  HIT %:    60.2937  MISS %:    39.7063   MPKI: 55.421
L1I LOAD INSTRUCTION	ACCESS:    6455305  HIT:    3684257  MISS:    2771048  HIT %:    57.0733  MISS %:    42.9267  MPKI: 55.421
L1I PREFETCH INSTRUCTION	ACCESS:     523555  HIT:     523555  MISS:          0  HIT %:        100  MISS %:          0  MPKI: 0

L1I PREFETCH  REQUESTED:    1146877  ISSUED:    1146877  USEFUL:          0  USELESS:          0
L1I USEFUL LOAD PREFETCHES:          0 PREFETCH ISSUED TO LOWER LEVEL:          0  ACCURACY: -nan
 TIMELY PREFETCHES:          0 LATE PREFETCHES: 0 DROPPED PREFETCHES: 0
L1I AVERAGE MISS LATENCY: 17.3062 cycles
L1I RQ	ACCESS:    9472219	FORWARD:          0	MERGED:    2783047	TO_CACHE:    6689172
L1I PQ	ACCESS:    1146877	FORWARD:          0	MERGED:     323056	TO_CACHE:     823821

L1BTB TOTAL     ACCESS:    5669968  HIT:    2036668  MISS:    3633300  HIT %:    35.9203  MISS %:    64.0797   MPKI: 72.666
L1BTB BRANCH_DIRECT_JUMP	ACCESS:     547831 HIT:     143950 MISS:     403881 AVERAGE STALL: 36.5792 AVERAGE FETCH STALL: 18.4566 AVERAGE FETCH QUEUE STALL: 8.06427 AVERAGE DECODE STALL: 9.19055 AVERAGE EXECUTE STALL: 3.52024e+14
L1BTB BRANCH_INDIRECT	ACCESS:     182851 HIT:      65932 MISS:     116919 AVERAGE STALL: 88.9147 AVERAGE FETCH STALL: 14.6437 AVERAGE FETCH QUEUE STALL: 8.2285 AVERAGE DECODE STALL: 6.81084 AVERAGE EXECUTE STALL: 58.2792
L1BTB BRANCH_CONDITIONAL	ACCESS:    2706784 HIT:    1412551 MISS:    1294233 AVERAGE STALL: 38.1666 AVERAGE FETCH STALL: 21.5101 AVERAGE FETCH QUEUE STALL: 8.17626 AVERAGE DECODE STALL: 7.71909 AVERAGE EXECUTE STALL: 1.30276e+14
L1BTB BRANCH_DIRECT_CALL	ACCESS:     944853 HIT:     104596 MISS:     840257 AVERAGE STALL: 41.5808 AVERAGE FETCH STALL: 21.6173 AVERAGE FETCH QUEUE STALL: 10.1598 AVERAGE DECODE STALL: 9.02875 AVERAGE EXECUTE STALL: 1.60074e+14
L1BTB BRANCH_INDIRECT_CALL	ACCESS:     171393 HIT:      20829 MISS:     150564 AVERAGE STALL: 112.909 AVERAGE FETCH STALL: 16.451 AVERAGE FETCH QUEUE STALL: 8.41997 AVERAGE DECODE STALL: 7.62484 AVERAGE EXECUTE STALL: 79.8664
L1BTB BRANCH_RETURN	ACCESS:    1116256 HIT:     288810 MISS:     827446 AVERAGE STALL: 38.4787 AVERAGE FETCH STALL: 18.3576 AVERAGE FETCH QUEUE STALL: 7.04812 AVERAGE DECODE STALL: 6.35703 AVERAGE EXECUTE STALL: 1.81008e+14
L1BTB BRANCH_OTHER ACCESS:          0 HIT:          0 MISS:          0 AVERAGE STALL: -nan AVERAGE FETCH STALL: -nan AVERAGE FETCH QUEUE STALL: -nan AVERAGE DECODE STALL: -nan AVERAGE EXECUTE STALL: -nan
L1BTB TOTAL ROB OCCUPANCY AT BTB MISS: 13.7889

L2BTB TOTAL     ACCESS:    3607946  HIT:    3175152  MISS:     432794  HIT %:    88.0044  MISS %:    11.9956   MPKI: 8.65588
L2BTB BRANCH_DIRECT_JUMP	ACCESS:     399740 HIT:     351467 MISS:      48273 AVERAGE STALL: 36.5792 AVERAGE FETCH STALL: 18.4566 AVERAGE FETCH QUEUE STALL: 8.06427 AVERAGE DECODE STALL: 9.19055 AVERAGE EXECUTE STALL: 3.52024e+14
L2BTB BRANCH_INDIRECT	ACCESS:     106620 HIT:     101562 MISS:       5058 AVERAGE STALL: 88.9147 AVERAGE FETCH STALL: 14.6437 AVERAGE FETCH QUEUE STALL: 8.2285 AVERAGE DECODE STALL: 6.81084 AVERAGE EXECUTE STALL: 58.2792
L2BTB BRANCH_CONDITIONAL	ACCESS:    1294232 HIT:    1151826 MISS:     142406 AVERAGE STALL: 38.1666 AVERAGE FETCH STALL: 21.5101 AVERAGE FETCH QUEUE STALL: 8.17626 AVERAGE DECODE STALL: 7.71909 AVERAGE EXECUTE STALL: 1.30276e+14
L2BTB BRANCH_DIRECT_CALL	ACCESS:     840257 HIT:     724994 MISS:     115263 AVERAGE STALL: 41.5808 AVERAGE FETCH STALL: 21.6173 AVERAGE FETCH QUEUE STALL: 10.1598 AVERAGE DECODE STALL: 9.02875 AVERAGE EXECUTE STALL: 1.60074e+14
L2BTB BRANCH_INDIRECT_CALL	ACCESS:     141064 HIT:     119786 MISS:      21278 AVERAGE STALL: 112.909 AVERAGE FETCH STALL: 16.451 AVERAGE FETCH QUEUE STALL: 8.41997 AVERAGE DECODE STALL: 7.62484 AVERAGE EXECUTE STALL: 79.8664
L2BTB BRANCH_RETURN	ACCESS:     826033 HIT:     725517 MISS:     100516 AVERAGE STALL: 38.4787 AVERAGE FETCH STALL: 18.3576 AVERAGE FETCH QUEUE STALL: 7.04812 AVERAGE DECODE STALL: 6.35703 AVERAGE EXECUTE STALL: 1.81008e+14
L2BTB BRANCH_OTHER ACCESS:          0 HIT:          0 MISS:          0 AVERAGE STALL: -nan AVERAGE FETCH STALL: -nan AVERAGE FETCH QUEUE STALL: -nan AVERAGE DECODE STALL: -nan AVERAGE EXECUTE STALL: -nan
L2BTB TOTAL ROB OCCUPANCY AT BTB MISS: 115.757

L2C TOTAL     ACCESS:    4504785  HIT:    4017252  MISS:     487533  HIT %:    89.1774  MISS %:    10.8226   MPKI: 9.75066
L2C LOAD INSTRUCTION	ACCESS:    2771048  HIT:    2505861  MISS:     265187  HIT %:    90.4301  MISS %:    9.56992  MPKI: 5.30374
L2C LOAD TRANSLATION INSTRUCTION	ACCESS:        351  HIT:        101  MISS:        250  HIT %:    28.7749  MISS %:    71.2251  MPKI: 0.005
L2C LOAD DATA	ACCESS:     732972  HIT:     660846  MISS:      72126  HIT %:    90.1598  MISS %:    9.84021  MPKI: 1.44252
L2C RFO DATA	ACCESS:     287788  HIT:     231396  MISS:      56392  HIT %:     80.405  MISS %:     19.595  MPKI: 1.12784
L2C PREFETCH DATA	ACCESS:     185277  HIT:     107747  MISS:      77530  HIT %:    58.1545  MISS %:    41.8455  MPKI: 1.5506
L2C WRITEBACK DATA	ACCESS:     525125  HIT:     510631  MISS:      14494  HIT %:    97.2399  MISS %:     2.7601  MPKI: 0.28988
L2C LOAD TRANSLATION DATA	ACCESS:       2164  HIT:        630  MISS:       1534  HIT %:    29.1128  MISS %:    70.8872  MPKI: 0.03068
L2C TRANSLATION FROM L1D PREFETCHER DATA	ACCESS:         60  HIT:         40  MISS:         20  HIT %:    66.6667  MISS %:    33.3333  MPKI: 0.0004

L2C PREFETCH  REQUESTED:      88408  ISSUED:      88408  USEFUL:       8477  USELESS:      69514
L2C USEFUL LOAD PREFETCHES:       8477 PREFETCH ISSUED TO LOWER LEVEL:      77859  ACCURACY: 10.8876
 TIMELY PREFETCHES:       8477 LATE PREFETCHES: 328 DROPPED PREFETCHES: 0
L2C AVERAGE MISS LATENCY: 38.8491 cycles
L2C RQ	ACCESS:    3794451	FORWARD:          0	MERGED:          0	TO_CACHE:    3794383
L2C WQ	ACCESS:     525125	FORWARD:         68	MERGED:          0	TO_CACHE:     525125
L2C PQ	ACCESS:     192443	FORWARD:          0	MERGED:       3350	TO_CACHE:     189093

L2C Dense regions hint from L2: 0
PSCL5 TOTAL     ACCESS:       4906  HIT:       2453  MISS:       2453  HIT %:         50  MISS %:         50   MPKI: 0.04906
PSCL5 LOAD TRANSLATION INSTRUCTION	ACCESS:       4788  HIT:       2394  MISS:       2394  HIT %:         50  MISS %:         50  MPKI: 0.04788
PSCL5 TRANSLATION FROM L1D PREFETCHER INSTRUCTION	ACCESS:        118  HIT:         59  MISS:         59  HIT %:         50  MISS %:         50  MPKI: 0.00118


PSCL4 TOTAL     ACCESS:       4680  HIT:       2336  MISS:       2344  HIT %:    49.9145  MISS %:    50.0855   MPKI: 0.04688
PSCL4 LOAD TRANSLATION INSTRUCTION	ACCESS:       4087  HIT:       2289  MISS:       1798  HIT %:    56.0069  MISS %:    43.9931  MPKI: 0.03596
PSCL4 TRANSLATION FROM L1D PREFETCHER INSTRUCTION	ACCESS:         90  HIT:         47  MISS:         43  HIT %:    52.2222  MISS %:    47.7778  MPKI: 0.00086
PSCL4 LOAD TRANSLATION DATA	ACCESS:        499  HIT:          0  MISS:        499  HIT %:          0  MISS %:        100  MPKI: 0.00998
PSCL4 TRANSLATION FROM L1D PREFETCHER DATA	ACCESS:          4  HIT:          0  MISS:          4  HIT %:          0  MISS %:        100  MPKI: 8e-05


PSCL3 TOTAL     ACCESS:       4690  HIT:       2341  MISS:       2349  HIT %:    49.9147  MISS %:    50.0853   MPKI: 0.04698
PSCL3 LOAD TRANSLATION INSTRUCTION	ACCESS:       4092  HIT:       2294  MISS:       1798  HIT %:    56.0606  MISS %:    43.9394  MPKI: 0.03596
PSCL3 TRANSLATION FROM L1D PREFETCHER INSTRUCTION	ACCESS:         90  HIT:         47  MISS:         43  HIT %:    52.2222  MISS %:    47.7778  MPKI: 0.00086
PSCL3 LOAD TRANSLATION DATA	ACCESS:        504  HIT:          0  MISS:        504  HIT %:          0  MISS %:        100  MPKI: 0.01008
PSCL3 TRANSLATION FROM L1D PREFETCHER DATA	ACCESS:          4  HIT:          0  MISS:          4  HIT %:          0  MISS %:        100  MPKI: 8e-05


PSCL2 TOTAL     ACCESS:       4799  HIT:       2346  MISS:       2453  HIT %:    48.8852  MISS %:    51.1148   MPKI: 0.04906
PSCL2 LOAD TRANSLATION INSTRUCTION	ACCESS:       2602  HIT:       2288  MISS:        314  HIT %:    87.9324  MISS %:    12.0676  MPKI: 0.00628
PSCL2 TRANSLATION FROM L1D PREFETCHER INSTRUCTION	ACCESS:         58  HIT:         58  MISS:          0  HIT %:        100  MISS %:          0  MPKI: 0
PSCL2 LOAD TRANSLATION DATA	ACCESS:       2081  HIT:          0  MISS:       2081  HIT %:          0  MISS %:        100  MPKI: 0.04162
PSCL2 TRANSLATION FROM L1D PREFETCHER DATA	ACCESS:         58  HIT:          0  MISS:         58  HIT %:          0  MISS %:        100  MPKI: 0.00116


LLC TOTAL     ACCESS:     553165  HIT:     523199  MISS:      29966  HIT %:    94.5828  MISS %:    5.41719   MPKI: 0.59932
LLC LOAD INSTRUCTION	ACCESS:     265187  HIT:     264180  MISS:       1007  HIT %:    99.6203  MISS %:   0.379732  MPKI: 0.02014
LLC LOAD TRANSLATION INSTRUCTION	ACCESS:        250  HIT:        217  MISS:         33  HIT %:       86.8  MISS %:       13.2  MPKI: 0.00066
LLC LOAD DATA	ACCESS:      71798  HIT:      68446  MISS:       3352  HIT %:    95.3313  MISS %:    4.66865  MPKI: 0.06704
LLC RFO DATA	ACCESS:      56379  HIT:      41005  MISS:      15374  HIT %:     72.731  MISS %:     27.269  MPKI: 0.30748
LLC PREFETCH DATA	ACCESS:      77856  HIT:      68113  MISS:       9743  HIT %:    87.4859  MISS %:    12.5141  MPKI: 0.19486
LLC WRITEBACK DATA	ACCESS:      80141  HIT:      79777  MISS:        364  HIT %:    99.5458  MISS %:   0.454199  MPKI: 0.00728
LLC LOAD TRANSLATION DATA	ACCESS:       1534  HIT:       1441  MISS:         93  HIT %:    93.9374  MISS %:    6.06258  MPKI: 0.00186
LLC TRANSLATION FROM L1D PREFETCHER DATA	ACCESS:         20  HIT:         20  MISS:          0  HIT %:        100  MISS %:          0  MPKI: 0

LLC AVERAGE MISS LATENCY: 156.93 cycles
LLC RQ	ACCESS:     395181	FORWARD:          0	MERGED:          0	TO_CACHE:     395168
LLC WQ	ACCESS:      80141	FORWARD:         15	MERGED:          0	TO_CACHE:      80141
LLC PQ	ACCESS:      77859	FORWARD:          0	MERGED:          0	TO_CACHE:      77857

LLC Dense regions hint to LLC: 0

RAW hits: 1797192
Loads Generated: 12639668
Loads sent to L1D: 10842476
Stores Generated: 6952157
Stores sent to L1D: 6952185
Major fault: 0 Minor fault: 2538
Allocated PAGES: 2538

stream: 
stream:times selected: 1177501
stream:pref_filled: 123827
stream:pref_useful: 24394
stream:pref_late: 7118
stream:misses: 8007
stream:misses_by_poll: 0

CS: 
CS:times selected: 179035
CS:pref_filled: 59362
CS:pref_useful: 36352
CS:pref_late: 7528
CS:misses: 17200
CS:misses_by_poll: 2

CPLX: 
CPLX:times selected: 997373
CPLX:pref_filled: 19573
CPLX:pref_useful: 4648
CPLX:pref_late: 3174
CPLX:misses: 95758
CPLX:misses_by_poll: 1

NL_L1: 
NL:times selected: 20809
NL:pref_filled: 790
NL:pref_useful: 362
NL:pref_late: 302
NL:misses: 1870
NL:misses_by_poll: 0

total selections: 2374718
total_filled: 95226
total_useful: 35024
total_late: 19529
total_polluted: 3
total_misses_after_warmup: 773673
conflicts: 5624579

test: 118376

DRAM Statistics
 CHANNEL 0
 RQ ROW_BUFFER_HIT:      11288  ROW_BUFFER_MISS:      18301
 DBUS_CONGESTED:         14
 WQ ROW_BUFFER_HIT:       1393  ROW_BUFFER_MISS:      12509  FULL:          0

 AVG_CONGESTED_CYCLE: 5

CPU 0 Branch Prediction Accuracy: 99.8212% MPKI: 0.327 Average ROB Occupancy at Mispredict: 150.215
Branch types
NOT_BRANCH: 40856083 81.7122%
BRANCH_DIRECT_JUMP: 547831 1.09566%
BRANCH_INDIRECT: 182851 0.365702%
BRANCH_CONDITIONAL: 6180765 12.3615%
BRANCH_DIRECT_CALL: 944853 1.88971%
BRANCH_INDIRECT_CALL: 171393 0.342786%
BRANCH_RETURN: 1116256 2.23251%
BRANCH_OTHER: 0 0%

DRAM PAGES: 1048576
Allocated PAGES: 2538
Average_ROB_Occupancy: 142.376
Average_Decode_Occupancy: 17.4698
Average_FTQ_Occupancy: 7.71672
Indirect max targets: 14 Average targets: 1.14576
Branch_type:  BRANCH_DIRECT_JUMP:  Count Percentage: 2.87004 7.21669 3.61616 8.3133 2.73488 5.40222 1.0276 68.8191 
Branch_type:  BRANCH_INDIRECT:  Count Percentage: 11.7585 3.44223 2.47267 0 2.52912 9.67447 19.1829 50.9401 
Branch_type:  BRANCH_CONDITIONAL:  Count Percentage: 20.9019 3.09402 1.68594 8.8032 1.34668 4.71807 1.8845 57.5657 
Branch_type:  BRANCH_DIRECT_CALL:  Count Percentage: 0.786469 1.29482 1.40505 4.53314 2.66397 2.34357 0.945272 86.0277 
Branch_type:  BRANCH_INDIRECT_CALL:  Count Percentage: 9.58462 0.551723 3.00467 4.84568 0.00029084 1.71683 1.2733 79.0229 
Branch_type:  BRANCH_RETURN:  Count Percentage: 4.04398 0.698198 1.24341 8.94753 2.74138 6.24354 3.07554 73.0064 
Branch_type:  BRANCH_DIRECT_JUMP:  Total Count: 31404 78965 39568 90964 29925 59111 11244 753018 
Branch_type:  BRANCH_INDIRECT:  Total Count: 42908 12561 9023 0 9229 35303 70000 185885 
Branch_type:  BRANCH_CONDITIONAL:  Total Count: 2582132 382221 208274 1087508 166363 582849 232803 7111405 
Branch_type:  BRANCH_DIRECT_CALL:  Total Count: 14897 24526 26614 85865 50460 44391 17905 1629505 
Branch_type:  BRANCH_INDIRECT_CALL:  Total Count: 32955 1897 10331 16661 1 5903 4378 271706 
Branch_type:  BRANCH_RETURN:  Total Count: 90535 15631 27837 200314 61373 139778 68854 1634440 
Number of unique branch instructions: 9737
Upper 32 bits: 
aaaa
ffff
ffff0000
Unique upper 32 bits: 3
Unique upper 36 bits: 3
Unique upper 40 bits: 5
Unique upper 44 bits: 32
Unique upper 48 bits: 154
Offset_3 4020
Offset_4 242
Offset_5 447
Offset_6 501
Offset_7 574
Offset_8 499
Offset_9 462
Offset_10 375
Offset_11 304
Offset_12 266
Offset_13 198
Offset_14 223
Offset_15 185
Offset_16 219
Offset_17 145
Offset_18 120
Offset_19 235
Offset_20 133
Offset_21 235
Offset_22 391
Offset_23 241
Offset_24 325
Offset_25 88
Offset_47 80
Offset_64 6
decode_dispatch_called: 20822889 49.0329
Dispatch_width: 0 10614832 50.9767 24.9954
Dispatch_width: 1 582896 2.7993 1.37258
Dispatch_width: 2 656751 3.15399 1.54649
Dispatch_width: 3 433361 2.08118 1.02046
Dispatch_width: 4 2057232 9.87967 4.84429
Dispatch_width: 5 292311 1.4038 0.688323
Dispatch_width: 6 6185506 29.7053 14.5654
Empty_decode_cycles: 21644248 50.9671
ROB_full_cycles: 3144696 7.40501
Starvation_cycles_per_kilo_instr: 331.369
Starvation_cycles_per_kilo_instr_3: 307.874
Starvation_cycles_per_kilo_instr_0: 291.144
Branch_type_1  (3,1)  (4,7)  (5,36)  (6,71)  (7,115)  (8,126)  (9,125)  (10,98)  (11,69)  (12,43)  (13,8)  (14,2)  (15,3)  (16,4)  (18,1)  (19,4)  (20,2)  (21,1)  (22,3)  (23,2)  (24,10)  (25,12) 
Branch_type_2  (3,1)  (5,1)  (8,3)  (9,3)  (12,1)  (13,1)  (14,1)  (16,3)  (17,2)  (20,2)  (21,2)  (23,5)  (24,1)  (47,36) 
Branch_type_3  (3,4018)  (4,235)  (5,406)  (6,415)  (7,430)  (8,311)  (9,253)  (10,153)  (11,124)  (12,51)  (13,7)  (64,5) 
Branch_type_4  (6,3)  (7,8)  (8,24)  (9,50)  (10,59)  (11,56)  (12,93)  (13,82)  (14,98)  (15,87)  (16,98)  (17,63)  (18,54)  (19,115)  (20,70)  (21,124)  (22,207)  (23,136)  (24,186)  (25,72) 
Branch_type_5  (8,2)  (9,1)  (10,3)  (11,5)  (12,3)  (13,14)  (14,16)  (15,11)  (16,20)  (17,13)  (18,16)  (19,12)  (20,10)  (21,13)  (22,42)  (23,26)  (24,36) 
Branch_type_6  (5,4)  (6,12)  (7,21)  (8,33)  (9,30)  (10,62)  (11,50)  (12,75)  (13,86)  (14,106)  (15,84)  (16,94)  (17,67)  (18,49)  (19,104)  (20,49)  (21,95)  (22,139)  (23,72)  (24,92)  (25,4)  (47,44)  (64,1) 
aaaaab1fc620: 2ac9e77e 2aca717c 2aca8eff 2acaf6bc 2acaf9aa 2acaf9f1 2acb1abc 2acb1b7f 2acd4e22 2acdb712 2acf5f9e 2ad0ef44 2ad3f15c 2ad414e6 2ad60e42 2ad8609c 2ad99830 2ada35cc 2ada4676 2ada6612 2adf183e 2adf30e5 2adf5602 2adf785c 2ae11572 2aeb2dcf 2aee101b 2aee1ae1 2b156a8c 2b156b61 2b156bea 2b167f35 2b177656 2b17feec 2b1a3e5a 
aaaaac68f310: 2ac9ec8c 2ac9fb44 2ac9fbd2 2aca59ab 2acac04c 2acaf6e0 2acaf6ec 2acaf6f9 2acaf700 2acaf708 2acf2d90 2ad3cfbd 2ad3cfc4 2ad3d000 2ad3f35f 2ad4955d 2ad49571 2ad4f3f2 2ad4f400 2ad5f240 2ad5f37c 2ad5f86a 2ad5f86f 2ad5f880 2ad5fc0d 2ad5fc14 2ad5fc21 2ad5fe1b 2ad873bb 2ad873e3 2ad8a6b2 2ad9086e 2ad93096 2ad9bbb2 2ada152c 2ada1554 2ada3332 2ada5522 2adf3130 2adf313c 2adf3a3f 2adf3bd9 2adf5788 2adf7a8d 2ae07f6b 2ae0857a 2ae0857e 2ae08630 2ae08634 2ae08637 2ae08642 2ae0866f 2ae086e4 2ae086ec 2ae08717 2ae0871b 2aee0170 2aee1d38 2aee75f4 2aee7662 2aee85ca 2aee85e4 2aee8eef 2af70b84 2af74e8f 2b17d843 
aaaaac690ef0: 2aca598b 2acb111b 2acb175f 2acb1772 2acbfaf4 2acbfb00 2acf374f 2acf6d43 2acfa5c8 2ad3baf1 2ad3d4ac 2ad3d4b8 2ad3f1cf 2ad486b2 2ad5a59b 2ad5fc64 2ad5fcf9 2ad6121c 2ad906e9 2ad907bf 2ad9bada 2ada16ce 2ada1ad5 2ada43df 2ada64c0 2ada72ee 2adeb71a 2adf3bcb 2adf7a38 2adf7c6a 2adf8872 2adf8880 2adf9959 2adf9abe 2ae07f78 2ae08503 2ae08754 2ae12e80 2aea3bea 2aecb509 2aee00b0 2aee2bdd 2aee5467 2aee5601 2aee8f20 2af703fd 2af7048b 2af74e74 
Unique trigger count: 
1 9282
2 490
3 90
4 30
5 10
6 7
7 8
8 1
9 2
10 1
11 2
12 1
13 3
16 2
17 2
19 3
35 1
48 1
66 1
BTB PER SET UNIQUE ADDR: 2 4 3 2 1 0 3 2 4 0 2 0 5 3 1 3 3 2 3 4 3 4 2 3 4 5 2 3 3 3 6 6 4 2 4 2 1 5 6 2 3 4 3 6 6 2 4 3 6 3 3 2 3 1 0 3 4 3 3 3 1 4 2 3 1 4 5 2 3 5 5 1 1 4 2 3 3 6 1 3 2 2 1 4 3 4 2 5 3 3 6 4 3 5 2 0 3 3 1 3 4 2 3 3 2 2 1 2 3 2 2 1 3 6 2 6 2 4 4 1 4 4 2 0 1 2 2 1 6 4 5 2 3 1 5 3 2 1 3 3 5 3 3 2 0 3 2 5 4 3 3 8 3 5 3 0 3 3 3 2 4 5 4 4 4 3 2 2 8 1 1 2 4 2 1 1 3 4 5 1 3 3 6 3 4 4 3 1 2 3 5 3 3 4 4 4 2 3 2 4 3 2 3 1 3 3 2 4 2 1 2 4 5 3 3 2 2 5 3 0 1 1 2 3 3 2 3 3 0 3 8 3 2 2 3 3 3 1 1 2 1 0 5 3 9 6 1 1 3 2 2 1 1 3 2 6 3 4 4 3 4 4 4 2 3 6 3 1 4 2 3 2 2 3 3 2 1 1 3 3 4 2 5 2 5 5 3 3 1 1 0 3 1 5 1 1 4 3 1 2 3 3 1 2 3 2 4 2 5 5 3 1 3 2 5 1 5 6 2 1 3 7 3 4 2 2 1 6 1 0 4 0 2 5 5 1 2 2 5 0 3 0 1 4 4 2 1 2 3 3 3 5 4 3 5 3 2 0 4 1 2 5 2 4 6 5 1 1 2 1 3 2 2 4 4 4 3 3 3 4 5 3 1 5 3 2 5 2 4 1 5 4 4 2 3 1 6 1 1 4 4 2 3 2 2 4 3 2 1 1 1 2 4 3 2 2 5 3 1 3 1 1 3 4 3 3 2 0 2 4 1 2 8 3 5 5 3 3 3 0 2 4 5 3 4 6 2 3 3 2 4 3 1 1 5 1 1 3 7 2 3 3 4 6 1 3 4 2 3 3 0 4 4 2 2 1 4 5 1 1 2 1 2 2 0 4 3 0 5 1 4 2 4 4 1 5 3 3 2 1 5 1 1 1 2 2 2 2 2 3 4 2 2 6 2 1 2 5 4 5 3 4 4 2 6 5 0 5 6 3 4 3 3 6 3 4 1 1 4 1 2 5 6 2 5 2 7 3 6 9 3 6 3 6 1 3 3 1 3 3 7 2 5 2 2 1 4 2 2 7 3 2 3 7 2 2 3 3 1 5 4 2 1 0 1 0 0 9 4 2 5 6 1 1 2 3 4 3 4 2 4 3 4 7 2 4 4 4 1 2 5 2 2 2 2 2 2 0 3 1 4 4 6 2 2 3 2 5 2 3 5 4 4 2 5 2 2 3 2 2 7 1 4 4 0 0 3 3 3 4 4 2 5 2 3 0 4 3 2 3 5 2 5 4 5 3 5 3 1 3 5 3 4 4 5 6 3 3 3 3 3 2 4 2 5 3 5 3 4 3 1 4 2 2 2 3 6 4 5 4 0 6 0 3 3 2 3 1 3 1 3 3 3 1 2 1 7 2 0 3 2 0 1 1 1 1 1 4 2 4 5 4 2 1 2 4 4 3 2 2 1 3 2 4 2 1 3 2 2 2 0 2 1 3 2 2 2 6 4 1 3 3 1 5 4 4 8 2 2 2 3 3 0 3 3 3 5 2 1 3 3 4 0 3 8 6 3 3 0 2 2 4 2 1 4 6 7 2 2 2 5 3 5 3 4 3 3 5 2 3 1 3 4 0 4 3 1 2 0 4 4 2 4 2 2 1 2 2 4 4 3 1 3 2 5 2 2 1 5 2 2 1 3 3 1 5 6 4 5 2 6 2 5 4 4 4 3 2 4 5 2 6 2 1 8 3 3 4 5 3 2 3 3 6 4 0 2 3 6 4 3 5 4 4 5 3 2 2 2 4 4 2 3 4 2 1 6 3 1 1 5 2 1 3 4 5 3 5 3 4 5 4 0 3 1 5 0 0 5 2 5 5 5 3 4 1 3 2 5 7 4 4 9 7 5 4 6 4 1 5 4 2 0 4 4 5 5 5 3 2 6 0 5 4 2 3 6 5 4 2 2 2 4 5 2 6 9 4 6 3 2 3 0 4 5 1 7 5 1 3 7 5 3 4 2 1 2 2 3 2 5 4 2 7 4 4 4 5 3 5 1 2 4 2 2 5 4 3 3 2 5 3 4 3 5 2 5 2 2 4 5 2 9 5 2 3 3 2 2 3 4 7 6 2 3 2 3 2 3 1 3 2 4 4 1 4 4 5 4 6 0 3 3 3 3 4 2 1 2 2 3 1 0 1 4 1 2 3 3 4 1 8 5 3 2 1 10 1 2 4 1 2 5 5 3 6 2 5 4 5 2 5 2 2 1 1 5 0 4 4 3 7 4 1 6 4 6 2 4 4 5 3 5 7 4 4 6 1 4 4 7 4 3 2 4 3 6 6 3 6 6 6 4 3 4 3 1 2 3 5 1 3 2 1 3 4 2 2 5 2 2 5 4 1 5 1 7 3 3 2 3 1 3 5 3 4 3 4 2 6 2 3 6 3 3 3 3 5 2 8 3 5 3 8 6 1 6 1 5 2 1 2 4 4 3 1 3 4 2 1 2 2 4 3 3 2 3 4 2 5 2 5 4 5 0 5 3 2 2 6 7 0 7 0 1 4 4 2 5 1 4 3 4 1 1 2 4 5 3 4 1 4 3 6 5 1 4 3 3 6 9 4 2 6 5 5 1 1 3 5 6 3 2 2 3 3 4 4 5 3 0 4 2 2 6 8 5 3 3 5 1 2 5 2 4 1 3 2 6 8 2 3 3 3 4 4 2 5 6 6 4 2 1 5 3 2 4 3 4 4 3 4 7 3 5 4 3 5 5 2 1 7 4 4 3 3 3 2 3 2 2 2 5 4 2 2 5 1 1 3 3 7 4 2 3 4 2 3 3 3 4 3 2 0 3 2 3 2 4 3 4 4 2 1 2 6 1 4 2 4 2 3 5 1 1 4 4 3 3 3 5 2 3 4 4 5 4 4 4 3 3 2 2 4 5 2 4 1 3 0 8 3 2 6 4 4 5 7 3 2 3 3 1 2 4 1 4 2 4 2 0 6 1 4 2 2 3 3 3 2 4 2 3 2 3 1 5 1 0 3 4 1 1 3 1 4 2 3 6 3 1 2 2 3 2 2 6 2 3 5 3 3 3 3 2 2 3 0 2 2 2 3 2 1 2 0 4 0 4 2 4 3 3 3 2 1 2 4 4 2 7 1 3 3 2 2 4 5 2 2 5 0 1 2 3 1 1 2 3 3 5 3 1 1 6 3 1 4 1 7 1 4 2 3 6 2 2 2 1 3 3 1 1 3 4 2 3 3 1 2 0 5 1 3 3 0 3 2 5 3 4 3 3 4 0 3 1 2 1 2 3 0 2 3 2 3 3 1 3 3 2 9 6 2 2 2 4 1 1 3 5 2 3 0 3 2 3 2 3 4 5 5 7 0 4 1 6 4 4 5 3 8 2 4 8 3 0 6 3 3 3 4 3 3 2 1 2 4 2 2 2 3 2 3 5 3 5 3 6 1 1 5 5 3 3 4 4 3 6 2 5 5 2 6 3 3 3 1 3 7 5 3 2 3 3 3 3 4 2 2 3 1 3 1 3 7 0 2 2 3 3 3 5 3 4 2 6 1 2 2 5 2 4 5 7 1 1 7 2 4 2 3 4 7 2 3 2 4 7 2 4 3 5 3 4 8 4 4 4 5 1 5 3 3 2 3 0 2 3 3 4 3 2 3 3 5 4 3 4 8 0 3 2 4 4 4 3 4 3 6 2 4 1 5 2 3 4 2 3 0 2 5 0 7 2 5 5 1 4 3 3 0 5 3 3 6 3 6 2 2 2 1 3 4 7 1 3 3 0 3 2 4 6 3 1 4 5 2 3 2 6 3 4 1 5 3 0 2 4 1 1 8 2 0 4 1 4 3 2 3 6 3 3 6 1 5 3 5 2 5 4 2 3 2 7 1 4 0 3 3 4 4 3 3 2 1 2 3 0 3 0 3 4 6 2 2 5 2 3 3 3 1 2 2 4 2 4 2 5 3 2 3 1 2 3 3 2 2 3 3 2 1 1 3 2 5 1 4 1 5 4 2 3 1 4 1 2 3 4 2 3 4 4 5 3 3 3 3 3 2 0 3 2 0 0 1 2 2 4 2 5 2 2 3 4 1 1 3 3 2 2 6 3 2 7 5 3 2 4 1 2 5 3 3 4 2 4 0 1 2 4 3 2 4 3 2 4 3 4 7 3 2 0 4 1 0 2 3 0 4 4 6 1 3 4 6 4 0 2 2 4 1 4 1 3 1 8 3 1 2 3 7 2 7 3 3 6 0 1 3 1 4 2 1 0 2 3 4 5 4 1 0 3 4 5 1 2 1 3 6 2 1 5 4 3 3 5 4 0 6 2 6 1 1 2 2 1 2 3 1 3 1 3 2 3 1 5 2 4 2 4 2 1 3 5 4 4 0 
BTB PER SET COUNT: 2 4 3 2 1 0 3 2 4 0 2 0 2373 3 1 3 4 2 3 1489 3 4 2 3 4 16 2 3 1478 3 2833 28 5 2 4 2 2954 760 766 2 3 4 5 2149 5516 2 5 3 1499 3 3 2 4 1 0 3 6 3 3 3 1 4 2 3 1 360 392 3 3 1025 756 1 1 4 2 3 479 770 1 3 2 2 2 4 4 4 2 13 3 3 2395 534 3 4034 2 0 3 3 1 3 4 2 4 3 2 2 1 2 3 17 2 1 3 1928 2 1861 2 4 4 1 4 6 2 0 1 3 4 1 2286 7 1907 2 3 2 935 3 2 1 3 3 2250 5 3 2 0 5 2 4499 4 3 3 6879 3 2366 3 0 3 3 3 2 5 1008 6 4 4 2007 2 2 8394 1 1 2 5 2 1 1 3 4 1013 1 3 3 6828 3 4 4 3 1 2 3 48 4 4 4 4 10 3 3 2 4 3 2 3 1 6 3 2 1490 2 1 4 5 17 3 3 2 2 908 3 0 1 1 3 3 4 2 3 28 0 3 5887 3 2 2 3 3 4 1 1 2 1 0 2367 3 9343 2119 1 1 3 2 2 1 1 3 2 2367 4 4 4 3 7 4 5 2 1478 1566 3 1 4 2 3 2 2 3 3 3 1 1 3 3 6 2 1895 2 756 2375 3 3 1 1 0 4 1 14 1 1 12 3 1 2 3 3 1 2 3 2 4 2 1895 1008 3 1 3 2 1008 1 2373 1265 2 1 3 2188 4 4 2 2 1 227 1 0 955 0 3 15 1534 1 952 2 24 0 3 0 1 951 951 2 1 2 3 4 3 110 5 4 58 3 2 0 4 1 2 23 2 5 2897 2473 1 1 2 1 4 2 2 5 5 4 3 3 3 4 24 3 1 728 5 2 14 2 4 2 16 5 4 2 3 1 3457 1 1 6 4 2 3 2 2 6 1478 2 1 1002 1 2 4 3 1003 2 151 4 1 90 1 1 3 6 9 3 9 0 2 5 151 2 2636 3 1006 2336 5 3 3 0 3 4 1255 3 4 1017 2 3 3 2 4 3 1 1 1867 1 1 3 1434 2 3 3 4 1883 1 3 4 2 3 3 0 4 29 475 2 1 4 1011 1 1 2 1 2 475 0 4 3 0 29 1 4 2 4 4 1 19 11 3 2 1 1867 6 1 1 2 2 2 2 2 3 4 3 2 34 3 1 2 2362 4 486 3 1479 4 2 21 1423 0 1866 5012 3 4 3 3 22 3 487 2 1 5 1 3 1428 205 4 16 2 68 5 954 9231 3 1416 5 2821 1 3 4 1 3 3 6869 3 1874 2 2 1 4 2 2 2868 3 2 3 5487 2 2 3 3 2 26 4 32 1 0 2 0 0 3776 4 2 1895 2851 4 2 1003 4 4 3 4 2 4 3 4 1510 2 4 4 4 1 2 2367 2 2 2 2 2 1084 0 3 1 4 478 3305 2 2 3 2 8 2 3 1902 1479 4 4 957 2 2 3 2 2 2858 1 4 4 0 0 5 3 3 4 4 2 8 2 3 0 4 3 2 3 7768 2 24 5 1900 3 2965 950 1 3 782 3 5 5 1423 2902 3 3 7 3 3 2 4 949 1427 3 15 1478 4 3 3 951 2 3 2 3 1872 5 12 53 0 2371 0 3 3 949 3 1 3 1 3 3 6 1 950 1 2448 2 0 5 2 0 1 1 1 1 1 4 2 4 1423 4 1003 1 3 5 4 4 2 2 1 3 2 4 2 2 486 2 2 933 0 2 1 6 2 2 2 2840 5 1 3 4 1 18 4 4 5940 2 4 2 3 5 0 117 3 4 3046 3 1 3 3 4 0 5 2931 4972 3 3 0 2 2 26 3 1 5 1439 1859 2 2 2 11 3 7 4 1901 3 3 19 2 6 1 4 4 0 4 6 4 3 0 4 5 2 4 2 3 1 2 2 4 117 3 1 3 2 1904 3 11 1 1424 2 2 1 4 1482 1 11 1906 4 10 2 2373 2 1867 6 4 4 3 2 6 9 2 4907 2 1 6559 1004 3 4 1426 5 2 3 3 2656 5 0 3 3 27 4 3 4967 4 5 107 3 2 3 2 7 4 2 4 4 2 1 691 3 1 1 1693 2 1 44 11 2657 3 1008 3 7 47 4 0 3 1 1401 0 0 957 2 48 33 1402 3 7 1 3 2 1867 159 4 478 5479 4023 1437 4 2016 5 1 29 4 2 0 1005 4 2378 37 1437 3 2 782 0 359 5 2 3 1330 1900 4 4 2 485 4 5004 4 40 1105 4 1906 3 2 3 0 360 24 1 7414 19 1 3 1920 18 478 4 2 4 2 3 5 2 1592 4 2 3321 6 5 4 1872 3 29 1 2 4 2 2 23 4 11 3 2 1911 3 2483 359 1704 2 22 5 2 4 1700 2 5219 23 2 3 4 2 2 3 5 2838 1872 4 3 2 3 2 3 3 4 2 4 4 1 4 4 1901 4 1411 0 3 4 3 1478 362 2 1 2 3 4 1 0 1 4 1 2 3 3 5 1 3793 1428 3 2 1 11317 1 2 4 1 2 1903 103 4 5477 2 24 4 2373 2 28 3 2 1 1 28 0 4 4 6 1911 4 1 1962 4 2373 2 480 4 13 3 2332 1745 4 5 2373 1 7 5 5000 4 4 2 5 3 1432 1885 4 2358 1407 2275 4 3 4 6 1 2 3 1900 1 3 2 1 3 5 3 2 498 6 2 48 4 1 13 1 5866 4 3 2 3 1 3 16 3 4 5 4 2 28 2 3 1625 3 3 3 3 1869 2 5845 3 1428 3 2485 7396 1 5443 1 19 2 1 2 487 4 3 1 4 137 2 1 2 479 4 3 3 2 3 4 2 1436 2 10 4 20 0 1867 3 2 2 44 7445 0 49 0 1 4 4 3 24 1 4 934 5 1 1 2 6 18 3 4 1 4 6 7344 14 1 4 3 4 2900 10266 2021 2 7418 24 1901 1 1 5 1867 2361 3 2 2 3 3 4 4 19 3 0 4 2 2 3463 7954 4036 3 3 298 1 2 22 2 4 1 3 2 2848 6647 1003 5 3 3 5 4 3 1866 1909 2369 5 2 1 21 3 2 7 3 4 4 3 4 1884 3 1901 4 476 1867 2373 6 1 2932 4 4 3 3 3 2 3 2 2 3 17 4 2 2 1009 1 1 3 3 2840 7 2 3 4 2 4 4 3 5 3 4 0 3 2 3 2 4 3 10 4 2 1 2 1015 1 4 2 4 3 4 365 1 1 4 4 1004 3 4 2371 3 3 39 5 13 5 4 4 4 3 2 2 4 1903 3 5 1 3 0 5996 3 3 2800 4 4 2334 6977 3 2 4 3 1 2 5 2 4 4 4 4 0 4027 2 4 3 3 3 4 3 2 1479 2 3 1361 3 1 569 1 0 3 4 1 3 1361 1 4 2 3 1873 4 1 2 2 4 2 2 2797 3 3 93 5 4 3 3 2 2 3 0 4 2 2 1004 2 1 2 0 5 0 4 2 4 3 3 3 933 1 12 4 28 2 2367 1 3 3 2 2 6 12 139 2 21627 0 1 2 3 1 1 2 3 3 1958 375 1 1 1304 3 1 4 1 2367 1 4 2 3 1889 2 2 2 1 3 3 2 1 3 4 2 3 4 1 2 0 4036 1 3 3 0 3 443 1901 3 4 3 3 4 0 3 1 2 2 2 3 0 2 3 2 3 7 1 4 3 2 3577 2849 2 2 2 4 1 1 3 1757 2 3 0 3 2 4 2 3 4 2332 19 5943 0 4 1 2119 4 4 21 3 3314 2 5 8621 3 0 2840 1478 3 4 4 4 3 2 1 2 1006 3 2 2 3 2 3 1658 5 1901 3 990 2841 1 1149 6860 3 7 6 4 5 3606 2 1501 1895 2 1901 3 244 359 2 1478 1439 13 237 5 3 3 3 5 4 2 2 3 1 3 1 3 2519 0 2 2 4 4 3 495 3 4 2 3984 1 2 8 1402 2 1430 1429 2843 1 1 6491 2 954 2 3 4 1904 485 4 12 6 2818 2 479 3 4626 3 4 8868 4 4 14767 2847 1 1875 1479 12 2 3 0 2 3 3 4 3 2 3 3 28 4 3 150 3324 0 1479 3 1479 157 4 4 4 3 2244 2 771 1 2369 2 4 5 2 3 0 2 2932 0 5463 2 1145 2374 1 4 3 3 0 8 3 3 2470 3 4940 2 2 2 1 3 4 7358 1 3 518 0 4 2 4 1867 1004 1 4 1959 2 4 2 2149 3 4 1 27 3 0 2 4 1476 2 3755 2 0 4 1 5 3 2 3 2330 4 403 2361 1 2367 3 1904 236 1867 107 2 4 2 4243 1 235 0 3 1488 4 4 4 3 2 2 2 543 0 3 0 3 6 3339 2 2 762 376 3 3 1004 1 2 2 6 2 4 2 119 3 2 3 1 2 235 4 2 2 3 3 2 1 1 3 2 1391 1 4 1 4036 4 2 4 10 4 1 2 3 4 2 4 935 4 957 3 3 3 3 3 2 0 3 3 0 0 1 2 2 4 4 2367 2 2 3 4 1 1 3 3 2 2 3243 3 2 3099 2332 138 2 4 1 2 24 3 3 13 2 4 0 1 2 4 937 2 4 3 2 4 4 4 2456 3 2 0 4 3 0 2 5 0 5 1481 979 1 3 4 2354 4 0 2 2 7 1 5 1 3 1 3713 3 2 2 3 2385 7 3312 3 3 5242 0 1 4 1 4 2 1 0 2 3 5 19 4 2 0 4 4 1439 1 2 1 3 2375 2 1 20 4 3 5 1868 4 0 2377 2 1871 1 1 2 2 1 2 3 1 3 1 3 2 3 1 23 4 225 2 4 2 1 3 1509 4 4 0 
