
*** ChampSim Multicore Out-of-Order Simulator ***

Warmup Instructions: 50000000
Simulation Instructions: 50000000
Number of CPUs: 1
LLC sets: 2048
LLC ways: 16
Off-chip DRAM Size: 4096 MB Channels: 1 Width: 64-bit Data Rate: 6400 MT/s
CPU 0 runs ./micro_traces/srv192.trace.gz
.gz
ITLB has LRU replacement policy
DTLB has LRU replacement policy
STLB has LRU replacement policy
CPU 0 L1I next line prefetcher
./conditional/srv192.cond
L1I has LRU replacement policy
L1D has LRU replacement policy
Initialize SRRIP state for L2C
Initialize DRRIP state for LLC
Heartbeat_Variant_0 : 1333 0.325439 per_variant_size: 0 1333 0 0 0 0 0 0 0 
Heartbeat_Variant_1 : 1230 0.300293 per_variant_size: 0 614 616 0 0 0 0 0 0 
Heartbeat_Variant_2 : 1311 0.320068 per_variant_size: 0 544 363 314 90 0 0 0 0 
Heartbeat_Variant_3 : 0 0 per_variant_size: 0 0 0 0 0 0 0 0 0 
Heartbeat_Variant_0_evicts 0 : 5850 1 : 268 2 : 302 3 : 0 
Heartbeat_Variant_1_evicts 0 : 264 1 : 0 2 : 471 3 : 0 
Heartbeat_Variant_2_evicts 0 : 259 1 : 482 2 : 0 3 : 0 
Heartbeat_Variant_3_evicts 0 : 0 1 : 0 2 : 0 3 : 0 
Heartbeat CPU 0 instructions: 10000000 cycles: 2797886 heartbeat IPC: 3.57413 cumulative IPC: 3.57413 (Simulation time: 0 hr 1 min 48 sec) 
Heartbeat_Variant_0 : 1352 0.330078 per_variant_size: 0 1352 0 0 0 0 0 0 0 
Heartbeat_Variant_1 : 1246 0.304199 per_variant_size: 0 593 653 0 0 0 0 0 0 
Heartbeat_Variant_2 : 1334 0.325684 per_variant_size: 0 530 374 346 84 0 0 0 0 
Heartbeat_Variant_3 : 0 0 per_variant_size: 0 0 0 0 0 0 0 0 0 
Heartbeat_Variant_0_evicts 0 : 5760 1 : 75 2 : 93 3 : 0 
Heartbeat_Variant_1_evicts 0 : 78 1 : 0 2 : 311 3 : 0 
Heartbeat_Variant_2_evicts 0 : 90 1 : 312 2 : 0 3 : 0 
Heartbeat_Variant_3_evicts 0 : 0 1 : 0 2 : 0 3 : 0 
Heartbeat CPU 0 instructions: 20000001 cycles: 5594272 heartbeat IPC: 3.57604 cumulative IPC: 3.57509 (Simulation time: 0 hr 3 min 29 sec) 
Heartbeat_Variant_0 : 1359 0.331787 per_variant_size: 0 1359 0 0 0 0 0 0 0 
Heartbeat_Variant_1 : 1253 0.305908 per_variant_size: 0 596 657 0 0 0 0 0 0 
Heartbeat_Variant_2 : 1337 0.326416 per_variant_size: 0 515 382 349 91 0 0 0 0 
Heartbeat_Variant_3 : 0 0 per_variant_size: 0 0 0 0 0 0 0 0 0 
Heartbeat_Variant_0_evicts 0 : 5660 1 : 73 2 : 54 3 : 0 
Heartbeat_Variant_1_evicts 0 : 69 1 : 0 2 : 303 3 : 0 
Heartbeat_Variant_2_evicts 0 : 54 1 : 295 2 : 0 3 : 0 
Heartbeat_Variant_3_evicts 0 : 0 1 : 0 2 : 0 3 : 0 
Heartbeat CPU 0 instructions: 30000002 cycles: 8390451 heartbeat IPC: 3.57631 cumulative IPC: 3.57549 (Simulation time: 0 hr 5 min 9 sec) 
Heartbeat_Variant_0 : 1363 0.332764 per_variant_size: 0 1363 0 0 0 0 0 0 0 
Heartbeat_Variant_1 : 1261 0.307861 per_variant_size: 0 606 655 0 0 0 0 0 0 
Heartbeat_Variant_2 : 1338 0.32666 per_variant_size: 0 502 390 357 89 0 0 0 0 
Heartbeat_Variant_3 : 0 0 per_variant_size: 0 0 0 0 0 0 0 0 0 
Heartbeat_Variant_0_evicts 0 : 5460 1 : 45 2 : 49 3 : 0 
Heartbeat_Variant_1_evicts 0 : 42 1 : 0 2 : 300 3 : 0 
Heartbeat_Variant_2_evicts 0 : 51 1 : 294 2 : 0 3 : 0 
Heartbeat_Variant_3_evicts 0 : 0 1 : 0 2 : 0 3 : 0 
Heartbeat CPU 0 instructions: 40000001 cycles: 11187357 heartbeat IPC: 3.57538 cumulative IPC: 3.57546 (Simulation time: 0 hr 6 min 57 sec) 
Heartbeat_Variant_0 : 1367 0.33374 per_variant_size: 0 1367 0 0 0 0 0 0 0 
Heartbeat_Variant_1 : 1261 0.307861 per_variant_size: 0 600 661 0 0 0 0 0 0 
Heartbeat_Variant_2 : 1339 0.326904 per_variant_size: 0 498 396 371 74 0 0 0 0 
Heartbeat_Variant_3 : 0 0 per_variant_size: 0 0 0 0 0 0 0 0 0 
Heartbeat_Variant_0_evicts 0 : 5621 1 : 13 2 : 14 3 : 0 
Heartbeat_Variant_1_evicts 0 : 14 1 : 0 2 : 261 3 : 0 
Heartbeat_Variant_2_evicts 0 : 9 1 : 262 2 : 0 3 : 0 
Heartbeat_Variant_3_evicts 0 : 0 1 : 0 2 : 0 3 : 0 
Heartbeat CPU 0 instructions: 50000002 cycles: 13983045 heartbeat IPC: 3.57694 cumulative IPC: 3.57576 (Simulation time: 0 hr 8 min 41 sec) 

Warmup complete CPU 0 instructions: 50000002 cycles: 13983045 (Simulation time: 0 hr 8 min 41 sec) 

Cycle: 20000000 FTQ IN: 58118602 FTQ occupancy: 19.4913 DECODE IN: 58118602 DECODE occupancy: 50.8299 ROB IN: 58118602 ROB occupancy: 310.81 ROB OUT: 58118584
Heartbeat_Variant_0 : 1394 0.340332 per_variant_size: 0 1394 0 0 0 0 0 0 0 
Heartbeat_Variant_1 : 1276 0.311523 per_variant_size: 0 536 740 0 0 0 0 0 0 
Heartbeat_Variant_2 : 1354 0.330566 per_variant_size: 0 496 379 355 124 0 0 0 0 
Heartbeat_Variant_3 : 0 0 per_variant_size: 0 0 0 0 0 0 0 0 0 
Heartbeat_Variant_0_evicts 0 : 5874 1 : 257 2 : 263 3 : 0 
Heartbeat_Variant_1_evicts 0 : 247 1 : 0 2 : 483 3 : 0 
Heartbeat_Variant_2_evicts 0 : 263 1 : 477 2 : 0 3 : 0 
Heartbeat_Variant_3_evicts 0 : 0 1 : 0 2 : 0 3 : 0 
Heartbeat CPU 0 instructions: 60000000 cycles: 21551216 heartbeat IPC: 1.32132 cumulative IPC: 1.32132 (Simulation time: 0 hr 10 min 31 sec) 
Heartbeat_Variant_0 : 1394 0.340332 per_variant_size: 0 1394 0 0 0 0 0 0 0 
Heartbeat_Variant_1 : 1282 0.312988 per_variant_size: 0 541 741 0 0 0 0 0 0 
Heartbeat_Variant_2 : 1360 0.332031 per_variant_size: 0 498 383 361 118 0 0 0 0 
Heartbeat_Variant_3 : 0 0 per_variant_size: 0 0 0 0 0 0 0 0 0 
Heartbeat_Variant_0_evicts 0 : 5495 1 : 56 2 : 95 3 : 0 
Heartbeat_Variant_1_evicts 0 : 56 1 : 0 2 : 320 3 : 0 
Heartbeat_Variant_2_evicts 0 : 96 1 : 321 2 : 0 3 : 0 
Heartbeat_Variant_3_evicts 0 : 0 1 : 0 2 : 0 3 : 0 
Heartbeat CPU 0 instructions: 70000002 cycles: 28895217 heartbeat IPC: 1.36166 cumulative IPC: 1.34119 (Simulation time: 0 hr 12 min 18 sec) 
Cycle: 30000000 FTQ IN: 13404039 FTQ occupancy: 10.666 DECODE IN: 13403901 DECODE occupancy: 27.7423 ROB IN: 13403841 ROB occupancy: 217.265 ROB OUT: 13403634
Heartbeat_Variant_0 : 1394 0.340332 per_variant_size: 0 1394 0 0 0 0 0 0 0 
Heartbeat_Variant_1 : 1306 0.318848 per_variant_size: 0 564 742 0 0 0 0 0 0 
Heartbeat_Variant_2 : 1349 0.329346 per_variant_size: 0 469 407 368 105 0 0 0 0 
Heartbeat_Variant_3 : 0 0 per_variant_size: 0 0 0 0 0 0 0 0 0 
Heartbeat_Variant_0_evicts 0 : 5801 1 : 190 2 : 188 3 : 0 
Heartbeat_Variant_1_evicts 0 : 200 1 : 0 2 : 441 3 : 0 
Heartbeat_Variant_2_evicts 0 : 181 1 : 433 2 : 0 3 : 0 
Heartbeat_Variant_3_evicts 0 : 0 1 : 0 2 : 0 3 : 0 
Heartbeat CPU 0 instructions: 80000000 cycles: 36213758 heartbeat IPC: 1.36639 cumulative IPC: 1.34948 (Simulation time: 0 hr 14 min 6 sec) 
Cycle: 40000000 FTQ IN: 13531299 FTQ occupancy: 11.0939 DECODE IN: 13531357 DECODE occupancy: 28.8429 ROB IN: 13531360 ROB occupancy: 222.382 ROB OUT: 13531237
Heartbeat_Variant_0 : 1398 0.341309 per_variant_size: 0 1398 0 0 0 0 0 0 0 
Heartbeat_Variant_1 : 1297 0.31665 per_variant_size: 0 546 751 0 0 0 0 0 0 
Heartbeat_Variant_2 : 1359 0.331787 per_variant_size: 0 469 412 367 111 0 0 0 0 
Heartbeat_Variant_3 : 0 0 per_variant_size: 0 0 0 0 0 0 0 0 0 
Heartbeat_Variant_0_evicts 0 : 5614 1 : 91 2 : 88 3 : 0 
Heartbeat_Variant_1_evicts 0 : 79 1 : 0 2 : 318 3 : 0 
Heartbeat_Variant_2_evicts 0 : 98 1 : 316 2 : 0 3 : 0 
Heartbeat_Variant_3_evicts 0 : 0 1 : 0 2 : 0 3 : 0 
Heartbeat CPU 0 instructions: 90000002 cycles: 43609251 heartbeat IPC: 1.35218 cumulative IPC: 1.35016 (Simulation time: 0 hr 15 min 55 sec) 
Cycle: 50000000 FTQ IN: 13702739 FTQ occupancy: 11.138 DECODE IN: 13702782 DECODE occupancy: 29.2501 ROB IN: 13702822 ROB occupancy: 225.922 ROB OUT: 13702818
Heartbeat_Variant_0 : 1399 0.341553 per_variant_size: 0 1399 0 0 0 0 0 0 0 
Heartbeat_Variant_1 : 1297 0.31665 per_variant_size: 0 540 757 0 0 0 0 0 0 
Heartbeat_Variant_2 : 1362 0.33252 per_variant_size: 0 475 398 388 101 0 0 0 0 
Heartbeat_Variant_3 : 0 0 per_variant_size: 0 0 0 0 0 0 0 0 0 
Heartbeat_Variant_0_evicts 0 : 5681 1 : 39 2 : 35 3 : 0 
Heartbeat_Variant_1_evicts 0 : 36 1 : 0 2 : 272 3 : 0 
Heartbeat_Variant_2_evicts 0 : 37 1 : 270 2 : 0 3 : 0 
Heartbeat_Variant_3_evicts 0 : 0 1 : 0 2 : 0 3 : 0 
Heartbeat CPU 0 instructions: 100000001 cycles: 50909481 heartbeat IPC: 1.36982 cumulative IPC: 1.35404 (Simulation time: 0 hr 17 min 35 sec) 
Finished CPU 0 instructions: 50000003 cycles: 36926437 cumulative IPC: 1.35404 (Simulation time: 0 hr 17 min 35 sec) 

ChampSim completed all CPUs

Region of Interest Statistics

CPU 0 cumulative IPC: 1.35404 instructions: 50000003 cycles: 36926437
 Fetch stage stalled: 58.2596  Sim cycles: 36926437 fetch stall cycle: 21513207
 Empty decode stage: 42.7658  Sim cycles: 36926437 fetch stall cycle: 15791895
ITLB TOTAL     ACCESS:    6892958  HIT:    6386627  MISS:     506331  HIT %:    92.6544  MISS %:    7.34563   MPKI: 10.1266
ITLB LOAD TRANSLATION INSTRUCTION	ACCESS:    5664683  HIT:    5177639  MISS:     487044  HIT %:    91.4021  MISS %:     8.5979  MPKI: 9.74088
ITLB TRANSLATION FROM L1D PREFETCHER INSTRUCTION	ACCESS:    1228275  HIT:    1208988  MISS:      19287  HIT %:    98.4297  MISS %:    1.57025  MPKI: 0.38574

ITLB AVERAGE MISS LATENCY: 65215.1 cycles
ITLB RQ	ACCESS:   10147911	FORWARD:          0	MERGED:    2780033	TO_CACHE:    7367878

DTLB TOTAL     ACCESS:    8982213  HIT:    8513585  MISS:     468628  HIT %:    94.7827  MISS %:    5.21729   MPKI: 9.37256
DTLB LOAD TRANSLATION DATA	ACCESS:    8982213  HIT:    8513585  MISS:     468628  HIT %:    94.7827  MISS %:    5.21729  MPKI: 9.37256

DTLB AVERAGE MISS LATENCY: 9.37338 cycles
DTLB RQ	ACCESS:   13352765	FORWARD:          0	MERGED:    4334010	TO_CACHE:    9018755

STLB TOTAL     ACCESS:    1222908  HIT:    1220738  MISS:       2170  HIT %:    99.8226  MISS %:   0.177446   MPKI: 0.0434
STLB LOAD TRANSLATION INSTRUCTION	ACCESS:     486051  HIT:     485796  MISS:        255  HIT %:    99.9475  MISS %:  0.0524636  MPKI: 0.0051
STLB TRANSLATION FROM L1D PREFETCHER INSTRUCTION	ACCESS:      20280  HIT:      20211  MISS:         69  HIT %:    99.6598  MISS %:   0.340237  MPKI: 0.00138
STLB LOAD TRANSLATION DATA	ACCESS:     468627  HIT:     466801  MISS:       1826  HIT %:    99.6104  MISS %:   0.389649  MPKI: 0.03652
STLB TRANSLATION FROM L1D PREFETCHER DATA	ACCESS:     247950  HIT:     247930  MISS:         20  HIT %:    99.9919  MISS %: 0.00806614  MPKI: 0.0004

STLB AVERAGE MISS LATENCY: 79.1143 cycles
STLB RQ	ACCESS:    1369145	FORWARD:          0	MERGED:     120294	TO_CACHE:    1248851

STLB Hit, L1D data hit: 0
STLB Hit, L2C data hit: 0
STLB Hit, LLC data hit: 0
STLB Hit, LLC data miss: 0
STLB STLB hints to L2: 0
L1D TOTAL     ACCESS:   13088863  HIT:   11966916  MISS:    1121947  HIT %:    91.4282  MISS %:    8.57177   MPKI: 22.4389
L1D LOAD DATA	ACCESS:    6563607  HIT:    5822196  MISS:     741411  HIT %:    88.7042  MISS %:    11.2958  MPKI: 14.8282
L1D RFO DATA	ACCESS:    6199156  HIT:    5913358  MISS:     285798  HIT %:    95.3897  MISS %:    4.61027  MPKI: 5.71596
L1D PREFETCH DATA	ACCESS:     326100  HIT:     231362  MISS:      94738  HIT %:    70.9482  MISS %:    29.0518  MPKI: 1.89476

L1D PREFETCH  REQUESTED:     737035  ISSUED:     737035  USEFUL:      34341  USELESS:      69270
L1D USEFUL LOAD PREFETCHES:      34341 PREFETCH ISSUED TO LOWER LEVEL:     103676  ACCURACY: 33.1234
 TIMELY PREFETCHES:      34341 LATE PREFETCHES: 8883 DROPPED PREFETCHES: 5
L1D AVERAGE MISS LATENCY: 251218 cycles
L1D RQ	ACCESS:   10696470	FORWARD:          0	MERGED:    3931688	TO_CACHE:    6600887
L1D WQ	ACCESS:    6949231	FORWARD:     164344	MERGED:     197353	TO_CACHE:    6751878
L1D PQ	ACCESS:     368742	FORWARD:          0	MERGED:          0	TO_CACHE:     368293

L1D UNIQUE REGIONS ACCESSED: 0
L1D REGIONS CONFLICTS: 0
L1D Cross Page Prefetch Requests: 6290
L1D Same Page Prefetch Requests: 746792
L1D ROI Sum of L1D PQ occupancy: 4697643
L1D PREFETCHES PUSHED FROM L2C: 0
L1I TOTAL     ACCESS:    8767900  HIT:    5452473  MISS:    3315427  HIT %:    62.1868  MISS %:    37.8132   MPKI: 66.3085
L1I LOAD INSTRUCTION	ACCESS:    6563224  HIT:    4445072  MISS:    2118152  HIT %:     67.727  MISS %:     32.273  MPKI: 42.363
L1I PREFETCH INSTRUCTION	ACCESS:    2204676  HIT:    1007401  MISS:    1197275  HIT %:    45.6938  MISS %:    54.3062  MPKI: 23.9455

L1I PREFETCH  REQUESTED:    3920731  ISSUED:    3916796  USEFUL:     942437  USELESS:     486447
L1I USEFUL LOAD PREFETCHES:     942437 PREFETCH ISSUED TO LOWER LEVEL:    1428895  ACCURACY: 65.9557
 TIMELY PREFETCHES:     942437 LATE PREFETCHES: 231617 DROPPED PREFETCHES: 61869
L1I AVERAGE MISS LATENCY: 2.2788e+06 cycles
L1I RQ	ACCESS:    9482311	FORWARD:          0	MERGED:    2716886	TO_CACHE:    6765425
L1I PQ	ACCESS:    3916796	FORWARD:          0	MERGED:     534310	TO_CACHE:    3382486

L1BTB TOTAL     ACCESS:    5669891  HIT:    2035133  MISS:    3634758  HIT %:    35.8937  MISS %:    64.1063   MPKI: 72.6952
L1BTB BRANCH_DIRECT_JUMP	ACCESS:     548319  HIT:     144292  MISS:     404027	AVERAGE STALL: 45.7248
L1BTB BRANCH_INDIRECT	ACCESS:     182415  HIT:      65643  MISS:     116772	AVERAGE STALL: 101.474
L1BTB BRANCH_CONDITIONAL	ACCESS:    2700564  HIT:    1405932  MISS:    1294632	AVERAGE STALL: 57.9877
L1BTB BRANCH_DIRECT_CALL	ACCESS:     946969  HIT:     106409  MISS:     840560	AVERAGE STALL: 62.4714
L1BTB BRANCH_INDIRECT_CALL	ACCESS:     172330  HIT:      21724  MISS:     150606	AVERAGE STALL: 123.076
L1BTB BRANCH_RETURN	ACCESS:    1119294  HIT:     291133  MISS:     828161	AVERAGE STALL: 46.9826
L1BTB BRANCH_OTHER ACCESS:          0  HIT:          0  MISS:          0	AVERAGE STALL: -nan
L1BTB TOTAL ROB OCCUPANCY AT BTB MISS: 5.26515

L2BTB TOTAL     ACCESS:    3609419  HIT:    3495879  MISS:     113540  HIT %:    96.8543  MISS %:    3.14566   MPKI: 2.2708
L2BTB BRANCH_DIRECT_JUMP	ACCESS:     399909  HIT:     392441  MISS:       7468	AVERAGE STALL: 45.7248
L2BTB BRANCH_INDIRECT	ACCESS:     106448  HIT:     103730  MISS:       2718	AVERAGE STALL: 101.474
L2BTB BRANCH_CONDITIONAL	ACCESS:    1294632  HIT:    1267093  MISS:      27539	AVERAGE STALL: 57.9877
L2BTB BRANCH_DIRECT_CALL	ACCESS:     840560  HIT:     837601  MISS:       2959	AVERAGE STALL: 62.4714
L2BTB BRANCH_INDIRECT_CALL	ACCESS:     141124  HIT:     130843  MISS:      10281	AVERAGE STALL: 123.076
L2BTB BRANCH_RETURN	ACCESS:     826746  HIT:     764171  MISS:      62575	AVERAGE STALL: 46.9826
L2BTB BRANCH_OTHER ACCESS:          0  HIT:          0  MISS:          0	AVERAGE STALL: -nan
L2BTB TOTAL ROB OCCUPANCY AT BTB MISS: 168.553

L2C TOTAL     ACCESS:    5693305  HIT:    4810518  MISS:     882787  HIT %:    84.4943  MISS %:    15.5057   MPKI: 17.6557
L2C LOAD INSTRUCTION	ACCESS:    1886538  HIT:    1624773  MISS:     261765  HIT %:    86.1246  MISS %:    13.8754  MPKI: 5.2353
L2C PREFETCH INSTRUCTION	ACCESS:    1428890  HIT:    1231111  MISS:     197779  HIT %:    86.1586  MISS %:    13.8414  MPKI: 3.95558
L2C LOAD TRANSLATION INSTRUCTION	ACCESS:        289  HIT:         85  MISS:        204  HIT %:    29.4118  MISS %:    70.5882  MPKI: 0.00408
L2C TRANSLATION FROM L1D PREFETCHER INSTRUCTION	ACCESS:      36551  HIT:      25079  MISS:      11472  HIT %:    68.6137  MISS %:    31.3863  MPKI: 0.22944
L2C LOAD DATA	ACCESS:     732512  HIT:     618165  MISS:     114347  HIT %:    84.3897  MISS %:    15.6103  MPKI: 2.28694
L2C RFO DATA	ACCESS:     285715  HIT:     202993  MISS:      82722  HIT %:    71.0474  MISS %:    28.9526  MPKI: 1.65444
L2C PREFETCH DATA	ACCESS:     797723  HIT:     619145  MISS:     178578  HIT %:     77.614  MISS %:     22.386  MPKI: 3.57156
L2C WRITEBACK DATA	ACCESS:     523128  HIT:     488702  MISS:      34426  HIT %:    93.4192  MISS %:     6.5808  MPKI: 0.68852
L2C LOAD TRANSLATION DATA	ACCESS:       1918  HIT:        436  MISS:       1482  HIT %:     22.732  MISS %:     77.268  MPKI: 0.02964
L2C TRANSLATION FROM L1D PREFETCHER DATA	ACCESS:         41  HIT:         29  MISS:         12  HIT %:    70.7317  MISS %:    29.2683  MPKI: 0.00024

L2C PREFETCH  REQUESTED:    1496549  ISSUED:    1496549  USEFUL:      27241  USELESS:     363460
L2C USEFUL LOAD PREFETCHES:      27241 PREFETCH ISSUED TO LOWER LEVEL:     378604  ACCURACY: 7.19512
 TIMELY PREFETCHES:      27241 LATE PREFETCHES: 2242 DROPPED PREFETCHES: 0
L2C AVERAGE MISS LATENCY: 34.7628 cycles
L2C RQ	ACCESS:    2943615	FORWARD:          0	MERGED:          0	TO_CACHE:    2943571
L2C WQ	ACCESS:     523128	FORWARD:         44	MERGED:          0	TO_CACHE:     523128
L2C PQ	ACCESS:    3029120	FORWARD:          0	MERGED:     784878	TO_CACHE:    2244242

L2C Dense regions hint from L2: 0
PSCL5 TOTAL     ACCESS:      56140  HIT:      28070  MISS:      28070  HIT %:         50  MISS %:         50   MPKI: 0.5614
PSCL5 LOAD TRANSLATION INSTRUCTION	ACCESS:       4136  HIT:       2068  MISS:       2068  HIT %:         50  MISS %:         50  MPKI: 0.04136
PSCL5 TRANSLATION FROM L1D PREFETCHER INSTRUCTION	ACCESS:      52004  HIT:      26002  MISS:      26002  HIT %:         50  MISS %:         50  MPKI: 0.52004


PSCL4 TOTAL     ACCESS:      52759  HIT:      26374  MISS:      26385  HIT %:    49.9896  MISS %:    50.0104   MPKI: 0.5277
PSCL4 LOAD TRANSLATION INSTRUCTION	ACCESS:       2078  HIT:       1995  MISS:         83  HIT %:    96.0058  MISS %:    3.99423  MPKI: 0.00166
PSCL4 TRANSLATION FROM L1D PREFETCHER INSTRUCTION	ACCESS:      30491  HIT:      24379  MISS:       6112  HIT %:    79.9547  MISS %:    20.0453  MPKI: 0.12224
PSCL4 LOAD TRANSLATION DATA	ACCESS:       1923  HIT:          0  MISS:       1923  HIT %:          0  MISS %:        100  MPKI: 0.03846
PSCL4 TRANSLATION FROM L1D PREFETCHER DATA	ACCESS:      18267  HIT:          0  MISS:      18267  HIT %:          0  MISS %:        100  MPKI: 0.36534


PSCL3 TOTAL     ACCESS:      52805  HIT:      26397  MISS:      26408  HIT %:    49.9896  MISS %:    50.0104   MPKI: 0.52816
PSCL3 LOAD TRANSLATION INSTRUCTION	ACCESS:       2101  HIT:       2018  MISS:         83  HIT %:    96.0495  MISS %:     3.9505  MPKI: 0.00166
PSCL3 TRANSLATION FROM L1D PREFETCHER INSTRUCTION	ACCESS:      30491  HIT:      24379  MISS:       6112  HIT %:    79.9547  MISS %:    20.0453  MPKI: 0.12224
PSCL3 LOAD TRANSLATION DATA	ACCESS:       1946  HIT:          0  MISS:       1946  HIT %:          0  MISS %:        100  MPKI: 0.03892
PSCL3 TRANSLATION FROM L1D PREFETCHER DATA	ACCESS:      18267  HIT:          0  MISS:      18267  HIT %:          0  MISS %:        100  MPKI: 0.36534


PSCL2 TOTAL     ACCESS:      37798  HIT:      18828  MISS:      18970  HIT %:    49.8122  MISS %:    50.1878   MPKI: 0.3794
PSCL2 LOAD TRANSLATION INSTRUCTION	ACCESS:       2218  HIT:       1942  MISS:        276  HIT %:    87.5564  MISS %:    12.4436  MPKI: 0.00552
PSCL2 TRANSLATION FROM L1D PREFETCHER INSTRUCTION	ACCESS:      32909  HIT:      16886  MISS:      16023  HIT %:    51.3112  MISS %:    48.6888  MPKI: 0.32046
PSCL2 LOAD TRANSLATION DATA	ACCESS:       1808  HIT:          0  MISS:       1808  HIT %:          0  MISS %:        100  MPKI: 0.03616
PSCL2 TRANSLATION FROM L1D PREFETCHER DATA	ACCESS:        863  HIT:          0  MISS:        863  HIT %:          0  MISS %:        100  MPKI: 0.01726


LLC TOTAL     ACCESS:     964840  HIT:     932322  MISS:      32518  HIT %:    96.6297  MISS %:     3.3703   MPKI: 0.65036
LLC LOAD INSTRUCTION	ACCESS:     260041  HIT:     259057  MISS:        984  HIT %:    99.6216  MISS %:   0.378402  MPKI: 0.01968
LLC PREFETCH INSTRUCTION	ACCESS:     196265  HIT:     194888  MISS:       1377  HIT %:    99.2984  MISS %:   0.701602  MPKI: 0.02754
LLC LOAD TRANSLATION INSTRUCTION	ACCESS:        204  HIT:        195  MISS:          9  HIT %:    95.5882  MISS %:    4.41176  MPKI: 0.00018
LLC TRANSLATION FROM L1D PREFETCHER INSTRUCTION	ACCESS:      11472  HIT:      11331  MISS:        141  HIT %:    98.7709  MISS %:    1.22908  MPKI: 0.00282
LLC LOAD DATA	ACCESS:     113843  HIT:     109812  MISS:       4031  HIT %:    96.4592  MISS %:    3.54084  MPKI: 0.08062
LLC RFO DATA	ACCESS:      82696  HIT:      68913  MISS:      13783  HIT %:    83.3329  MISS %:    16.6671  MPKI: 0.27566
LLC PREFETCH DATA	ACCESS:     182337  HIT:     170601  MISS:      11736  HIT %:    93.5636  MISS %:    6.43643  MPKI: 0.23472
LLC WRITEBACK DATA	ACCESS:     116488  HIT:     116160  MISS:        328  HIT %:    99.7184  MISS %:   0.281574  MPKI: 0.00656
LLC LOAD TRANSLATION DATA	ACCESS:       1482  HIT:       1355  MISS:        127  HIT %:    91.4305  MISS %:     8.5695  MPKI: 0.00254
LLC TRANSLATION FROM L1D PREFETCHER DATA	ACCESS:         12  HIT:         10  MISS:          2  HIT %:    83.3333  MISS %:    16.6667  MPKI: 4e-05

LLC AVERAGE MISS LATENCY: 159.771 cycles
LLC RQ	ACCESS:     469763	FORWARD:          0	MERGED:          0	TO_CACHE:     469750
LLC WQ	ACCESS:     116489	FORWARD:         14	MERGED:          0	TO_CACHE:     116489
LLC PQ	ACCESS:     378604	FORWARD:          0	MERGED:          0	TO_CACHE:     378603

LLC Dense regions hint to LLC: 0

RAW hits: 1935213
Loads Generated: 12631682
Loads sent to L1D: 10696470
Stores Generated: 6949229
Stores sent to L1D: 6949231
Major fault: 0 Minor fault: 2596
Allocated PAGES: 2596
I-Shadow cache 408 bytes
Touched + WorthPF tables 12288 bytes 
MMA filter 42 bytes 
FNL filter 272 bytes 
TOTAL PREFETCHER STORAGE SIZE: 19922 bytes
CPU 0 L1I next line prefetcher final stats

stream: 
stream:times selected: 1181270
stream:pref_filled: 119920
stream:pref_useful: 22988
stream:pref_late: 8469
stream:misses: 8216
stream:misses_by_poll: 0

CS: 
CS:times selected: 177131
CS:pref_filled: 55674
CS:pref_useful: 32180
CS:pref_late: 10612
CS:misses: 19990
CS:misses_by_poll: 3

CPLX: 
CPLX:times selected: 1002932
CPLX:pref_filled: 19095
CPLX:pref_useful: 3974
CPLX:pref_late: 3951
CPLX:misses: 96282
CPLX:misses_by_poll: 1

NL_L1: 
NL:times selected: 19108
NL:pref_filled: 581
NL:pref_useful: 215
NL:pref_late: 262
NL:misses: 1463
NL:misses_by_poll: 0

total selections: 2380441
total_filled: 94738
total_useful: 34341
total_late: 24837
total_polluted: 4
total_misses_after_warmup: 778694
conflicts: 5531940

test: 114985

DRAM Statistics
 CHANNEL 0
 RQ ROW_BUFFER_HIT:      11044  ROW_BUFFER_MISS:      21131
 DBUS_CONGESTED:         10
 WQ ROW_BUFFER_HIT:       1566  ROW_BUFFER_MISS:      12870  FULL:          0

 AVG_CONGESTED_CYCLE: 5

CPU 0 Branch Prediction Accuracy: 99.8107% MPKI: 0.3463 Average ROB Occupancy at Mispredict: 171.958
Branch types
NOT_BRANCH: 40851036 81.7021%
BRANCH_DIRECT_JUMP: 548319 1.09664%
BRANCH_INDIRECT: 182415 0.36483%
BRANCH_CONDITIONAL: 6179580 12.3592%
BRANCH_DIRECT_CALL: 946969 1.89394%
BRANCH_INDIRECT_CALL: 172330 0.34466%
BRANCH_RETURN: 1119294 2.23859%
BRANCH_OTHER: 0 0%

DRAM PAGES: 1048576
Allocated PAGES: 2596
Average_ROB_Occupancy: 223.231
Average_Decode_Occupancy: 28.7347
Average_FTQ_Occupancy: 11.0258
Indirect max targets: 14 Average targets: 1.17949
Branch_type:  BRANCH_DIRECT_JUMP:  Count Percentage: 3.23342 6.23304 3.41641 5.78579 4.6884 5.96084 0.926259 69.7558 
Branch_type:  BRANCH_INDIRECT:  Count Percentage: 11.7558 3.40708 2.50286 9.68463 11.3361 4.01629 2.01527 55.282 
Branch_type:  BRANCH_CONDITIONAL:  Count Percentage: 20.964 3.81135 1.17721 4.19443 3.29439 4.35091 0.695033 61.5127 
Branch_type:  BRANCH_DIRECT_CALL:  Count Percentage: 0.769623 1.27911 1.11834 3.35523 3.18151 2.3497 0.699499 87.247 
Branch_type:  BRANCH_INDIRECT_CALL:  Count Percentage: 9.55496 0.559713 2.9957 4.83883 1.09791 2.98989 0.995563 76.9674 
Branch_type:  BRANCH_RETURN:  Count Percentage: 5.64002 0.829494 1.62737 6.04178 3.84412 4.62106 1.13061 76.2656 
Branch_type:  BRANCH_DIRECT_JUMP:  Total Count: 35446 68329 37452 63426 51396 65345 10154 764690 
Branch_type:  BRANCH_INDIRECT:  Total Count: 42916 12438 9137 35355 41384 14662 7357 201814 
Branch_type:  BRANCH_CONDITIONAL:  Total Count: 2590387 470945 145461 518280 407068 537615 85881 7600748 
Branch_type:  BRANCH_DIRECT_CALL:  Total Count: 14553 24187 21147 63445 60160 44431 13227 1649776 
Branch_type:  BRANCH_INDIRECT_CALL:  Total Count: 32862 1925 10303 16642 3776 10283 3424 264711 
Branch_type:  BRANCH_RETURN:  Total Count: 126094 18545 36383 135076 85943 103313 25277 1705069 
Number of unique branch instructions: 10649
Upper 32 bits: 
aaaa
ffff
ffff0000
Unique upper 32 bits: 3
Unique upper 36 bits: 3
Unique upper 40 bits: 5
Unique upper 44 bits: 32
Unique upper 48 bits: 157
Variant_0 : 1399 0.341553
Variant_1 : 1297 0.31665
Variant_2 : 1362 0.33252
Variant_3 : 0 0
Offset_3 4410
Offset_4 251
Offset_5 474
Offset_6 534
Offset_7 629
Offset_8 564
Offset_9 513
Offset_10 418
Offset_11 353
Offset_12 322
Offset_13 232
Offset_14 245
Offset_15 194
Offset_16 227
Offset_17 164
Offset_18 149
Offset_19 251
Offset_20 140
Offset_21 235
Offset_22 410
Offset_23 241
Offset_24 341
Offset_25 117
Offset_47 92
decode_dispatch_called: 23966231 64.9026
Dispatch_width: 0 12700119 52.9917 34.393
Dispatch_width: 1 811429 3.38572 2.19742
Dispatch_width: 2 774310 3.23084 2.0969
Dispatch_width: 3 474383 1.97938 1.28467
Dispatch_width: 4 4402873 18.3712 11.9234
Dispatch_width: 5 213389 0.890374 0.577876
Dispatch_width: 6 4589728 19.1508 12.4294
Empty_decode_cycles: 12960206 35.0974
ROB_full_cycles: 7091539 19.2045
Starvation_cycles_per_kilo_instr: 252.452
Starvation_cycles_per_kilo_instr_3: 206.289
Starvation_cycles_per_kilo_instr_0: 185.688
Branch_type_1  (3,1)  (4,7)  (5,38)  (6,73)  (7,123)  (8,147)  (9,137)  (10,111)  (11,79)  (12,55)  (13,11)  (14,2)  (15,3)  (16,4)  (18,1)  (19,5)  (20,2)  (21,1)  (22,3)  (23,2)  (24,10)  (25,12) 
Branch_type_2  (3,1)  (4,1)  (5,1)  (8,4)  (9,4)  (10,1)  (12,1)  (13,1)  (14,1)  (16,3)  (17,2)  (20,2)  (21,2)  (23,5)  (24,1)  (47,41) 
Branch_type_3  (3,4408)  (4,243)  (5,431)  (6,445)  (7,477)  (8,350)  (9,280)  (10,167)  (11,138)  (12,62)  (13,10) 
Branch_type_4  (6,3)  (7,8)  (8,25)  (9,53)  (10,66)  (11,70)  (12,113)  (13,98)  (14,111)  (15,92)  (16,99)  (17,76)  (18,65)  (19,122)  (20,71)  (21,124)  (22,216)  (23,136)  (24,197)  (25,101) 
Branch_type_5  (8,3)  (9,1)  (10,4)  (11,5)  (12,3)  (13,14)  (14,16)  (15,11)  (16,22)  (17,11)  (18,23)  (19,14)  (20,11)  (21,13)  (22,43)  (23,26)  (24,37) 
Branch_type_6  (5,4)  (6,13)  (7,21)  (8,35)  (9,38)  (10,69)  (11,61)  (12,88)  (13,98)  (14,115)  (15,88)  (16,99)  (17,75)  (18,60)  (19,110)  (20,54)  (21,95)  (22,148)  (23,72)  (24,96)  (25,4)  (47,51) 
Unique trigger count: 
Variant_0_evicts_0 : 0
Variant_0_evicts_1 : 0
Variant_0_evicts_2 : 0
Variant_0_evicts_3 : 0
Variant_1_evicts_0 : 0
Variant_1_evicts_1 : 0
Variant_1_evicts_2 : 0
Variant_1_evicts_3 : 0
Variant_2_evicts_0 : 0
Variant_2_evicts_1 : 0
Variant_2_evicts_2 : 0
Variant_2_evicts_3 : 0
Variant_3_evicts_0 : 0
Variant_3_evicts_1 : 0
Variant_3_evicts_2 : 0
Variant_3_evicts_3 : 0
BTB PER SET UNIQUE ADDR: 11 10 16 14 15 11 10 15 11 13 14 22 18 11 15 11 8 9 11 11 13 14 12 14 10 11 10 13 11 13 15 11 12 13 7 14 16 12 7 11 8 10 19 20 13 13 14 6 13 13 16 13 12 11 16 6 12 9 9 10 14 15 11 13 9 12 11 11 13 11 15 11 14 12 8 12 7 13 11 19 16 7 12 15 14 15 10 14 8 17 9 9 15 10 9 13 9 11 10 12 18 14 17 10 13 7 9 10 11 4 11 17 9 10 10 6 10 13 13 13 12 10 7 14 11 12 8 11 13 13 12 11 11 11 9 14 10 12 15 16 13 15 11 11 11 11 16 11 7 16 13 11 13 10 9 12 15 13 15 12 18 9 13 16 11 12 11 8 12 10 12 13 13 12 12 10 8 13 12 11 11 13 13 15 16 11 7 10 14 13 15 15 12 12 15 13 13 16 11 14 15 13 13 10 13 13 14 13 11 11 8 12 14 11 11 15 15 17 12 18 9 16 12 10 13 13 19 14 9 12 11 7 9 16 12 11 11 17 11 9 19 8 17 16 8 12 10 11 16 12 20 12 12 14 14 14 10 8 9 9 16 7 6 11 13 8 7 13 12 15 13 10 10 10 8 12 10 15 14 10 14 12 9 11 17 10 13 17 20 16 9 10 15 18 9 17 14 13 13 10 12 13 10 17 14 10 13 10 16 12 12 18 7 17 12 10 16 12 12 14 11 13 9 13 15 12 16 7 8 8 10 14 13 10 10 13 12 9 8 18 10 14 8 16 14 14 15 12 10 12 12 10 13 15 14 22 15 16 12 9 12 12 8 13 13 17 10 12 15 12 12 4 10 15 10 13 10 19 12 15 15 14 9 9 9 13 10 13 14 12 13 14 17 14 12 9 10 11 15 9 9 14 11 12 16 14 13 12 11 10 14 7 8 17 12 12 13 13 23 22 13 15 11 13 16 16 14 8 16 15 20 11 15 9 13 13 14 12 11 12 15 11 10 19 20 10 12 13 16 12 19 19 14 9 16 22 12 18 10 15 11 10 11 14 17 10 11 11 10 20 13 14 12 10 12 19 10 14 9 15 17 14 15 14 11 13 16 12 14 11 16 17 10 9 8 11 13 12 10 16 14 19 16 18 9 12 8 19 18 10 11 18 13 11 17 15 14 18 11 7 13 9 11 6 6 14 17 6 9 20 13 15 13 13 14 14 6 14 15 16 16 8 15 14 14 14 12 15 8 12 11 12 14 13 12 15 16 9 11 19 13 18 14 13 9 13 10 10 13 15 14 14 9 19 13 13 13 17 7 10 11 11 10 10 17 10 10 9 13 13 14 11 9 15 17 13 11 15 10 11 13 9 13 11 12 10 22 13 8 9 20 13 11 10 4 13 12 11 13 13 15 12 8 9 11 17 8 16 9 16 7 18 14 14 11 12 10 15 7 12 12 13 11 11 16 15 12 14 14 10 9 15 12 14 15 15 15 9 11 17 13 9 11 16 16 10 8 15 9 11 14 14 12 15 12 8 13 12 11 12 15 20 12 11 17 12 7 12 16 18 13 14 16 8 12 12 10 12 9 14 6 17 15 9 9 16 9 6 10 8 8 16 9 9 15 9 17 12 9 13 12 12 9 9 11 12 13 5 10 13 15 6 13 11 7 17 14 8 17 15 13 13 14 11 13 19 11 14 10 12 12 8 15 13 11 13 15 10 6 7 12 9 7 7 12 15 10 11 18 13 12 14 12 8 8 8 14 8 21 12 8 15 16 11 13 16 7 12 11 7 11 8 14 13 19 17 10 11 15 13 13 16 20 14 20 13 13 11 12 11 14 23 13 15 10 14 18 14 5 14 12 21 9 13 11 13 13 10 13 12 14 12 13 13 12 15 14 11 10 9 13 15 15 16 9 20 12 11 14 10 10 14 11 12 11 12 15 13 12 12 10 16 8 10 16 9 11 8 14 9 15 15 18 16 13 5 14 13 10 17 13 10 14 14 15 16 17 14 12 18 20 12 13 15 14 17 16 14 11 9 16 11 15 9 8 13 15 15 13 17 11 14 13 15 13 12 21 7 12 11 16 15 12 9 11 12 7 12 17 9 18 16 16 11 19 11 15 9 15 14 9 14 9 11 14 10 18 8 12 14 17 14 14 13 9 10 14 12 14 14 16 13 12 17 9 13 21 17 10 13 12 15 13 12 15 15 16 13 14 17 9 10 14 11 15 17 17 15 17 9 15 14 7 14 14 12 12 16 12 8 18 15 10 11 13 13 9 13 11 18 16 19 11 6 12 14 7 11 9 7 15 10 8 10 
BTB PER SET COUNT: 1409 13 3339 299 3185 2057 283 3781 3437 407 2169 5908 7784 226 2962 528 3980 676 1601 52 300 69 3401 1052 2538 16 1142 741 1166 254 6580 1959 21 826 13 374 1166 435 1248 762 1651 1240 1488 947 3684 1128 1086 6 1093 1499 2272 2956 16 926 2316 486 11382 4105 1998 15 397 1287 13 2852 1696 529 1464 2530 26 1574 939 1313 1544 2225 2016 1503 9 2252 354 1153 1196 2586 678 2116 1725 4806 75 270 813 3826 13 963 3187 3176 579 290 3083 35 435 3081 328 677 2178 100 2248 168 576 2232 2868 4 16 3679 1857 1703 992 7 532 2441 3942 4335 2367 4692 15 555 3093 2916 578 18 2686 5187 4523 36 18 1881 11 5166 128 22 1280 2143 17 3662 1071 3338 4536 695 7094 372 8 2011 1865 2520 3875 1067 3108 4251 3308 11687 19 14 1384 14 404 5194 2555 305 21 1084 672 617 1161 1198 414 1483 1921 1617 1190 1797 722 1486 1543 2944 68 394 986 835 11 23 1876 2892 575 782 689 20 2604 8389 5163 26 1450 1769 1649 1328 852 487 4418 61 85 18 682 1477 138 1834 2042 316 30 24 2665 288 2831 25 3434 1007 168 5049 407 1505 2174 1737 3567 3159 523 922 164 1495 37 5636 2071 1989 747 71 1747 9 228 2398 395 9099 2085 2394 623 45 1518 328 363 9753 160 3998 11681 1169 12 14 1178 2976 7 2571 3192 191 8 4940 1956 2933 956 1220 1467 1230 1272 2109 13 561 1682 589 447 24 3036 1705 8445 17 2205 3717 4013 963 2156 1158 274 887 45 72 8168 313 5461 826 3110 2190 3923 206 1429 1643 1822 56 2220 1613 1882 2724 8 2941 3095 1111 142 54 1840 2461 819 8273 18 236 5575 27 2731 12 587 93 2228 72 618 175 16 1177 402 2032 400 4350 1652 2225 7902 425 346 485 5656 332 3030 19 18 90 2553 24 3594 1332 1892 4517 534 26 16 856 515 1478 5283 944 2432 3146 684 3747 31 4 1451 2512 492 889 5882 2268 2477 1111 4144 2698 2978 2966 1694 1894 17 32 596 2422 689 2936 2169 638 356 1207 309 1360 2952 271 1881 1213 4140 644 330 2511 1042 956 957 2150 1950 219 2342 4809 505 2751 926 11415 4633 3281 31 2108 30 21 733 2309 1630 2449 1288 4935 1181 154 3028 11 1532 22 379 1289 9797 1573 1832 735 76 348 6566 17 808 278 29 2855 2178 83 43 883 1573 7499 105 3650 158 709 610 17 2294 2023 471 4020 2816 15 5664 4470 521 273 2603 11 5003 1372 1453 785 506 1087 898 2395 4289 2791 198 442 747 860 4838 633 3054 6185 9318 15 425 1155 2753 3908 19 197 3214 1427 3970 2520 14 2195 38 1132 4655 468 230 1643 737 6419 2106 4069 920 7302 28 347 984 5013 32 488 612 4894 132 6 10 4455 2125 423 2348 2254 421 861 7 1511 35 3038 584 1815 3109 830 3500 2796 1216 45 360 1707 4287 3011 3616 5967 284 303 1392 2998 24 601 2051 658 827 3005 14 3823 155 68 1732 1712 442 5850 437 3937 3232 8305 5647 7509 7 1497 2433 257 957 5918 568 214 1295 494 4147 5251 336 8631 14 2427 2636 254 4685 3352 456 1117 4868 509 2299 100 595 467 2331 5039 383 474 583 890 243 4356 19 4070 1929 2404 1215 2760 3918 208 751 1535 1821 2804 1497 5135 1338 7018 3742 1494 464 7161 218 518 2286 5589 15 2097 401 2885 718 234 4192 734 2829 3476 1916 2074 1819 3915 1250 2310 996 1433 1079 1726 423 5047 1408 103 387 34 918 2538 10 2389 3654 908 2215 237 2487 105 1570 193 211 5703 14 352 1250 1831 108 3512 3049 5996 566 1336 1676 2497 1659 3255 4207 312 2727 743 26 3665 83 1280 1956 428 9270 173 940 503 1214 6 519 13 18 1976 977 1778 2683 714 1166 3544 12 2147 25 3889 5235 4478 4104 1787 2873 7 1144 30 284 8 1651 863 1965 3143 3259 373 173 5775 1613 2893 3145 396 627 1676 432 2298 5919 566 3179 11 578 4014 4178 56 215 1033 13 8 1892 1675 9 9 1436 501 3020 2252 293 3018 1204 4425 1459 19 879 11 139 2472 2638 536 21 1018 1390 11 5291 435 15 931 2511 7 1429 1186 1438 1055 982 4203 12 1390 1854 585 19 1132 1081 1379 2127 1492 1645 2394 4475 10173 1633 545 2681 1754 17 4238 210 3196 2575 3996 1337 652 1002 1027 1858 3645 1346 2632 5030 889 244 1886 2140 859 647 2463 1969 4498 2247 1490 5323 514 1559 874 1385 1390 1082 33 1785 12405 14 907 3874 882 4048 3538 4180 22 1799 983 198 2039 3577 12 62 810 16 14 3079 755 103 3491 2997 5126 7004 3886 4524 2130 1318 80 880 3614 3365 2069 4497 4296 1485 29 2153 626 4530 2093 516 2705 48 270 2894 257 4196 258 255 631 2824 2577 10 1466 2059 420 2648 1657 1000 2034 573 3197 2619 15 4992 2740 1102 15 1770 2734 2958 20 211 117 10 3028 2628 1003 411 1288 2283 267 2082 3570 5708 12 2575 92 3360 2233 2028 46 7040 54 461 1362 5054 1326 977 632 5813 4495 4130 287 2036 628 1970 1273 2947 3436 3722 925 20 153 1409 1878 19 2341 592 6183 16 1475 7219 2842 727 1019 68 2801 13 398 1523 17 155 2769 527 57 2546 224 3087 1116 9 969 1687 170 37 887 27 1136 2540 4087 621 279 2036 153 13 2582 68 5227 300 3072 833 6 1646 3210 16 999 655 7 287 3512 10 777 
To predecode: 1197275
Predecoding something: 759816
Predecode request dropped: 0
sizeofblock_0 0
sizeofblock_1 316698
sizeofblock_2 453782
sizeofblock_3 805037
sizeofblock_4 225844
sizeofblock_5 0
sizeofblock_6 0
sizeofblock_7 0
sizeofblock_8 0
Variant_0 Correct: 1614853 Incorrect: 0 Accuracy: 1
Variant_1 Correct: 2092202 Incorrect: 0 Accuracy: 1
Variant_2 Correct: 5062560 Incorrect: 0 Accuracy: 1
Variant_3 Correct: 0 Incorrect: 0 Accuracy: -nan
