
*** ChampSim Multicore Out-of-Order Simulator ***

Warmup Instructions: 50000000
Simulation Instructions: 50000000
Number of CPUs: 1
LLC sets: 2048
LLC ways: 16
Off-chip DRAM Size: 4096 MB Channels: 1 Width: 64-bit Data Rate: 6400 MT/s
CPU 0 runs ./micro_traces/srv102.trace.gz
.gz
ITLB has LRU replacement policy
DTLB has LRU replacement policy
STLB has LRU replacement policy
FDIP Prefetcher at L1I
L1I has LRU replacement policy
L1D has LRU replacement policy
Initialize SRRIP state for L2C
Initialize DRRIP state for LLC
Heartbeat_Variant_0 : 1135 0.2771 per_variant_size: 0 1135 0 0 0 0 0 0 0 
Heartbeat_Variant_1 : 1129 0.275635 per_variant_size: 0 514 615 0 0 0 0 0 0 
Heartbeat_Variant_2 : 994 0.242676 per_variant_size: 0 283 298 246 167 0 0 0 0 
Heartbeat_Variant_3 : 0 0 per_variant_size: 0 0 0 0 0 0 0 0 0 
Heartbeat_Variant_0_evicts 0 : 18204 1 : 7070 2 : 6980 3 : 0 
Heartbeat_Variant_1_evicts 0 : 7011 1 : 0 2 : 4266 3 : 0 
Heartbeat_Variant_2_evicts 0 : 6992 1 : 4060 2 : 0 3 : 0 
Heartbeat_Variant_3_evicts 0 : 0 1 : 0 2 : 0 3 : 0 
Heartbeat CPU 0 instructions: 10000000 cycles: 2796959 heartbeat IPC: 3.57531 cumulative IPC: 3.57531 (Simulation time: 0 hr 1 min 53 sec) 
Heartbeat_Variant_0 : 1160 0.283203 per_variant_size: 0 1160 0 0 0 0 0 0 0 
Heartbeat_Variant_1 : 1147 0.280029 per_variant_size: 0 502 645 0 0 0 0 0 0 
Heartbeat_Variant_2 : 997 0.243408 per_variant_size: 0 269 300 240 188 0 0 0 0 
Heartbeat_Variant_3 : 0 0 per_variant_size: 0 0 0 0 0 0 0 0 0 
Heartbeat_Variant_0_evicts 0 : 18469 1 : 7337 2 : 6977 3 : 0 
Heartbeat_Variant_1_evicts 0 : 7246 1 : 0 2 : 4153 3 : 0 
Heartbeat_Variant_2_evicts 0 : 7053 1 : 4070 2 : 0 3 : 0 
Heartbeat_Variant_3_evicts 0 : 0 1 : 0 2 : 0 3 : 0 
Heartbeat CPU 0 instructions: 20000001 cycles: 5593036 heartbeat IPC: 3.57644 cumulative IPC: 3.57588 (Simulation time: 0 hr 3 min 59 sec) 
Heartbeat_Variant_0 : 1168 0.285156 per_variant_size: 0 1168 0 0 0 0 0 0 0 
Heartbeat_Variant_1 : 1141 0.278564 per_variant_size: 0 496 645 0 0 0 0 0 0 
Heartbeat_Variant_2 : 995 0.24292 per_variant_size: 0 269 294 246 186 0 0 0 0 
Heartbeat_Variant_3 : 0 0 per_variant_size: 0 0 0 0 0 0 0 0 0 
Heartbeat_Variant_0_evicts 0 : 18641 1 : 7402 2 : 7156 3 : 0 
Heartbeat_Variant_1_evicts 0 : 7361 1 : 0 2 : 4188 3 : 0 
Heartbeat_Variant_2_evicts 0 : 7189 1 : 4153 2 : 0 3 : 0 
Heartbeat_Variant_3_evicts 0 : 0 1 : 0 2 : 0 3 : 0 
Heartbeat CPU 0 instructions: 30000000 cycles: 8389467 heartbeat IPC: 3.57599 cumulative IPC: 3.57591 (Simulation time: 0 hr 5 min 54 sec) 
Heartbeat_Variant_0 : 1173 0.286377 per_variant_size: 0 1173 0 0 0 0 0 0 0 
Heartbeat_Variant_1 : 1173 0.286377 per_variant_size: 0 486 687 0 0 0 0 0 0 
Heartbeat_Variant_2 : 1007 0.24585 per_variant_size: 0 259 292 259 197 0 0 0 0 
Heartbeat_Variant_3 : 0 0 per_variant_size: 0 0 0 0 0 0 0 0 0 
Heartbeat_Variant_0_evicts 0 : 18563 1 : 7422 2 : 7003 3 : 0 
Heartbeat_Variant_1_evicts 0 : 7303 1 : 0 2 : 4195 3 : 0 
Heartbeat_Variant_2_evicts 0 : 7131 1 : 4054 2 : 0 3 : 0 
Heartbeat_Variant_3_evicts 0 : 0 1 : 0 2 : 0 3 : 0 
Heartbeat CPU 0 instructions: 40000001 cycles: 11186982 heartbeat IPC: 3.5746 cumulative IPC: 3.57558 (Simulation time: 0 hr 8 min 0 sec) 
Heartbeat_Variant_0 : 1186 0.289551 per_variant_size: 0 1186 0 0 0 0 0 0 0 
Heartbeat_Variant_1 : 1165 0.284424 per_variant_size: 0 489 676 0 0 0 0 0 0 
Heartbeat_Variant_2 : 1002 0.244629 per_variant_size: 0 256 293 251 202 0 0 0 0 
Heartbeat_Variant_3 : 0 0 per_variant_size: 0 0 0 0 0 0 0 0 0 
Heartbeat_Variant_0_evicts 0 : 18670 1 : 7491 2 : 7019 3 : 0 
Heartbeat_Variant_1_evicts 0 : 7343 1 : 0 2 : 4133 3 : 0 
Heartbeat_Variant_2_evicts 0 : 7154 1 : 3993 2 : 0 3 : 0 
Heartbeat_Variant_3_evicts 0 : 0 1 : 0 2 : 0 3 : 0 
Heartbeat CPU 0 instructions: 50000002 cycles: 13983512 heartbeat IPC: 3.57586 cumulative IPC: 3.57564 (Simulation time: 0 hr 10 min 0 sec) 

Warmup complete CPU 0 instructions: 50000002 cycles: 13983512 (Simulation time: 0 hr 10 min 0 sec) 

Cycle: 20000000 FTQ IN: 56797181 FTQ occupancy: 18.0219 DECODE IN: 56797181 DECODE occupancy: 46.0804 ROB IN: 56797181 ROB occupancy: 278.38 ROB OUT: 56797152
Heartbeat_Variant_0 : 1186 0.289551 per_variant_size: 0 1186 0 0 0 0 0 0 0 
Heartbeat_Variant_1 : 1163 0.283936 per_variant_size: 0 502 661 0 0 0 0 0 0 
Heartbeat_Variant_2 : 1007 0.24585 per_variant_size: 0 257 291 263 196 0 0 0 0 
Heartbeat_Variant_3 : 0 0 per_variant_size: 0 0 0 0 0 0 0 0 0 
Heartbeat_Variant_0_evicts 0 : 18462 1 : 7324 2 : 6851 3 : 0 
Heartbeat_Variant_1_evicts 0 : 7149 1 : 0 2 : 4107 3 : 0 
Heartbeat_Variant_2_evicts 0 : 7026 1 : 3937 2 : 0 3 : 0 
Heartbeat_Variant_3_evicts 0 : 0 1 : 0 2 : 0 3 : 0 
Heartbeat CPU 0 instructions: 60000001 cycles: 22837025 heartbeat IPC: 1.1295 cumulative IPC: 1.1295 (Simulation time: 0 hr 11 min 50 sec) 
Cycle: 30000000 FTQ IN: 11320523 FTQ occupancy: 6.48297 DECODE IN: 11320523 DECODE occupancy: 13.6978 ROB IN: 11320523 ROB occupancy: 116.585 ROB OUT: 11320472
Heartbeat_Variant_0 : 1189 0.290283 per_variant_size: 0 1189 0 0 0 0 0 0 0 
Heartbeat_Variant_1 : 1163 0.283936 per_variant_size: 0 491 672 0 0 0 0 0 0 
Heartbeat_Variant_2 : 1004 0.245117 per_variant_size: 0 250 294 254 206 0 0 0 0 
Heartbeat_Variant_3 : 0 0 per_variant_size: 0 0 0 0 0 0 0 0 0 
Heartbeat_Variant_0_evicts 0 : 18496 1 : 7246 2 : 6939 3 : 0 
Heartbeat_Variant_1_evicts 0 : 7087 1 : 0 2 : 4236 3 : 0 
Heartbeat_Variant_2_evicts 0 : 7095 1 : 4077 2 : 0 3 : 0 
Heartbeat_Variant_3_evicts 0 : 0 1 : 0 2 : 0 3 : 0 
Heartbeat CPU 0 instructions: 70000003 cycles: 31783227 heartbeat IPC: 1.11779 cumulative IPC: 1.12361 (Simulation time: 0 hr 13 min 44 sec) 
Cycle: 40000000 FTQ IN: 11097093 FTQ occupancy: 6.61545 DECODE IN: 11097081 DECODE occupancy: 13.8629 ROB IN: 11097076 ROB occupancy: 115.444 ROB OUT: 11097088
Heartbeat_Variant_0 : 1181 0.28833 per_variant_size: 0 1181 0 0 0 0 0 0 0 
Heartbeat_Variant_1 : 1163 0.283936 per_variant_size: 0 491 672 0 0 0 0 0 0 
Heartbeat_Variant_2 : 1012 0.24707 per_variant_size: 0 261 292 257 202 0 0 0 0 
Heartbeat_Variant_3 : 0 0 per_variant_size: 0 0 0 0 0 0 0 0 0 
Heartbeat_Variant_0_evicts 0 : 18853 1 : 7411 2 : 7153 3 : 0 
Heartbeat_Variant_1_evicts 0 : 7282 1 : 0 2 : 4309 3 : 0 
Heartbeat_Variant_2_evicts 0 : 7290 1 : 4180 2 : 0 3 : 0 
Heartbeat_Variant_3_evicts 0 : 0 1 : 0 2 : 0 3 : 0 
Heartbeat CPU 0 instructions: 80000000 cycles: 40699859 heartbeat IPC: 1.1215 cumulative IPC: 1.12291 (Simulation time: 0 hr 15 min 29 sec) 
Heartbeat_Variant_0 : 1189 0.290283 per_variant_size: 0 1189 0 0 0 0 0 0 0 
Heartbeat_Variant_1 : 1159 0.282959 per_variant_size: 0 486 673 0 0 0 0 0 0 
Heartbeat_Variant_2 : 1008 0.246094 per_variant_size: 0 259 293 257 199 0 0 0 0 
Heartbeat_Variant_3 : 0 0 per_variant_size: 0 0 0 0 0 0 0 0 0 
Heartbeat_Variant_0_evicts 0 : 18624 1 : 7274 2 : 7095 3 : 0 
Heartbeat_Variant_1_evicts 0 : 7251 1 : 0 2 : 4137 3 : 0 
Heartbeat_Variant_2_evicts 0 : 7110 1 : 4118 2 : 0 3 : 0 
Heartbeat_Variant_3_evicts 0 : 0 1 : 0 2 : 0 3 : 0 
Heartbeat CPU 0 instructions: 90000000 cycles: 49666694 heartbeat IPC: 1.11522 cumulative IPC: 1.12098 (Simulation time: 0 hr 17 min 25 sec) 
Cycle: 50000000 FTQ IN: 11142435 FTQ occupancy: 6.607 DECODE IN: 11142427 DECODE occupancy: 13.8915 ROB IN: 11142415 ROB occupancy: 116.286 ROB OUT: 11142160
Heartbeat_Variant_0 : 1232 0.300781 per_variant_size: 0 1232 0 0 0 0 0 0 0 
Heartbeat_Variant_1 : 1213 0.296143 per_variant_size: 0 471 742 0 0 0 0 0 0 
Heartbeat_Variant_2 : 1021 0.249268 per_variant_size: 0 255 276 271 219 0 0 0 0 
Heartbeat_Variant_3 : 0 0 per_variant_size: 0 0 0 0 0 0 0 0 0 
Heartbeat_Variant_0_evicts 0 : 18742 1 : 7298 2 : 7127 3 : 0 
Heartbeat_Variant_1_evicts 0 : 7226 1 : 0 2 : 4442 3 : 0 
Heartbeat_Variant_2_evicts 0 : 7200 1 : 4351 2 : 0 3 : 0 
Heartbeat_Variant_3_evicts 0 : 0 1 : 0 2 : 0 3 : 0 
Heartbeat CPU 0 instructions: 100000003 cycles: 58715098 heartbeat IPC: 1.10517 cumulative IPC: 1.11778 (Simulation time: 0 hr 19 min 4 sec) 
Finished CPU 0 instructions: 50000001 cycles: 44731586 cumulative IPC: 1.11778 (Simulation time: 0 hr 19 min 4 sec) 

ChampSim completed all CPUs

Region of Interest Statistics

CPU 0 cumulative IPC: 1.11778 instructions: 50000001 cycles: 44731586
 Fetch stage stalled: 71.363  Sim cycles: 44731586 fetch stall cycle: 31921791
 Empty decode stage: 64.1923  Sim cycles: 44731586 fetch stall cycle: 28714220
ITLB TOTAL     ACCESS:    5772440  HIT:    5274042  MISS:     498398  HIT %:    91.3659  MISS %:     8.6341   MPKI: 9.96796
ITLB LOAD TRANSLATION INSTRUCTION	ACCESS:    5671919  HIT:    5173521  MISS:     498398  HIT %:    91.2129  MISS %:    8.78711  MPKI: 9.96796
ITLB TRANSLATION FROM L1D PREFETCHER INSTRUCTION	ACCESS:     100521  HIT:     100521  MISS:          0  HIT %:        100  MISS %:          0  MPKI: 0

ITLB AVERAGE MISS LATENCY: 9.05315 cycles
ITLB RQ	ACCESS:    7600077	FORWARD:          0	MERGED:    1391534	TO_CACHE:    6208543

DTLB TOTAL     ACCESS:    9355674  HIT:    8882078  MISS:     473596  HIT %:    94.9379  MISS %:    5.06213   MPKI: 9.47192
DTLB LOAD TRANSLATION DATA	ACCESS:    9355674  HIT:    8882078  MISS:     473596  HIT %:    94.9379  MISS %:    5.06213  MPKI: 9.47192

DTLB AVERAGE MISS LATENCY: 9.32981 cycles
DTLB RQ	ACCESS:   13637602	FORWARD:          0	MERGED:    4249672	TO_CACHE:    9387930

STLB TOTAL     ACCESS:    1215741  HIT:    1213748  MISS:       1993  HIT %:    99.8361  MISS %:   0.163933   MPKI: 0.03986
STLB LOAD TRANSLATION INSTRUCTION	ACCESS:     498398  HIT:     498138  MISS:        260  HIT %:    99.9478  MISS %:  0.0521671  MPKI: 0.0052
STLB LOAD TRANSLATION DATA	ACCESS:     473292  HIT:     471586  MISS:       1706  HIT %:    99.6395  MISS %:   0.360454  MPKI: 0.03412
STLB TRANSLATION FROM L1D PREFETCHER DATA	ACCESS:     244051  HIT:     244024  MISS:         27  HIT %:    99.9889  MISS %:  0.0110633  MPKI: 0.00054

STLB AVERAGE MISS LATENCY: 79.3482 cycles
STLB RQ	ACCESS:    1333856	FORWARD:          0	MERGED:     118067	TO_CACHE:    1215789

STLB Hit, L1D data hit: 0
STLB Hit, L2C data hit: 0
STLB Hit, LLC data hit: 0
STLB Hit, LLC data miss: 0
STLB STLB hints to L2: 0
L1D TOTAL     ACCESS:   13395005  HIT:   12268572  MISS:    1126433  HIT %:    91.5906  MISS %:    8.40935   MPKI: 22.5287
L1D LOAD DATA	ACCESS:    6818927  HIT:    6073552  MISS:     745375  HIT %:     89.069  MISS %:     10.931  MPKI: 14.9075
L1D RFO DATA	ACCESS:    6254916  HIT:    5967019  MISS:     287897  HIT %:    95.3973  MISS %:    4.60273  MPKI: 5.75794
L1D PREFETCH DATA	ACCESS:     321162  HIT:     228001  MISS:      93161  HIT %:    70.9925  MISS %:    29.0075  MPKI: 1.86322

L1D PREFETCH  REQUESTED:     724015  ISSUED:     724015  USEFUL:      33646  USELESS:      67019
L1D USEFUL LOAD PREFETCHES:      33646 PREFETCH ISSUED TO LOWER LEVEL:     100710  ACCURACY: 33.4088
 TIMELY PREFETCHES:      33646 LATE PREFETCHES: 7490 DROPPED PREFETCHES: 9
L1D AVERAGE MISS LATENCY: 246233 cycles
L1D RQ	ACCESS:   10891160	FORWARD:          0	MERGED:    3876632	TO_CACHE:    6851157
L1D WQ	ACCESS:    6959238	FORWARD:     163662	MERGED:     172793	TO_CACHE:    6786445
L1D PQ	ACCESS:     362153	FORWARD:          0	MERGED:          0	TO_CACHE:     361862

L1D UNIQUE REGIONS ACCESSED: 0
L1D REGIONS CONFLICTS: 0
L1D Cross Page Prefetch Requests: 7094
L1D Same Page Prefetch Requests: 741094
L1D ROI Sum of L1D PQ occupancy: 4603683
L1D PREFETCHES PUSHED FROM L2C: 0
L1I TOTAL     ACCESS:    7086734  HIT:    4302282  MISS:    2784452  HIT %:     60.709  MISS %:     39.291   MPKI: 55.689
L1I LOAD INSTRUCTION	ACCESS:    6581651  HIT:    3797199  MISS:    2784452  HIT %:    57.6937  MISS %:    42.3063  MPKI: 55.689
L1I PREFETCH INSTRUCTION	ACCESS:     505083  HIT:     505083  MISS:          0  HIT %:        100  MISS %:          0  MPKI: 0

L1I PREFETCH  REQUESTED:    1084352  ISSUED:    1084352  USEFUL:          0  USELESS:          0
L1I USEFUL LOAD PREFETCHES:          0 PREFETCH ISSUED TO LOWER LEVEL:          0  ACCURACY: -nan
 TIMELY PREFETCHES:          0 LATE PREFETCHES: 0 DROPPED PREFETCHES: 0
L1I AVERAGE MISS LATENCY: 17.0587 cycles
L1I RQ	ACCESS:    9454632	FORWARD:          0	MERGED:    2631708	TO_CACHE:    6822924
L1I PQ	ACCESS:    1084352	FORWARD:          0	MERGED:     307199	TO_CACHE:     777153

L1BTB TOTAL     ACCESS:    5672176  HIT:    2021882  MISS:    3650294  HIT %:    35.6456  MISS %:    64.3544   MPKI: 73.0059
L1BTB BRANCH_DIRECT_JUMP	ACCESS:     547903  HIT:     142988  MISS:     404915	AVERAGE STALL: 36.575
L1BTB BRANCH_INDIRECT	ACCESS:     182092  HIT:      65218  MISS:     116874	AVERAGE STALL: 79.0772
L1BTB BRANCH_CONDITIONAL	ACCESS:    2695850  HIT:    1396996  MISS:    1298854	AVERAGE STALL: 36.2474
L1BTB BRANCH_DIRECT_CALL	ACCESS:     950808  HIT:     105394  MISS:     845414	AVERAGE STALL: 36.5995
L1BTB BRANCH_INDIRECT_CALL	ACCESS:     172365  HIT:      21117  MISS:     151248	AVERAGE STALL: 108.409
L1BTB BRANCH_RETURN	ACCESS:    1123158  HIT:     290169  MISS:     832989	AVERAGE STALL: 36.501
L1BTB BRANCH_OTHER ACCESS:          0  HIT:          0  MISS:          0	AVERAGE STALL: -nan
L1BTB TOTAL ROB OCCUPANCY AT BTB MISS: 12.5797

L2BTB TOTAL     ACCESS:    3625067  HIT:    3163322  MISS:     461745  HIT %:    87.2624  MISS %:    12.7376   MPKI: 9.2349
L2BTB BRANCH_DIRECT_JUMP	ACCESS:     400881  HIT:     356847  MISS:      44034	AVERAGE STALL: 36.575
L2BTB BRANCH_INDIRECT	ACCESS:     106505  HIT:      98933  MISS:       7572	AVERAGE STALL: 79.0772
L2BTB BRANCH_CONDITIONAL	ACCESS:    1298854  HIT:    1151832  MISS:     147022	AVERAGE STALL: 36.2474
L2BTB BRANCH_DIRECT_CALL	ACCESS:     845414  HIT:     705694  MISS:     139720	AVERAGE STALL: 36.5995
L2BTB BRANCH_INDIRECT_CALL	ACCESS:     141850  HIT:     113220  MISS:      28630	AVERAGE STALL: 108.409
L2BTB BRANCH_RETURN	ACCESS:     831563  HIT:     736796  MISS:      94767	AVERAGE STALL: 36.501
L2BTB BRANCH_OTHER ACCESS:          0  HIT:          0  MISS:          0	AVERAGE STALL: -nan
L2BTB TOTAL ROB OCCUPANCY AT BTB MISS: 99.4476

L2C TOTAL     ACCESS:    4518916  HIT:    4067957  MISS:     450959  HIT %:    90.0206  MISS %:    9.97936   MPKI: 9.01918
L2C LOAD INSTRUCTION	ACCESS:    2784452  HIT:    2535407  MISS:     249045  HIT %:    91.0559  MISS %:    8.94413  MPKI: 4.9809
L2C LOAD TRANSLATION INSTRUCTION	ACCESS:        295  HIT:         72  MISS:        223  HIT %:    24.4068  MISS %:    75.5932  MPKI: 0.00446
L2C LOAD DATA	ACCESS:     737831  HIT:     670825  MISS:      67006  HIT %:    90.9185  MISS %:    9.08148  MPKI: 1.34012
L2C RFO DATA	ACCESS:     287821  HIT:     235482  MISS:      52339  HIT %:    81.8154  MISS %:    18.1846  MPKI: 1.04678
L2C PREFETCH DATA	ACCESS:     180570  HIT:     113502  MISS:      67068  HIT %:    62.8576  MISS %:    37.1424  MPKI: 1.34136
L2C WRITEBACK DATA	ACCESS:     526130  HIT:     512147  MISS:      13983  HIT %:    97.3423  MISS %:    2.65771  MPKI: 0.27966
L2C LOAD TRANSLATION DATA	ACCESS:       1765  HIT:        488  MISS:       1277  HIT %:    27.6487  MISS %:    72.3513  MPKI: 0.02554
L2C TRANSLATION FROM L1D PREFETCHER DATA	ACCESS:         52  HIT:         34  MISS:         18  HIT %:    65.3846  MISS %:    34.6154  MPKI: 0.00036

L2C PREFETCH  REQUESTED:      86520  ISSUED:      86520  USEFUL:       7305  USELESS:      60060
L2C USEFUL LOAD PREFETCHES:       7305 PREFETCH ISSUED TO LOWER LEVEL:      67400  ACCURACY: 10.8383
 TIMELY PREFETCHES:       7305 LATE PREFETCHES: 332 DROPPED PREFETCHES: 0
L2C AVERAGE MISS LATENCY: 38.9045 cycles
L2C RQ	ACCESS:    3812291	FORWARD:          0	MERGED:          0	TO_CACHE:    3812220
L2C WQ	ACCESS:     526130	FORWARD:         71	MERGED:          0	TO_CACHE:     526130
L2C PQ	ACCESS:     187230	FORWARD:          0	MERGED:       3318	TO_CACHE:     183912

L2C Dense regions hint from L2: 0
PSCL5 TOTAL     ACCESS:       4008  HIT:       2004  MISS:       2004  HIT %:         50  MISS %:         50   MPKI: 0.04008
PSCL5 LOAD TRANSLATION INSTRUCTION	ACCESS:       3906  HIT:       1953  MISS:       1953  HIT %:         50  MISS %:         50  MPKI: 0.03906
PSCL5 TRANSLATION FROM L1D PREFETCHER INSTRUCTION	ACCESS:        102  HIT:         51  MISS:         51  HIT %:         50  MISS %:         50  MPKI: 0.00102


PSCL4 TOTAL     ACCESS:       3940  HIT:       1968  MISS:       1972  HIT %:    49.9492  MISS %:    50.0508   MPKI: 0.03944
PSCL4 LOAD TRANSLATION INSTRUCTION	ACCESS:       2086  HIT:       1917  MISS:        169  HIT %:    91.8984  MISS %:    8.10163  MPKI: 0.00338
PSCL4 TRANSLATION FROM L1D PREFETCHER INSTRUCTION	ACCESS:         51  HIT:         51  MISS:          0  HIT %:        100  MISS %:          0  MPKI: 0
PSCL4 LOAD TRANSLATION DATA	ACCESS:       1752  HIT:          0  MISS:       1752  HIT %:          0  MISS %:        100  MPKI: 0.03504
PSCL4 TRANSLATION FROM L1D PREFETCHER DATA	ACCESS:         51  HIT:          0  MISS:         51  HIT %:          0  MISS %:        100  MPKI: 0.00102


PSCL3 TOTAL     ACCESS:       3958  HIT:       1977  MISS:       1981  HIT %:    49.9495  MISS %:    50.0505   MPKI: 0.03962
PSCL3 LOAD TRANSLATION INSTRUCTION	ACCESS:       2095  HIT:       1926  MISS:        169  HIT %:    91.9332  MISS %:    8.06683  MPKI: 0.00338
PSCL3 TRANSLATION FROM L1D PREFETCHER INSTRUCTION	ACCESS:         51  HIT:         51  MISS:          0  HIT %:        100  MISS %:          0  MPKI: 0
PSCL3 LOAD TRANSLATION DATA	ACCESS:       1761  HIT:          0  MISS:       1761  HIT %:          0  MISS %:        100  MPKI: 0.03522
PSCL3 TRANSLATION FROM L1D PREFETCHER DATA	ACCESS:         51  HIT:          0  MISS:         51  HIT %:          0  MISS %:        100  MPKI: 0.00102


PSCL2 TOTAL     ACCESS:       3905  HIT:       1901  MISS:       2004  HIT %:    48.6812  MISS %:    51.3188   MPKI: 0.04008
PSCL2 LOAD TRANSLATION INSTRUCTION	ACCESS:       2133  HIT:       1851  MISS:        282  HIT %:    86.7792  MISS %:    13.2208  MPKI: 0.00564
PSCL2 TRANSLATION FROM L1D PREFETCHER INSTRUCTION	ACCESS:         50  HIT:         50  MISS:          0  HIT %:        100  MISS %:          0  MPKI: 0
PSCL2 LOAD TRANSLATION DATA	ACCESS:       1672  HIT:          0  MISS:       1672  HIT %:          0  MISS %:        100  MPKI: 0.03344
PSCL2 TRANSLATION FROM L1D PREFETCHER DATA	ACCESS:         50  HIT:          0  MISS:         50  HIT %:          0  MISS %:        100  MPKI: 0.001


LLC TOTAL     ACCESS:     509739  HIT:     481532  MISS:      28207  HIT %:    94.4664  MISS %:    5.53362   MPKI: 0.56414
LLC LOAD INSTRUCTION	ACCESS:     249046  HIT:     247895  MISS:       1151  HIT %:    99.5378  MISS %:   0.462164  MPKI: 0.02302
LLC LOAD TRANSLATION INSTRUCTION	ACCESS:        223  HIT:        176  MISS:         47  HIT %:    78.9238  MISS %:    21.0762  MPKI: 0.00094
LLC LOAD DATA	ACCESS:      66685  HIT:      63066  MISS:       3619  HIT %:     94.573  MISS %:    5.42701  MPKI: 0.07238
LLC RFO DATA	ACCESS:      52325  HIT:      39297  MISS:      13028  HIT %:    75.1018  MISS %:    24.8982  MPKI: 0.26056
LLC PREFETCH DATA	ACCESS:      67400  HIT:      57458  MISS:       9942  HIT %:    85.2493  MISS %:    14.7507  MPKI: 0.19884
LLC WRITEBACK DATA	ACCESS:      72765  HIT:      72452  MISS:        313  HIT %:    99.5698  MISS %:   0.430152  MPKI: 0.00626
LLC LOAD TRANSLATION DATA	ACCESS:       1277  HIT:       1171  MISS:        106  HIT %:    91.6993  MISS %:     8.3007  MPKI: 0.00212
LLC TRANSLATION FROM L1D PREFETCHER DATA	ACCESS:         18  HIT:         17  MISS:          1  HIT %:    94.4444  MISS %:    5.55556  MPKI: 2e-05

LLC AVERAGE MISS LATENCY: 155.911 cycles
LLC RQ	ACCESS:     369578	FORWARD:          0	MERGED:          0	TO_CACHE:     369575
LLC WQ	ACCESS:      72765	FORWARD:          3	MERGED:          0	TO_CACHE:      72765
LLC PQ	ACCESS:      67400	FORWARD:          0	MERGED:          0	TO_CACHE:      67400

LLC Dense regions hint to LLC: 0

RAW hits: 1740749
Loads Generated: 12631909
Loads sent to L1D: 10891160
Stores Generated: 6959228
Stores sent to L1D: 6959238
Major fault: 0 Minor fault: 2635
Allocated PAGES: 2635

stream: 
stream:times selected: 1175970
stream:pref_filled: 121103
stream:pref_useful: 24289
stream:pref_late: 6697
stream:misses: 8023
stream:misses_by_poll: 0

CS: 
CS:times selected: 176563
CS:pref_filled: 61131
CS:pref_useful: 38146
CS:pref_late: 6663
CS:misses: 15611
CS:misses_by_poll: 2

CPLX: 
CPLX:times selected: 998272
CPLX:pref_filled: 19471
CPLX:pref_useful: 4641
CPLX:pref_late: 3020
CPLX:misses: 94159
CPLX:misses_by_poll: 1

NL_L1: 
NL:times selected: 20793
NL:pref_filled: 769
NL:pref_useful: 390
NL:pref_late: 270
NL:misses: 1748
NL:misses_by_poll: 0

total selections: 2371598
total_filled: 93161
total_useful: 33646
total_late: 18020
total_polluted: 3
total_misses_after_warmup: 777606
conflicts: 5652443

test: 116964

DRAM Statistics
 CHANNEL 0
 RQ ROW_BUFFER_HIT:      10176  ROW_BUFFER_MISS:      17702
 DBUS_CONGESTED:          6
 WQ ROW_BUFFER_HIT:       1417  ROW_BUFFER_MISS:      11820  FULL:          0

 AVG_CONGESTED_CYCLE: 5

CPU 0 Branch Prediction Accuracy: 99.8084% MPKI: 0.35088 Average ROB Occupancy at Mispredict: 121.892
Branch types
NOT_BRANCH: 40844432 81.6889%
BRANCH_DIRECT_JUMP: 547903 1.09581%
BRANCH_INDIRECT: 182092 0.364184%
BRANCH_CONDITIONAL: 6178919 12.3578%
BRANCH_DIRECT_CALL: 950808 1.90162%
BRANCH_INDIRECT_CALL: 172365 0.34473%
BRANCH_RETURN: 1123158 2.24632%
BRANCH_OTHER: 0 0%

DRAM PAGES: 1048576
Allocated PAGES: 2635
Average_ROB_Occupancy: 116.723
Average_Decode_Occupancy: 13.7213
Average_FTQ_Occupancy: 6.5231
Indirect max targets: 14 Average targets: 1.17891
Branch_type:  BRANCH_DIRECT_JUMP:  Count Percentage: 3.77613 4.78447 4.81563 8.46364 2.40745 6.01232 1.56598 68.1744 
Branch_type:  BRANCH_INDIRECT:  Count Percentage: 6.10758 3.37609 8.14042 9.6785 3.35386 2.81766 3.90159 62.6243 
Branch_type:  BRANCH_CONDITIONAL:  Count Percentage: 25.4249 2.35007 1.55286 4.60624 2.44852 3.59382 2.11989 57.9037 
Branch_type:  BRANCH_DIRECT_CALL:  Count Percentage: 0.916119 1.32111 0.714232 3.88468 3.20291 2.6904 3.03686 84.2337 
Branch_type:  BRANCH_INDIRECT_CALL:  Count Percentage: 9.57683 0 3.00511 0.00087324 0.922724 1.71999 4.99639 79.7781 
Branch_type:  BRANCH_RETURN:  Count Percentage: 8.33508 1.23035 1.01714 3.87704 4.217 3.48128 2.68701 75.1551 
Branch_type:  BRANCH_DIRECT_JUMP:  Total Count: 41321 52355 52696 92615 26344 65791 17136 746011 
Branch_type:  BRANCH_INDIRECT:  Total Count: 22257 12303 29665 35270 12222 10268 14218 228213 
Branch_type:  BRANCH_CONDITIONAL:  Total Count: 3139812 290218 191768 568840 302376 443813 261793 7150722 
Branch_type:  BRANCH_DIRECT_CALL:  Total Count: 17357 25030 13532 73600 60683 50973 57537 1595910 
Branch_type:  BRANCH_INDIRECT_CALL:  Total Count: 32901 0 10324 3 3170 5909 17165 274076 
Branch_type:  BRANCH_RETURN:  Total Count: 186625 27548 22774 86808 94420 77947 60163 1682745 
Number of unique branch instructions: 10759
Upper 32 bits: 
aaaa
ffff
ffff0000
Unique upper 32 bits: 3
Unique upper 36 bits: 3
Unique upper 40 bits: 5
Unique upper 44 bits: 32
Unique upper 48 bits: 158
Variant_0 : 1232 0.300781
Variant_1 : 1213 0.296143
Variant_2 : 1021 0.249268
Variant_3 : 0 0
Offset_3 4455
Offset_4 260
Offset_5 482
Offset_6 538
Offset_7 639
Offset_8 578
Offset_9 511
Offset_10 421
Offset_11 352
Offset_12 325
Offset_13 240
Offset_14 247
Offset_15 199
Offset_16 231
Offset_17 165
Offset_18 152
Offset_19 262
Offset_20 146
Offset_21 235
Offset_22 410
Offset_23 241
Offset_24 346
Offset_25 117
Offset_47 92
Offset_64 2
decode_dispatch_called: 20459141 45.7376
Dispatch_width: 0 10441688 51.0368 23.343
Dispatch_width: 1 558126 2.728 1.24772
Dispatch_width: 2 658881 3.22047 1.47297
Dispatch_width: 3 457495 2.23614 1.02276
Dispatch_width: 4 1473927 7.20425 3.29505
Dispatch_width: 5 358531 1.75242 0.801516
Dispatch_width: 6 6510493 31.8219 14.5546
Empty_decode_cycles: 24272445 54.2624
ROB_full_cycles: 1994464 4.45874
Starvation_cycles_per_kilo_instr: 362.266
Starvation_cycles_per_kilo_instr_3: 343.942
Starvation_cycles_per_kilo_instr_0: 327.197
Branch_type_1  (3,1)  (4,9)  (5,39)  (6,72)  (7,124)  (8,149)  (9,134)  (10,110)  (11,79)  (12,55)  (13,11)  (14,2)  (15,3)  (16,4)  (18,1)  (19,5)  (20,2)  (21,1)  (22,3)  (23,2)  (24,10)  (25,12)  (64,1) 
Branch_type_2  (3,1)  (4,1)  (5,1)  (8,4)  (9,4)  (10,1)  (12,1)  (13,1)  (14,1)  (16,3)  (17,2)  (20,2)  (21,2)  (23,5)  (24,1)  (47,41) 
Branch_type_3  (3,4453)  (4,250)  (5,438)  (6,449)  (7,484)  (8,358)  (9,278)  (10,169)  (11,137)  (12,62)  (13,10)  (24,1)  (64,1) 
Branch_type_4  (6,4)  (7,8)  (8,26)  (9,57)  (10,67)  (11,70)  (12,116)  (13,102)  (14,112)  (15,95)  (16,102)  (17,76)  (18,65)  (19,127)  (20,74)  (21,124)  (22,216)  (23,136)  (24,200)  (25,101) 
Branch_type_5  (8,3)  (9,1)  (10,4)  (11,5)  (12,3)  (13,14)  (14,16)  (15,11)  (16,22)  (17,11)  (18,23)  (19,14)  (20,11)  (21,13)  (22,43)  (23,26)  (24,38) 
Branch_type_6  (5,4)  (6,13)  (7,23)  (8,38)  (9,37)  (10,70)  (11,61)  (12,88)  (13,102)  (14,116)  (15,90)  (16,100)  (17,76)  (18,63)  (19,116)  (20,57)  (21,95)  (22,148)  (23,72)  (24,96)  (25,4)  (47,51) 
Unique trigger count: 
Variant_0_evicts_0 : 0
Variant_0_evicts_1 : 0
Variant_0_evicts_2 : 0
Variant_0_evicts_3 : 0
Variant_1_evicts_0 : 0
Variant_1_evicts_1 : 0
Variant_1_evicts_2 : 0
Variant_1_evicts_3 : 0
Variant_2_evicts_0 : 0
Variant_2_evicts_1 : 0
Variant_2_evicts_2 : 0
Variant_2_evicts_3 : 0
Variant_3_evicts_0 : 0
Variant_3_evicts_1 : 0
Variant_3_evicts_2 : 0
Variant_3_evicts_3 : 0
BTB PER SET UNIQUE ADDR: 6 7 6 5 3 4 6 9 10 2 5 2 8 5 2 4 6 4 8 9 6 8 8 8 8 11 1 7 6 6 10 9 6 5 8 4 4 6 7 3 8 5 7 10 9 9 6 12 11 6 5 3 12 2 2 7 5 5 9 8 4 11 5 7 6 10 8 9 6 6 6 2 6 5 6 7 6 15 6 5 9 7 7 6 6 8 7 8 8 11 10 9 9 6 7 5 11 8 5 6 7 7 9 9 7 7 7 8 7 5 7 7 4 8 5 11 3 8 6 2 8 9 4 3 6 4 4 7 11 8 11 3 9 6 9 6 5 3 6 8 7 8 7 7 5 11 5 8 11 8 6 14 6 10 6 9 7 9 7 11 11 8 10 5 12 7 3 4 12 6 6 4 8 7 4 3 6 6 11 5 6 7 10 8 9 12 6 6 6 8 5 7 6 7 6 10 12 4 10 6 4 6 9 4 8 4 5 8 7 2 3 6 9 9 7 6 4 9 8 6 6 4 6 7 6 8 14 7 3 11 13 9 4 5 6 9 11 6 4 5 5 3 10 8 16 11 2 7 6 7 9 10 6 7 5 13 4 7 10 6 8 5 7 4 9 15 6 5 7 5 7 7 4 8 10 8 7 3 3 8 8 5 9 5 9 8 7 7 7 4 5 7 4 11 7 4 6 10 6 6 6 6 5 4 7 5 6 4 13 9 7 4 8 4 6 5 10 14 7 6 7 11 5 9 5 6 6 10 3 3 9 2 6 7 10 5 7 9 8 1 6 6 2 10 7 7 3 10 12 6 5 13 11 6 8 7 7 2 8 5 7 11 6 8 11 8 4 4 4 5 8 4 7 5 8 4 11 7 6 9 10 7 7 13 6 4 8 5 8 4 9 6 8 4 6 4 5 5 2 9 6 5 7 7 5 5 8 5 4 3 5 4 11 7 2 6 9 4 2 7 2 6 7 7 11 9 5 2 4 9 3 4 15 5 8 10 6 6 7 4 5 6 10 3 7 9 6 6 5 4 6 3 4 3 9 3 4 7 9 6 5 4 6 12 6 5 12 4 6 7 2 6 10 8 5 3 10 5 3 3 5 2 3 4 3 7 8 3 7 2 13 4 4 8 1 11 4 7 5 4 11 3 5 4 2 5 5 3 4 6 8 4 8 11 3 4 2 10 6 9 7 5 8 6 11 9 6 9 9 8 7 6 6 7 5 8 7 1 6 4 5 8 10 4 9 5 10 13 14 11 7 8 7 6 2 6 9 3 7 4 10 5 9 5 5 6 10 9 11 7 8 4 11 12 7 7 7 12 3 9 13 5 2 6 5 3 3 14 6 5 8 8 4 7 5 5 9 5 6 5 12 5 11 11 7 5 4 9 7 5 8 8 7 6 7 5 7 5 5 7 9 6 11 4 5 10 8 8 4 6 8 7 7 7 6 8 6 6 6 4 11 8 4 6 3 3 7 8 8 7 7 4 10 3 5 2 11 5 6 8 12 3 6 11 7 8 7 6 6 12 7 8 6 7 11 9 8 6 8 5 8 12 8 5 8 8 7 8 8 6 3 8 3 5 5 7 10 7 7 9 3 11 4 5 7 12 4 4 5 5 7 6 6 6 5 7 12 6 1 8 5 3 5 4 4 3 4 9 2 11 7 11 7 3 7 7 10 3 6 4 5 8 5 10 4 5 6 4 6 7 6 3 5 7 2 5 5 10 9 4 5 6 6 7 7 6 14 7 6 3 9 7 0 5 7 5 5 10 3 3 8 6 4 6 9 9 9 7 2 9 3 9 5 7 6 13 12 5 5 5 12 4 8 4 8 6 7 7 4 6 3 5 6 5 5 7 1 5 5 10 7 4 9 4 5 5 6 3 7 6 7 3 7 4 10 5 4 5 6 4 5 4 7 6 5 8 9 6 6 5 8 8 6 9 6 11 7 5 7 6 7 7 4 4 14 7 6 8 10 9 4 6 6 10 7 2 2 6 7 4 5 6 6 6 8 5 7 5 5 8 8 4 5 8 6 3 9 13 5 4 12 9 4 6 10 7 7 11 6 9 9 7 5 4 3 9 6 6 8 6 9 6 10 5 9 8 6 5 5 12 6 4 11 10 6 8 10 11 3 10 7 9 6 4 6 8 9 8 9 6 10 4 13 8 4 7 9 13 6 9 6 7 10 5 3 9 10 9 10 5 3 6 2 10 13 6 8 5 4 7 13 6 4 6 5 7 4 5 9 7 8 7 6 11 5 11 7 11 5 6 5 5 6 4 7 6 7 6 6 6 9 4 8 7 11 4 9 5 3 8 11 6 13 5 
BTB PER SET COUNT: 7 956 7 5 3 5 6 1912 7327 2 5 1998 1447 8 2 9 1217 6 49 3389 6 11 15 1017 5865 1422 1 7 1479 6 4864 374 2835 6 8 6 2952 6 13 3 35 5 12 2259 5412 15 7 4860 2838 6 5 3 12340 2 2 1431 5 5 26 129 5 2891 5 7 6 646 2011 38 6 6 1268 2 12 5 954 11 481 7248 1051 5 1148 944 1509 789 852 9 10 18 3801 1864 1449 563 1914 8 9 8 825 11 5 6 8 15 11 1617 12 7 1411 3696 2384 6 1909 10 5 15 9 7060 3 9 6 2 8 36 5 4 1784 5 4 101 7248 1884 1463 3 3477 12 3343 6 6 3 6 14 7 15 8 7 6 1724 7 8 27 2354 9 4891 9 9265 12 22 9 1913 1364 966 5074 20 1962 1063 44 3006 3 4 4426 955 6 4 17 117 4 6 6 482 2039 5 6 7 970 11 13 8827 9 7 2970 10 6 23 6 1905 1435 27 2017 4 21 6 5 19 12 7 14 4 5 2761 10 2 6 10 222 4902 7 6 5 16 21 6 6 4 6 8 6 13 5926 2051 5 2965 7515 9 4 7 14 3931 3336 6 4 5 5 3 5831 10 4968 17 2 9 6 9 10 3211 9 11 6 4301 5 8 1435 8 2374 5 7 7 2677 8759 1006 5 2385 5 1910 12 5 8 13 823 10 3 3 2387 15 953 15 5 3739 1431 9 1052 9 4 5 3467 953 3825 2855 959 13 3946 7 6 6 7 5 10 8 5 8 4 4624 12 14 4 1052 4 6 6 18 2865 1448 8 8 24 5 12 36 6 8 1449 4 3 3710 3 7 9 2004 5 2374 10 8 1 9 6 2 2712 958 1044 3 10 506 10 5 1119 12 1988 10 13 13 4 5246 36 11 1840 10 2925 2546 10 5 6 6 7 14 4 9 5 14 4 7812 7 7 887 3317 2817 8 8791 6 4 43 5 12 4 2416 10 3793 6 1438 6 1482 5 2 13 14 9 1413 8 843 5 2955 7 4 2356 14 4 2461 10 999 6 215 5 3 1519 2 958 11 26 30 15 10 2 4 16 143 4 5532 5 11 27 8 6 1912 4 5 9 29 3 12 986 7 1005 5 4 8 3 5 5 240 3 7 7 643 6 944 4 19 107 27 6 3573 4 8 14 2 21 4745 1429 305 3 25817 5 3 3 7 2 3 479 3 11 1554 377 11 2 294 4 5 12 1 7373 10 7 5 5 44 14 13 4 2 5 5 4 4 10 19 6 11 28 6 4 2 9856 6 965 10 1479 14 415 37 1900 9 9 26 17 8 9 6 11 6 975 10 1 19 4 11 1431 90 8 2020 5 18 80 2881 8193 19 990 11 6 2 10 1748 3 7 4 6163 2004 2377 6 5 6 52 15 16 968 1071 6 1426 4868 1414 2379 12 3816 3 5000 9344 292 2 956 1479 3 4 7105 9 5 23 41 9 1996 1004 6 10 5 7 6 33 6 7176 805 2956 2855 4 947 9 6 3802 16 9 6 9 8 2045 9 5 7 15 1676 1797 5 1478 137 9 2380 16 2711 483 1480 9 13 6 21 9 6 11 4 7828 16 4 7 3 3 14 8 3627 14 14 4 10242 3 7 5 219 6 1433 3803 7768 3 17 7454 9 1434 2979 959 28 58 2058 8 6 959 6150 3391 488 9 2407 5 2641 7468 10 957 21114 1442 35 4792 1486 21 3 2169 3 7 5 7 8464 7 18 39 3 2874 5 5 196 2424 5 2467 5 1479 202 7 13 943 956 7 1505 826 1 15 11 4 6 4 1972 5 954 1783 2 9494 2001 1909 2002 3 10 8 258 4 15 4 15 8 5 9998 4 6 497 5 9 946 15 4 7 880 2 5 5 17 6325 1987 5 10 1005 791 3961 6 6185 7 13 3 14 24 0 184 15 1482 8 3263 3 3 2380 43 6 3506 1463 138 18 14 443 963 3 1789 5 10 330 4496 1550 5 6 5 2822 5 246 956 1931 2967 13 15 5 11 3 8 6 547 6 13 1 5 9 4875 15 4 3767 411 1412 7 1988 3 2356 95 1790 3 529 4 7886 946 968 5 6 4 460 4 10 1566 5 18 3842 9 8 6 3332 1629 7 15 14 11744 7 6 10 15 25 11 5 4 7198 1005 7 1885 2863 21 4 8 7 358 12 3 4 7 14 5 5 7 39 8 13 6 1436 5 5 1765 10 4 5 1596 6 4 33 3164 5 4 5110 2355 137 63 2884 13 9 3570 6 14 1113 11 8 6 5 9 9 947 3361 2202 16 6 3951 5 41 278 10 6 5 2957 11 480 3481 1605 6 8 3499 1897 4 3329 8 892 10 1001 15 21 26 240 11 7 3653 4 8361 16 7 11 1479 11234 12 2848 6 499 8377 7 3 996 45 17 12 5 3 6 2 3291 5673 9 1010 5 7 9 1613 9 480 8 5 12 4 6 9 10 1439 959 6 2517 8 1496 8 5501 8 6 6 8 10 5 14 7 1413 15 10 7 6864 4 7337 368 3188 5 2181 8 3 9 3435 9 4242 9 
To predecode: 0
Predecoding something: 0
Predecode request dropped: 0
sizeofblock_0 0
sizeofblock_1 261476
sizeofblock_2 188565
sizeofblock_3 134677
sizeofblock_4 69879
sizeofblock_5 0
sizeofblock_6 0
sizeofblock_7 0
sizeofblock_8 0
Variant_0 Correct: 0 Incorrect: 0 Accuracy: -nan
Variant_1 Correct: 0 Incorrect: 0 Accuracy: -nan
Variant_2 Correct: 0 Incorrect: 0 Accuracy: -nan
Variant_3 Correct: 0 Incorrect: 0 Accuracy: -nan
