
*** ChampSim Multicore Out-of-Order Simulator ***

Warmup Instructions: 50000000
Simulation Instructions: 50000000
Number of CPUs: 1
LLC sets: 2048
LLC ways: 16
Off-chip DRAM Size: 4096 MB Channels: 1 Width: 64-bit Data Rate: 6400 MT/s
CPU 0 runs ./micro_traces/srv109.trace.gz
.gz
ITLB has LRU replacement policy
DTLB has LRU replacement policy
STLB has LRU replacement policy
CPU 0 L1I next line prefetcher
L1I has LRU replacement policy
L1D has LRU replacement policy
Initialize SRRIP state for L2C
Initialize DRRIP state for LLC
Heartbeat CPU 0 instructions: 10000001 cycles: 2797881 heartbeat IPC: 3.57413 cumulative IPC: 3.57413 (Simulation time: 0 hr 1 min 47 sec) 
Heartbeat CPU 0 instructions: 20000003 cycles: 5594150 heartbeat IPC: 3.57619 cumulative IPC: 3.57516 (Simulation time: 0 hr 3 min 26 sec) 
Heartbeat CPU 0 instructions: 30000001 cycles: 8391941 heartbeat IPC: 3.57425 cumulative IPC: 3.57486 (Simulation time: 0 hr 5 min 13 sec) 
Heartbeat CPU 0 instructions: 40000001 cycles: 11189249 heartbeat IPC: 3.57487 cumulative IPC: 3.57486 (Simulation time: 0 hr 6 min 54 sec) 
Heartbeat CPU 0 instructions: 50000000 cycles: 13987394 heartbeat IPC: 3.5738 cumulative IPC: 3.57465 (Simulation time: 0 hr 8 min 38 sec) 

Warmup complete CPU 0 instructions: 50000004 cycles: 13987395 (Simulation time: 0 hr 8 min 38 sec) 

Cycle: 20000000 FTQ IN: 56560956 FTQ occupancy: 17.1804 DECODE IN: 56560953 DECODE occupancy: 44.9134 ROB IN: 56560953 ROB occupancy: 279.539 ROB OUT: 56560841
Heartbeat CPU 0 instructions: 60000000 cycles: 23138737 heartbeat IPC: 1.09274 cumulative IPC: 1.09274 (Simulation time: 0 hr 9 min 55 sec) 
Cycle: 30000000 FTQ IN: 10915546 FTQ occupancy: 3.92948 DECODE IN: 10915529 DECODE occupancy: 10.5344 ROB IN: 10915529 ROB occupancy: 123.568 ROB OUT: 10915641
Heartbeat CPU 0 instructions: 70000001 cycles: 32283779 heartbeat IPC: 1.09349 cumulative IPC: 1.09311 (Simulation time: 0 hr 11 min 18 sec) 
Cycle: 40000000 FTQ IN: 10968946 FTQ occupancy: 3.70622 DECODE IN: 10968966 DECODE occupancy: 9.82546 ROB IN: 10968966 ROB occupancy: 119.721 ROB OUT: 10968947
Heartbeat CPU 0 instructions: 80000002 cycles: 41428778 heartbeat IPC: 1.09349 cumulative IPC: 1.09324 (Simulation time: 0 hr 12 min 42 sec) 
Cycle: 50000000 FTQ IN: 10908018 FTQ occupancy: 3.92197 DECODE IN: 10908018 DECODE occupancy: 10.4947 ROB IN: 10908018 ROB occupancy: 122.367 ROB OUT: 10907914
Heartbeat CPU 0 instructions: 90000002 cycles: 50590769 heartbeat IPC: 1.09147 cumulative IPC: 1.0928 (Simulation time: 0 hr 14 min 5 sec) 
Heartbeat CPU 0 instructions: 100000001 cycles: 59713617 heartbeat IPC: 1.09615 cumulative IPC: 1.09346 (Simulation time: 0 hr 15 min 32 sec) 
Finished CPU 0 instructions: 50000001 cycles: 45726223 cumulative IPC: 1.09346 (Simulation time: 0 hr 15 min 32 sec) 

ChampSim completed all CPUs

Region of Interest Statistics

CPU 0 cumulative IPC: 1.09346 instructions: 50000001 cycles: 45726223
 Fetch stage stalled: 73.603  Sim cycles: 45726223 fetch stall cycle: 33655886
 Empty decode stage: 58.1162  Sim cycles: 45726223 fetch stall cycle: 26574342
ITLB TOTAL     ACCESS:    7620165  HIT:    7018724  MISS:     601441  HIT %:    92.1072  MISS %:    7.89276   MPKI: 12.0288
ITLB LOAD TRANSLATION INSTRUCTION	ACCESS:    5867221  HIT:    5731022  MISS:     136199  HIT %:    97.6786  MISS %:    2.32135  MPKI: 2.72398
ITLB TRANSLATION FROM L1D PREFETCHER INSTRUCTION	ACCESS:    1752944  HIT:    1287702  MISS:     465242  HIT %:    73.4594  MISS %:    26.5406  MPKI: 9.30484

ITLB AVERAGE MISS LATENCY: 67337 cycles
ITLB RQ	ACCESS:   11484770	FORWARD:          0	MERGED:    3724738	TO_CACHE:    7760032

DTLB TOTAL     ACCESS:    9395381  HIT:    8921132  MISS:     474249  HIT %:    94.9523  MISS %:    5.04768   MPKI: 9.48498
DTLB LOAD TRANSLATION DATA	ACCESS:    9395381  HIT:    8921132  MISS:     474249  HIT %:    94.9523  MISS %:    5.04768  MPKI: 9.48498

DTLB AVERAGE MISS LATENCY: 9.34656 cycles
DTLB RQ	ACCESS:   13691675	FORWARD:          0	MERGED:    4260476	TO_CACHE:    9431199

STLB TOTAL     ACCESS:    1323638  HIT:    1321456  MISS:       2182  HIT %:    99.8352  MISS %:   0.164849   MPKI: 0.04364
STLB LOAD TRANSLATION INSTRUCTION	ACCESS:     135033  HIT:     134879  MISS:        154  HIT %:     99.886  MISS %:   0.114046  MPKI: 0.00308
STLB TRANSLATION FROM L1D PREFETCHER INSTRUCTION	ACCESS:     466408  HIT:     466302  MISS:        106  HIT %:    99.9773  MISS %:  0.0227269  MPKI: 0.00212
STLB LOAD TRANSLATION DATA	ACCESS:     474248  HIT:     472350  MISS:       1898  HIT %:    99.5998  MISS %:   0.400213  MPKI: 0.03796
STLB TRANSLATION FROM L1D PREFETCHER DATA	ACCESS:     247949  HIT:     247925  MISS:         24  HIT %:    99.9903  MISS %: 0.00967941  MPKI: 0.00048

STLB AVERAGE MISS LATENCY: 74.3313 cycles
STLB RQ	ACCESS:    1446626	FORWARD:          0	MERGED:     119415	TO_CACHE:    1327211

STLB Hit, L1D data hit: 0
STLB Hit, L2C data hit: 0
STLB Hit, LLC data hit: 0
STLB Hit, LLC data miss: 0
STLB STLB hints to L2: 0
L1D TOTAL     ACCESS:   13442161  HIT:   12330096  MISS:    1112065  HIT %:     91.727  MISS %:    8.27296   MPKI: 22.2413
L1D LOAD DATA	ACCESS:    6876835  HIT:    6142239  MISS:     734596  HIT %:    89.3178  MISS %:    10.6822  MPKI: 14.6919
L1D RFO DATA	ACCESS:    6237751  HIT:    5951725  MISS:     286026  HIT %:    95.4146  MISS %:     4.5854  MPKI: 5.72052
L1D PREFETCH DATA	ACCESS:     327575  HIT:     236132  MISS:      91443  HIT %:    72.0849  MISS %:    27.9151  MPKI: 1.82886

L1D PREFETCH  REQUESTED:     735108  ISSUED:     735108  USEFUL:      32771  USELESS:      67907
L1D USEFUL LOAD PREFETCHES:      32771 PREFETCH ISSUED TO LOWER LEVEL:     100767  ACCURACY: 32.5216
 TIMELY PREFETCHES:      32771 LATE PREFETCHES: 9241 DROPPED PREFETCHES: 9
L1D AVERAGE MISS LATENCY: 310534 cycles
L1D RQ	ACCESS:   10918751	FORWARD:          0	MERGED:    3840949	TO_CACHE:    6914260
L1D WQ	ACCESS:    6947098	FORWARD:     163828	MERGED:     169683	TO_CACHE:    6777415
L1D PQ	ACCESS:     367697	FORWARD:          0	MERGED:          0	TO_CACHE:     367411

L1D UNIQUE REGIONS ACCESSED: 0
L1D REGIONS CONFLICTS: 0
L1D Cross Page Prefetch Requests: 6068
L1D Same Page Prefetch Requests: 744176
L1D ROI Sum of L1D PQ occupancy: 4677807
L1D PREFETCHES PUSHED FROM L2C: 0
L1I TOTAL     ACCESS:   11178488  HIT:    7575717  MISS:    3602771  HIT %:    67.7705  MISS %:    32.2295   MPKI: 72.0554
L1I LOAD INSTRUCTION	ACCESS:    6682113  HIT:    6150412  MISS:     531701  HIT %:    92.0429  MISS %:    7.95708  MPKI: 10.634
L1I PREFETCH INSTRUCTION	ACCESS:    4496375  HIT:    1425305  MISS:    3071070  HIT %:     31.699  MISS %:     68.301  MPKI: 61.4214

L1I PREFETCH  REQUESTED:    5072857  ISSUED:    5072769  USEFUL:    2367088  USELESS:     752529
L1I USEFUL LOAD PREFETCHES:    2367088 PREFETCH ISSUED TO LOWER LEVEL:    3119570  ACCURACY: 75.8787
 TIMELY PREFETCHES:    2367088 LATE PREFETCHES: 48501 DROPPED PREFETCHES: 10061
L1I AVERAGE MISS LATENCY: 487918 cycles
L1I RQ	ACCESS:    9425799	FORWARD:          0	MERGED:    2721239	TO_CACHE:    6704560
L1I PQ	ACCESS:    5072769	FORWARD:          0	MERGED:     292559	TO_CACHE:    4780210

L1BTB TOTAL     ACCESS:    5674900  HIT:    2046078  MISS:    3628822  HIT %:    36.0549  MISS %:    63.9451   MPKI: 72.5764
L1BTB BRANCH_DIRECT_JUMP	ACCESS:     549424  HIT:     144985  MISS:     404439	AVERAGE STALL: 19.9003
L1BTB BRANCH_INDIRECT	ACCESS:     183349  HIT:      66301  MISS:     117048	AVERAGE STALL: 79.0997
L1BTB BRANCH_CONDITIONAL	ACCESS:    2714145  HIT:    1420500  MISS:    1293645	AVERAGE STALL: 19.805
L1BTB BRANCH_DIRECT_CALL	ACCESS:     942884  HIT:     104285  MISS:     838599	AVERAGE STALL: 20.4452
L1BTB BRANCH_INDIRECT_CALL	ACCESS:     171110  HIT:      20856  MISS:     150254	AVERAGE STALL: 101.952
L1BTB BRANCH_RETURN	ACCESS:    1113988  HIT:     289151  MISS:     824837	AVERAGE STALL: 21.9785
L1BTB BRANCH_OTHER ACCESS:          0  HIT:          0  MISS:          0	AVERAGE STALL: -nan
L1BTB TOTAL ROB OCCUPANCY AT BTB MISS: 29.1123

L2BTB TOTAL     ACCESS:    3603282  HIT:    2570316  MISS:    1032966  HIT %:    71.3326  MISS %:    28.6674   MPKI: 20.6593
L2BTB BRANCH_DIRECT_JUMP	ACCESS:     400229  HIT:     282878  MISS:     117351	AVERAGE STALL: 19.9003
L2BTB BRANCH_INDIRECT	ACCESS:     106752  HIT:      93666  MISS:      13086	AVERAGE STALL: 79.0997
L2BTB BRANCH_CONDITIONAL	ACCESS:    1293644  HIT:     920940  MISS:     372704	AVERAGE STALL: 19.805
L2BTB BRANCH_DIRECT_CALL	ACCESS:     838598  HIT:     572422  MISS:     266176	AVERAGE STALL: 20.4452
L2BTB BRANCH_INDIRECT_CALL	ACCESS:     140661  HIT:      92665  MISS:      47996	AVERAGE STALL: 101.952
L2BTB BRANCH_RETURN	ACCESS:     823398  HIT:     607745  MISS:     215653	AVERAGE STALL: 21.9785
L2BTB BRANCH_OTHER ACCESS:          0  HIT:          0  MISS:          0	AVERAGE STALL: -nan
L2BTB TOTAL ROB OCCUPANCY AT BTB MISS: 102.272

L2C TOTAL     ACCESS:    6570361  HIT:    5518025  MISS:    1052336  HIT %:    83.9836  MISS %:    16.0164   MPKI: 21.0467
L2C LOAD INSTRUCTION	ACCESS:     483200  HIT:     397371  MISS:      85829  HIT %:    82.2374  MISS %:    17.7626  MPKI: 1.71658
L2C PREFETCH INSTRUCTION	ACCESS:    3119570  HIT:    2708950  MISS:     410620  HIT %:    86.8373  MISS %:    13.1627  MPKI: 8.2124
L2C LOAD TRANSLATION INSTRUCTION	ACCESS:        171  HIT:         46  MISS:        125  HIT %:    26.9006  MISS %:    73.0994  MPKI: 0.0025
L2C TRANSLATION FROM L1D PREFETCHER INSTRUCTION	ACCESS:       5037  HIT:       4510  MISS:        527  HIT %:    89.5374  MISS %:    10.4626  MPKI: 0.01054
L2C LOAD DATA	ACCESS:     725341  HIT:     574047  MISS:     151294  HIT %:    79.1417  MISS %:    20.8583  MPKI: 3.02588
L2C RFO DATA	ACCESS:     285917  HIT:     199428  MISS:      86489  HIT %:    69.7503  MISS %:    30.2497  MPKI: 1.72978
L2C PREFETCH DATA	ACCESS:    1425342  HIT:    1150560  MISS:     274782  HIT %:    80.7217  MISS %:    19.2783  MPKI: 5.49564
L2C WRITEBACK DATA	ACCESS:     523751  HIT:     482675  MISS:      41076  HIT %:    92.1573  MISS %:    7.84266  MPKI: 0.82152
L2C LOAD TRANSLATION DATA	ACCESS:       1981  HIT:        406  MISS:       1575  HIT %:    20.4947  MISS %:    79.5053  MPKI: 0.0315
L2C TRANSLATION FROM L1D PREFETCHER DATA	ACCESS:         51  HIT:         32  MISS:         19  HIT %:    62.7451  MISS %:    37.2549  MPKI: 0.00038

L2C PREFETCH  REQUESTED:    3236479  ISSUED:    3236479  USEFUL:      35755  USELESS:     652143
L2C USEFUL LOAD PREFETCHES:      35755 PREFETCH ISSUED TO LOWER LEVEL:     686770  ACCURACY: 5.20626
 TIMELY PREFETCHES:      35755 LATE PREFETCHES: 1368 DROPPED PREFETCHES: 0
L2C AVERAGE MISS LATENCY: 33.4239 cycles
L2C RQ	ACCESS:    1501738	FORWARD:          0	MERGED:          0	TO_CACHE:    1501698
L2C WQ	ACCESS:     523751	FORWARD:         42	MERGED:          0	TO_CACHE:     523751
L2C PQ	ACCESS:    6456816	FORWARD:          0	MERGED:    1894320	TO_CACHE:    4562494

L2C Dense regions hint from L2: 0
PSCL5 TOTAL     ACCESS:      11440  HIT:       5720  MISS:       5720  HIT %:         50  MISS %:         50   MPKI: 0.1144
PSCL5 LOAD TRANSLATION INSTRUCTION	ACCESS:       4074  HIT:       2037  MISS:       2037  HIT %:         50  MISS %:         50  MPKI: 0.04074
PSCL5 TRANSLATION FROM L1D PREFETCHER INSTRUCTION	ACCESS:       7366  HIT:       3683  MISS:       3683  HIT %:         50  MISS %:         50  MPKI: 0.07366


PSCL4 TOTAL     ACCESS:      11264  HIT:       5627  MISS:       5637  HIT %:    49.9556  MISS %:    50.0444   MPKI: 0.11274
PSCL4 LOAD TRANSLATION INSTRUCTION	ACCESS:       2814  HIT:       1960  MISS:        854  HIT %:    69.6517  MISS %:    30.3483  MPKI: 0.01708
PSCL4 TRANSLATION FROM L1D PREFETCHER INSTRUCTION	ACCESS:       5536  HIT:       3667  MISS:       1869  HIT %:    66.2392  MISS %:    33.7608  MPKI: 0.03738
PSCL4 LOAD TRANSLATION DATA	ACCESS:       1116  HIT:          0  MISS:       1116  HIT %:          0  MISS %:        100  MPKI: 0.02232
PSCL4 TRANSLATION FROM L1D PREFETCHER DATA	ACCESS:       1798  HIT:          0  MISS:       1798  HIT %:          0  MISS %:        100  MPKI: 0.03596


PSCL3 TOTAL     ACCESS:      11336  HIT:       5663  MISS:       5673  HIT %:    49.9559  MISS %:    50.0441   MPKI: 0.11346
PSCL3 LOAD TRANSLATION INSTRUCTION	ACCESS:       2850  HIT:       1996  MISS:        854  HIT %:    70.0351  MISS %:    29.9649  MPKI: 0.01708
PSCL3 TRANSLATION FROM L1D PREFETCHER INSTRUCTION	ACCESS:       5536  HIT:       3667  MISS:       1869  HIT %:    66.2392  MISS %:    33.7608  MPKI: 0.03738
PSCL3 LOAD TRANSLATION DATA	ACCESS:       1152  HIT:          0  MISS:       1152  HIT %:          0  MISS %:        100  MPKI: 0.02304
PSCL3 TRANSLATION FROM L1D PREFETCHER DATA	ACCESS:       1798  HIT:          0  MISS:       1798  HIT %:          0  MISS %:        100  MPKI: 0.03596


PSCL2 TOTAL     ACCESS:       8573  HIT:       4229  MISS:       4344  HIT %:    49.3293  MISS %:    50.6707   MPKI: 0.08688
PSCL2 LOAD TRANSLATION INSTRUCTION	ACCESS:       2108  HIT:       1939  MISS:        169  HIT %:    91.9829  MISS %:    8.01708  MPKI: 0.00338
PSCL2 TRANSLATION FROM L1D PREFETCHER INSTRUCTION	ACCESS:       4529  HIT:       2290  MISS:       2239  HIT %:     50.563  MISS %:     49.437  MPKI: 0.04478
PSCL2 LOAD TRANSLATION DATA	ACCESS:       1885  HIT:          0  MISS:       1885  HIT %:          0  MISS %:        100  MPKI: 0.0377
PSCL2 TRANSLATION FROM L1D PREFETCHER DATA	ACCESS:         51  HIT:          0  MISS:         51  HIT %:          0  MISS %:        100  MPKI: 0.00102


LLC TOTAL     ACCESS:    1144589  HIT:    1114718  MISS:      29871  HIT %:    97.3902  MISS %:    2.60976   MPKI: 0.59742
LLC LOAD INSTRUCTION	ACCESS:      85294  HIT:      84897  MISS:        397  HIT %:    99.5346  MISS %:   0.465449  MPKI: 0.00794
LLC PREFETCH INSTRUCTION	ACCESS:     408567  HIT:     408033  MISS:        534  HIT %:    99.8693  MISS %:   0.130701  MPKI: 0.01068
LLC LOAD TRANSLATION INSTRUCTION	ACCESS:        125  HIT:         96  MISS:         29  HIT %:       76.8  MISS %:       23.2  MPKI: 0.00058
LLC TRANSLATION FROM L1D PREFETCHER INSTRUCTION	ACCESS:        527  HIT:        515  MISS:         12  HIT %:     97.723  MISS %:    2.27704  MPKI: 0.00024
LLC LOAD DATA	ACCESS:     150503  HIT:     146760  MISS:       3743  HIT %:     97.513  MISS %:    2.48699  MPKI: 0.07486
LLC RFO DATA	ACCESS:      86443  HIT:      72701  MISS:      13742  HIT %:    84.1028  MISS %:    15.8972  MPKI: 0.27484
LLC PREFETCH DATA	ACCESS:     278201  HIT:     267169  MISS:      11032  HIT %:    96.0345  MISS %:    3.96548  MPKI: 0.22064
LLC WRITEBACK DATA	ACCESS:     133335  HIT:     133061  MISS:        274  HIT %:    99.7945  MISS %:   0.205497  MPKI: 0.00548
LLC LOAD TRANSLATION DATA	ACCESS:       1575  HIT:       1467  MISS:        108  HIT %:    93.1429  MISS %:    6.85714  MPKI: 0.00216
LLC TRANSLATION FROM L1D PREFETCHER DATA	ACCESS:         19  HIT:         19  MISS:          0  HIT %:        100  MISS %:          0  MPKI: 0

LLC AVERAGE MISS LATENCY: 160.65 cycles
LLC RQ	ACCESS:     324490	FORWARD:          0	MERGED:          0	TO_CACHE:     324486
LLC WQ	ACCESS:     133335	FORWARD:          6	MERGED:          0	TO_CACHE:     133335
LLC PQ	ACCESS:     686770	FORWARD:          0	MERGED:          0	TO_CACHE:     686768

LLC Dense regions hint to LLC: 0

RAW hits: 1716774
Loads Generated: 12635525
Loads sent to L1D: 10918751
Stores Generated: 6947086
Stores sent to L1D: 6947098
Major fault: 0 Minor fault: 2601
Allocated PAGES: 2601
I-Shadow cache 408 bytes
Touched + WorthPF tables 12288 bytes 
MMA filter 174 bytes 
FNL filter 272 bytes 
TOTAL PREFETCHER STORAGE SIZE: 31318 bytes
CPU 0 L1I next line prefetcher final stats

stream: 
stream:times selected: 1176673
stream:pref_filled: 118424
stream:pref_useful: 22383
stream:pref_late: 7522
stream:misses: 6910
stream:misses_by_poll: 0

CS: 
CS:times selected: 174572
CS:pref_filled: 52608
CS:pref_useful: 29595
CS:pref_late: 13805
CS:misses: 22532
CS:misses_by_poll: 1

CPLX: 
CPLX:times selected: 1000839
CPLX:pref_filled: 19851
CPLX:pref_useful: 4264
CPLX:pref_late: 3335
CPLX:misses: 91735
CPLX:misses_by_poll: 0

NL_L1: 
NL:times selected: 19829
NL:pref_filled: 620
NL:pref_useful: 272
NL:pref_late: 263
NL:misses: 1132
NL:misses_by_poll: 0

total selections: 2371913
total_filled: 91443
total_useful: 32771
total_late: 26334
total_polluted: 1
total_misses_after_warmup: 772027
conflicts: 5687287

test: 115044

DRAM Statistics
 CHANNEL 0
 RQ ROW_BUFFER_HIT:      10347  ROW_BUFFER_MISS:      19245
 DBUS_CONGESTED:         14
 WQ ROW_BUFFER_HIT:       1457  ROW_BUFFER_MISS:      13383  FULL:          0

 AVG_CONGESTED_CYCLE: 4

CPU 0 Branch Prediction Accuracy: 99.8092% MPKI: 0.34894 Average ROB Occupancy at Mispredict: 124.861
Branch types
NOT_BRANCH: 40857279 81.7146%
BRANCH_DIRECT_JUMP: 549424 1.09885%
BRANCH_INDIRECT: 183349 0.366698%
BRANCH_CONDITIONAL: 6181908 12.3638%
BRANCH_DIRECT_CALL: 942884 1.88577%
BRANCH_INDIRECT_CALL: 171110 0.34222%
BRANCH_RETURN: 1113988 2.22798%
BRANCH_OTHER: 0 0%

DRAM PAGES: 1048576
Allocated PAGES: 2601
Average_ROB_Occupancy: 122.012
Average_Decode_Occupancy: 10.1029
Average_FTQ_Occupancy: 3.78618
Indirect max targets: 14 Average targets: 1.1505
Branch_type:  BRANCH_DIRECT_JUMP:  Count Percentage: 3.24829 5.53099 5.12363 9.12238 1.74016 5.96783 0.891939 68.3748 
Branch_type:  BRANCH_INDIRECT:  Count Percentage: 11.7458 3.46491 2.55452 0 2.5452 9.67468 19.2228 50.7921 
Branch_type:  BRANCH_CONDITIONAL:  Count Percentage: 21.4516 2.58987 1.84245 8.41923 1.23162 5.06895 1.95747 57.4388 
Branch_type:  BRANCH_DIRECT_CALL:  Count Percentage: 0.257349 1.79076 1.44555 4.83602 2.15601 2.75191 0.751905 86.0105 
Branch_type:  BRANCH_INDIRECT_CALL:  Count Percentage: 9.53326 0.571582 2.98674 4.83994 0.000291475 2.01875 1.28307 78.7664 
Branch_type:  BRANCH_RETURN:  Count Percentage: 3.18859 1.30476 1.27108 9.31576 2.84213 6.55351 3.12936 72.3948 
Branch_type:  BRANCH_DIRECT_JUMP:  Total Count: 35588 60597 56134 99944 19065 65383 9772 749108 
Branch_type:  BRANCH_INDIRECT:  Total Count: 42886 12651 9327 0 9293 35324 70186 185451 
Branch_type:  BRANCH_CONDITIONAL:  Total Count: 2648867 319799 227508 1039615 152082 625919 241710 7092595 
Branch_type:  BRANCH_DIRECT_CALL:  Total Count: 4868 33874 27344 91478 40783 52055 14223 1626970 
Branch_type:  BRANCH_INDIRECT_CALL:  Total Count: 32707 1961 10247 16605 1 6926 4402 270234 
Branch_type:  BRANCH_RETURN:  Total Count: 71281 29168 28415 208254 63536 146504 69957 1618388 
Number of unique branch instructions: 10308
Upper 32 bits: 
aaaa
ffff
ffff0000
Unique upper 32 bits: 3
Unique upper 36 bits: 3
Unique upper 40 bits: 5
Unique upper 44 bits: 32
Unique upper 48 bits: 154
Offset_3 4268
Offset_4 260
Offset_5 469
Offset_6 531
Offset_7 612
Offset_8 540
Offset_9 491
Offset_10 399
Offset_11 338
Offset_12 297
Offset_13 225
Offset_14 232
Offset_15 201
Offset_16 230
Offset_17 162
Offset_18 128
Offset_19 252
Offset_20 144
Offset_21 236
Offset_22 404
Offset_23 245
Offset_24 346
Offset_25 88
Offset_47 84
Offset_64 21
decode_dispatch_called: 20863006 45.6259
Dispatch_width: 0 10145071 48.6271 22.1865
Dispatch_width: 1 698471 3.34789 1.52751
Dispatch_width: 2 991713 4.75345 2.16881
Dispatch_width: 3 689248 3.30369 1.50734
Dispatch_width: 4 2133028 10.224 4.66478
Dispatch_width: 5 514602 2.46658 1.1254
Dispatch_width: 6 5690873 27.2773 12.4455
Empty_decode_cycles: 24863217 54.3741
ROB_full_cycles: 2491033 5.44771
Starvation_cycles_per_kilo_instr: 375.443
Starvation_cycles_per_kilo_instr_3: 348.967
Starvation_cycles_per_kilo_instr_0: 325.173
Branch_type_1  (3,1)  (4,9)  (5,37)  (6,73)  (7,118)  (8,138)  (9,129)  (10,102)  (11,76)  (12,51)  (13,8)  (14,2)  (15,3)  (16,4)  (18,1)  (19,4)  (20,2)  (21,1)  (22,3)  (23,2)  (24,10)  (25,12)  (64,3) 
Branch_type_2  (3,1)  (5,1)  (8,3)  (9,3)  (12,1)  (13,1)  (14,1)  (16,3)  (17,2)  (20,2)  (21,2)  (23,5)  (24,1)  (47,39) 
Branch_type_3  (3,4266)  (4,251)  (5,427)  (6,441)  (7,460)  (8,333)  (9,270)  (10,164)  (11,140)  (12,58)  (13,7)  (24,3)  (64,11) 
Branch_type_4  (6,4)  (7,8)  (8,30)  (9,54)  (10,63)  (11,63)  (12,105)  (13,96)  (14,102)  (15,96)  (16,104)  (17,73)  (18,58)  (19,124)  (20,74)  (21,124)  (22,215)  (23,138)  (24,202)  (25,72)  (64,4) 
Branch_type_5  (8,2)  (9,1)  (10,3)  (11,5)  (12,3)  (13,14)  (14,16)  (15,11)  (16,20)  (17,13)  (18,16)  (19,12)  (20,11)  (21,13)  (22,42)  (23,26)  (24,37) 
Branch_type_6  (5,4)  (6,13)  (7,26)  (8,34)  (9,34)  (10,67)  (11,54)  (12,79)  (13,99)  (14,111)  (15,91)  (16,99)  (17,74)  (18,53)  (19,112)  (20,55)  (21,96)  (22,144)  (23,74)  (24,93)  (25,4)  (47,45)  (64,3) 
Unique trigger count: 
BTB PER SET UNIQUE ADDR: 24 27 22 27 25 26 17 26 14 26 22 28 25 20 24 17 21 22 23 26 24 18 23 26 19 24 26 28 26 22 22 24 28 15 18 22 23 24 17 20 22 22 24 29 20 15 26 18 25 22 30 22 22 27 22 11 22 19 20 26 21 32 25 24 24 29 27 15 29 26 23 21 30 20 20 15 16 26 21 32 25 15 21 29 27 21 27 22 17 42 19 16 25 21 14 28 22 21 28 28 35 32 26 21 23 21 22 24 13 20 20 33 24 19 21 13 27 25 23 24 26 18 21 18 24 23 13 25 32 19 19 31 22 29 19 29 15 29 21 33 19 29 23 22 24 22 28 20 16 24 22 27 17 23 15 31 27 26 27 25 26 23 29 30 21 25 26 19 27 20 20 27 24 25 24 23 23 22 20 26 21 22 21 29 33 29 18 24 28 19 22 17 17 31 25 16 17 22 22 25 28 26 19 20 18 22 24 24 23 25 21 28 20 23 24 23 22 27 17 39 14 28 17 21 19 27 31 27 17 30 21 14 24 31 20 30 29 20 22 19 24 24 30 28 21 20 22 23 26 23 29 27 25 19 28 27 19 18 18 22 25 19 9 23 23 18 21 19 24 22 21 27 19 14 16 17 24 28 22 23 16 25 17 20 26 19 19 36 33 27 25 19 25 26 20 30 24 26 26 23 21 22 20 37 21 30 27 21 33 24 23 29 23 37 29 14 31 23 23 30 21 31 20 21 27 27 24 19 22 17 22 30 19 20 22 26 18 22 17 37 25 24 16 29 27 28 19 22 22 22 25 24 27 22 21 28 25 27 18 18 19 30 21 33 25 27 13 25 28 23 24 19 25 27 18 30 22 28 21 25 24 23 16 18 21 23 29 31 28 26 31 14 29 31 18 19 23 19 30 24 22 25 23 24 29 31 27 25 21 23 25 20 19 29 22 23 22 31 39 32 19 25 24 27 30 20 26 20 25 22 28 22 20 23 30 27 28 20 20 25 27 22 21 32 35 21 18 24 28 27 28 36 26 19 31 35 27 28 19 31 17 23 19 29 32 20 22 24 27 26 24 27 27 23 25 36 26 32 17 26 33 28 22 26 17 28 35 31 28 23 20 28 19 18 20 21 28 27 21 27 20 30 20 35 21 18 19 31 30 29 25 31 25 24 21 27 21 33 18 18 16 22 27 18 24 34 35 15 15 34 27 26 23 23 27 31 22 25 27 23 28 21 27 26 26 31 18 27 19 23 25 32 25 23 19 24 24 25 32 28 19 35 22 25 26 32 23 29 24 28 28 28 29 34 23 30 29 30 21 24 24 26 15 25 25 26 20 24 34 28 21 22 26 18 27 19 16 23 25 22 24 21 22 14 25 25 34 23 22 24 32 27 21 16 10 32 17 28 22 27 30 27 17 21 23 34 23 31 18 26 21 28 31 25 24 23 26 30 23 29 22 28 27 30 28 28 24 25 35 22 16 24 19 19 30 24 24 23 28 25 24 13 26 31 22 26 18 23 20 20 26 22 19 27 34 22 28 29 29 32 22 32 24 30 27 22 22 27 26 30 21 26 23 16 15 21 17 27 20 27 15 26 29 32 13 29 23 18 18 16 21 25 18 22 19 21 32 24 19 30 25 24 20 21 20 24 25 23 21 18 28 21 22 22 24 26 24 30 38 22 21 20 22 26 31 29 23 24 22 18 22 21 24 23 18 24 33 24 20 20 24 15 13 25 24 28 16 24 24 26 24 28 20 21 26 21 32 22 23 30 13 27 23 23 25 22 19 27 22 14 17 13 27 29 25 31 21 18 28 24 36 23 35 29 33 20 26 24 26 20 21 38 30 30 19 26 36 31 13 29 27 30 17 28 25 23 19 27 25 27 23 31 28 24 20 28 25 25 25 22 27 23 22 27 26 31 22 36 20 26 27 21 18 21 31 32 32 29 27 29 26 26 19 26 31 17 25 19 31 19 18 30 28 23 26 13 21 22 19 23 31 17 20 31 27 26 30 23 26 21 26 21 21 22 22 28 32 23 20 18 23 22 23 27 15 29 24 27 23 33 19 24 23 27 25 26 36 23 23 26 26 26 18 27 21 19 15 32 19 18 32 31 29 22 26 31 22 21 25 28 17 29 24 22 22 25 24 29 23 27 23 24 19 25 21 27 26 23 26 24 23 24 21 32 31 24 29 24 19 27 24 28 27 22 27 20 35 33 30 34 22 29 26 24 25 32 36 22 28 23 28 26 26 23 23 22 21 24 31 23 32 32 21 22 29 28 20 32 21 28 28 26 26 17 19 23 14 20 12 15 21 31 23 16 
BTB PER SET COUNT: 2099 2302 2861 2096 2620 2041 1735 1789 1462 2123 1222 2653 12380 1860 1933 1186 2220 2318 1692 2167 1782 1647 2108 2246 1189 2074 2139 2068 2457 1968 1994 2575 2114 859 1266 1915 1943 2253 1101 2255 1596 1642 2372 2218 1718 616 2261 1487 2078 1640 2327 1382 1937 2172 1774 963 1560 1526 1429 2103 1770 3051 1989 1852 2384 2056 1754 1690 2222 1925 2255 2041 2594 1469 1252 850 912 2194 1488 2443 2540 992 1931 2598 2051 1927 2192 2192 1725 3941 1586 1337 2237 1972 802 2164 1548 1535 2224 4006 3759 2677 2221 1709 3363 1370 1668 2276 1558 2977 1820 2860 2243 1524 1738 1138 2182 2334 2534 2110 2257 1406 1671 1107 1791 1546 721 2683 3328 1786 1372 2906 1498 2351 1674 2181 1419 2248 1615 2787 1601 2307 1700 1704 1822 1766 2624 1280 1092 1788 1738 2075 1583 1584 837 3111 2716 2211 2259 2472 2054 1838 2542 2200 1584 2223 1913 1485 2241 1697 1511 2337 1967 1708 2125 1855 1758 1544 1754 2353 1513 1911 1768 2217 2690 3186 1015 1808 2420 2350 1730 1272 1109 2584 2157 1303 1239 2091 1626 1713 2052 1929 1746 1553 1053 1895 1813 2015 1931 2315 1468 2266 1307 3160 1932 2336 1693 2382 1557 3323 1057 2087 1380 1733 1601 2155 2856 2180 1408 3272 1592 586 1758 2338 1340 4971 2308 1668 2152 1191 1780 2071 2905 2705 1784 2023 1314 2055 2077 1549 1935 2064 2033 1568 2013 2495 1506 1403 1371 1593 2221 1549 335 1844 2032 819 1733 1492 2176 1866 1534 1803 1144 895 1482 1259 2166 2341 1896 2022 937 1952 1506 1843 2198 1516 1266 2948 3021 2332 1934 1299 1748 2467 1082 2828 2290 1988 1743 2176 1577 1555 1905 3029 1953 2764 1884 1799 2865 2331 2450 2240 1235 3102 3096 1374 2534 1724 1728 2711 1439 3108 1107 1598 2661 2348 2278 1315 1675 1019 1785 2784 1184 1461 1806 1843 1272 1663 1060 3466 2007 2893 1043 1997 2444 1874 1400 1719 1930 2131 2273 1876 2273 1757 1701 2485 2039 2522 1446 1309 1179 2738 1403 2718 1867 3009 693 1662 1869 1707 2053 1246 2233 2406 1278 2879 1866 2345 1674 2493 2359 1990 1558 968 1159 1682 3104 2491 2027 2224 2194 942 2144 2371 1411 1316 1411 1543 2760 2116 1581 2149 2066 1604 2045 2321 2157 2154 1315 2077 2053 1346 1386 2590 1580 1894 1855 4680 3347 2545 1413 2068 2311 1969 2513 1822 2686 1448 1685 1949 2497 2092 1386 1694 2726 2284 1824 1609 1726 1789 2709 1318 1397 2686 2924 1846 1424 2106 2402 1900 2261 3860 1666 1600 2533 3230 1948 2563 1257 2223 1282 1823 1405 2445 2858 1789 7417 1874 2507 2167 1985 1994 1916 1850 2058 2851 1883 3227 1297 1815 2749 2422 1634 2204 1374 1958 3241 2478 2504 1811 1895 2236 4238 1041 1009 1724 2626 2746 1704 2253 1486 2858 1338 3182 1469 1330 1204 2910 2603 1952 1800 3241 2864 2381 1656 2715 1511 2897 1189 1357 935 2030 2190 1292 1859 2758 3281 2105 1055 4242 3085 2049 2060 1792 2435 2419 2216 2525 2012 1854 2209 1650 2387 2032 2392 2842 925 2190 1190 2422 1703 2696 2147 2130 1432 1356 1617 1834 2323 2224 1231 2964 1721 1991 2369 2530 1719 2189 1752 2676 2707 2170 3085 2959 2152 2614 2624 2703 1763 2049 2338 2299 1057 3183 2090 2280 1909 2282 3127 2691 2058 1850 2170 997 1954 1335 1768 2361 2037 1604 1346 1790 1815 1022 1948 2076 2633 2120 1368 1647 2935 2575 2033 1099 714 2630 1022 2385 2248 2384 2845 1819 999 1463 1600 2873 1556 2736 2244 1980 1698 3082 3182 1804 1800 1687 2152 2490 1627 2271 2179 2259 2475 2570 2982 2391 1478 2403 3554 1239 1116 2202 1192 1791 3151 1921 1574 1770 2421 2093 2096 723 2380 2616 7414 2491 1393 1996 2126 1804 1603 1753 1428 2272 2910 2042 2118 2605 2320 2948 1943 2653 1913 2435 2828 2149 1824 1945 2158 2474 1638 2455 2173 917 1382 1708 1700 2472 1586 1906 1307 2248 2353 2754 838 2313 1898 1379 1271 1127 1940 2246 1254 1843 1678 1559 3255 2068 1466 2716 2287 2433 1608 1996 1612 1603 1750 2285 1647 2084 2151 5186 1748 1785 1745 2086 2247 3033 3656 1756 1836 1397 1784 2296 2854 2672 2135 1673 1924 1683 2595 1441 2540 2116 1282 1952 2633 2051 1656 1084 2171 1053 714 1804 2673 2772 1200 1931 1203 2147 1831 2422 1642 1410 2134 1333 2291 1886 1497 2636 1549 2270 1995 1722 2099 1727 1406 2120 1484 1007 1246 1342 2157 2406 1706 2766 1729 1333 1749 2155 3197 1959 2645 2514 2946 1625 1746 1918 1838 1487 1448 4913 2581 2372 1665 3003 2814 3038 1049 2680 1831 2738 1255 2434 2679 1897 1510 2080 2112 2697 2057 2903 2095 2032 1176 2864 1858 1902 2560 1861 2233 2145 2034 1836 2245 2109 1597 3181 1511 5697 2428 1883 1500 1648 2755 2513 2946 2328 2483 2194 2547 2038 1778 1998 2741 1131 1848 1073 2843 1404 1676 2634 2270 1667 1926 909 1632 1878 2611 1954 2224 852 1386 2910 2257 2299 2467 1878 1902 1935 2256 1126 2950 2765 1484 2410 2920 1616 1608 1456 2026 1573 1756 2270 721 2202 1616 2527 1758 2714 1699 1916 1922 2372 2488 2368 3650 2059 2058 1997 2022 1993 1377 2299 1379 1590 675 2499 1268 1173 2149 2757 3004 1496 1790 3019 2048 1523 2470 2243 1251 3079 2007 1505 1921 2057 1873 2460 2008 2179 2270 2497 1990 3812 1529 2109 2400 1696 1991 2302 2044 2189 1627 2644 2405 1402 2589 2164 1433 2059 1990 2864 2424 1706 2716 1554 3149 2312 2671 3277 1933 2240 2291 2101 1404 3323 4289 1340 2440 2088 2220 2700 1853 1941 2337 1805 1418 3200 2242 2275 2541 2959 1715 1741 2293 2057 1461 2987 1766 2436 2529 2405 2280 1314 1320 1812 932 1790 469 1205 1602 3194 2083 1076 
