
*** ChampSim Multicore Out-of-Order Simulator ***

Warmup Instructions: 50000000
Simulation Instructions: 50000000
Number of CPUs: 1
LLC sets: 2048
LLC ways: 16
Off-chip DRAM Size: 4096 MB Channels: 1 Width: 64-bit Data Rate: 6400 MT/s
CPU 0 runs ./micro_traces/srv173.trace.gz
.gz
ITLB has LRU replacement policy
DTLB has LRU replacement policy
STLB has LRU replacement policy
FDIP Prefetcher at L1I
L1I has LRU replacement policy
L1D has LRU replacement policy
Initialize SRRIP state for L2C
Initialize DRRIP state for LLC
Heartbeat CPU 0 instructions: 10000001 cycles: 2798401 heartbeat IPC: 3.57347 cumulative IPC: 3.57347 (Simulation time: 0 hr 2 min 10 sec) 
Heartbeat CPU 0 instructions: 20000001 cycles: 5596661 heartbeat IPC: 3.57365 cumulative IPC: 3.57356 (Simulation time: 0 hr 4 min 12 sec) 
Heartbeat CPU 0 instructions: 30000002 cycles: 8393201 heartbeat IPC: 3.57585 cumulative IPC: 3.57432 (Simulation time: 0 hr 6 min 17 sec) 
Heartbeat CPU 0 instructions: 40000002 cycles: 11191142 heartbeat IPC: 3.57406 cumulative IPC: 3.57426 (Simulation time: 0 hr 8 min 22 sec) 
Heartbeat CPU 0 instructions: 50000002 cycles: 13987829 heartbeat IPC: 3.57566 cumulative IPC: 3.57454 (Simulation time: 0 hr 10 min 20 sec) 

Warmup complete CPU 0 instructions: 50000002 cycles: 13987829 (Simulation time: 0 hr 10 min 20 sec) 

Cycle: 20000000 FTQ IN: 57826115 FTQ occupancy: 19.1703 DECODE IN: 57826010 DECODE occupancy: 49.4656 ROB IN: 57825950 ROB occupancy: 300.767 ROB OUT: 57825602
Heartbeat CPU 0 instructions: 60000000 cycles: 21654895 heartbeat IPC: 1.30428 cumulative IPC: 1.30428 (Simulation time: 0 hr 12 min 34 sec) 
Heartbeat CPU 0 instructions: 70000002 cycles: 29468210 heartbeat IPC: 1.27987 cumulative IPC: 1.29196 (Simulation time: 0 hr 14 min 44 sec) 
Cycle: 30000000 FTQ IN: 12865491 FTQ occupancy: 10.4265 DECODE IN: 12865478 DECODE occupancy: 25.0986 ROB IN: 12865478 ROB occupancy: 189.661 ROB OUT: 12865474
Heartbeat CPU 0 instructions: 80000003 cycles: 37133722 heartbeat IPC: 1.30454 cumulative IPC: 1.29613 (Simulation time: 0 hr 17 min 0 sec) 
Cycle: 40000000 FTQ IN: 13068807 FTQ occupancy: 10.3259 DECODE IN: 13068876 DECODE occupancy: 24.988 ROB IN: 13068923 ROB occupancy: 191.433 ROB OUT: 13069088
Heartbeat CPU 0 instructions: 90000003 cycles: 44873137 heartbeat IPC: 1.29209 cumulative IPC: 1.29511 (Simulation time: 0 hr 19 min 1 sec) 
Cycle: 50000000 FTQ IN: 12927794 FTQ occupancy: 10.3835 DECODE IN: 12927829 DECODE occupancy: 24.9387 ROB IN: 12927782 ROB occupancy: 189.171 ROB OUT: 12927621
Heartbeat CPU 0 instructions: 100000003 cycles: 52537735 heartbeat IPC: 1.3047 cumulative IPC: 1.29702 (Simulation time: 0 hr 21 min 3 sec) 
Finished CPU 0 instructions: 50000001 cycles: 38549906 cumulative IPC: 1.29702 (Simulation time: 0 hr 21 min 3 sec) 

ChampSim completed all CPUs

Region of Interest Statistics

CPU 0 cumulative IPC: 1.29702 instructions: 50000001 cycles: 38549906
 Fetch stage stalled: 60.0808  Sim cycles: 38549906 fetch stall cycle: 23161105
 Empty decode stage: 45.8319  Sim cycles: 38549906 fetch stall cycle: 17668134
ITLB TOTAL     ACCESS:    5668536  HIT:    5171894  MISS:     496642  HIT %:    91.2386  MISS %:    8.76138   MPKI: 9.93284
ITLB LOAD TRANSLATION INSTRUCTION	ACCESS:    5545154  HIT:    5048512  MISS:     496642  HIT %:    91.0437  MISS %:    8.95632  MPKI: 9.93284
ITLB TRANSLATION FROM L1D PREFETCHER INSTRUCTION	ACCESS:     123382  HIT:     123382  MISS:          0  HIT %:        100  MISS %:          0  MPKI: 0

ITLB AVERAGE MISS LATENCY: 9.05728 cycles
ITLB RQ	ACCESS:    7655191	FORWARD:          0	MERGED:    1486862	TO_CACHE:    6168329

DTLB TOTAL     ACCESS:    9085004  HIT:    8613683  MISS:     471321  HIT %:    94.8121  MISS %:     5.1879   MPKI: 9.42642
DTLB LOAD TRANSLATION DATA	ACCESS:    9085004  HIT:    8613683  MISS:     471321  HIT %:    94.8121  MISS %:     5.1879  MPKI: 9.42642

DTLB AVERAGE MISS LATENCY: 9.3341 cycles
DTLB RQ	ACCESS:   13457779	FORWARD:          0	MERGED:    4334225	TO_CACHE:    9123554

STLB TOTAL     ACCESS:    1211653  HIT:    1209401  MISS:       2252  HIT %:    99.8141  MISS %:   0.185862   MPKI: 0.04504
STLB LOAD TRANSLATION INSTRUCTION	ACCESS:     496642  HIT:     496265  MISS:        377  HIT %:    99.9241  MISS %:  0.0759098  MPKI: 0.00754
STLB LOAD TRANSLATION DATA	ACCESS:     471172  HIT:     469323  MISS:       1849  HIT %:    99.6076  MISS %:   0.392426  MPKI: 0.03698
STLB TRANSLATION FROM L1D PREFETCHER DATA	ACCESS:     243839  HIT:     243813  MISS:         26  HIT %:    99.9893  MISS %:  0.0106628  MPKI: 0.00052

STLB AVERAGE MISS LATENCY: 70.6119 cycles
STLB RQ	ACCESS:    1328134	FORWARD:          0	MERGED:     116438	TO_CACHE:    1211696

STLB Hit, L1D data hit: 0
STLB Hit, L2C data hit: 0
STLB Hit, LLC data hit: 0
STLB Hit, LLC data miss: 0
STLB STLB hints to L2: 0
L1D TOTAL     ACCESS:   13209742  HIT:   12090732  MISS:    1119010  HIT %:    91.5289  MISS %:     8.4711   MPKI: 22.3802
L1D LOAD DATA	ACCESS:    6655492  HIT:    5915010  MISS:     740482  HIT %:    88.8741  MISS %:    11.1259  MPKI: 14.8096
L1D RFO DATA	ACCESS:    6231236  HIT:    5945574  MISS:     285662  HIT %:    95.4156  MISS %:    4.58436  MPKI: 5.71324
L1D PREFETCH DATA	ACCESS:     323014  HIT:     230148  MISS:      92866  HIT %:    71.2502  MISS %:    28.7498  MPKI: 1.85732

L1D PREFETCH  REQUESTED:     720732  ISSUED:     720732  USEFUL:      32231  USELESS:      68099
L1D USEFUL LOAD PREFETCHES:      32231 PREFETCH ISSUED TO LOWER LEVEL:     100357  ACCURACY: 32.1163
 TIMELY PREFETCHES:      32231 LATE PREFETCHES: 7450 DROPPED PREFETCHES: 10
L1D AVERAGE MISS LATENCY: 221288 cycles
L1D RQ	ACCESS:   10745519	FORWARD:          0	MERGED:    3886620	TO_CACHE:    6690551
L1D WQ	ACCESS:    6957886	FORWARD:     168740	MERGED:     190658	TO_CACHE:    6767228
L1D PQ	ACCESS:     360562	FORWARD:          0	MERGED:          0	TO_CACHE:     360170

L1D UNIQUE REGIONS ACCESSED: 0
L1D REGIONS CONFLICTS: 0
L1D Cross Page Prefetch Requests: 5895
L1D Same Page Prefetch Requests: 734856
L1D ROI Sum of L1D PQ occupancy: 4575043
L1D PREFETCHES PUSHED FROM L2C: 0
L1I TOTAL     ACCESS:    6989743  HIT:    4214147  MISS:    2775596  HIT %:    60.2904  MISS %:    39.7096   MPKI: 55.5119
L1I LOAD INSTRUCTION	ACCESS:    6403620  HIT:    3628024  MISS:    2775596  HIT %:    56.6558  MISS %:    43.3442  MPKI: 55.5119
L1I PREFETCH INSTRUCTION	ACCESS:     586123  HIT:     586123  MISS:          0  HIT %:        100  MISS %:          0  MPKI: 0

L1I PREFETCH  REQUESTED:    1370083  ISSUED:    1370083  USEFUL:          0  USELESS:          0
L1I USEFUL LOAD PREFETCHES:          0 PREFETCH ISSUED TO LOWER LEVEL:          0  ACCURACY: -nan
 TIMELY PREFETCHES:          0 LATE PREFETCHES: 0 DROPPED PREFETCHES: 0
L1I AVERAGE MISS LATENCY: 17.1525 cycles
L1I RQ	ACCESS:    9492080	FORWARD:          0	MERGED:    2820431	TO_CACHE:    6671649
L1I PQ	ACCESS:    1370083	FORWARD:          0	MERGED:     386541	TO_CACHE:     983542

L1BTB TOTAL     ACCESS:    5673798  HIT:    2032589  MISS:    3641209  HIT %:    35.8241  MISS %:    64.1759   MPKI: 72.8242
L1BTB BRANCH_DIRECT_JUMP	ACCESS:     548575 HIT:     144033 MISS:     404542 AVERAGE STALL: 43.3121 AVERAGE FETCH STALL: 19.2381 AVERAGE FETCH QUEUE STALL: 11.1492 AVERAGE DECODE STALL: 12.0895 AVERAGE EXECUTE STALL: 6.29174e+14
L1BTB BRANCH_INDIRECT	ACCESS:     183033 HIT:      65848 MISS:     117185 AVERAGE STALL: 97.7818 AVERAGE FETCH STALL: 12.539 AVERAGE FETCH QUEUE STALL: 12.6948 AVERAGE DECODE STALL: 10.213 AVERAGE EXECUTE STALL: 61.3962
L1BTB BRANCH_CONDITIONAL	ACCESS:    2703509 HIT:    1407001 MISS:    1296508 AVERAGE STALL: 45.2398 AVERAGE FETCH STALL: 22.1744 AVERAGE FETCH QUEUE STALL: 12.2632 AVERAGE DECODE STALL: 10.0402 AVERAGE EXECUTE STALL: 2.58445e+14
L1BTB BRANCH_DIRECT_CALL	ACCESS:     947461 HIT:     105091 MISS:     842370 AVERAGE STALL: 45.2858 AVERAGE FETCH STALL: 21.6918 AVERAGE FETCH QUEUE STALL: 12.8731 AVERAGE DECODE STALL: 9.98239 AVERAGE EXECUTE STALL: 3.51092e+14
L1BTB BRANCH_INDIRECT_CALL	ACCESS:     171880 HIT:      20863 MISS:     151017 AVERAGE STALL: 122.502 AVERAGE FETCH STALL: 15.3219 AVERAGE FETCH QUEUE STALL: 10.9807 AVERAGE DECODE STALL: 8.19025 AVERAGE EXECUTE STALL: 87.4838
L1BTB BRANCH_RETURN	ACCESS:    1119340 HIT:     289753 MISS:     829587 AVERAGE STALL: 43.397 AVERAGE FETCH STALL: 18.1302 AVERAGE FETCH QUEUE STALL: 7.37662 AVERAGE DECODE STALL: 6.65875 AVERAGE EXECUTE STALL: 2.64853e+14
L1BTB BRANCH_OTHER ACCESS:          0 HIT:          0 MISS:          0 AVERAGE STALL: -nan AVERAGE FETCH STALL: -nan AVERAGE FETCH QUEUE STALL: -nan AVERAGE DECODE STALL: -nan AVERAGE EXECUTE STALL: -nan
L1BTB TOTAL ROB OCCUPANCY AT BTB MISS: 9.55375

L2BTB TOTAL     ACCESS:    3615854  HIT:    3378167  MISS:     237687  HIT %:    93.4265  MISS %:    6.57347   MPKI: 4.75374
L2BTB BRANCH_DIRECT_JUMP	ACCESS:     400422 HIT:     375195 MISS:      25227 AVERAGE STALL: 43.3121 AVERAGE FETCH STALL: 19.2381 AVERAGE FETCH QUEUE STALL: 11.1492 AVERAGE DECODE STALL: 12.0895 AVERAGE EXECUTE STALL: 6.29174e+14
L2BTB BRANCH_INDIRECT	ACCESS:     106888 HIT:     102241 MISS:       4647 AVERAGE STALL: 97.7818 AVERAGE FETCH STALL: 12.539 AVERAGE FETCH QUEUE STALL: 12.6948 AVERAGE DECODE STALL: 10.213 AVERAGE EXECUTE STALL: 61.3962
L2BTB BRANCH_CONDITIONAL	ACCESS:    1296508 HIT:    1224725 MISS:      71783 AVERAGE STALL: 45.2398 AVERAGE FETCH STALL: 22.1744 AVERAGE FETCH QUEUE STALL: 12.2632 AVERAGE DECODE STALL: 10.0402 AVERAGE EXECUTE STALL: 2.58445e+14
L2BTB BRANCH_DIRECT_CALL	ACCESS:     842370 HIT:     789774 MISS:      52596 AVERAGE STALL: 45.2858 AVERAGE FETCH STALL: 21.6918 AVERAGE FETCH QUEUE STALL: 12.8731 AVERAGE DECODE STALL: 9.98239 AVERAGE EXECUTE STALL: 3.51092e+14
L2BTB BRANCH_INDIRECT_CALL	ACCESS:     141502 HIT:     126334 MISS:      15168 AVERAGE STALL: 122.502 AVERAGE FETCH STALL: 15.3219 AVERAGE FETCH QUEUE STALL: 10.9807 AVERAGE DECODE STALL: 8.19025 AVERAGE EXECUTE STALL: 87.4838
L2BTB BRANCH_RETURN	ACCESS:     828164 HIT:     759898 MISS:      68266 AVERAGE STALL: 43.397 AVERAGE FETCH STALL: 18.1302 AVERAGE FETCH QUEUE STALL: 7.37662 AVERAGE DECODE STALL: 6.65875 AVERAGE EXECUTE STALL: 2.64853e+14
L2BTB BRANCH_OTHER ACCESS:          0 HIT:          0 MISS:          0 AVERAGE STALL: -nan AVERAGE FETCH STALL: -nan AVERAGE FETCH QUEUE STALL: -nan AVERAGE DECODE STALL: -nan AVERAGE EXECUTE STALL: -nan
L2BTB TOTAL ROB OCCUPANCY AT BTB MISS: 146.357

L2C TOTAL     ACCESS:    4504651  HIT:    4039212  MISS:     465439  HIT %:    89.6676  MISS %:    10.3324   MPKI: 9.30878
L2C LOAD INSTRUCTION	ACCESS:    2775596  HIT:    2525329  MISS:     250267  HIT %:    90.9833  MISS %:    9.01669  MPKI: 5.00534
L2C LOAD TRANSLATION INSTRUCTION	ACCESS:        421  HIT:        173  MISS:        248  HIT %:    41.0926  MISS %:    58.9074  MPKI: 0.00496
L2C LOAD DATA	ACCESS:     733000  HIT:     660313  MISS:      72687  HIT %:    90.0836  MISS %:    9.91637  MPKI: 1.45374
L2C RFO DATA	ACCESS:     285588  HIT:     230646  MISS:      54942  HIT %:    80.7618  MISS %:    19.2382  MPKI: 1.09884
L2C PREFETCH DATA	ACCESS:     181248  HIT:     108441  MISS:      72807  HIT %:    59.8302  MISS %:    40.1698  MPKI: 1.45614
L2C WRITEBACK DATA	ACCESS:     526818  HIT:     513728  MISS:      13090  HIT %:    97.5153  MISS %:    2.48473  MPKI: 0.2618
L2C LOAD TRANSLATION DATA	ACCESS:       1926  HIT:        544  MISS:       1382  HIT %:    28.2451  MISS %:    71.7549  MPKI: 0.02764
L2C TRANSLATION FROM L1D PREFETCHER DATA	ACCESS:         54  HIT:         38  MISS:         16  HIT %:    70.3704  MISS %:    29.6296  MPKI: 0.00032

L2C PREFETCH  REQUESTED:      89240  ISSUED:      89240  USEFUL:       8885  USELESS:      64567
L2C USEFUL LOAD PREFETCHES:       8885 PREFETCH ISSUED TO LOWER LEVEL:      73382  ACCURACY: 12.1079
 TIMELY PREFETCHES:       8885 LATE PREFETCHES: 575 DROPPED PREFETCHES: 0
L2C AVERAGE MISS LATENCY: 38.4101 cycles
L2C RQ	ACCESS:    3796655	FORWARD:          0	MERGED:          0	TO_CACHE:    3796590
L2C WQ	ACCESS:     526818	FORWARD:         66	MERGED:          0	TO_CACHE:     526818
L2C PQ	ACCESS:     189597	FORWARD:          0	MERGED:       3936	TO_CACHE:     185660

L2C Dense regions hint from L2: 0
PSCL5 TOTAL     ACCESS:       4528  HIT:       2264  MISS:       2264  HIT %:         50  MISS %:         50   MPKI: 0.04528
PSCL5 LOAD TRANSLATION INSTRUCTION	ACCESS:       4420  HIT:       2210  MISS:       2210  HIT %:         50  MISS %:         50  MPKI: 0.0442
PSCL5 TRANSLATION FROM L1D PREFETCHER INSTRUCTION	ACCESS:        108  HIT:         54  MISS:         54  HIT %:         50  MISS %:         50  MPKI: 0.00108


PSCL4 TOTAL     ACCESS:       3550  HIT:       1771  MISS:       1779  HIT %:    49.8873  MISS %:    50.1127   MPKI: 0.03558
PSCL4 LOAD TRANSLATION INSTRUCTION	ACCESS:       2058  HIT:       1735  MISS:        323  HIT %:    84.3052  MISS %:    15.6948  MPKI: 0.00646
PSCL4 TRANSLATION FROM L1D PREFETCHER INSTRUCTION	ACCESS:         36  HIT:         36  MISS:          0  HIT %:        100  MISS %:          0  MPKI: 0
PSCL4 LOAD TRANSLATION DATA	ACCESS:       1420  HIT:          0  MISS:       1420  HIT %:          0  MISS %:        100  MPKI: 0.0284
PSCL4 TRANSLATION FROM L1D PREFETCHER DATA	ACCESS:         36  HIT:          0  MISS:         36  HIT %:          0  MISS %:        100  MPKI: 0.00072


PSCL3 TOTAL     ACCESS:       4215  HIT:       2099  MISS:       2116  HIT %:    49.7983  MISS %:    50.2017   MPKI: 0.04232
PSCL3 LOAD TRANSLATION INSTRUCTION	ACCESS:       2987  HIT:       2058  MISS:        929  HIT %:    68.8986  MISS %:    31.1014  MPKI: 0.01858
PSCL3 TRANSLATION FROM L1D PREFETCHER INSTRUCTION	ACCESS:         56  HIT:         41  MISS:         15  HIT %:    73.2143  MISS %:    26.7857  MPKI: 0.0003
PSCL3 LOAD TRANSLATION DATA	ACCESS:       1146  HIT:          0  MISS:       1146  HIT %:          0  MISS %:        100  MPKI: 0.02292
PSCL3 TRANSLATION FROM L1D PREFETCHER DATA	ACCESS:         26  HIT:          0  MISS:         26  HIT %:          0  MISS %:        100  MPKI: 0.00052


PSCL2 TOTAL     ACCESS:       4412  HIT:       2148  MISS:       2264  HIT %:    48.6854  MISS %:    51.3146   MPKI: 0.04528
PSCL2 LOAD TRANSLATION INSTRUCTION	ACCESS:       2471  HIT:       2094  MISS:        377  HIT %:     84.743  MISS %:     15.257  MPKI: 0.00754
PSCL2 TRANSLATION FROM L1D PREFETCHER INSTRUCTION	ACCESS:         54  HIT:         54  MISS:          0  HIT %:        100  MISS %:          0  MPKI: 0
PSCL2 LOAD TRANSLATION DATA	ACCESS:       1833  HIT:          0  MISS:       1833  HIT %:          0  MISS %:        100  MPKI: 0.03666
PSCL2 TRANSLATION FROM L1D PREFETCHER DATA	ACCESS:         54  HIT:          0  MISS:         54  HIT %:          0  MISS %:        100  MPKI: 0.00108


LLC TOTAL     ACCESS:     530478  HIT:     502652  MISS:      27826  HIT %:    94.7545  MISS %:    5.24546   MPKI: 0.55652
LLC LOAD INSTRUCTION	ACCESS:     250267  HIT:     249280  MISS:        987  HIT %:    99.6056  MISS %:   0.394379  MPKI: 0.01974
LLC LOAD TRANSLATION INSTRUCTION	ACCESS:        248  HIT:        219  MISS:         29  HIT %:    88.3065  MISS %:    11.6935  MPKI: 0.00058
LLC LOAD DATA	ACCESS:      72178  HIT:      68806  MISS:       3372  HIT %:    95.3282  MISS %:    4.67178  MPKI: 0.06744
LLC RFO DATA	ACCESS:      54851  HIT:      41666  MISS:      13185  HIT %:    75.9622  MISS %:    24.0378  MPKI: 0.2637
LLC PREFETCH DATA	ACCESS:      73380  HIT:      63587  MISS:       9793  HIT %:    86.6544  MISS %:    13.3456  MPKI: 0.19586
LLC WRITEBACK DATA	ACCESS:      78156  HIT:      77796  MISS:        360  HIT %:    99.5394  MISS %:   0.460617  MPKI: 0.0072
LLC LOAD TRANSLATION DATA	ACCESS:       1382  HIT:       1283  MISS:         99  HIT %:    92.8365  MISS %:    7.16353  MPKI: 0.00198
LLC TRANSLATION FROM L1D PREFETCHER DATA	ACCESS:         16  HIT:         15  MISS:          1  HIT %:      93.75  MISS %:       6.25  MPKI: 2e-05

LLC AVERAGE MISS LATENCY: 153.362 cycles
LLC RQ	ACCESS:     378967	FORWARD:          0	MERGED:          0	TO_CACHE:     378942
LLC WQ	ACCESS:      78156	FORWARD:         27	MERGED:          0	TO_CACHE:      78156
LLC PQ	ACCESS:      73382	FORWARD:          0	MERGED:          0	TO_CACHE:      73380

LLC Dense regions hint to LLC: 0

RAW hits: 1893645
Loads Generated: 12639164
Loads sent to L1D: 10745519
Stores Generated: 6957855
Stores sent to L1D: 6957886
Major fault: 0 Minor fault: 2551
Allocated PAGES: 2551

stream: 
stream:times selected: 1166115
stream:pref_filled: 121316
stream:pref_useful: 23673
stream:pref_late: 6596
stream:misses: 6604
stream:misses_by_poll: 0

CS: 
CS:times selected: 175184
CS:pref_filled: 58668
CS:pref_useful: 34178
CS:pref_late: 6804
CS:misses: 15393
CS:misses_by_poll: 2

CPLX: 
CPLX:times selected: 989580
CPLX:pref_filled: 18681
CPLX:pref_useful: 4082
CPLX:pref_late: 2957
CPLX:misses: 88615
CPLX:misses_by_poll: 0

NL_L1: 
NL:times selected: 19050
NL:pref_filled: 500
NL:pref_useful: 214
NL:pref_late: 180
NL:misses: 1005
NL:misses_by_poll: 0

total selections: 2349929
total_filled: 92866
total_useful: 32231
total_late: 17813
total_polluted: 2
total_misses_after_warmup: 775544
conflicts: 5594893

test: 111938

DRAM Statistics
 CHANNEL 0
 RQ ROW_BUFFER_HIT:      10293  ROW_BUFFER_MISS:      17162
 DBUS_CONGESTED:          9
 WQ ROW_BUFFER_HIT:       1314  ROW_BUFFER_MISS:      11686  FULL:          0

 AVG_CONGESTED_CYCLE: 6

CPU 0 Branch Prediction Accuracy: 99.8156% MPKI: 0.33736 Average ROB Occupancy at Mispredict: 171.367
Branch types
NOT_BRANCH: 40852140 81.7043%
BRANCH_DIRECT_JUMP: 548575 1.09715%
BRANCH_INDIRECT: 183033 0.366066%
BRANCH_CONDITIONAL: 6177357 12.3547%
BRANCH_DIRECT_CALL: 947461 1.89492%
BRANCH_INDIRECT_CALL: 171880 0.34376%
BRANCH_RETURN: 1119340 2.23868%
BRANCH_OTHER: 0 0%

DRAM PAGES: 1048576
Allocated PAGES: 2551
Average_ROB_Occupancy: 191.324
Average_Decode_Occupancy: 24.9816
Average_FTQ_Occupancy: 10.3548
Indirect max targets: 14 Average targets: 1.16722
Branch_type:  BRANCH_DIRECT_JUMP:  Count Percentage: 3.77654 5.38057 4.32716 7.55674 3.1034 6.02625 1.21563 68.6137 
Branch_type:  BRANCH_INDIRECT:  Count Percentage: 6.07027 3.42292 8.1471 9.67635 3.35129 2.81849 0.937947 65.5756 
Branch_type:  BRANCH_CONDITIONAL:  Count Percentage: 21.5961 3.13403 1.63861 6.79325 3.09942 3.63091 1.3509 58.7568 
Branch_type:  BRANCH_DIRECT_CALL:  Count Percentage: 0.387647 1.80701 0.723544 3.57637 3.3718 2.80784 2.1756 85.1502 
Branch_type:  BRANCH_INDIRECT_CALL:  Count Percentage: 9.5875 0 3.00873 0.00378091 0 2.24731 0.997868 84.1548 
Branch_type:  BRANCH_RETURN:  Count Percentage: 3.94705 5.42805 1.0226 4.37494 3.68364 3.79993 2.17476 75.569 
Branch_type:  BRANCH_DIRECT_JUMP:  Total Count: 41393 58974 47428 82826 34015 66051 13324 752044 
Branch_type:  BRANCH_INDIRECT:  Total Count: 22205 12521 29802 35396 12259 10310 3431 239875 
Branch_type:  BRANCH_CONDITIONAL:  Total Count: 2666596 386977 202329 838803 382704 448330 166804 7255058 
Branch_type:  BRANCH_DIRECT_CALL:  Total Count: 7341 34220 13702 67727 63853 53173 41200 1612518 
Branch_type:  BRANCH_INDIRECT_CALL:  Total Count: 32965 0 10345 13 0 7727 3431 289352 
Branch_type:  BRANCH_RETURN:  Total Count: 88351 121502 22890 97929 82455 85058 48680 1691543 
Number of unique branch instructions: 10428
Upper 32 bits: 
aaaa
ffff
ffff0000
Unique upper 32 bits: 3
Unique upper 36 bits: 3
Unique upper 40 bits: 5
Unique upper 44 bits: 32
Unique upper 48 bits: 155
Offset_3 4320
Offset_4 261
Offset_5 479
Offset_6 528
Offset_7 627
Offset_8 530
Offset_9 493
Offset_10 406
Offset_11 338
Offset_12 307
Offset_13 224
Offset_14 246
Offset_15 190
Offset_16 231
Offset_17 158
Offset_18 129
Offset_19 249
Offset_20 143
Offset_21 249
Offset_22 413
Offset_23 242
Offset_24 345
Offset_25 100
Offset_47 87
Offset_64 1
decode_dispatch_called: 22431746 58.1888
Dispatch_width: 0 11596838 51.6983 30.0827
Dispatch_width: 1 728880 3.24932 1.89074
Dispatch_width: 2 706284 3.14859 1.83213
Dispatch_width: 3 429232 1.9135 1.11344
Dispatch_width: 4 3520076 15.6924 9.13122
Dispatch_width: 5 212196 0.945963 0.550445
Dispatch_width: 6 5238240 23.3519 13.5882
Empty_decode_cycles: 16118160 41.8112
ROB_full_cycles: 5579584 14.4737
Starvation_cycles_per_kilo_instr: 277.321
Starvation_cycles_per_kilo_instr_3: 239.998
Starvation_cycles_per_kilo_instr_0: 221.354
Branch_type_1  (3,1)  (4,9)  (5,38)  (6,73)  (7,124)  (8,133)  (9,128)  (10,104)  (11,74)  (12,51)  (13,9)  (14,2)  (15,3)  (16,4)  (18,1)  (19,4)  (20,2)  (21,1)  (22,3)  (23,2)  (24,10)  (25,13) 
Branch_type_2  (3,1)  (4,1)  (5,1)  (8,3)  (9,3)  (12,1)  (13,1)  (14,1)  (16,3)  (17,2)  (20,2)  (21,2)  (23,5)  (24,1)  (47,40) 
Branch_type_3  (3,4318)  (4,251)  (5,436)  (6,439)  (7,474)  (8,331)  (9,270)  (10,164)  (11,138)  (12,58)  (13,8)  (64,1) 
Branch_type_4  (6,3)  (7,8)  (8,24)  (9,54)  (10,65)  (11,63)  (12,109)  (13,96)  (14,111)  (15,90)  (16,103)  (17,74)  (18,60)  (19,123)  (20,74)  (21,135)  (22,221)  (23,137)  (24,200)  (25,83) 
Branch_type_5  (8,2)  (9,1)  (10,4)  (11,6)  (12,3)  (13,14)  (14,16)  (15,11)  (16,20)  (17,11)  (18,16)  (19,12)  (20,11)  (21,13)  (22,42)  (23,26)  (24,37) 
Branch_type_6  (5,4)  (6,13)  (7,21)  (8,37)  (9,37)  (10,69)  (11,57)  (12,85)  (13,96)  (14,116)  (15,86)  (16,101)  (17,71)  (18,52)  (19,110)  (20,54)  (21,98)  (22,147)  (23,72)  (24,97)  (25,4)  (47,47) 
aaaaab1fc620: 2ac9e77e 2aca25ac 2aca717c 2aca8eff 2acaf6bc 2acaf9aa 2acaf9f1 2acb1abc 2acb1b7f 2acd4e22 2acdb712 2acf2c20 2acf5f9e 2ad0ef44 2ad3f15c 2ad414e6 2ad60e42 2ad8609c 2ad99830 2ada35cc 2ada4676 2ada6612 2adf183e 2adf30e5 2adf5602 2adf785c 2ae11572 2aeb2dcf 2aee101b 2aee1ae1 2b156a8c 2b156b61 2b156bea 2b167f35 2b177656 2b17feec 2b1a3e5a 
aaaaab1fcb00: 2acf2d72 2acf3277 2acf32fe 2acf3734 2acf604c 2acfa5b7 2ad397b5 2ad3b800 2ae8af7d 2ae8aff0 2ae9aaba 2aea9fc6 2aeaa358 2aee910b 2aee91cf 2af6fe87 2af70dfe 2b16850c 2b178094 2b17ec8f 
aaaaab1fcb10: 2acf2d95 2acf32a8 2acf331b 2acf3758 2acf6052 2acfa5f4 2ad397c3 2ad3b81c 2ae8af88 2ae8affe 2ae9aacf 2aeaa017 2aeaa36d 2aee9114 2aee91d8 2af6fe8c 2af70e22 2b168526 2b1780a3 2b17ecac 
aaaaac68f310: 2ac9ec8c 2ac9fb44 2ac9fbd2 2aca29c5 2aca59ab 2acac04c 2acaf6e0 2acaf6ec 2acaf6f9 2acaf700 2acaf708 2acf2d90 2acf3361 2acf338f 2acf3396 2ad3cfbd 2ad3cfc4 2ad3d000 2ad3f35f 2ad3f39d 2ad3f3da 2ad41585 2ad4955d 2ad49571 2ad4f3f2 2ad4f400 2ad5f240 2ad5f37c 2ad5f86a 2ad5f86f 2ad5f880 2ad5fc0d 2ad5fc14 2ad5fc21 2ad5fe1b 2ad873bb 2ad873e3 2ad8a6b2 2ad9086e 2ad93096 2ad9bbb2 2ada152c 2ada1554 2ada3332 2ada5522 2adf3130 2adf313c 2adf3a3f 2adf3bd9 2adf5788 2adf7a8d 2ae07f6b 2ae0857a 2ae0857e 2ae08630 2ae08634 2ae08637 2ae08642 2ae0866f 2ae086e4 2ae086ec 2ae08717 2ae0871b 2aee0170 2aee1d38 2aee75f4 2aee7662 2aee85ca 2aee85e4 2aee8eef 2af70b84 2af74e8f 2b17d843 
aaaaac690ef0: 2aca298e 2aca598b 2acb111b 2acb175f 2acb1772 2acbfaf4 2acbfb00 2acf374f 2acf6d43 2acfa5c8 2ad3baf1 2ad3d4ac 2ad3d4b8 2ad3f1cf 2ad486b2 2ad5a59b 2ad5fc64 2ad5fcf9 2ad6121c 2ad906e9 2ad907bf 2ad9bada 2ada16ce 2ada1ad5 2ada43df 2ada64c0 2ada72ee 2adeb71a 2adf3bcb 2adf7a38 2adf7c6a 2adf8872 2adf8880 2adf9959 2adf9abe 2ae07f78 2ae08503 2ae08754 2ae12e80 2aea3bea 2aecb509 2aee00b0 2aee2bdd 2aee5467 2aee5601 2aee8f20 2af703fd 2af7048b 2af74e74 2dfba627 
Unique trigger count: 
1 9927
2 558
3 92
4 32
5 12
6 7
7 9
8 1
9 2
10 2
11 2
12 1
13 3
14 1
16 2
19 3
20 2
37 1
50 1
73 1
BTB PER SET UNIQUE ADDR: 7 7 6 5 3 3 7 9 10 2 5 2 8 6 4 4 6 4 9 9 5 8 8 8 8 11 1 7 6 6 10 10 6 5 7 4 4 7 6 4 8 5 6 10 9 8 6 11 11 6 5 3 14 3 2 8 5 5 9 8 4 12 5 8 6 9 8 7 5 7 6 2 6 4 6 7 6 14 6 4 9 6 7 6 6 7 7 8 8 11 10 9 10 7 8 4 10 9 5 6 9 6 9 9 7 8 6 8 8 6 7 6 4 9 6 11 3 8 6 2 8 8 4 2 6 4 5 6 10 8 10 3 11 6 8 5 5 2 7 8 8 7 6 6 5 10 4 8 10 7 7 12 7 11 5 9 7 9 6 10 11 6 10 5 11 6 3 4 13 5 7 3 7 6 3 3 5 8 9 5 6 7 9 7 7 11 6 6 6 8 6 8 6 6 7 10 12 3 10 7 4 6 10 3 8 4 5 8 7 2 5 6 9 9 6 6 4 9 8 6 7 3 7 8 6 9 13 7 2 10 14 9 4 4 6 8 9 5 3 5 5 3 11 8 15 11 1 5 6 6 9 10 6 7 6 12 4 8 10 5 8 5 7 4 9 16 7 4 7 5 7 6 5 8 9 8 6 4 4 8 8 4 9 5 9 9 7 7 8 4 5 7 5 10 6 4 5 10 6 6 6 6 4 4 6 4 6 4 11 9 6 3 8 3 6 5 9 14 7 3 6 11 6 9 5 5 5 9 3 0 7 3 5 7 9 4 7 8 7 1 6 6 3 8 6 8 3 7 9 4 4 11 10 6 8 7 7 2 7 5 6 10 6 8 11 8 4 3 4 4 8 5 6 5 7 4 11 7 6 10 9 7 6 12 6 4 8 5 7 4 9 5 8 4 7 4 5 5 2 8 7 4 6 6 6 6 7 4 4 3 4 3 9 6 2 6 12 4 2 6 3 5 5 7 11 8 3 2 5 7 3 4 15 6 8 11 7 6 6 4 5 6 8 3 7 8 4 6 5 4 7 3 6 3 9 3 5 8 10 6 5 5 7 10 5 5 13 3 5 8 2 6 9 7 4 3 9 5 4 4 5 2 3 4 3 8 8 3 7 2 12 5 4 8 1 12 5 7 6 4 11 3 4 3 2 5 7 3 5 6 8 4 7 10 3 4 2 11 5 8 6 4 7 5 11 10 4 9 9 7 8 6 5 8 5 7 5 2 6 4 4 8 10 4 8 5 10 14 12 11 6 9 8 8 2 6 8 3 6 4 10 5 8 4 5 5 9 9 10 8 7 5 10 11 6 7 6 11 3 10 13 5 2 6 4 3 3 14 7 5 7 7 4 5 5 5 8 6 5 5 10 5 9 13 8 6 5 9 8 5 8 6 7 7 8 5 7 5 5 7 8 7 11 4 5 10 7 8 4 6 9 7 6 7 7 7 5 5 5 4 12 8 4 6 3 3 8 8 8 9 7 6 11 3 6 4 11 5 6 8 12 4 6 11 8 8 7 7 5 10 7 7 7 7 12 10 8 7 9 6 8 12 10 6 8 8 7 9 9 6 3 9 3 4 4 6 10 7 9 8 3 12 6 6 7 12 3 4 5 5 7 8 6 5 5 7 9 6 1 8 4 3 5 4 4 2 3 9 2 11 8 10 7 2 6 8 7 3 6 4 4 9 5 10 4 6 6 4 8 7 6 3 4 7 2 5 4 11 11 4 6 6 6 7 8 6 15 5 6 4 8 6 0 5 7 4 6 10 4 3 9 6 4 6 10 9 9 8 3 9 3 9 5 6 6 11 12 4 7 4 13 4 9 3 7 7 8 9 5 6 3 5 6 3 4 6 1 5 5 10 6 4 9 5 5 5 6 4 7 6 7 3 7 4 10 5 4 5 6 4 5 4 6 5 4 8 9 5 7 4 8 7 6 8 5 10 7 4 8 5 7 7 4 4 14 5 6 8 9 9 4 7 6 11 8 2 3 6 8 4 5 8 6 7 10 6 7 4 6 7 8 4 5 8 6 3 9 11 4 3 12 8 4 5 8 6 6 11 6 9 9 6 4 4 2 8 5 5 8 6 9 7 10 7 9 9 7 4 5 13 5 4 11 10 6 8 10 10 2 8 8 8 4 4 7 7 9 7 8 4 9 2 13 7 4 6 9 12 6 9 6 7 10 5 3 9 11 8 8 5 3 5 3 9 11 6 8 5 4 8 12 6 5 5 5 7 4 5 9 7 8 7 7 11 4 11 6 11 5 6 3 5 5 4 6 6 7 4 7 5 8 4 9 5 10 4 9 5 3 7 10 6 14 5 
BTB PER SET COUNT: 7 7 6 5 4 3 7 34 2891 2 5 2 9 6 4 6 7 4 10 1487 5 10 9 8 8 2417 1 7 1482 6 4362 395 6 5 9 6 2961 7 6 4 11 5 6 41 1980 10 6 5281 3135 6 5 3 11858 3 2 8 6 5 16 109 6 2519 5 9 6 1352 8 9 6 7 7 2 7 4 6 7 487 3516 6 4 14 6 7 6 487 8 7 8 8 453 2031 530 37 7 9 5 3371 12 5 6 12 6 17 2107 8 9 6 8 9 6 7 7 4 13 6 3941 3 9 6 2 9 11 7 2 488 5 5 7 1933 9 552 3 5348 6 8 5 5 2 8 9 9 7 7 6 5 26 4 9 3009 7 7 3304 7 3369 5 13 7 12 6 781 1478 6 2963 6 42 1999 3 4 9953 5 7 3 7 141 4 3 5 490 1005 5 6 7 15 7 7 1930 7 7 6 9 7 9 8 6 7 39 1043 4 17 7 5 6 12 5 11 4 5 2447 9 2 6 7 15 11 6 6 4 64 9 6 7 3 8 8 7 13 5294 2037 3 3888 8271 12 4 5 6 8 3364 6 3 6 5 3 1454 8 12329 266 1 5 6 6 11 511 6 8 6 2775 6 8 38 5 9 5 7 4 2237 9945 1003 5 7 5 9 7 6 8 34 8 6 4 4 8 9 4 18 5 1473 3364 7 7 9 4 5 7 485 2892 6 7 6 4380 7 6 6 6 4 6 6 4 9 4 1487 1471 6 3 8 3 6 7 16 4579 9 3 6 407 6 9 5 5 8 14 3 0 968 3 5 8 1014 4 971 9 7 1 6 7 7 968 966 8 3 7 11 6 4 123 23 1002 8 7 10 2 8 41 7 24 9 8 43 9 5 3 4 4 11 5 6 5 9 4 3957 8 6 2226 47 7 6 6297 8 4 14 5 8 4 32 6 8 6 8 7 1481 6 2 8 8 4 7 7 6 6 2959 4 4 2365 4 3 571 9 998 6 151 4 3 1459 3 7 5 8 49 10 5 2 6 8 140 6 5553 7 8 2005 8 6 6 8 5 6 8 3 10 8 5 1004 5 4 7 3 8 3 363 3 5 8 500 6 965 5 15 73 33 5 1336 3 5 10 2 6 52 490 116 3 20900 5 4 4 5 2 3 483 4 8 266 382 7 2 30 5 6 8 1 2429 5 7 7 5 3823 15 4 3 2 5 7 3 5 6 9 5 7 33 4 4 2 7047 5 489 7 1480 7 456 232 17 4 13 39 7 8 10 6 12 5 488 6 2 11 4 4 8 32 7 10 5 16 4092 4811 4798 8 10 10 10 2 6 1007 3 6 5 4591 5 9 4 6 5 43 12 2886 8 7 5 1475 3370 6 7 6 3366 3 36 6981 45 3 6 1481 3 4 5278 8 5 7 9 5 1001 1002 5 8 6 6 5 16 7 1228 58 12 2885 5 1735 9 6 8 9 7 7 8 6 1044 6 5 7 8 762 2889 4 1481 47 7 136 5 6 492 1483 7 12 7 7 7 5 5 4 2429 9 4 6 3 3 11 9 489 11 8 6 986 3 6 5 2416 5 1447 8 11162 4 6 6039 8 969 2960 969 5 35 489 7 9 7 3846 976 488 7 647 6 8 1357 13 967 14779 968 7 1861 1487 8 4 972 3 4 4 6 2889 7 12 48 3 1946 6 6 177 4329 3 1480 5 1481 160 10 8 5 967 7 1499 742 1 8 4 3 5 4 4 2 3 720 3 3376 8 1243 1003 2 7 8 7 3 7 4 5 11 5 6497 4 7 488 4 9 967 7 3 4 543 2 5 4 2905 2413 1000 7 6 1002 7 8 6 8487 5 9 4 9 6 0 132 8 1482 6 3447 4 3 10 9 4 6 1869 34 47 8 456 16 3 2849 5 7 251 3390 3324 4 8 4 3497 6 163 5 1930 1484 9 24 5 9 3 7 6 520 4 7 2 5 7 1312 7 4 1246 397 5 8 1002 4 7 80 7 3 7 4 1143 7 4 5 6 4 155 4 7 1485 4 13 10 5 8 6 8 7 8 9 5 6516 7 4 8 10 7 7 4 5 6531 1001 9 970 2406 11 4 9 6 38 11 2 4 7 10 4 5 10 8 7 144 14 7 4 6 8 10 4 5 8 6 3 14 1477 5 4 5393 9 103 43 13 7 6 1810 6 11 87 6 4 6 2 8 6 966 8 6 12 8 26 9 11 12 7 5 5 171 7 486 3379 2476 6 9 4922 1240 2 11 9 12 4 1000 10 7 18 249 9 4 18 2 5404 9 4 7 41 4335 10 2641 6 488 2886 6 5 15 26 8 9 6 3 5 3 379 53 6 1005 5 5 8 3383 6 486 5 5 10 4 7 10 8 9 10 7 3375 4 55 6 3847 5 7 3 5 5 4 6 6 8 6 7 5 1932 4 2494 375 1212 5 37 6 5 9 1511 6 3875 7 
