
*** ChampSim Multicore Out-of-Order Simulator ***

Warmup Instructions: 50000000
Simulation Instructions: 50000000
Number of CPUs: 1
LLC sets: 2048
LLC ways: 16
Off-chip DRAM Size: 4096 MB Channels: 1 Width: 64-bit Data Rate: 6400 MT/s
CPU 0 runs ./micro_traces/srv122.trace.gz
.gz
ITLB has LRU replacement policy
DTLB has LRU replacement policy
STLB has LRU replacement policy
FDIP Prefetcher at L1I
L1I has LRU replacement policy
L1D has LRU replacement policy
Initialize SRRIP state for L2C
Initialize DRRIP state for LLC
Heartbeat CPU 0 instructions: 10000002 cycles: 2796600 heartbeat IPC: 3.57577 cumulative IPC: 3.57577 (Simulation time: 0 hr 1 min 35 sec) 
Heartbeat CPU 0 instructions: 20000003 cycles: 5590721 heartbeat IPC: 3.57894 cumulative IPC: 3.57736 (Simulation time: 0 hr 3 min 10 sec) 
Heartbeat CPU 0 instructions: 30000001 cycles: 8386040 heartbeat IPC: 3.57741 cumulative IPC: 3.57737 (Simulation time: 0 hr 4 min 49 sec) 
Heartbeat CPU 0 instructions: 40000003 cycles: 11182642 heartbeat IPC: 3.57577 cumulative IPC: 3.57697 (Simulation time: 0 hr 6 min 27 sec) 
Heartbeat CPU 0 instructions: 50000002 cycles: 13978358 heartbeat IPC: 3.5769 cumulative IPC: 3.57696 (Simulation time: 0 hr 7 min 59 sec) 

Warmup complete CPU 0 instructions: 50000002 cycles: 13978358 (Simulation time: 0 hr 7 min 59 sec) 

Cycle: 20000000 FTQ IN: 57151439 FTQ occupancy: 18.3363 DECODE IN: 57151407 DECODE occupancy: 47.1561 ROB IN: 57151407 ROB occupancy: 286.21 ROB OUT: 57151388
Heartbeat CPU 0 instructions: 60000000 cycles: 22386584 heartbeat IPC: 1.18931 cumulative IPC: 1.18931 (Simulation time: 0 hr 9 min 26 sec) 
Cycle: 30000000 FTQ IN: 11710448 FTQ occupancy: 7.75003 DECODE IN: 11710402 DECODE occupancy: 17.6346 ROB IN: 11710342 ROB occupancy: 141.28 ROB OUT: 11710012
Heartbeat CPU 0 instructions: 70000000 cycles: 30956094 heartbeat IPC: 1.16693 cumulative IPC: 1.17801 (Simulation time: 0 hr 10 min 57 sec) 
Heartbeat CPU 0 instructions: 80000001 cycles: 39330700 heartbeat IPC: 1.19409 cumulative IPC: 1.18332 (Simulation time: 0 hr 12 min 24 sec) 
Cycle: 40000000 FTQ IN: 11945695 FTQ occupancy: 7.58576 DECODE IN: 11945671 DECODE occupancy: 17.4317 ROB IN: 11945731 ROB occupancy: 143.608 ROB OUT: 11945986
Heartbeat CPU 0 instructions: 90000002 cycles: 47745256 heartbeat IPC: 1.18842 cumulative IPC: 1.18459 (Simulation time: 0 hr 13 min 51 sec) 
Cycle: 50000000 FTQ IN: 11859976 FTQ occupancy: 7.7502 DECODE IN: 11860069 DECODE occupancy: 17.7132 ROB IN: 11860063 ROB occupancy: 145.936 ROB OUT: 11859944
Heartbeat CPU 0 instructions: 100000000 cycles: 56151815 heartbeat IPC: 1.18955 cumulative IPC: 1.18558 (Simulation time: 0 hr 15 min 37 sec) 
Finished CPU 0 instructions: 50000002 cycles: 42173458 cumulative IPC: 1.18558 (Simulation time: 0 hr 15 min 37 sec) 

ChampSim completed all CPUs

Region of Interest Statistics

CPU 0 cumulative IPC: 1.18558 instructions: 50000002 cycles: 42173458
 Fetch stage stalled: 68.3034  Sim cycles: 42173458 fetch stall cycle: 28805905
 Empty decode stage: 57.1982  Sim cycles: 42173458 fetch stall cycle: 24122437
ITLB TOTAL     ACCESS:    5651061  HIT:    5152888  MISS:     498173  HIT %:    91.1844  MISS %:    8.81557   MPKI: 9.96346
ITLB LOAD TRANSLATION INSTRUCTION	ACCESS:    5536076  HIT:    5037903  MISS:     498173  HIT %:    91.0013  MISS %:    8.99867  MPKI: 9.96346
ITLB TRANSLATION FROM L1D PREFETCHER INSTRUCTION	ACCESS:     114985  HIT:     114985  MISS:          0  HIT %:        100  MISS %:          0  MPKI: 0

ITLB AVERAGE MISS LATENCY: 9.04051 cycles
ITLB RQ	ACCESS:    7512810	FORWARD:          0	MERGED:    1371428	TO_CACHE:    6141382

DTLB TOTAL     ACCESS:    9228702  HIT:    8756493  MISS:     472209  HIT %:    94.8833  MISS %:    5.11674   MPKI: 9.44418
DTLB LOAD TRANSLATION DATA	ACCESS:    9228702  HIT:    8756493  MISS:     472209  HIT %:    94.8833  MISS %:    5.11674  MPKI: 9.44418

DTLB AVERAGE MISS LATENCY: 9.30993 cycles
DTLB RQ	ACCESS:   13539846	FORWARD:          0	MERGED:    4276212	TO_CACHE:    9263634

STLB TOTAL     ACCESS:    1217654  HIT:    1215725  MISS:       1929  HIT %:    99.8416  MISS %:   0.158419   MPKI: 0.03858
STLB LOAD TRANSLATION INSTRUCTION	ACCESS:     498172  HIT:     497943  MISS:        229  HIT %:     99.954  MISS %:  0.0459681  MPKI: 0.00458
STLB LOAD TRANSLATION DATA	ACCESS:     472030  HIT:     470339  MISS:       1691  HIT %:    99.6418  MISS %:    0.35824  MPKI: 0.03382
STLB TRANSLATION FROM L1D PREFETCHER DATA	ACCESS:     247452  HIT:     247443  MISS:          9  HIT %:    99.9964  MISS %: 0.00363707  MPKI: 0.00018

STLB AVERAGE MISS LATENCY: 72.8885 cycles
STLB RQ	ACCESS:    1344555	FORWARD:          0	MERGED:     126863	TO_CACHE:    1217692

STLB Hit, L1D data hit: 0
STLB Hit, L2C data hit: 0
STLB Hit, LLC data hit: 0
STLB Hit, LLC data miss: 0
STLB STLB hints to L2: 0
L1D TOTAL     ACCESS:   13295456  HIT:   12152584  MISS:    1142872  HIT %:     91.404  MISS %:    8.59596   MPKI: 22.8574
L1D LOAD DATA	ACCESS:    6740424  HIT:    5985011  MISS:     755413  HIT %:    88.7928  MISS %:    11.2072  MPKI: 15.1083
L1D RFO DATA	ACCESS:    6229735  HIT:    5942484  MISS:     287251  HIT %:     95.389  MISS %:    4.61097  MPKI: 5.74502
L1D PREFETCH DATA	ACCESS:     325297  HIT:     225089  MISS:     100208  HIT %:    69.1949  MISS %:    30.8051  MPKI: 2.00416

L1D PREFETCH  REQUESTED:     748694  ISSUED:     748694  USEFUL:      38509  USELESS:      70871
L1D USEFUL LOAD PREFETCHES:      38509 PREFETCH ISSUED TO LOWER LEVEL:     109395  ACCURACY: 35.2018
 TIMELY PREFETCHES:      38509 LATE PREFETCHES: 9156 DROPPED PREFETCHES: 1
L1D AVERAGE MISS LATENCY: 280352 cycles
L1D RQ	ACCESS:   10815593	FORWARD:          0	MERGED:    3878747	TO_CACHE:    6772018
L1D WQ	ACCESS:    6945468	FORWARD:     165176	MERGED:     177640	TO_CACHE:    6767828
L1D PQ	ACCESS:     374521	FORWARD:          0	MERGED:          0	TO_CACHE:     374173

L1D UNIQUE REGIONS ACCESSED: 0
L1D REGIONS CONFLICTS: 0
L1D Cross Page Prefetch Requests: 5774
L1D Same Page Prefetch Requests: 762044
L1D ROI Sum of L1D PQ occupancy: 4746178
L1D PREFETCHES PUSHED FROM L2C: 0
L1I TOTAL     ACCESS:    6971744  HIT:    4189291  MISS:    2782453  HIT %:    60.0896  MISS %:    39.9104   MPKI: 55.6491
L1I LOAD INSTRUCTION	ACCESS:    6451260  HIT:    3668807  MISS:    2782453  HIT %:    56.8696  MISS %:    43.1304  MPKI: 55.6491
L1I PREFETCH INSTRUCTION	ACCESS:     520484  HIT:     520484  MISS:          0  HIT %:        100  MISS %:          0  MPKI: 0

L1I PREFETCH  REQUESTED:    1146510  ISSUED:    1146510  USEFUL:          0  USELESS:          0
L1I USEFUL LOAD PREFETCHES:          0 PREFETCH ISSUED TO LOWER LEVEL:          0  ACCURACY: -nan
 TIMELY PREFETCHES:          0 LATE PREFETCHES: 0 DROPPED PREFETCHES: 0
L1I AVERAGE MISS LATENCY: 17.0052 cycles
L1I RQ	ACCESS:    9480818	FORWARD:          0	MERGED:    2791277	TO_CACHE:    6689541
L1I PQ	ACCESS:    1146510	FORWARD:          0	MERGED:     323241	TO_CACHE:     823269

L1BTB TOTAL     ACCESS:    5676129  HIT:    2029315  MISS:    3646814  HIT %:    35.7517  MISS %:    64.2483   MPKI: 72.9363
L1BTB BRANCH_DIRECT_JUMP	ACCESS:     546511 HIT:     142148 MISS:     404363 AVERAGE STALL: 36.7606 AVERAGE FETCH STALL: 18.1971 AVERAGE FETCH QUEUE STALL: 8.02528 AVERAGE DECODE STALL: 9.67123 AVERAGE EXECUTE STALL: 3.52724e+14
L1BTB BRANCH_INDIRECT	ACCESS:     181659 HIT:      65037 MISS:     116622 AVERAGE STALL: 85.8041 AVERAGE FETCH STALL: 13.3802 AVERAGE FETCH QUEUE STALL: 8.40657 AVERAGE DECODE STALL: 6.71567 AVERAGE EXECUTE STALL: 56.3459
L1BTB BRANCH_CONDITIONAL	ACCESS:    2704885 HIT:    1407350 MISS:    1297535 AVERAGE STALL: 38.0959 AVERAGE FETCH STALL: 21.6677 AVERAGE FETCH QUEUE STALL: 7.86812 AVERAGE DECODE STALL: 7.79429 AVERAGE EXECUTE STALL: 1.29571e+14
L1BTB BRANCH_DIRECT_CALL	ACCESS:     949344 HIT:     104588 MISS:     844756 AVERAGE STALL: 40.937 AVERAGE FETCH STALL: 21.5312 AVERAGE FETCH QUEUE STALL: 9.41213 AVERAGE DECODE STALL: 9.2196 AVERAGE EXECUTE STALL: 1.60996e+14
L1BTB BRANCH_INDIRECT_CALL	ACCESS:     172193 HIT:      21010 MISS:     151183 AVERAGE STALL: 112.61 AVERAGE FETCH STALL: 15.3698 AVERAGE FETCH QUEUE STALL: 7.89731 AVERAGE DECODE STALL: 7.45233 AVERAGE EXECUTE STALL: 81.3397
L1BTB BRANCH_RETURN	ACCESS:    1121537 HIT:     289182 MISS:     832355 AVERAGE STALL: 37.7592 AVERAGE FETCH STALL: 18.0098 AVERAGE FETCH QUEUE STALL: 6.64016 AVERAGE DECODE STALL: 6.39387 AVERAGE EXECUTE STALL: 1.80016e+14
L1BTB BRANCH_OTHER ACCESS:          0 HIT:          0 MISS:          0 AVERAGE STALL: -nan AVERAGE FETCH STALL: -nan AVERAGE FETCH QUEUE STALL: -nan AVERAGE DECODE STALL: -nan AVERAGE EXECUTE STALL: -nan
L1BTB TOTAL ROB OCCUPANCY AT BTB MISS: 14.0527

L2BTB TOTAL     ACCESS:    3621656  HIT:    3188170  MISS:     433486  HIT %:    88.0307  MISS %:    11.9693   MPKI: 8.66972
L2BTB BRANCH_DIRECT_JUMP	ACCESS:     400340 HIT:     352056 MISS:      48284 AVERAGE STALL: 36.7606 AVERAGE FETCH STALL: 18.1971 AVERAGE FETCH QUEUE STALL: 8.02528 AVERAGE DECODE STALL: 9.67123 AVERAGE EXECUTE STALL: 3.52724e+14
L2BTB BRANCH_INDIRECT	ACCESS:     106294 HIT:     100913 MISS:       5381 AVERAGE STALL: 85.8041 AVERAGE FETCH STALL: 13.3802 AVERAGE FETCH QUEUE STALL: 8.40657 AVERAGE DECODE STALL: 6.71567 AVERAGE EXECUTE STALL: 56.3459
L2BTB BRANCH_CONDITIONAL	ACCESS:    1297535 HIT:    1154377 MISS:     143158 AVERAGE STALL: 38.0959 AVERAGE FETCH STALL: 21.6677 AVERAGE FETCH QUEUE STALL: 7.86812 AVERAGE DECODE STALL: 7.79429 AVERAGE EXECUTE STALL: 1.29571e+14
L2BTB BRANCH_DIRECT_CALL	ACCESS:     844756 HIT:     730142 MISS:     114614 AVERAGE STALL: 40.937 AVERAGE FETCH STALL: 21.5312 AVERAGE FETCH QUEUE STALL: 9.41213 AVERAGE DECODE STALL: 9.2196 AVERAGE EXECUTE STALL: 1.60996e+14
L2BTB BRANCH_INDIRECT_CALL	ACCESS:     141798 HIT:     120827 MISS:      20971 AVERAGE STALL: 112.61 AVERAGE FETCH STALL: 15.3698 AVERAGE FETCH QUEUE STALL: 7.89731 AVERAGE DECODE STALL: 7.45233 AVERAGE EXECUTE STALL: 81.3397
L2BTB BRANCH_RETURN	ACCESS:     830933 HIT:     729855 MISS:     101078 AVERAGE STALL: 37.7592 AVERAGE FETCH STALL: 18.0098 AVERAGE FETCH QUEUE STALL: 6.64016 AVERAGE DECODE STALL: 6.39387 AVERAGE EXECUTE STALL: 1.80016e+14
L2BTB BRANCH_OTHER ACCESS:          0 HIT:          0 MISS:          0 AVERAGE STALL: -nan AVERAGE FETCH STALL: -nan AVERAGE FETCH QUEUE STALL: -nan AVERAGE DECODE STALL: -nan AVERAGE EXECUTE STALL: -nan
L2BTB TOTAL ROB OCCUPANCY AT BTB MISS: 118.222

L2C TOTAL     ACCESS:    4536762  HIT:    4084132  MISS:     452630  HIT %:    90.0231  MISS %:    9.97694   MPKI: 9.0526
L2C LOAD INSTRUCTION	ACCESS:    2782453  HIT:    2542166  MISS:     240287  HIT %:    91.3642  MISS %:     8.6358  MPKI: 4.80574
L2C LOAD TRANSLATION INSTRUCTION	ACCESS:        255  HIT:         44  MISS:        211  HIT %:    17.2549  MISS %:    82.7451  MPKI: 0.00422
L2C LOAD DATA	ACCESS:     746219  HIT:     674108  MISS:      72111  HIT %:    90.3365  MISS %:    9.66352  MPKI: 1.44222
L2C RFO DATA	ACCESS:     287187  HIT:     237507  MISS:      49680  HIT %:    82.7012  MISS %:    17.2988  MPKI: 0.9936
L2C PREFETCH DATA	ACCESS:     191820  HIT:     116495  MISS:      75325  HIT %:    60.7314  MISS %:    39.2686  MPKI: 1.5065
L2C WRITEBACK DATA	ACCESS:     527070  HIT:     513435  MISS:      13635  HIT %:    97.4131  MISS %:    2.58694  MPKI: 0.2727
L2C LOAD TRANSLATION DATA	ACCESS:       1741  HIT:        368  MISS:       1373  HIT %:    21.1373  MISS %:    78.8627  MPKI: 0.02746
L2C TRANSLATION FROM L1D PREFETCHER DATA	ACCESS:         17  HIT:          9  MISS:          8  HIT %:    52.9412  MISS %:    47.0588  MPKI: 0.00016

L2C PREFETCH  REQUESTED:      90618  ISSUED:      90618  USEFUL:       7550  USELESS:      68166
L2C USEFUL LOAD PREFETCHES:       7550 PREFETCH ISSUED TO LOWER LEVEL:      75668  ACCURACY: 9.9778
 TIMELY PREFETCHES:       7550 LATE PREFETCHES: 343 DROPPED PREFETCHES: 0
L2C AVERAGE MISS LATENCY: 38.5396 cycles
L2C RQ	ACCESS:    3817945	FORWARD:          0	MERGED:          0	TO_CACHE:    3817874
L2C WQ	ACCESS:     527071	FORWARD:         71	MERGED:          0	TO_CACHE:     527071
L2C PQ	ACCESS:     200013	FORWARD:          0	MERGED:       3774	TO_CACHE:     196239

L2C Dense regions hint from L2: 0
PSCL5 TOTAL     ACCESS:       3862  HIT:       1931  MISS:       1931  HIT %:         50  MISS %:         50   MPKI: 0.03862
PSCL5 LOAD TRANSLATION INSTRUCTION	ACCESS:       3828  HIT:       1914  MISS:       1914  HIT %:         50  MISS %:         50  MPKI: 0.03828
PSCL5 TRANSLATION FROM L1D PREFETCHER INSTRUCTION	ACCESS:         34  HIT:         17  MISS:         17  HIT %:         50  MISS %:         50  MPKI: 0.00034


PSCL4 TOTAL     ACCESS:       3711  HIT:       1853  MISS:       1858  HIT %:    49.9326  MISS %:    50.0674   MPKI: 0.03716
PSCL4 LOAD TRANSLATION INSTRUCTION	ACCESS:       2393  HIT:       1839  MISS:        554  HIT %:    76.8491  MISS %:    23.1509  MPKI: 0.01108
PSCL4 TRANSLATION FROM L1D PREFETCHER INSTRUCTION	ACCESS:         20  HIT:         14  MISS:          6  HIT %:         70  MISS %:         30  MPKI: 0.00012
PSCL4 LOAD TRANSLATION DATA	ACCESS:       1290  HIT:          0  MISS:       1290  HIT %:          0  MISS %:        100  MPKI: 0.0258
PSCL4 TRANSLATION FROM L1D PREFETCHER DATA	ACCESS:          8  HIT:          0  MISS:          8  HIT %:          0  MISS %:        100  MPKI: 0.00016


PSCL3 TOTAL     ACCESS:       3805  HIT:       1900  MISS:       1905  HIT %:    49.9343  MISS %:    50.0657   MPKI: 0.0381
PSCL3 LOAD TRANSLATION INSTRUCTION	ACCESS:       2440  HIT:       1886  MISS:        554  HIT %:    77.2951  MISS %:    22.7049  MPKI: 0.01108
PSCL3 TRANSLATION FROM L1D PREFETCHER INSTRUCTION	ACCESS:         20  HIT:         14  MISS:          6  HIT %:         70  MISS %:         30  MPKI: 0.00012
PSCL3 LOAD TRANSLATION DATA	ACCESS:       1337  HIT:          0  MISS:       1337  HIT %:          0  MISS %:        100  MPKI: 0.02674
PSCL3 TRANSLATION FROM L1D PREFETCHER DATA	ACCESS:          8  HIT:          0  MISS:          8  HIT %:          0  MISS %:        100  MPKI: 0.00016


PSCL2 TOTAL     ACCESS:       3790  HIT:       1859  MISS:       1931  HIT %:    49.0501  MISS %:    50.9499   MPKI: 0.03862
PSCL2 LOAD TRANSLATION INSTRUCTION	ACCESS:       2069  HIT:       1842  MISS:        227  HIT %:    89.0285  MISS %:    10.9715  MPKI: 0.00454
PSCL2 TRANSLATION FROM L1D PREFETCHER INSTRUCTION	ACCESS:         17  HIT:         17  MISS:          0  HIT %:        100  MISS %:          0  MPKI: 0
PSCL2 LOAD TRANSLATION DATA	ACCESS:       1687  HIT:          0  MISS:       1687  HIT %:          0  MISS %:        100  MPKI: 0.03374
PSCL2 TRANSLATION FROM L1D PREFETCHER DATA	ACCESS:         17  HIT:          0  MISS:         17  HIT %:          0  MISS %:        100  MPKI: 0.00034


LLC TOTAL     ACCESS:     508342  HIT:     480927  MISS:      27415  HIT %:     94.607  MISS %:    5.39302   MPKI: 0.5483
LLC LOAD INSTRUCTION	ACCESS:     240287  HIT:     239526  MISS:        761  HIT %:    99.6833  MISS %:   0.316705  MPKI: 0.01522
LLC LOAD TRANSLATION INSTRUCTION	ACCESS:        211  HIT:        191  MISS:         20  HIT %:    90.5213  MISS %:    9.47867  MPKI: 0.0004
LLC LOAD DATA	ACCESS:      71784  HIT:      68377  MISS:       3407  HIT %:    95.2538  MISS %:    4.74618  MPKI: 0.06814
LLC RFO DATA	ACCESS:      49661  HIT:      36858  MISS:      12803  HIT %:    74.2192  MISS %:    25.7808  MPKI: 0.25606
LLC PREFETCH DATA	ACCESS:      75668  HIT:      65638  MISS:      10030  HIT %:    86.7447  MISS %:    13.2553  MPKI: 0.2006
LLC WRITEBACK DATA	ACCESS:      69350  HIT:      69033  MISS:        317  HIT %:    99.5429  MISS %:   0.457102  MPKI: 0.00634
LLC LOAD TRANSLATION DATA	ACCESS:       1373  HIT:       1296  MISS:         77  HIT %:    94.3918  MISS %:    5.60816  MPKI: 0.00154
LLC TRANSLATION FROM L1D PREFETCHER DATA	ACCESS:          8  HIT:          8  MISS:          0  HIT %:        100  MISS %:          0  MPKI: 0

LLC AVERAGE MISS LATENCY: 154.81 cycles
LLC RQ	ACCESS:     363328	FORWARD:          0	MERGED:          0	TO_CACHE:     363325
LLC WQ	ACCESS:      69350	FORWARD:          3	MERGED:          0	TO_CACHE:      69350
LLC PQ	ACCESS:      75668	FORWARD:          0	MERGED:          0	TO_CACHE:      75668

LLC Dense regions hint to LLC: 0

RAW hits: 1807170
Loads Generated: 12622763
Loads sent to L1D: 10815593
Stores Generated: 6945471
Stores sent to L1D: 6945468
Major fault: 0 Minor fault: 2477
Allocated PAGES: 2477

stream: 
stream:times selected: 1190337
stream:pref_filled: 126296
stream:pref_useful: 26164
stream:pref_late: 7436
stream:misses: 9164
stream:misses_by_poll: 0

CS: 
CS:times selected: 182287
CS:pref_filled: 64419
CS:pref_useful: 40560
CS:pref_late: 7046
CS:misses: 18700
CS:misses_by_poll: 2

CPLX: 
CPLX:times selected: 1006922
CPLX:pref_filled: 22938
CPLX:pref_useful: 6632
CPLX:pref_late: 3003
CPLX:misses: 107594
CPLX:misses_by_poll: 5

NL_L1: 
NL:times selected: 14818
NL:pref_filled: 869
NL:pref_useful: 287
NL:pref_late: 255
NL:misses: 1336
NL:misses_by_poll: 0

total selections: 2394364
total_filled: 100208
total_useful: 38509
total_late: 19420
total_polluted: 7
total_misses_after_warmup: 787010
conflicts: 5612792

test: 114491

DRAM Statistics
 CHANNEL 0
 RQ ROW_BUFFER_HIT:      10117  ROW_BUFFER_MISS:      16977
 DBUS_CONGESTED:          6
 WQ ROW_BUFFER_HIT:       1333  ROW_BUFFER_MISS:      11018  FULL:          0

 AVG_CONGESTED_CYCLE: 6

CPU 0 Branch Prediction Accuracy: 99.8244% MPKI: 0.3217 Average ROB Occupancy at Mispredict: 145.076
Branch types
NOT_BRANCH: 40838278 81.6766%
BRANCH_DIRECT_JUMP: 546511 1.09302%
BRANCH_INDIRECT: 181659 0.363318%
BRANCH_CONDITIONAL: 6190433 12.3809%
BRANCH_DIRECT_CALL: 949344 1.89869%
BRANCH_INDIRECT_CALL: 172193 0.344386%
BRANCH_RETURN: 1121537 2.24307%
BRANCH_OTHER: 0 0%

DRAM PAGES: 1048576
Allocated PAGES: 2477
Average_ROB_Occupancy: 144.279
Average_Decode_Occupancy: 17.4934
Average_FTQ_Occupancy: 7.64858
Indirect max targets: 14 Average targets: 1.14527
Branch_type:  BRANCH_DIRECT_JUMP:  Count Percentage: 3.59886 5.89908 4.35202 9.75361 2.75148 6.50234 1.64019 65.5024 
Branch_type:  BRANCH_INDIRECT:  Count Percentage: 19.726 3.35594 5.25442 3.80853 3.35594 10.8769 3.25105 50.3712 
Branch_type:  BRANCH_CONDITIONAL:  Count Percentage: 21.4842 6.55547 2.67338 4.89998 2.73745 8.57622 1.08029 51.993 
Branch_type:  BRANCH_DIRECT_CALL:  Count Percentage: 0.795755 1.301 0.982275 4.77922 2.96549 3.00431 0.775505 85.3964 
Branch_type:  BRANCH_INDIRECT_CALL:  Count Percentage: 9.56259 0 3.00024 4.30824 0 3.74726 0.991375 78.3903 
Branch_type:  BRANCH_RETURN:  Count Percentage: 5.13063 4.33377 2.69156 4.07276 5.66942 9.98441 1.4387 66.6787 
Branch_type:  BRANCH_DIRECT_JUMP:  Total Count: 39302 64422 47527 106516 30048 71010 17912 715331 
Branch_type:  BRANCH_INDIRECT:  Total Count: 71652 12190 19086 13834 12190 39509 11809 182967 
Branch_type:  BRANCH_CONDITIONAL:  Total Count: 2658193 811095 330772 606265 338699 1061118 133662 6432992 
Branch_type:  BRANCH_DIRECT_CALL:  Total Count: 15090 24671 18627 90629 56235 56971 14706 1619383 
Branch_type:  BRANCH_INDIRECT_CALL:  Total Count: 32950 0 10338 14845 0 12912 3416 270111 
Branch_type:  BRANCH_RETURN:  Total Count: 115012 97149 60336 91298 127090 223818 32251 1494720 
Number of unique branch instructions: 9804
Upper 32 bits: 
aaaa
ffff
ffff0000
Unique upper 32 bits: 3
Unique upper 36 bits: 3
Unique upper 40 bits: 5
Unique upper 44 bits: 32
Unique upper 48 bits: 154
Offset_3 4031
Offset_4 243
Offset_5 449
Offset_6 498
Offset_7 571
Offset_8 507
Offset_9 463
Offset_10 374
Offset_11 301
Offset_12 269
Offset_13 203
Offset_14 227
Offset_15 184
Offset_16 220
Offset_17 145
Offset_18 118
Offset_19 234
Offset_20 136
Offset_21 235
Offset_22 391
Offset_23 241
Offset_24 331
Offset_25 88
Offset_47 82
Offset_64 2
decode_dispatch_called: 20851933 49.4433
Dispatch_width: 0 10587302 50.7737 25.1042
Dispatch_width: 1 601065 2.88254 1.42522
Dispatch_width: 2 669651 3.21146 1.58785
Dispatch_width: 3 445080 2.13448 1.05536
Dispatch_width: 4 2137816 10.2524 5.0691
Dispatch_width: 5 292983 1.40506 0.694709
Dispatch_width: 6 6118036 29.3404 14.5068
Empty_decode_cycles: 21321525 50.5567
ROB_full_cycles: 3199556 7.58666
Starvation_cycles_per_kilo_instr: 328.559
Starvation_cycles_per_kilo_instr_3: 304.251
Starvation_cycles_per_kilo_instr_0: 287.093
Branch_type_1  (3,1)  (4,9)  (5,37)  (6,68)  (7,112)  (8,128)  (9,122)  (10,97)  (11,67)  (12,43)  (13,5)  (14,2)  (15,3)  (16,4)  (18,1)  (19,4)  (20,2)  (21,1)  (22,3)  (23,2)  (24,10)  (25,12)  (64,1) 
Branch_type_2  (3,1)  (5,1)  (8,3)  (9,3)  (12,1)  (13,1)  (14,1)  (16,3)  (17,2)  (20,2)  (21,2)  (23,5)  (24,1)  (47,38) 
Branch_type_3  (3,4029)  (4,234)  (5,407)  (6,415)  (7,430)  (8,315)  (9,255)  (10,151)  (11,120)  (12,50)  (13,4)  (64,1) 
Branch_type_4  (6,3)  (7,8)  (8,25)  (9,51)  (10,60)  (11,58)  (12,96)  (13,88)  (14,100)  (15,86)  (16,98)  (17,64)  (18,53)  (19,115)  (20,71)  (21,124)  (22,208)  (23,136)  (24,192)  (25,72) 
Branch_type_5  (8,2)  (9,1)  (10,3)  (11,5)  (12,3)  (13,14)  (14,16)  (15,11)  (16,20)  (17,11)  (18,16)  (19,12)  (20,10)  (21,13)  (22,42)  (23,26)  (24,37) 
Branch_type_6  (5,4)  (6,12)  (7,21)  (8,34)  (9,31)  (10,63)  (11,51)  (12,76)  (13,91)  (14,108)  (15,84)  (16,95)  (17,68)  (18,48)  (19,103)  (20,51)  (21,95)  (22,138)  (23,72)  (24,91)  (25,4)  (47,44) 
aaaaab1fc620: 2ac9e77e 2aca717c 2aca8eff 2acaf6bc 2acaf9aa 2acaf9f1 2acb1abc 2acb1b7f 2acd4e22 2acdb712 2acf5f9e 2ad0ef44 2ad3f15c 2ad414e6 2ad60e42 2ad8609c 2ad99830 2ada35cc 2ada4676 2ada6612 2adf183e 2adf30e5 2adf5602 2adf785c 2ae11572 2aeb2dcf 2aee101b 2aee1ae1 2aee9456 2b156a8c 2b156b61 2b156bea 2b167f35 2b177656 2b17feec 2b1a3e5a 
aaaaab1fc740: 2aca1fb0 2aca45b3 2aca5aa1 2aca5c69 2aca66f9 2aca9426 2acaeecb 2acf3d2d 2acf3d64 2acf6089 2ad017ea 2ad5e7ef 2ad61064 2ad87373 2ad9bf84 2ad9c093 2ae9b606 2aea9ffa 2aee99f5 2aee9a2c 2aeece4b 
aaaaac68f310: 2ac9ec8c 2ac9fb44 2ac9fbd2 2aca59ab 2acac04c 2acaf6e0 2acaf6ec 2acaf6f9 2acaf700 2acaf708 2acf2d90 2ad3cfbd 2ad3cfc4 2ad3d000 2ad3f35f 2ad4955d 2ad49571 2ad4f3f2 2ad4f400 2ad5f240 2ad5f37c 2ad5f86a 2ad5f86f 2ad5f880 2ad5fc0d 2ad5fc14 2ad5fc21 2ad5fe1b 2ad873bb 2ad873e3 2ad8a6b2 2ad9086e 2ad93096 2ad9bbb2 2ada152c 2ada1554 2ada3332 2ada5522 2adf3130 2adf313c 2adf3a3f 2adf3bd9 2adf5788 2adf7a8d 2ae07f6b 2ae0857a 2ae0857e 2ae08630 2ae08634 2ae08637 2ae08642 2ae0866f 2ae086e4 2ae086ec 2ae08717 2ae0871b 2aee0170 2aee1d38 2aee75f4 2aee7662 2aee85ca 2aee85e4 2aee8eef 2aee9a0a 2af70b84 2af74e8f 2b17d843 
aaaaac690ef0: 2aca598b 2acb111b 2acb175f 2acb1772 2acbfaf4 2acbfb00 2acf374f 2acf6d43 2acfa5c8 2ad3baf1 2ad3d4ac 2ad3d4b8 2ad3f1cf 2ad486b2 2ad5a59b 2ad5fc64 2ad5fcf9 2ad6121c 2ad906e9 2ad907bf 2ad9bada 2ada16ce 2ada1ad5 2ada43df 2ada64c0 2ada72ee 2adeb71a 2adf3bcb 2adf7a38 2adf7c6a 2adf8872 2adf8880 2adf9959 2adf9abe 2ae07f78 2ae08503 2ae08754 2ae12e80 2aea3bea 2aecb509 2aee00b0 2aee2bdd 2aee5467 2aee5601 2aee8f20 2af703fd 2af7048b 2af74e74 2dfba627 
Unique trigger count: 
1 9361
2 477
3 85
4 31
5 7
6 8
7 6
8 1
9 3
10 1
11 2
12 1
13 3
16 2
18 2
19 2
21 1
36 1
49 1
67 1
BTB PER SET UNIQUE ADDR: 2 4 3 2 1 0 3 2 4 0 2 0 5 3 1 3 3 2 3 4 3 4 2 3 4 5 1 4 3 2 6 6 4 2 4 2 1 5 5 2 3 4 3 6 6 2 4 3 6 3 3 2 3 1 0 3 4 3 3 3 1 4 2 3 1 4 5 2 3 5 5 1 1 4 2 3 3 6 1 3 2 2 1 4 3 3 2 5 3 3 6 4 3 5 2 0 3 3 1 3 4 2 3 3 2 2 1 2 3 2 2 1 3 6 2 6 2 4 4 1 4 4 2 0 1 2 2 1 6 4 5 2 4 1 5 3 2 1 3 3 5 3 3 2 1 4 2 5 4 3 3 8 3 5 2 0 3 3 3 2 3 5 4 4 4 3 2 2 8 1 2 2 4 2 1 1 3 4 5 1 3 3 6 3 4 5 3 1 2 3 5 3 3 4 4 4 2 3 3 5 3 2 4 1 3 3 2 4 2 1 2 4 5 4 3 2 3 5 4 0 1 1 2 3 3 2 3 3 0 3 8 3 3 1 3 3 3 2 1 2 1 0 5 3 9 7 1 1 3 3 2 2 1 3 2 6 3 4 4 3 4 4 4 2 3 6 3 1 4 2 3 2 2 3 4 2 1 1 3 3 4 2 6 2 5 5 3 3 1 1 0 3 1 5 1 1 5 3 1 2 3 3 1 2 3 2 4 2 6 5 3 1 3 2 5 1 6 6 2 2 3 6 3 4 2 2 1 6 1 1 4 0 2 5 5 2 2 2 5 0 3 0 1 4 4 2 1 2 3 3 3 5 4 3 5 3 2 0 4 1 2 4 2 4 6 5 1 1 2 1 2 2 2 4 4 4 3 3 3 4 5 3 1 5 3 2 5 2 4 1 5 4 4 2 3 1 5 0 1 3 4 2 4 2 2 4 4 3 1 1 1 3 5 3 2 2 5 3 1 3 1 1 3 4 3 3 2 0 2 4 2 2 9 3 5 5 3 3 3 0 2 4 5 4 4 6 2 4 3 2 4 3 1 1 5 1 1 4 7 2 3 3 4 6 1 3 4 2 3 3 0 4 4 2 2 1 4 5 1 1 2 1 2 2 0 4 3 0 5 1 4 2 3 4 0 6 3 3 3 1 5 1 1 1 1 2 2 2 2 3 3 2 2 6 2 1 2 5 4 5 3 5 4 2 6 5 0 6 6 3 4 3 3 6 3 4 1 1 4 1 2 5 6 2 5 2 7 3 6 9 3 6 3 6 1 3 3 1 2 3 8 2 5 2 2 1 4 2 2 7 4 2 3 8 3 2 3 3 1 5 4 2 1 0 1 0 0 9 5 3 5 7 1 1 2 3 4 2 2 1 3 2 4 6 2 4 3 4 3 2 5 2 3 2 2 2 2 0 3 1 5 3 6 2 2 3 2 5 2 3 5 4 3 2 5 2 2 3 2 2 7 1 4 3 0 0 3 3 3 3 3 2 5 2 3 0 4 3 2 3 5 2 5 4 6 4 5 2 1 4 5 3 4 4 5 6 3 3 3 3 3 2 4 2 5 3 5 3 4 3 1 4 2 2 2 3 6 4 5 3 0 6 0 3 3 2 3 1 3 1 3 3 3 1 2 1 7 2 0 3 2 0 1 1 1 1 1 4 2 4 5 4 2 1 2 4 4 3 2 2 1 3 2 4 2 1 3 2 2 2 0 2 1 3 2 2 2 6 4 1 3 3 1 5 4 4 8 2 2 3 4 3 0 3 3 4 5 2 1 3 3 4 0 3 8 6 3 3 0 2 2 4 1 1 4 7 7 2 2 2 5 3 4 3 4 3 3 5 1 2 1 3 4 0 4 3 1 2 0 4 4 2 4 2 2 1 2 2 4 4 3 1 3 2 5 2 2 1 5 2 2 1 3 3 1 4 6 4 4 2 6 2 5 4 4 5 3 2 4 4 2 6 2 1 9 3 2 4 5 3 1 3 3 6 4 0 2 2 5 4 3 5 3 4 5 3 2 2 2 4 4 2 3 3 3 1 6 3 1 1 5 2 1 3 4 5 3 5 3 4 5 4 0 3 1 5 0 0 5 2 5 4 5 3 4 1 3 2 5 6 4 4 8 7 5 4 6 4 1 5 4 2 0 4 4 5 5 5 3 2 6 0 5 4 2 3 6 5 4 2 2 2 4 5 2 5 9 4 6 3 2 3 0 4 5 1 6 5 1 3 6 5 3 4 2 1 2 2 3 2 5 4 2 7 4 3 4 5 3 5 1 2 4 2 2 5 4 3 2 2 5 2 4 3 5 2 5 2 2 3 5 2 9 5 2 3 3 2 2 3 4 7 6 2 3 2 3 2 3 1 3 2 4 4 1 4 5 5 4 6 0 3 3 3 3 4 2 1 3 2 3 1 2 1 4 1 3 3 3 5 2 8 5 3 2 1 10 1 2 4 1 2 5 5 3 6 3 5 5 5 2 5 2 2 1 1 5 0 4 4 3 7 4 1 7 4 6 2 3 4 5 3 5 7 4 4 6 1 4 4 7 4 3 3 4 3 6 6 2 6 5 6 4 3 5 3 1 2 4 5 1 3 2 1 3 4 2 2 5 2 2 5 4 1 5 1 7 3 3 2 3 1 3 4 3 4 3 4 2 6 1 3 6 3 4 3 3 5 2 8 3 5 3 8 6 1 6 1 5 2 1 2 4 4 2 1 3 4 2 1 2 1 4 3 3 3 2 3 2 5 2 4 4 5 0 5 3 2 2 6 8 0 6 0 1 4 5 2 5 1 3 3 4 1 1 2 4 5 3 4 1 4 4 6 5 1 4 3 3 6 10 4 2 6 6 5 1 1 3 5 6 3 2 2 4 3 4 4 5 3 1 4 2 2 6 8 5 3 3 6 1 2 5 2 4 1 3 2 6 8 3 3 3 3 4 4 2 5 6 5 4 2 1 5 3 2 4 3 4 4 4 4 7 3 5 4 3 5 5 3 1 7 4 4 3 3 3 2 3 3 2 2 5 4 3 2 5 1 1 3 3 8 5 1 3 4 2 3 3 3 4 3 2 1 3 2 4 2 5 3 4 4 2 1 2 6 1 4 2 4 2 4 5 1 1 4 4 3 3 3 5 2 3 4 4 5 4 4 4 3 3 2 2 3 5 2 4 1 3 0 8 3 2 6 4 4 5 7 3 2 3 3 1 2 4 1 4 2 4 2 0 5 1 5 2 2 3 3 3 2 4 2 4 2 3 1 5 1 0 3 3 1 1 3 1 4 2 3 6 3 1 2 2 3 2 2 6 2 3 5 3 3 3 3 2 2 3 0 2 2 2 3 2 1 2 0 3 0 4 2 3 3 2 3 2 1 2 4 4 2 6 1 3 3 2 2 4 5 2 2 5 0 1 2 3 1 1 2 3 3 5 3 1 1 5 2 1 4 1 5 1 4 2 3 6 2 2 2 1 3 3 1 0 3 4 1 3 3 1 2 0 5 1 3 3 0 3 2 5 3 4 3 3 4 1 3 1 2 1 3 3 0 2 3 2 3 3 1 3 3 2 9 6 2 2 2 4 1 1 3 5 2 3 0 3 2 3 2 3 4 5 5 7 0 4 1 6 4 4 5 3 7 2 4 8 3 0 6 3 3 3 4 3 3 2 1 2 4 2 2 2 3 2 3 5 3 5 3 6 1 1 5 5 3 3 4 4 3 6 2 5 5 2 6 3 3 3 1 3 6 5 3 2 3 3 3 3 4 2 2 3 1 3 1 3 7 0 2 2 3 3 3 5 3 4 2 5 1 2 2 5 2 4 5 6 1 1 7 2 4 2 3 4 6 2 3 2 3 6 3 3 3 5 3 4 9 4 4 3 5 2 5 4 3 2 3 0 2 2 3 4 3 2 3 3 4 4 2 3 7 0 3 2 4 4 4 3 4 3 6 2 4 1 5 2 3 4 2 3 0 2 5 0 7 2 5 5 1 4 3 2 0 4 2 3 5 3 6 2 2 2 1 3 4 6 1 3 3 0 3 2 4 5 3 1 3 5 2 3 2 6 3 4 1 5 3 0 2 4 1 1 8 2 0 4 1 4 3 2 3 6 3 3 6 1 5 3 5 2 5 4 2 3 2 7 1 4 0 3 3 4 4 3 3 2 1 2 3 0 3 0 3 4 6 2 2 5 2 3 3 3 1 2 2 4 2 4 2 5 3 2 3 1 2 3 3 3 2 3 4 2 1 1 2 2 5 1 4 1 5 4 2 3 1 4 1 2 3 5 2 3 4 4 5 3 3 3 4 3 2 0 3 2 0 2 1 2 2 4 2 5 2 2 3 4 1 2 4 3 2 3 7 3 2 7 6 4 2 3 1 2 5 3 4 5 2 4 0 1 2 4 3 2 4 3 2 5 3 4 7 4 2 0 4 1 0 2 3 0 4 4 6 1 3 4 6 4 0 2 2 4 1 4 1 3 2 8 3 1 2 3 6 2 7 3 4 7 0 1 3 1 4 2 1 0 2 3 4 5 4 1 0 3 4 5 1 1 1 3 5 2 1 5 4 3 3 5 4 1 6 2 6 2 1 2 2 2 2 5 1 3 1 3 2 3 1 5 2 5 3 4 2 1 3 5 4 4 0 
BTB PER SET COUNT: 2 4 3 2 1 0 4 2 4 0 2 0 2327 3 2 3 3 2 3 1480 3 5 2 3 4 15 1 4 1479 2 2794 27 4 2 5 2 2952 753 755 2 3 5 3 2113 5618 2 4 3 1501 3 3 2 3 1 0 3 5 3 3 3 1 4 2 3 1 357 412 2 3 1018 754 1 1 4 2 3 469 765 1 3 2 3 1 4 3 3 2 11 3 3 2368 550 3 4128 2 0 3 3 1 3 4 2 5 3 2 2 1 2 3 2 2 1 3 1899 2 1844 2 4 4 1 4 4 2 0 1 2 2 1 2984 5 1862 2 4 1 934 3 2 1 3 3 1439 3 3 2 1 7 2 4595 4 3 3 6938 3 2330 2 0 3 3 3 2 3 1005 4 4 4 2026 2 2 8479 1 2 2 4 2 1 1 3 4 1022 1 3 3 6838 3 4 8 3 1 2 3 42 3 3 4 4 6 2 3 3 6 4 2 4 1 6 3 2 1480 2 1 2 4 17 4 3 2 3 575 4 0 1 1 2 3 3 2 3 42 0 3 5856 4 3 1 3 3 3 2 1 2 2 0 2329 3 9406 2007 1 1 3 3 2 2 1 3 2 2148 3 4 4 3 4 4 4 2 1479 1596 3 1 4 2 3 2 2 3 4 3 1 1 3 3 4 2 1868 2 754 2328 3 3 1 1 0 3 1 16 1 1 14 3 1 2 3 3 1 2 3 2 4 2 1867 1003 3 1 3 2 1003 2 2329 1259 2 5 3 2149 4 4 2 2 1 446 1 1 933 0 2 18 1544 2 932 2 21 0 3 0 1 934 934 2 1 2 3 3 3 96 4 3 52 4 2 0 4 1 2 4 2 4 2970 1582 1 1 2 1 2 2 2 4 5 4 3 3 3 4 20 3 1 1581 5 2 12 2 6 1 21 4 4 2 3 1 3672 0 1 3 4 2 4 2 2 7 1480 4 1 1012 1 3 10 4 1013 2 149 3 1 86 1 1 3 4 3 4 4 0 2 5 134 2 2589 3 1000 2328 3 3 3 0 2 4 1254 4 5 1013 2 4 3 2 4 3 1 1 1864 1 1 4 1419 3 3 3 4 1870 1 3 4 2 3 3 0 4 29 466 2 1 4 1004 1 1 2 1 2 466 0 4 3 0 21 1 4 2 3 4 0 24 3 4 3 1 1863 14 1 1 1 2 2 2 2 4 3 2 2 28 3 1 2 2330 4 472 3 1484 4 2 14 1398 0 1866 5071 3 4 4 4 19 3 469 1 1 4 1 2 1398 220 5 15 2 73 3 950 9239 4 1411 5 2794 1 3 4 1 2 3 6920 2 1864 2 2 1 4 2 2 2830 4 2 3 5530 3 2 3 3 1 21 4 37 1 0 1 0 0 3730 6 3 1863 2796 1 1 1013 3 4 2 2 1 4 4 4 1504 2 5 3 4 3 2 2328 2 3 2 2 3 1095 0 3 2 9 468 3260 2 2 3 2 8 2 3 1864 1480 3 4 935 2 2 3 2 3 2803 1 5 3 0 0 4 4 3 4 3 2 7 2 3 0 4 3 2 3 7701 2 20 4 1865 4 2972 932 1 4 753 3 5 6 1398 2869 3 3 9 3 3 2 4 932 1399 3 19 1479 4 3 1 936 2 2 2 3 1869 5 13 26 0 2331 0 3 3 932 4 1 3 1 3 3 5 1 932 1 2422 2 0 3 2 0 1 1 1 1 1 4 2 4 1399 4 1013 1 2 4 4 3 2 2 1 3 2 4 2 1 468 2 2 932 0 2 1 4 2 2 2 2794 4 2 3 3 1 16 4 4 6003 2 3 3 5 3 0 117 3 4 3119 3 1 3 3 5 0 3 2894 5063 4 4 0 2 2 33 1 1 4 1692 1860 2 2 2 10 5 4 5 1864 3 3 16 1 4 1 3 4 0 5 5 3 2 0 4 6 2 4 2 3 1 2 3 5 85 3 1 4 2 1867 3 2 1 1399 2 2 1 3 1483 1 5 1881 4 4 2 2329 2 1865 6 4 8 4 2 4 4 2 4978 2 1 6630 1014 2 5 1398 4 1 3 3 2751 5 0 3 2 21 4 3 5059 3 5 81 3 2 2 2 4 5 2 5 4 3 1 771 3 1 1 1664 2 1 63 4 2734 3 1003 3 4 45 4 0 3 1 1399 0 0 934 2 52 4 1399 3 5 1 3 2 1863 109 4 471 5489 4094 1398 4 1990 6 2 20 4 2 0 1015 4 2328 37 1398 3 2 790 0 391 6 2 3 1310 1866 4 3 2 467 4 5060 4 14 1083 4 1868 3 2 3 0 356 20 1 7464 16 1 3 1868 18 469 4 2 3 2 2 3 2 1580 5 2 3259 4 3 4 1861 3 21 1 2 4 2 2 17 4 3 2 2 1875 2 2492 354 1684 3 18 3 2 3 1665 2 5248 19 2 3 3 2 2 3 4 2798 1868 2 3 2 3 2 3 3 3 2 4 6 1 4 8 1862 4 1407 0 3 4 3 1479 356 2 3 6 4 3 1 5 1 6 1 3 3 3 10 2 3723 1398 3 2 1 11353 1 2 4 1 2 1863 121 3 5521 3 20 6 2329 2 23 2 2 1 1 22 0 5 4 3 1876 4 1 1952 4 2331 2 470 4 8 3 2328 1741 4 4 2330 1 5 4 5023 5 3 3 4 3 1403 1860 2 2329 1398 2148 4 3 8 5 1 2 4 1865 1 3 2 1 3 5 3 3 477 2 2 20 4 1 7 1 5947 3 3 2 3 1 3 4 3 4 5 4 2 27 1 3 1602 3 4 3 3 1864 2 5936 3 1398 3 2435 7466 1 5525 1 16 2 1 2 469 4 2 1 3 135 2 1 2 466 4 3 3 3 2 3 2 1399 2 5 4 13 0 1864 3 2 2 40 7479 0 33 0 1 4 5 5 19 1 3 933 4 1 1 3 5 14 3 4 1 4 4 7384 14 1 4 3 3 2864 10258 2035 2 7467 25 1864 1 1 4 1865 2328 3 2 2 4 3 4 4 16 3 1 4 2 2 3515 8016 4128 3 4 316 1 2 22 2 4 1 3 2 2792 6672 1014 5 3 3 4 4 2 1863 1868 2326 4 2 1 22 3 2 7 3 4 6 4 4 1877 3 1862 4 469 1863 2327 9 1 2868 4 4 3 5 3 2 3 4 2 2 16 4 3 2 1001 1 1 4 3 2798 9 1 3 4 2 3 3 3 4 3 4 1 3 2 5 2 14 3 7 4 2 1 2 1010 1 4 2 4 2 4 364 1 1 4 4 1014 3 3 2331 2 3 40 5 17 4 4 4 3 3 2 2 4 1862 3 4 1 3 0 6159 3 2 2793 4 4 2326 7008 4 2 3 3 1 2 4 3 4 3 4 4 0 4143 1 9 2 2 4 4 3 2 1480 2 4 1365 4 1 570 1 0 3 3 1 1 1366 1 4 2 3 1867 3 1 2 2 3 2 2 2794 2 3 78 5 3 3 3 2 2 3 0 3 2 2 1014 2 1 2 0 4 0 4 2 3 3 2 3 932 1 8 4 30 2 2329 1 3 3 2 2 5 10 119 2 21614 0 1 2 3 1 1 2 3 3 1927 358 1 1 1223 2 1 4 1 2329 1 5 2 3 1842 2 2 2 1 3 3 1 0 3 4 1 3 3 1 2 0 4126 1 3 3 0 3 450 1862 3 4 3 3 4 1 5 1 2 1 3 3 0 2 3 2 3 13 1 3 3 2 3527 2792 2 2 2 4 1 1 3 1765 2 3 0 3 2 3 2 3 4 2328 13 5988 0 4 1 2113 4 4 21 3 3259 2 6 8662 3 0 2793 1479 3 4 4 3 3 2 1 2 1015 3 2 3 3 2 3 1664 5 1863 3 946 2791 1 1160 6919 3 3 6 4 3 3663 2 1512 1864 2 1868 3 294 355 1 1479 1408 14 232 7 3 5 3 5 4 2 2 4 1 3 1 3 2499 0 2 2 4 3 3 483 3 4 2 4049 2 2 3 1399 2 1398 1398 2794 1 1 6571 2 934 2 4 4 1868 467 3 2 3 2794 3 469 3 4725 3 4 8951 4 4 14773 2792 2 1864 1480 3 2 3 0 2 2 3 4 3 2 3 3 4 4 2 177 3258 0 1480 2 1480 182 4 3 4 3 2215 3 833 1 2327 2 3 4 2 3 0 2 2908 0 5523 2 1161 2329 1 4 3 2 0 4 2 3 2733 3 4979 2 2 2 1 3 5 7384 1 3 548 0 3 2 4 1864 1014 1 4 1945 2 4 2 2116 3 4 1 20 3 0 2 4 1477 1 3671 2 0 4 1 4 3 2 3 2274 5 384 2328 1 2327 3 1864 212 1863 54 2 3 2 4390 1 252 0 3 1479 4 4 3 3 2 2 2 549 0 3 0 3 5 3386 2 2 760 383 3 5 1014 1 2 2 4 2 4 2 122 3 2 3 1 2 258 3 3 2 3 4 2 1 2 2 2 1356 1 4 1 4129 4 2 3 2 4 1 2 3 8 2 3 935 4 934 3 3 3 4 3 2 0 3 3 0 2 1 2 2 4 8 2327 2 2 3 4 1 2 4 3 2 3 3300 6 2 3042 2329 124 2 3 3 2 18 3 4 9 2 5 0 1 2 4 933 3 4 3 2 6 3 4 2434 4 2 0 4 1 0 2 3 0 4 1481 949 1 3 4 2313 4 0 2 2 4 1 4 1 3 2 3670 3 1 2 3 2334 7 3258 3 4 5274 0 1 3 1 4 2 1 0 2 3 4 16 4 1 0 3 5 1399 1 1 1 3 2328 2 1 20 4 3 5 1862 4 1 2331 2 1867 2 1 2 2 2 2 5 1 3 1 3 2 3 1 18 2 232 3 4 2 1 3 1506 5 5 0 
