Set 35: way: 00
Set 35: way: 11
Set 35: way: 22
Set 35: way: 33

*** ChampSim Multicore Out-of-Order Simulator ***

Warmup Instructions: 50000000
Simulation Instructions: 50000000
Number of CPUs: 1
LLC sets: 2048
LLC ways: 16
Off-chip DRAM Size: 4096 MB Channels: 1 Width: 64-bit Data Rate: 6400 MT/s
CPU 0 runs ./micro_traces/srv109.trace.gz
.gz
ITLB has LRU replacement policy
DTLB has LRU replacement policy
STLB has LRU replacement policy
L1I has LRU replacement policy
L1D has LRU replacement policy
Initialize SRRIP state for L2C
Initialize DRRIP state for LLC
Heartbeat CPU 0 instructions: 10000001 cycles: 2797264 heartbeat IPC: 3.57492 cumulative IPC: 3.57492 (Simulation time: 0 hr 1 min 36 sec) 
Heartbeat CPU 0 instructions: 20000003 cycles: 5592442 heartbeat IPC: 3.57759 cumulative IPC: 3.57626 (Simulation time: 0 hr 3 min 13 sec) 
Heartbeat CPU 0 instructions: 30000001 cycles: 8388971 heartbeat IPC: 3.57586 cumulative IPC: 3.57612 (Simulation time: 0 hr 4 min 51 sec) 
Heartbeat CPU 0 instructions: 40000003 cycles: 11185023 heartbeat IPC: 3.57647 cumulative IPC: 3.57621 (Simulation time: 0 hr 6 min 29 sec) 
Heartbeat CPU 0 instructions: 50000000 cycles: 13982185 heartbeat IPC: 3.57505 cumulative IPC: 3.57598 (Simulation time: 0 hr 8 min 6 sec) 

Warmup complete CPU 0 instructions: 50000004 cycles: 13982186 (Simulation time: 0 hr 8 min 6 sec) 

Cycle: 20000000 FTQ IN: 56898212 FTQ occupancy: 17.8763 DECODE IN: 56898212 DECODE occupancy: 46.0492 ROB IN: 56898212 ROB occupancy: 280.939 ROB OUT: 56898170
Heartbeat CPU 0 instructions: 60000000 cycles: 22686222 heartbeat IPC: 1.14889 cumulative IPC: 1.14889 (Simulation time: 0 hr 9 min 25 sec) 
Cycle: 30000000 FTQ IN: 11388196 FTQ occupancy: 6.06534 DECODE IN: 11388174 DECODE occupancy: 13.7114 ROB IN: 11388170 ROB occupancy: 125.511 ROB OUT: 11388189
Heartbeat CPU 0 instructions: 70000001 cycles: 31486043 heartbeat IPC: 1.13639 cumulative IPC: 1.14261 (Simulation time: 0 hr 10 min 45 sec) 
Cycle: 40000000 FTQ IN: 11488522 FTQ occupancy: 5.82076 DECODE IN: 11488526 DECODE occupancy: 13.0263 ROB IN: 11488512 ROB occupancy: 121.733 ROB OUT: 11488457
Heartbeat CPU 0 instructions: 80000003 cycles: 40203242 heartbeat IPC: 1.14716 cumulative IPC: 1.14412 (Simulation time: 0 hr 12 min 7 sec) 
Heartbeat CPU 0 instructions: 90000003 cycles: 49016919 heartbeat IPC: 1.1346 cumulative IPC: 1.14172 (Simulation time: 0 hr 13 min 27 sec) 
Cycle: 50000000 FTQ IN: 11359290 FTQ occupancy: 5.92335 DECODE IN: 11359259 DECODE occupancy: 13.2706 ROB IN: 11359277 ROB occupancy: 123.667 ROB OUT: 11359303
Heartbeat CPU 0 instructions: 100000001 cycles: 57763848 heartbeat IPC: 1.14326 cumulative IPC: 1.14203 (Simulation time: 0 hr 14 min 45 sec) 
Finished CPU 0 instructions: 50000001 cycles: 43781663 cumulative IPC: 1.14203 (Simulation time: 0 hr 14 min 45 sec) 

ChampSim completed all CPUs

Region of Interest Statistics

CPU 0 cumulative IPC: 1.14203 instructions: 50000001 cycles: 43781663
 Fetch stage stalled: 72.8736  Sim cycles: 43781663 fetch stall cycle: 31905294
 Empty decode stage: 66.4493  Sim cycles: 43781663 fetch stall cycle: 29092589
ITLB TOTAL     ACCESS:    9167253  HIT:    8668501  MISS:     498752  HIT %:    94.5594  MISS %:    5.44058   MPKI: 9.97504
ITLB LOAD TRANSLATION INSTRUCTION	ACCESS:    5884334  HIT:    5462419  MISS:     421915  HIT %:    92.8299  MISS %:    7.17014  MPKI: 8.4383
ITLB TRANSLATION FROM L1D PREFETCHER INSTRUCTION	ACCESS:    3282919  HIT:    3206082  MISS:      76837  HIT %:    97.6595  MISS %:    2.34051  MPKI: 1.53674

ITLB AVERAGE MISS LATENCY: 2.90897e+07 cycles
ITLB RQ	ACCESS:   11259773	FORWARD:          0	MERGED:    1323636	TO_CACHE:    9936137

DTLB TOTAL     ACCESS:    9415495  HIT:    8941699  MISS:     473796  HIT %:    94.9679  MISS %:    5.03209   MPKI: 9.47592
DTLB LOAD TRANSLATION DATA	ACCESS:    9415495  HIT:    8941699  MISS:     473796  HIT %:    94.9679  MISS %:    5.03209  MPKI: 9.47592

DTLB AVERAGE MISS LATENCY: 9.33819 cycles
DTLB RQ	ACCESS:   13704642	FORWARD:          0	MERGED:    4255735	TO_CACHE:    9448907

STLB TOTAL     ACCESS:    1224706  HIT:    1222517  MISS:       2189  HIT %:    99.8213  MISS %:   0.178737   MPKI: 0.04378
STLB LOAD TRANSLATION INSTRUCTION	ACCESS:      16096  HIT:      16070  MISS:         26  HIT %:    99.8385  MISS %:   0.161531  MPKI: 0.00052
STLB TRANSLATION FROM L1D PREFETCHER INSTRUCTION	ACCESS:     482656  HIT:     482410  MISS:        246  HIT %:     99.949  MISS %:   0.050968  MPKI: 0.00492
STLB LOAD TRANSLATION DATA	ACCESS:     473785  HIT:     471892  MISS:       1893  HIT %:    99.6005  MISS %:   0.399548  MPKI: 0.03786
STLB TRANSLATION FROM L1D PREFETCHER DATA	ACCESS:     252169  HIT:     252145  MISS:         24  HIT %:    99.9905  MISS %: 0.00951743  MPKI: 0.00048

STLB AVERAGE MISS LATENCY: 75.391 cycles
STLB RQ	ACCESS:    1342637	FORWARD:          0	MERGED:     117884	TO_CACHE:    1224753

STLB Hit, L1D data hit: 0
STLB Hit, L2C data hit: 0
STLB Hit, LLC data hit: 0
STLB Hit, LLC data miss: 0
STLB STLB hints to L2: 0
L1D TOTAL     ACCESS:   13473471  HIT:   12360262  MISS:    1113209  HIT %:    91.7378  MISS %:    8.26223   MPKI: 22.2642
L1D LOAD DATA	ACCESS:    6895088  HIT:    6161729  MISS:     733359  HIT %:     89.364  MISS %:     10.636  MPKI: 14.6672
L1D RFO DATA	ACCESS:    6247464  HIT:    5961022  MISS:     286442  HIT %:    95.4151  MISS %:    4.58493  MPKI: 5.72884
L1D PREFETCH DATA	ACCESS:     330919  HIT:     237511  MISS:      93408  HIT %:    71.7732  MISS %:    28.2268  MPKI: 1.86816

L1D PREFETCH  REQUESTED:     740457  ISSUED:     740457  USEFUL:      33354  USELESS:      68782
L1D USEFUL LOAD PREFETCHES:      33354 PREFETCH ISSUED TO LOWER LEVEL:     102192  ACCURACY: 32.6386
 TIMELY PREFETCHES:      33354 LATE PREFETCHES: 8733 DROPPED PREFETCHES: 8
L1D AVERAGE MISS LATENCY: 283644 cycles
L1D RQ	ACCESS:   10912169	FORWARD:          0	MERGED:    3814708	TO_CACHE:    6931535
L1D WQ	ACCESS:    6947098	FORWARD:     166209	MERGED:     173991	TO_CACHE:    6773107
L1D PQ	ACCESS:     370370	FORWARD:          0	MERGED:          0	TO_CACHE:     370087

L1D UNIQUE REGIONS ACCESSED: 0
L1D REGIONS CONFLICTS: 0
L1D Cross Page Prefetch Requests: 6069
L1D Same Page Prefetch Requests: 747250
L1D ROI Sum of L1D PQ occupancy: 4704177
L1D PREFETCHES PUSHED FROM L2C: 0
L1I TOTAL     ACCESS:    9794873  HIT:    7027420  MISS:    2767453  HIT %:    71.7459  MISS %:    28.2541   MPKI: 55.3491
L1I LOAD INSTRUCTION	ACCESS:    6749145  HIT:    4245826  MISS:    2503319  HIT %:    62.9091  MISS %:    37.0909  MPKI: 50.0664
L1I PREFETCH INSTRUCTION	ACCESS:    3045728  HIT:    2781594  MISS:     264134  HIT %:    91.3277  MISS %:    8.67228  MPKI: 5.28268

L1I PREFETCH  REQUESTED:    4596863  ISSUED:    4596863  USEFUL:    1027721  USELESS:       2124
L1I USEFUL LOAD PREFETCHES:    1027721 PREFETCH ISSUED TO LOWER LEVEL:    1029844  ACCURACY: 99.7939
 TIMELY PREFETCHES:    1027721 LATE PREFETCHES: 765710 DROPPED PREFETCHES: 2
L1I AVERAGE MISS LATENCY: 9.89366e+06 cycles
L1I RQ	ACCESS:    9444715	FORWARD:          0	MERGED:    2538028	TO_CACHE:    6906687
L1I PQ	ACCESS:    4596863	FORWARD:          0	MERGED:     243777	TO_CACHE:    4353086

BTB TOTAL     ACCESS:    6752867  HIT:    6206171  MISS:     470898  MISS TARGET:      75798  HIT %:    91.9042  MISS %:     6.9733   MPKI: 9.41796
BTB BRANCH_DIRECT_JUMP	ACCESS:     549424  HIT:     511538  MISS:      31798  MISS TARGET:       6088	AVERAGE STALL: 30.8872
BTB BRANCH_INDIRECT	ACCESS:     183349  HIT:     168350  MISS:       2563  MISS TARGET:      12436	AVERAGE STALL: 75.2799
BTB BRANCH_CONDITIONAL	ACCESS:    3792112  HIT:    3479206  MISS:     312837  MISS TARGET:         69	AVERAGE STALL: 34.1394
BTB BRANCH_DIRECT_CALL	ACCESS:     942884  HIT:     864821  MISS:      78059  MISS TARGET:          4	AVERAGE STALL: 36.4612
BTB BRANCH_INDIRECT_CALL	ACCESS:     171110  HIT:     141044  MISS:      11964  MISS TARGET:      18102	AVERAGE STALL: 112.439
BTB BRANCH_RETURN	ACCESS:    1113988  HIT:    1041212  MISS:      33677  MISS TARGET:      39099	AVERAGE STALL: 34.8558
BTB BRANCH_OTHER ACCESS:          0  HIT:          0  MISS:          0  MISS TARGET:          0	AVERAGE STALL: -nan
L2C TOTAL     ACCESS:    5406554  HIT:    4762641  MISS:     643913  HIT %:    88.0901  MISS %:    11.9099   MPKI: 12.8783
L2C LOAD INSTRUCTION	ACCESS:    1737609  HIT:    1552313  MISS:     185296  HIT %:    89.3362  MISS %:    10.6638  MPKI: 3.70592
L2C PREFETCH INSTRUCTION	ACCESS:    1029844  HIT:     902114  MISS:     127730  HIT %:    87.5972  MISS %:    12.4028  MPKI: 2.5546
L2C LOAD TRANSLATION INSTRUCTION	ACCESS:         28  HIT:          9  MISS:         19  HIT %:    32.1429  MISS %:    67.8571  MPKI: 0.00038
L2C TRANSLATION FROM L1D PREFETCHER INSTRUCTION	ACCESS:        281  HIT:         56  MISS:        225  HIT %:    19.9288  MISS %:    80.0712  MPKI: 0.0045
L2C LOAD DATA	ACCESS:     724602  HIT:     627727  MISS:      96875  HIT %:    86.6306  MISS %:    13.3694  MPKI: 1.9375
L2C RFO DATA	ACCESS:     286371  HIT:     228010  MISS:      58361  HIT %:    79.6205  MISS %:    20.3795  MPKI: 1.16722
L2C PREFETCH DATA	ACCESS:    1101951  HIT:     947977  MISS:     153974  HIT %:    86.0271  MISS %:    13.9729  MPKI: 3.07948
L2C WRITEBACK DATA	ACCESS:     523842  HIT:     503958  MISS:      19884  HIT %:    96.2042  MISS %:     3.7958  MPKI: 0.39768
L2C LOAD TRANSLATION DATA	ACCESS:       1974  HIT:        443  MISS:       1531  HIT %:    22.4417  MISS %:    77.5583  MPKI: 0.03062
L2C TRANSLATION FROM L1D PREFETCHER DATA	ACCESS:         52  HIT:         34  MISS:         18  HIT %:    65.3846  MISS %:    34.6154  MPKI: 0.00036

L2C PREFETCH  REQUESTED:    1110294  ISSUED:    1110294  USEFUL:      41205  USELESS:     254268
L2C USEFUL LOAD PREFETCHES:      41205 PREFETCH ISSUED TO LOWER LEVEL:     294625  ACCURACY: 13.9856
 TIMELY PREFETCHES:      41205 LATE PREFETCHES: 12921 DROPPED PREFETCHES: 0
L2C AVERAGE MISS LATENCY: 36.1251 cycles
L2C RQ	ACCESS:    2750961	FORWARD:          0	MERGED:          0	TO_CACHE:    2750917
L2C WQ	ACCESS:     523842	FORWARD:         45	MERGED:          0	TO_CACHE:     523842
L2C PQ	ACCESS:    2242330	FORWARD:          0	MERGED:      64643	TO_CACHE:    2177686

L2C Dense regions hint from L2: 0
PSCL5 TOTAL     ACCESS:       4404  HIT:       2202  MISS:       2202  HIT %:         50  MISS %:         50   MPKI: 0.04404
PSCL5 LOAD TRANSLATION INSTRUCTION	ACCESS:       3802  HIT:       1901  MISS:       1901  HIT %:         50  MISS %:         50  MPKI: 0.03802
PSCL5 TRANSLATION FROM L1D PREFETCHER INSTRUCTION	ACCESS:        602  HIT:        301  MISS:        301  HIT %:         50  MISS %:         50  MPKI: 0.00602


PSCL4 TOTAL     ACCESS:       4232  HIT:       2110  MISS:       2122  HIT %:    49.8582  MISS %:    50.1418   MPKI: 0.04244
PSCL4 LOAD TRANSLATION INSTRUCTION	ACCESS:       1860  HIT:       1828  MISS:         32  HIT %:    98.2796  MISS %:    1.72043  MPKI: 0.00064
PSCL4 TRANSLATION FROM L1D PREFETCHER INSTRUCTION	ACCESS:        346  HIT:        282  MISS:         64  HIT %:    81.5029  MISS %:    18.4971  MPKI: 0.00128
PSCL4 LOAD TRANSLATION DATA	ACCESS:       1808  HIT:          0  MISS:       1808  HIT %:          0  MISS %:        100  MPKI: 0.03616
PSCL4 TRANSLATION FROM L1D PREFETCHER DATA	ACCESS:        218  HIT:          0  MISS:        218  HIT %:          0  MISS %:        100  MPKI: 0.00436


PSCL3 TOTAL     ACCESS:       4300  HIT:       2144  MISS:       2156  HIT %:    49.8605  MISS %:    50.1395   MPKI: 0.04312
PSCL3 LOAD TRANSLATION INSTRUCTION	ACCESS:       1894  HIT:       1862  MISS:         32  HIT %:    98.3105  MISS %:    1.68955  MPKI: 0.00064
PSCL3 TRANSLATION FROM L1D PREFETCHER INSTRUCTION	ACCESS:        346  HIT:        282  MISS:         64  HIT %:    81.5029  MISS %:    18.4971  MPKI: 0.00128
PSCL3 LOAD TRANSLATION DATA	ACCESS:       1842  HIT:          0  MISS:       1842  HIT %:          0  MISS %:        100  MPKI: 0.03684
PSCL3 TRANSLATION FROM L1D PREFETCHER DATA	ACCESS:        218  HIT:          0  MISS:        218  HIT %:          0  MISS %:        100  MPKI: 0.00436


PSCL2 TOTAL     ACCESS:       4294  HIT:       2092  MISS:       2202  HIT %:    48.7191  MISS %:    51.2809   MPKI: 0.04404
PSCL2 LOAD TRANSLATION INSTRUCTION	ACCESS:       1876  HIT:       1821  MISS:         55  HIT %:    97.0682  MISS %:    2.93177  MPKI: 0.0011
PSCL2 TRANSLATION FROM L1D PREFETCHER INSTRUCTION	ACCESS:        489  HIT:        271  MISS:        218  HIT %:    55.4192  MISS %:    44.5808  MPKI: 0.00436
PSCL2 LOAD TRANSLATION DATA	ACCESS:       1876  HIT:          0  MISS:       1876  HIT %:          0  MISS %:        100  MPKI: 0.03752
PSCL2 TRANSLATION FROM L1D PREFETCHER DATA	ACCESS:         53  HIT:          0  MISS:         53  HIT %:          0  MISS %:        100  MPKI: 0.00106


LLC TOTAL     ACCESS:     715050  HIT:     686028  MISS:      29022  HIT %:    95.9413  MISS %:    4.05874   MPKI: 0.58044
LLC LOAD INSTRUCTION	ACCESS:     172930  HIT:     172459  MISS:        471  HIT %:    99.7276  MISS %:   0.272365  MPKI: 0.00942
LLC PREFETCH INSTRUCTION	ACCESS:     126164  HIT:     125908  MISS:        256  HIT %:    99.7971  MISS %:    0.20291  MPKI: 0.00512
LLC LOAD TRANSLATION INSTRUCTION	ACCESS:         19  HIT:         10  MISS:          9  HIT %:    52.6316  MISS %:    47.3684  MPKI: 0.00018
LLC TRANSLATION FROM L1D PREFETCHER INSTRUCTION	ACCESS:        225  HIT:        191  MISS:         34  HIT %:    84.8889  MISS %:    15.1111  MPKI: 0.00068
LLC LOAD DATA	ACCESS:      96346  HIT:      92702  MISS:       3644  HIT %:    96.2178  MISS %:     3.7822  MPKI: 0.07288
LLC RFO DATA	ACCESS:      58330  HIT:      44737  MISS:      13593  HIT %:    76.6964  MISS %:    23.3036  MPKI: 0.27186
LLC PREFETCH DATA	ACCESS:     168461  HIT:     157813  MISS:      10648  HIT %:    93.6792  MISS %:    6.32075  MPKI: 0.21296
LLC WRITEBACK DATA	ACCESS:      91026  HIT:      90746  MISS:        280  HIT %:    99.6924  MISS %:   0.307604  MPKI: 0.0056
LLC LOAD TRANSLATION DATA	ACCESS:       1531  HIT:       1444  MISS:         87  HIT %:    94.3174  MISS %:    5.68256  MPKI: 0.00174
LLC TRANSLATION FROM L1D PREFETCHER DATA	ACCESS:         18  HIT:         18  MISS:          0  HIT %:        100  MISS %:          0  MPKI: 0

LLC AVERAGE MISS LATENCY: 156.791 cycles
LLC RQ	ACCESS:     329404	FORWARD:          0	MERGED:          0	TO_CACHE:     329399
LLC WQ	ACCESS:      91026	FORWARD:          5	MERGED:          0	TO_CACHE:      91026
LLC PQ	ACCESS:     294625	FORWARD:          0	MERGED:          0	TO_CACHE:     294625

LLC Dense regions hint to LLC: 0

RAW hits: 1723356
Loads Generated: 12635525
Loads sent to L1D: 10912169
Stores Generated: 6947086
Stores sent to L1D: 6947098
Major fault: 0 Minor fault: 2601
Allocated PAGES: 2601

stream: 
stream:times selected: 1177315
stream:pref_filled: 120682
stream:pref_useful: 22984
stream:pref_late: 8082
stream:misses: 6746
stream:misses_by_poll: 0

CS: 
CS:times selected: 177068
CS:pref_filled: 57833
CS:pref_useful: 35200
CS:pref_late: 8198
CS:misses: 16798
CS:misses_by_poll: 4

CPLX: 
CPLX:times selected: 998971
CPLX:pref_filled: 20188
CPLX:pref_useful: 4415
CPLX:pref_late: 3605
CPLX:misses: 92252
CPLX:misses_by_poll: 1

NL_L1: 
NL:times selected: 19886
NL:pref_filled: 737
NL:pref_useful: 298
NL:pref_late: 230
NL:misses: 1100
NL:misses_by_poll: 0

total selections: 2373240
total_filled: 93408
total_useful: 33354
total_late: 21368
total_polluted: 5
total_misses_after_warmup: 769812
conflicts: 5688256

test: 115457

DRAM Statistics
 CHANNEL 0
 RQ ROW_BUFFER_HIT:      10364  ROW_BUFFER_MISS:      18375
 DBUS_CONGESTED:          8
 WQ ROW_BUFFER_HIT:       1483  ROW_BUFFER_MISS:      12879  FULL:          0

 AVG_CONGESTED_CYCLE: 4

CPU 0 Branch Prediction Accuracy: 99.8092% MPKI: 0.34894 Average ROB Occupancy at Mispredict: 142.989
Branch types
NOT_BRANCH: 40857338 81.7147%
BRANCH_DIRECT_JUMP: 549424 1.09885%
BRANCH_INDIRECT: 183349 0.366698%
BRANCH_CONDITIONAL: 6181915 12.3638%
BRANCH_DIRECT_CALL: 942884 1.88577%
BRANCH_INDIRECT_CALL: 171110 0.34222%
BRANCH_RETURN: 1113988 2.22798%
BRANCH_OTHER: 0 0%

DRAM PAGES: 1048576
Allocated PAGES: 2601
Average_ROB_Occupancy: 124.248
Average_Decode_Occupancy: 13.2698
Average_FTQ_Occupancy: 5.909
Indirect max targets: 14 Average targets: 1.1505
Branch_type:  BRANCH_DIRECT_JUMP:  Count Percentage: 3.24829 5.53099 5.12363 9.12238 1.74016 5.96783 0.891939 68.3748 
Branch_type:  BRANCH_INDIRECT:  Count Percentage: 11.7458 3.46491 2.55452 0 2.5452 9.67468 19.2228 50.7921 
Branch_type:  BRANCH_CONDITIONAL:  Count Percentage: 21.4517 2.58986 1.84245 8.41923 1.23162 5.06895 1.95747 57.4387 
Branch_type:  BRANCH_DIRECT_CALL:  Count Percentage: 0.257349 1.79076 1.44555 4.83602 2.15601 2.75191 0.751905 86.0105 
Branch_type:  BRANCH_INDIRECT_CALL:  Count Percentage: 9.53326 0.571582 2.98674 4.83994 0.000291475 2.01875 1.28307 78.7664 
Branch_type:  BRANCH_RETURN:  Count Percentage: 3.18859 1.30476 1.27108 9.31576 2.84213 6.55351 3.12936 72.3948 
Branch_type:  BRANCH_DIRECT_JUMP:  Total Count: 35588 60597 56134 99944 19065 65383 9772 749108 
Branch_type:  BRANCH_INDIRECT:  Total Count: 42886 12651 9327 0 9293 35324 70186 185451 
Branch_type:  BRANCH_CONDITIONAL:  Total Count: 2648874 319799 227508 1039615 152082 625919 241710 7092595 
Branch_type:  BRANCH_DIRECT_CALL:  Total Count: 4868 33874 27344 91478 40783 52055 14223 1626970 
Branch_type:  BRANCH_INDIRECT_CALL:  Total Count: 32707 1961 10247 16605 1 6926 4402 270234 
Branch_type:  BRANCH_RETURN:  Total Count: 71281 29168 28415 208254 63536 146504 69957 1618388 
To Predecode: 22811021 Predecode_something: 34358424 Conditional: 14799410 Direct call: 8457274 Direct Branch: 3772284
Number of unique branch instructions: 10308
Upper 32 bits: 
aaaa
ffff
ffff0000
Unique upper 32 bits: 3
Unique upper 36 bits: 3
Unique upper 40 bits: 5
Unique upper 44 bits: 32
Unique upper 48 bits: 154
Offset_3 4268
Offset_4 260
Offset_5 469
Offset_6 531
Offset_7 612
Offset_8 540
Offset_9 491
Offset_10 399
Offset_11 338
Offset_12 297
Offset_13 225
Offset_14 232
Offset_15 201
Offset_16 230
Offset_17 162
Offset_18 128
Offset_19 252
Offset_20 144
Offset_21 236
Offset_22 404
Offset_23 245
Offset_24 346
Offset_25 88
Offset_47 84
Offset_64 21
decode_dispatch_called: 22091952 50.4594
Dispatch_width: 0 11720841 53.0548 26.7711
Dispatch_width: 1 621289 2.81229 1.41906
Dispatch_width: 2 879672 3.98187 2.00922
Dispatch_width: 3 554201 2.50861 1.26583
Dispatch_width: 4 1772383 8.02275 4.04823
Dispatch_width: 5 394163 1.78419 0.900292
Dispatch_width: 6 6149403 27.8355 14.0456
Empty_decode_cycles: 21689711 49.5406
ROB_full_cycles: 2257052 5.15525
Starvation_cycles_per_kilo_instr: 353.752
Starvation_cycles_per_kilo_instr_3: 332.087
Starvation_cycles_per_kilo_instr_0: 311.535
Branch_type_1  (3,1)  (4,9)  (5,37)  (6,73)  (7,118)  (8,138)  (9,129)  (10,102)  (11,76)  (12,51)  (13,8)  (14,2)  (15,3)  (16,4)  (18,1)  (19,4)  (20,2)  (21,1)  (22,3)  (23,2)  (24,10)  (25,12)  (64,3) 
Branch_type_2  (3,1)  (5,1)  (8,3)  (9,3)  (12,1)  (13,1)  (14,1)  (16,3)  (17,2)  (20,2)  (21,2)  (23,5)  (24,1)  (47,39) 
Branch_type_3  (3,4266)  (4,251)  (5,427)  (6,441)  (7,460)  (8,333)  (9,270)  (10,164)  (11,140)  (12,58)  (13,7)  (24,3)  (64,11) 
Branch_type_4  (6,4)  (7,8)  (8,30)  (9,54)  (10,63)  (11,63)  (12,105)  (13,96)  (14,102)  (15,96)  (16,104)  (17,73)  (18,58)  (19,124)  (20,74)  (21,124)  (22,215)  (23,138)  (24,202)  (25,72)  (64,4) 
Branch_type_5  (8,2)  (9,1)  (10,3)  (11,5)  (12,3)  (13,14)  (14,16)  (15,11)  (16,20)  (17,13)  (18,16)  (19,12)  (20,11)  (21,13)  (22,42)  (23,26)  (24,37) 
Branch_type_6  (5,4)  (6,13)  (7,26)  (8,34)  (9,34)  (10,67)  (11,54)  (12,79)  (13,99)  (14,111)  (15,91)  (16,99)  (17,74)  (18,53)  (19,112)  (20,55)  (21,96)  (22,144)  (23,74)  (24,93)  (25,4)  (47,45)  (64,3) 
Unique trigger count: 
UBTB set used: 965
CBTB set used: 512
RIB set used: 464
UBTB PER SET UNIQUE ADDR: 5 5 4 2 3 2 4 4 4 2 2 6 3 3 3 3 0 0 2 0 4 2 4 2 4 1 0 4 2 3 2 4 3 2 3 1 3 5 1 3 2 1 4 0 6 1 4 4 2 3 4 2 4 0 3 4 4 1 4 1 2 4 5 0 3 4 1 3 2 4 3 1 5 3 2 1 4 1 2 6 3 6 5 1 5 0 3 2 3 3 2 3 4 2 4 4 5 4 7 0 6 7 1 3 2 4 6 1 3 2 5 5 5 3 3 2 1 2 2 6 0 5 1 4 2 3 2 1 7 3 2 2 6 2 2 3 5 2 3 5 4 1 3 2 1 5 2 1 5 1 5 3 2 5 3 2 6 4 5 4 3 4 4 4 4 1 3 3 2 3 0 5 4 1 2 1 4 6 0 3 4 3 1 2 4 3 2 3 3 3 1 4 7 1 3 3 3 2 2 1 2 5 0 1 3 1 3 3 2 0 3 2 5 1 1 5 1 3 1 2 1 0 2 2 1 0 3 4 2 3 3 1 4 2 3 4 4 3 1 6 2 3 5 3 2 1 4 3 1 5 2 4 0 3 2 1 4 1 1 2 4 1 2 3 3 2 0 5 2 0 0 3 2 3 4 1 4 5 2 5 5 2 2 2 3 1 5 2 6 1 5 1 4 4 6 0 2 3 1 1 3 3 4 2 1 0 2 0 0 0 3 1 3 4 2 3 5 2 3 1 3 4 5 2 2 2 4 3 1 3 4 4 5 2 5 3 4 2 1 4 7 5 2 3 1 2 4 3 2 3 2 4 2 1 3 4 3 1 2 0 2 1 1 2 5 2 3 2 5 3 5 4 3 0 0 2 1 0 3 5 3 2 3 1 1 3 1 5 2 2 1 5 2 3 1 6 1 2 1 3 2 6 4 2 3 6 2 4 2 4 1 4 5 3 3 0 3 2 3 4 0 3 0 1 2 2 2 3 3 1 3 1 2 3 1 4 4 2 5 5 3 3 2 3 4 6 2 5 0 2 3 2 1 4 1 3 3 6 6 5 6 3 3 7 4 1 0 4 2 3 1 1 4 3 4 3 2 4 2 1 4 1 1 3 6 2 3 2 0 1 3 1 3 5 1 2 2 2 4 7 7 3 3 3 2 4 1 2 1 4 2 4 4 3 2 6 2 3 5 2 3 4 4 2 0 2 1 3 3 4 5 4 4 3 3 3 5 3 2 2 6 1 7 2 1 3 2 4 7 4 2 3 1 3 2 6 3 1 3 1 7 2 2 2 3 1 2 5 3 3 1 0 1 3 4 2 4 3 7 2 4 3 4 3 4 3 2 4 4 5 4 5 1 1 5 1 3 3 4 5 4 3 7 3 5 3 5 4 2 2 6 6 2 5 2 6 2 0 2 7 4 1 5 3 1 3 2 2 3 1 3 2 7 4 3 3 4 2 4 3 5 3 1 0 3 2 1 3 1 1 2 2 3 2 2 5 3 2 1 2 3 6 5 1 2 2 0 2 2 3 2 1 1 2 1 2 5 4 5 1 3 3 2 4 3 2 0 5 0 1 2 3 0 2 1 2 2 4 2 1 4 4 2 2 2 1 3 3 4 1 3 6 3 4 1 4 2 3 3 4 1 1 0 1 1 3 3 3 2 2 2 1 2 1 2 4 4 5 1 3 3 4 0 1 5 6 3 4 6 4 6 5 4 2 2 3 3 5 0 3 3 5 3 2 3 2 0 4 4 4 4 4 2 2 1 1 3 4 2 2 2 2 3 4 2 0 3 3 3 1 1 3 3 2 2 1 3 0 3 3 6 2 2 3 2 4 0 0 2 1 2 5 0 5 1 1 5 0 2 6 2 3 2 4 3 1 2 3 1 1 5 1 2 1 0 1 6 1 4 1 2 2 3 2 4 3 0 4 2 4 2 6 4 4 2 2 7 1 2 7 5 4 3 6 1 2 2 3 5 4 4 3 4 2 2 5 5 3 2 1 3 2 5 2 2 3 4 2 2 4 2 4 4 6 5 2 4 1 3 4 4 2 7 4 3 4 3 5 1 2 4 1 3 7 4 4 3 1 3 3 5 2 2 4 5 4 3 3 1 1 2 6 2 1 5 5 3 1 4 4 4 1 1 4 3 1 5 1 3 6 3 1 3 3 1 5 5 5 2 6 4 4 5 3 5 4 1 3 1 1 0 4 4 1 1 2 4 2 4 6 1 2 2 2 2 3 2 4 1 5 1 2 7 2 1 5 3 2 1 1 1 4 4 0 2 1 4 3 3 3 2 3 0 3 5 2 0 4 5 2 8 3 7 2 
CBTB PER SET UNIQUE ADDR: 9 12 10 9 10 11 9 5 13 6 14 9 7 5 10 8 9 12 9 9 11 5 6 9 10 12 14 9 11 12 10 8 15 8 8 12 10 8 11 7 6 12 7 6 10 18 8 12 13 13 8 13 13 6 11 10 10 11 13 7 6 12 12 6 11 13 13 9 11 10 15 11 6 9 10 12 16 13 13 12 8 12 8 8 11 15 11 17 10 10 14 9 11 16 11 10 14 12 14 12 6 14 10 14 9 16 15 11 12 16 8 11 12 13 11 12 12 12 14 9 13 9 8 12 10 15 7 10 10 12 14 23 9 10 7 12 8 9 12 12 10 11 8 6 9 12 5 11 15 9 13 17 4 10 10 4 10 5 10 11 7 6 13 11 5 7 3 7 12 7 10 9 16 6 10 11 5 8 3 11 9 8 4 10 11 9 10 12 6 6 6 11 12 9 5 8 12 15 12 10 9 14 8 7 8 9 8 3 7 11 11 6 5 13 10 10 15 4 5 2 13 11 11 11 9 8 10 7 11 15 8 7 13 11 9 12 12 14 5 8 13 7 11 5 8 8 11 7 12 5 8 6 11 9 7 5 11 10 11 15 7 12 11 8 11 13 7 7 11 8 6 11 11 8 10 11 12 9 11 4 13 9 13 12 10 10 12 3 8 17 10 9 12 7 12 10 9 13 8 10 8 11 9 14 11 18 9 12 8 10 12 9 9 11 14 11 10 11 10 9 9 7 11 20 10 6 15 11 11 9 12 11 9 10 11 10 11 8 10 15 10 10 7 12 7 12 12 7 11 7 7 9 5 12 11 11 10 12 11 9 13 8 7 6 6 16 9 7 8 11 7 11 12 9 9 15 9 12 12 5 13 10 16 11 12 10 3 13 12 18 11 10 10 14 10 11 8 10 10 8 13 5 10 14 8 7 9 6 15 11 10 14 15 10 12 14 8 13 11 10 11 12 12 18 6 14 9 8 14 11 7 14 9 12 9 7 5 14 16 11 16 9 13 6 13 14 7 12 10 11 18 12 11 13 9 9 12 12 8 16 9 10 9 12 11 13 10 5 9 13 9 10 17 7 11 13 7 14 13 9 8 9 11 14 10 9 11 11 9 16 9 13 6 15 3 16 17 7 8 13 7 15 16 8 9 7 10 11 9 15 13 10 
RIB PER SET UNIQUE ADDR: 2 6 4 1 2 3 3 2 0 2 2 4 2 3 0 1 4 2 0 1 2 1 5 4 1 3 2 2 1 0 3 0 1 4 3 3 2 5 0 2 1 3 2 2 2 4 2 2 3 1 0 2 2 3 0 2 2 4 3 2 1 1 2 1 4 6 3 0 3 1 2 3 0 2 3 0 1 4 3 3 0 1 4 4 3 1 0 4 4 2 0 1 2 2 3 4 3 3 0 0 2 2 1 4 0 1 5 2 3 4 3 1 1 5 2 2 0 5 2 8 3 1 3 4 1 2 1 2 1 4 2 4 4 3 0 2 1 2 5 4 2 2 2 5 4 3 4 2 5 1 3 2 2 1 2 1 4 1 0 2 3 1 1 2 4 0 0 1 4 3 1 1 3 0 1 3 0 2 2 2 2 0 3 2 6 1 3 4 1 1 1 3 3 1 2 3 3 0 4 2 3 2 3 3 1 5 2 4 1 5 2 2 1 3 4 0 5 0 4 2 2 3 2 1 2 4 2 3 1 1 2 4 1 4 1 3 2 2 1 4 2 0 3 1 5 3 5 0 3 2 3 0 2 2 1 5 4 2 1 1 1 0 3 2 3 2 0 3 4 3 1 2 0 1 5 3 1 2 3 1 2 2 2 1 3 0 2 6 2 2 2 5 1 1 2 5 1 4 3 1 3 2 3 4 3 4 2 3 3 3 3 5 1 1 0 3 2 3 1 3 4 4 5 6 1 3 3 4 1 1 4 4 4 5 6 3 2 0 2 2 1 2 7 2 5 5 6 2 0 5 3 3 3 1 5 1 6 2 5 2 1 3 3 1 4 6 2 0 4 3 2 4 3 3 4 3 1 3 0 1 2 1 3 2 0 5 1 0 3 2 2 4 2 4 1 2 4 8 3 3 3 1 1 2 3 3 4 1 3 1 2 1 3 1 1 3 5 1 1 1 1 4 4 2 2 5 0 1 3 1 2 1 2 2 3 2 3 3 2 3 1 4 4 3 5 3 3 1 1 5 4 1 2 3 2 4 1 1 2 4 3 1 2 2 3 3 2 5 1 0 3 0 2 1 2 2 1 9 6 4 3 1 0 6 2 1 3 0 1 3 2 3 0 5 1 1 2 2 3 1 2 3 3 4 2 1 1 3 2 2 2 2 
UBTB PER SET COUNT: 5 7 4 2 3 2 4 4 4 2 2 2409 3 3 3 3 0 0 2 0 4 2 4 2 4 1 0 4 2 3 2 4 3 2 3 1 3 292 1 3 2 1 4 0 2847 1 4 4 2 3 4 2 4 0 3 4 4 1 4 1 2 4 2270 0 3 4 1 3 2 4 3 1 384 3 2 1 4 1 2 955 3 34 1252 1 11 0 3 2 3 3 2 3 4 2 4 4 1275 4 2812 0 2920 38 1 3 2 4 2817 1 3 2 1030 35 8 3 3 2 1 2 2 239 0 1459 1 4 2 3 2 1 2832 3 2 2 532 2 2 3 1567 2 3 6 4 1 3 2 1 8 2 1 10 1 29 3 2 1648 3 2 1749 4 1375 4 3 4 4 4 4 1 3 3 2 3 0 7 4 1 2 1 4 15 0 3 4 3 1 2 4 3 2 3 3 3 1 4 2520 1 3 3 3 2 2 1 2 1323 0 1 3 1 3 3 2 0 3 2 6 1 1 8 1 3 1 2 1 0 2 2 1 0 3 4 2 3 3 1 4 2 3 4 4 3 1 2185 2 3 6 3 2 1 4 3 1 1411 2 4 0 3 2 1 4 1 1 2 4 1 2 3 3 2 0 1302 2 0 0 3 2 3 4 1 4 1056 2 619 565 2 2 2 3 1 18 2 1258 1 21 1 4 4 2928 0 2 3 1 1 3 3 4 2 1 0 2 0 0 0 3 1 3 4 2 3 6 2 3 1 3 4 9 2 2 2 4 3 1 3 4 4 17 2 19 3 4 2 1 4 1116 20 2 3 1 2 4 3 2 3 2 4 2 1 3 4 3 1 2 0 2 1 1 2 6 2 3 2 8 3 58 4 3 0 0 2 1 0 3 6 3 2 3 1 1 3 1 1271 2 2 1 6 2 3 1 4109 1 2 1 3 2 7182 4 2 3 5580 2 4 2 4 1 4 1303 3 3 0 3 2 3 4 0 3 0 1 2 2 2 3 3 1 3 1 2 3 1 4 4 2 1735 104 3 3 2 3 4 3743 2 1030 0 2 3 2 1 4 1 3 3 2357 1002 24 1914 3 3 3259 4 1 0 4 2 3 1 1 4 3 4 3 2 4 2 1 4 1 1 3 5066 2 3 2 0 1 3 1 3 48 1 2 2 2 4 23 2730 3 3 3 2 4 1 2 1 4 2 4 4 3 2 24 2 3 1324 2 3 4 4 2 0 2 1 3 3 4 1033 4 4 3 3 3 7 3 2 2 2326 1 6139 2 1 3 2 4 2778 4 2 3 1 3 2 2821 3 1 3 1 1799 2 2 2 3 1 2 15 3 3 1 0 1 3 4 2 4 3 3341 2 4 3 4 3 4 3 2 4 4 1299 4 1293 1 1 458 1 3 3 4 770 4 3 2231 3 29 3 27 4 2 2 4646 2303 2 21 2 2817 2 0 2 3361 4 1 8 3 1 3 2 2 3 1 3 2 3365 4 3 3 4 2 4 3 2159 3 1 0 3 2 1 3 1 1 2 2 3 2 2 10 3 2 1 2 3 2756 2165 1 2 2 0 2 2 3 2 1 1 2 1 2 8 4 5 1 3 3 2 4 3 2 0 7 0 1 2 3 0 2 1 2 2 4 2 1 4 4 2 2 2 1 3 3 4 1 3 1927 3 4 1 4 2 3 3 4 1 1 0 1 1 3 3 3 2 2 2 1 2 1 2 4 4 1840 1 3 3 4 0 1 1797 3811 3 4 2686 4 1057 908 4 2 2 3 3 20 0 3 3 15 3 2 3 2 0 4 4 4 4 4 2 2 1 1 3 4 2 2 2 2 3 4 2 0 3 3 3 1 1 3 3 2 2 1 3 0 3 3 2256 2 2 3 2 4 0 0 2 1 2 1056 0 2101 1 1 1735 0 2 4148 2 3 2 4 3 1 2 3 1 1 2338 1 2 1 0 1 2811 1 4 1 2 2 3 2 4 3 0 4 2 4 2 2419 4 4 2 2 3771 1 2 5905 9 4 3 1899 1 2 2 3 11 4 4 3 4 2 2 1757 6 3 2 1 3 2 330 2 2 3 4 2 2 4 2 4 4 1318 1836 2 4 1 3 4 4 2 2222 4 3 4 3 21 1 2 4 1 3 6983 4 4 3 1 3 3 17 2 2 4 798 4 3 3 1 1 2 2148 2 1 18 1621 3 1 4 4 4 1 1 4 3 1 1253 1 3 4033 3 1 3 3 1 833 9 1396 2 2781 4 4 1834 3 3618 4 1 3 1 1 0 4 4 1 1 2 4 2 4 2759 1 2 2 2 2 3 2 4 1 1364 1 2 6631 2 1 339 3 2 1 1 1 4 4 0 2 1 4 3 3 3 2 3 0 3 8 2 0 4 1835 2 2785 3 2786 2 
CBTB PER SET COUNT: 11 1079 103 161 14 23 16 64 4489 6 7445 3720 10 6 144 33 1335 1510 20 1507 2465 6 8 84 2283 6434 6235 23 33 24 368 16 9476 1408 2390 1038 28 11 5128 11 10 1841 25 11 39 6490 23 1774 47 8142 19 7289 4482 7 2370 3359 23 19 5515 31 12 2360 65 6 77 3591 2320 12 2317 3392 46 50 28 2172 22 6288 8024 46 51 2519 3985 6128 15 1768 3283 93 30 9260 657 45 4281 20 27 133 23 62 29 1854 35 932 8 2093 1440 7170 23 2768 5866 1412 20 8430 16 3990 23 3867 28 41 955 2446 59 2217 2500 1698 32 331 22 1887 26 37 39 39 5924 10098 1073 17 10 2031 10 185 2440 29 25 7493 24 7 4076 2273 10 5149 7955 5546 7790 14188 4 19 4329 4 4756 17 12 144 11 9 5006 6019 5 13 3 11 2969 14 8035 18 8788 8 69 2155 250 9 3 1304 937 431 4 15 5503 1537 38 27 10 10 7 9096 8350 23 5 25 2779 6753 2641 12 1485 4506 1457 42 1519 32 20 3 15 8178 1369 6 12 2903 21 64 5774 4 5 2 1331 13 44 1413 13 32 138 11 35 3533 20 8 4317 3182 23 1519 37 4305 8 26 48 48 168 5 1948 19 1815 9 819 6 10 12 1529 4666 23 6 1454 5385 34 2478 9 2477 1826 57 1337 1487 10 2375 1647 2934 10 31 28 14 2920 810 51 68 2400 4 31 551 140 2110 21 101 2854 3 6190 9434 1059 20 71 9 4903 1469 26 51 1858 30 11 18 804 5884 58 9399 30 39 1408 31 2333 15 2150 2261 5999 1534 2395 64 456 3420 5075 25 2932 6294 17 8 204 35 206 28 2688 1423 24 19 1979 1244 3612 22 2522 3877 1100 34 12 46 16 24 6201 10 374 10 14 20 5 9289 4610 30 2298 2967 1949 1575 970 18 11 8 779 3200 2776 12 14 747 1780 29 1038 83 2575 2208 1437 3106 4384 6 6936 28 5974 30 2428 19 3 67 38 4706 1398 32 7976 10137 3521 2211 4455 4418 12 17 3412 6 4288 2900 15 16 14 7 12161 41 2465 6174 46 4551 9871 5846 22 1938 2034 1669 17 4669 2344 11523 8 2922 44 16 6480 1964 40 5370 25 74 39 12 7 1009 3653 29 4132 53 3706 7 3418 2071 13 1346 445 105 3792 6181 2175 1397 851 34 3961 3793 899 10053 2499 1750 327 1363 7713 1658 21 6 1538 2663 191 989 1038 21 2143 29 10 2609 4835 93 17 24 3188 10915 1371 33 1997 1979 21 7281 4318 4666 8 6921 3 2374 2605 7 12 2515 11 4439 2522 24 32 9 27 33 16 2520 3040 29 
RIB PER SET COUNT: 2 26 4 1 2 3 3 2 0 2 2 4 2 3 0 1 4 2 0 1 2 1 1860 4 1 3 2 2 1 0 3 0 1 4 3 3 2 2360 0 2 1 3 2 2 2 4 2 2 3 1 0 2 2 3 0 2 2 4 3 2 1 1 2 1 4 1976 3 0 3 1 2 3 0 2 3 0 1 4 3 3 0 1 4 4 3 1 0 4 4 2 0 1 2 2 3 4 3 3 0 0 2 2 1 4 0 1 2383 2 3 4 3 1 1 13 2 2 0 8 2 1871 3 1 3 4 1 2 1 2 1 4 2 4 4 3 0 2 1 2 17 4 2 2 2 11 4 3 4 2 13 1 3 2 2 1 2 1 4 1 0 2 3 1 1 2 4 0 0 1 4 3 1 1 3 0 1 3 0 2 2 2 2 0 3 2 1763 1 3 4 1 1 1 3 3 1 2 3 3 0 4 2 3 2 3 3 1 22 2 4 1 15 2 2 1 3 4 0 1000 0 4 2 2 3 2 1 2 4 2 3 1 1 2 4 1 4 1 3 2 2 1 4 2 0 3 1 530 3 17 0 3 2 3 0 2 2 1 6 4 2 1 1 1 0 3 2 3 2 0 3 4 3 1 2 0 1 6 3 1 2 3 1 2 2 2 1 3 0 2 1365 2 2 2 1302 1 1 2 798 1 4 3 1 3 2 3 4 3 4 2 3 3 3 3 14 1 1 0 3 2 3 1 3 4 4 3882 1469 1 3 3 4 1 1 4 4 4 1358 6135 3 2 0 2 2 1 2 3921 2 1282 14 1566 2 0 21 3 3 3 1 6 1 3475 2 7 2 1 3 3 1 4 1520 2 0 4 3 2 4 3 3 4 3 1 3 0 1 2 1 3 2 0 14 1 0 3 2 2 4 2 4 1 2 4 3663 3 3 3 1 1 2 3 3 4 1 3 1 2 1 3 1 1 3 18 1 1 1 1 4 4 2 2 5974 0 1 3 1 2 1 2 2 3 2 3 3 2 3 1 4 4 3 1000 3 3 1 1 16 4 1 2 3 2 4 1 1 2 4 3 1 2 2 3 3 2 1841 1 0 3 0 2 1 2 2 1 6402 2706 4 3 1 0 2363 2 1 3 0 1 3 2 3 0 14 1 1 2 2 3 1 2 3 3 4 2 1 1 3 2 2 2 2 
