
*** ChampSim Multicore Out-of-Order Simulator ***

Warmup Instructions: 50000000
Simulation Instructions: 50000000
Number of CPUs: 1
LLC sets: 2048
LLC ways: 16
Off-chip DRAM Size: 4096 MB Channels: 1 Width: 64-bit Data Rate: 6400 MT/s
CPU 0 runs ./micro_traces/srv102.trace.gz
.gz
ITLB has LRU replacement policy
DTLB has LRU replacement policy
STLB has LRU replacement policy
FDIP Prefetcher at L1I
L1I has LRU replacement policy
L1D has LRU replacement policy
Initialize SRRIP state for L2C
Initialize DRRIP state for LLC
Heartbeat_Variant_0 : 1036 0.25293 per_variant_size: 0 1036 0 0 0 0 0 0 0 
Heartbeat_Variant_1 : 1212 0.295898 per_variant_size: 0 839 373 0 0 0 0 0 0 
Heartbeat_Variant_2 : 1557 0.380127 per_variant_size: 0 925 449 131 52 0 0 0 0 
Heartbeat_Variant_3 : 0 0 per_variant_size: 0 0 0 0 0 0 0 0 0 
Heartbeat_Variant_0_evicts 0 : 14068 1 : 10033 2 : 12076 3 : 0 
Heartbeat_Variant_1_evicts 0 : 9959 1 : 0 2 : 11819 3 : 0 
Heartbeat_Variant_2_evicts 0 : 12117 1 : 11720 2 : 0 3 : 0 
Heartbeat_Variant_3_evicts 0 : 0 1 : 0 2 : 0 3 : 0 
Heartbeat CPU 0 instructions: 10000000 cycles: 2796991 heartbeat IPC: 3.57527 cumulative IPC: 3.57527 (Simulation time: 0 hr 1 min 58 sec) 
Heartbeat_Variant_0 : 1055 0.257568 per_variant_size: 0 1055 0 0 0 0 0 0 0 
Heartbeat_Variant_1 : 1229 0.300049 per_variant_size: 0 849 380 0 0 0 0 0 0 
Heartbeat_Variant_2 : 1546 0.377441 per_variant_size: 0 911 435 144 56 0 0 0 0 
Heartbeat_Variant_3 : 0 0 per_variant_size: 0 0 0 0 0 0 0 0 0 
Heartbeat_Variant_0_evicts 0 : 13593 1 : 9866 2 : 11977 3 : 0 
Heartbeat_Variant_1_evicts 0 : 9788 1 : 0 2 : 11577 3 : 0 
Heartbeat_Variant_2_evicts 0 : 12040 1 : 11491 2 : 0 3 : 0 
Heartbeat_Variant_3_evicts 0 : 0 1 : 0 2 : 0 3 : 0 
Heartbeat CPU 0 instructions: 20000001 cycles: 5593036 heartbeat IPC: 3.57648 cumulative IPC: 3.57588 (Simulation time: 0 hr 3 min 54 sec) 
Heartbeat_Variant_0 : 1074 0.262207 per_variant_size: 0 1074 0 0 0 0 0 0 0 
Heartbeat_Variant_1 : 1226 0.299316 per_variant_size: 0 839 387 0 0 0 0 0 0 
Heartbeat_Variant_2 : 1535 0.374756 per_variant_size: 0 902 439 138 56 0 0 0 0 
Heartbeat_Variant_3 : 0 0 per_variant_size: 0 0 0 0 0 0 0 0 0 
Heartbeat_Variant_0_evicts 0 : 13962 1 : 10098 2 : 12262 3 : 0 
Heartbeat_Variant_1_evicts 0 : 10100 1 : 0 2 : 11649 3 : 0 
Heartbeat_Variant_2_evicts 0 : 12241 1 : 11657 2 : 0 3 : 0 
Heartbeat_Variant_3_evicts 0 : 0 1 : 0 2 : 0 3 : 0 
Heartbeat CPU 0 instructions: 30000000 cycles: 8389420 heartbeat IPC: 3.57605 cumulative IPC: 3.57593 (Simulation time: 0 hr 5 min 53 sec) 
Heartbeat_Variant_0 : 1056 0.257812 per_variant_size: 0 1056 0 0 0 0 0 0 0 
Heartbeat_Variant_1 : 1240 0.302734 per_variant_size: 0 837 403 0 0 0 0 0 0 
Heartbeat_Variant_2 : 1571 0.383545 per_variant_size: 0 912 456 144 59 0 0 0 0 
Heartbeat_Variant_3 : 0 0 per_variant_size: 0 0 0 0 0 0 0 0 0 
Heartbeat_Variant_0_evicts 0 : 13784 1 : 9820 2 : 11709 3 : 0 
Heartbeat_Variant_1_evicts 0 : 9793 1 : 0 2 : 11365 3 : 0 
Heartbeat_Variant_2_evicts 0 : 11763 1 : 11336 2 : 0 3 : 0 
Heartbeat_Variant_3_evicts 0 : 0 1 : 0 2 : 0 3 : 0 
Heartbeat CPU 0 instructions: 40000001 cycles: 11186802 heartbeat IPC: 3.57477 cumulative IPC: 3.57564 (Simulation time: 0 hr 7 min 47 sec) 
Heartbeat_Variant_0 : 1069 0.260986 per_variant_size: 0 1069 0 0 0 0 0 0 0 
Heartbeat_Variant_1 : 1239 0.30249 per_variant_size: 0 848 391 0 0 0 0 0 0 
Heartbeat_Variant_2 : 1561 0.381104 per_variant_size: 0 911 439 151 60 0 0 0 0 
Heartbeat_Variant_3 : 0 0 per_variant_size: 0 0 0 0 0 0 0 0 0 
Heartbeat_Variant_0_evicts 0 : 13738 1 : 9741 2 : 11828 3 : 0 
Heartbeat_Variant_1_evicts 0 : 9681 1 : 0 2 : 11465 3 : 0 
Heartbeat_Variant_2_evicts 0 : 11876 1 : 11407 2 : 0 3 : 0 
Heartbeat_Variant_3_evicts 0 : 0 1 : 0 2 : 0 3 : 0 
Heartbeat CPU 0 instructions: 50000002 cycles: 13983381 heartbeat IPC: 3.5758 cumulative IPC: 3.57567 (Simulation time: 0 hr 10 min 1 sec) 

Warmup complete CPU 0 instructions: 50000002 cycles: 13983381 (Simulation time: 0 hr 10 min 1 sec) 

Cycle: 20000000 FTQ IN: 56692429 FTQ occupancy: 17.9339 DECODE IN: 56692429 DECODE occupancy: 45.9025 ROB IN: 56692429 ROB occupancy: 277.507 ROB OUT: 56692200
Heartbeat_Variant_0 : 1079 0.263428 per_variant_size: 0 1079 0 0 0 0 0 0 0 
Heartbeat_Variant_1 : 1255 0.306396 per_variant_size: 0 872 383 0 0 0 0 0 0 
Heartbeat_Variant_2 : 1539 0.375732 per_variant_size: 0 893 433 152 61 0 0 0 0 
Heartbeat_Variant_3 : 0 0 per_variant_size: 0 0 0 0 0 0 0 0 0 
Heartbeat_Variant_0_evicts 0 : 13559 1 : 9464 2 : 11620 3 : 0 
Heartbeat_Variant_1_evicts 0 : 9415 1 : 0 2 : 10932 3 : 0 
Heartbeat_Variant_2_evicts 0 : 11659 1 : 10870 2 : 0 3 : 0 
Heartbeat_Variant_3_evicts 0 : 0 1 : 0 2 : 0 3 : 0 
Heartbeat CPU 0 instructions: 60000001 cycles: 22982006 heartbeat IPC: 1.11128 cumulative IPC: 1.11128 (Simulation time: 0 hr 11 min 52 sec) 
Cycle: 30000000 FTQ IN: 11097073 FTQ occupancy: 6.17023 DECODE IN: 11097047 DECODE occupancy: 12.9438 ROB IN: 11096987 ROB occupancy: 110.976 ROB OUT: 11096868
Heartbeat_Variant_0 : 1065 0.26001 per_variant_size: 0 1065 0 0 0 0 0 0 0 
Heartbeat_Variant_1 : 1232 0.300781 per_variant_size: 0 840 392 0 0 0 0 0 0 
Heartbeat_Variant_2 : 1577 0.38501 per_variant_size: 0 930 441 139 67 0 0 0 0 
Heartbeat_Variant_3 : 0 0 per_variant_size: 0 0 0 0 0 0 0 0 0 
Heartbeat_Variant_0_evicts 0 : 13652 1 : 9679 2 : 11781 3 : 0 
Heartbeat_Variant_1_evicts 0 : 9681 1 : 0 2 : 11687 3 : 0 
Heartbeat_Variant_2_evicts 0 : 11793 1 : 11713 2 : 0 3 : 0 
Heartbeat_Variant_3_evicts 0 : 0 1 : 0 2 : 0 3 : 0 
Heartbeat CPU 0 instructions: 70000003 cycles: 32120266 heartbeat IPC: 1.0943 cumulative IPC: 1.10273 (Simulation time: 0 hr 13 min 40 sec) 
Cycle: 40000000 FTQ IN: 10828408 FTQ occupancy: 6.22934 DECODE IN: 10828297 DECODE occupancy: 12.9391 ROB IN: 10828297 ROB occupancy: 109.304 ROB OUT: 10828293
Heartbeat_Variant_0 : 1062 0.259277 per_variant_size: 0 1062 0 0 0 0 0 0 0 
Heartbeat_Variant_1 : 1239 0.30249 per_variant_size: 0 856 383 0 0 0 0 0 0 
Heartbeat_Variant_2 : 1573 0.384033 per_variant_size: 0 915 451 144 63 0 0 0 0 
Heartbeat_Variant_3 : 0 0 per_variant_size: 0 0 0 0 0 0 0 0 0 
Heartbeat_Variant_0_evicts 0 : 13830 1 : 10207 2 : 12194 3 : 0 
Heartbeat_Variant_1_evicts 0 : 10125 1 : 0 2 : 11953 3 : 0 
Heartbeat_Variant_2_evicts 0 : 12279 1 : 11864 2 : 0 3 : 0 
Heartbeat_Variant_3_evicts 0 : 0 1 : 0 2 : 0 3 : 0 
Heartbeat CPU 0 instructions: 80000000 cycles: 41236124 heartbeat IPC: 1.09699 cumulative IPC: 1.10081 (Simulation time: 0 hr 15 min 33 sec) 
Cycle: 50000000 FTQ IN: 11065279 FTQ occupancy: 6.19028 DECODE IN: 11065391 DECODE occupancy: 13.0029 ROB IN: 11065448 ROB occupancy: 110.679 ROB OUT: 11065757
Heartbeat_Variant_0 : 1070 0.26123 per_variant_size: 0 1070 0 0 0 0 0 0 0 
Heartbeat_Variant_1 : 1236 0.301758 per_variant_size: 0 838 398 0 0 0 0 0 0 
Heartbeat_Variant_2 : 1569 0.383057 per_variant_size: 0 920 437 151 61 0 0 0 0 
Heartbeat_Variant_3 : 0 0 per_variant_size: 0 0 0 0 0 0 0 0 0 
Heartbeat_Variant_0_evicts 0 : 13910 1 : 9745 2 : 11979 3 : 0 
Heartbeat_Variant_1_evicts 0 : 9668 1 : 0 2 : 11536 3 : 0 
Heartbeat_Variant_2_evicts 0 : 12048 1 : 11462 2 : 0 3 : 0 
Heartbeat_Variant_3_evicts 0 : 0 1 : 0 2 : 0 3 : 0 
Heartbeat CPU 0 instructions: 90000000 cycles: 50390893 heartbeat IPC: 1.09233 cumulative IPC: 1.09867 (Simulation time: 0 hr 17 min 21 sec) 
Heartbeat_Variant_0 : 1092 0.266602 per_variant_size: 0 1092 0 0 0 0 0 0 0 
Heartbeat_Variant_1 : 1245 0.303955 per_variant_size: 0 829 416 0 0 0 0 0 0 
Heartbeat_Variant_2 : 1572 0.383789 per_variant_size: 0 889 454 164 65 0 0 0 0 
Heartbeat_Variant_3 : 0 0 per_variant_size: 0 0 0 0 0 0 0 0 0 
Heartbeat_Variant_0_evicts 0 : 13971 1 : 10125 2 : 12286 3 : 0 
Heartbeat_Variant_1_evicts 0 : 10072 1 : 0 2 : 11829 3 : 0 
Heartbeat_Variant_2_evicts 0 : 12324 1 : 11781 2 : 0 3 : 0 
Heartbeat_Variant_3_evicts 0 : 0 1 : 0 2 : 0 3 : 0 
Heartbeat CPU 0 instructions: 100000003 cycles: 59669823 heartbeat IPC: 1.07771 cumulative IPC: 1.09442 (Simulation time: 0 hr 19 min 18 sec) 
Finished CPU 0 instructions: 50000001 cycles: 45686442 cumulative IPC: 1.09442 (Simulation time: 0 hr 19 min 18 sec) 

ChampSim completed all CPUs

Region of Interest Statistics

CPU 0 cumulative IPC: 1.09442 instructions: 50000001 cycles: 45686442
 Fetch stage stalled: 72.6706  Sim cycles: 45686442 fetch stall cycle: 33200588
 Empty decode stage: 64.4529  Sim cycles: 45686442 fetch stall cycle: 29446221
ITLB TOTAL     ACCESS:    5736290  HIT:    5237675  MISS:     498615  HIT %:    91.3077  MISS %:    8.69229   MPKI: 9.9723
ITLB LOAD TRANSLATION INSTRUCTION	ACCESS:    5633730  HIT:    5135115  MISS:     498615  HIT %:    91.1495  MISS %:    8.85053  MPKI: 9.9723
ITLB TRANSLATION FROM L1D PREFETCHER INSTRUCTION	ACCESS:     102560  HIT:     102560  MISS:          0  HIT %:        100  MISS %:          0  MPKI: 0

ITLB AVERAGE MISS LATENCY: 9.05509 cycles
ITLB RQ	ACCESS:    7548304	FORWARD:          0	MERGED:    1367516	TO_CACHE:    6180788

DTLB TOTAL     ACCESS:    9393313  HIT:    8919126  MISS:     474187  HIT %:    94.9519  MISS %:    5.04813   MPKI: 9.48374
DTLB LOAD TRANSLATION DATA	ACCESS:    9393313  HIT:    8919126  MISS:     474187  HIT %:    94.9519  MISS %:    5.04813  MPKI: 9.48374

DTLB AVERAGE MISS LATENCY: 9.32259 cycles
DTLB RQ	ACCESS:   13671089	FORWARD:          0	MERGED:    4244621	TO_CACHE:    9426468

STLB TOTAL     ACCESS:    1218304  HIT:    1216310  MISS:       1994  HIT %:    99.8363  MISS %:    0.16367   MPKI: 0.03988
STLB LOAD TRANSLATION INSTRUCTION	ACCESS:     498615  HIT:     498355  MISS:        260  HIT %:    99.9479  MISS %:  0.0521444  MPKI: 0.0052
STLB LOAD TRANSLATION DATA	ACCESS:     473885  HIT:     472175  MISS:       1710  HIT %:    99.6392  MISS %:   0.360847  MPKI: 0.0342
STLB TRANSLATION FROM L1D PREFETCHER DATA	ACCESS:     245804  HIT:     245780  MISS:         24  HIT %:    99.9902  MISS %: 0.00976388  MPKI: 0.00048

STLB AVERAGE MISS LATENCY: 78.0005 cycles
STLB RQ	ACCESS:    1336362	FORWARD:          0	MERGED:     118007	TO_CACHE:    1218355

STLB Hit, L1D data hit: 0
STLB Hit, L2C data hit: 0
STLB Hit, LLC data hit: 0
STLB Hit, LLC data miss: 0
STLB STLB hints to L2: 0
L1D TOTAL     ACCESS:   13433175  HIT:   12306162  MISS:    1127013  HIT %:    91.6102  MISS %:    8.38977   MPKI: 22.5403
L1D LOAD DATA	ACCESS:    6851255  HIT:    6105500  MISS:     745755  HIT %:    89.1151  MISS %:    10.8849  MPKI: 14.9151
L1D RFO DATA	ACCESS:    6259052  HIT:    5971782  MISS:     287270  HIT %:    95.4103  MISS %:    4.58967  MPKI: 5.7454
L1D PREFETCH DATA	ACCESS:     322868  HIT:     228880  MISS:      93988  HIT %:    70.8897  MISS %:    29.1103  MPKI: 1.87976

L1D PREFETCH  REQUESTED:     727395  ISSUED:     727395  USEFUL:      34133  USELESS:      67540
L1D USEFUL LOAD PREFETCHES:      34133 PREFETCH ISSUED TO LOWER LEVEL:     101708  ACCURACY: 33.5598
 TIMELY PREFETCHES:      34133 LATE PREFETCHES: 7671 DROPPED PREFETCHES: 10
L1D AVERAGE MISS LATENCY: 254544 cycles
L1D RQ	ACCESS:   10908083	FORWARD:          0	MERGED:    3861192	TO_CACHE:    6882272
L1D WQ	ACCESS:    6959238	FORWARD:     164894	MERGED:     170421	TO_CACHE:    6788817
L1D PQ	ACCESS:     363835	FORWARD:          0	MERGED:          0	TO_CACHE:     363560

L1D UNIQUE REGIONS ACCESSED: 0
L1D REGIONS CONFLICTS: 0
L1D Cross Page Prefetch Requests: 7045
L1D Same Page Prefetch Requests: 743466
L1D ROI Sum of L1D PQ occupancy: 4619237
L1D PREFETCHES PUSHED FROM L2C: 0
L1I TOTAL     ACCESS:    7028013  HIT:    4243449  MISS:    2784564  HIT %:    60.3791  MISS %:    39.6209   MPKI: 55.6913
L1I LOAD INSTRUCTION	ACCESS:    6546690  HIT:    3762126  MISS:    2784564  HIT %:    57.4661  MISS %:    42.5339  MPKI: 55.6913
L1I PREFETCH INSTRUCTION	ACCESS:     481323  HIT:     481323  MISS:          0  HIT %:        100  MISS %:          0  MPKI: 0

L1I PREFETCH  REQUESTED:    1067808  ISSUED:    1067808  USEFUL:          0  USELESS:          0
L1I USEFUL LOAD PREFETCHES:          0 PREFETCH ISSUED TO LOWER LEVEL:          0  ACCURACY: -nan
 TIMELY PREFETCHES:          0 LATE PREFETCHES: 0 DROPPED PREFETCHES: 0
L1I AVERAGE MISS LATENCY: 17.0593 cycles
L1I RQ	ACCESS:    9442079	FORWARD:          0	MERGED:    2655492	TO_CACHE:    6786587
L1I PQ	ACCESS:    1067808	FORWARD:          0	MERGED:     306091	TO_CACHE:     761717

L1BTB TOTAL     ACCESS:    5672307  HIT:    2022023  MISS:    3650284  HIT %:    35.6473  MISS %:    64.3527   MPKI: 73.0057
L1BTB BRANCH_DIRECT_JUMP	ACCESS:     547902  HIT:     142988  MISS:     404914	AVERAGE STALL: 35.4265
L1BTB BRANCH_INDIRECT	ACCESS:     182092  HIT:      65220  MISS:     116872	AVERAGE STALL: 82.2916
L1BTB BRANCH_CONDITIONAL	ACCESS:    2695986  HIT:    1397135  MISS:    1298851	AVERAGE STALL: 35.8428
L1BTB BRANCH_DIRECT_CALL	ACCESS:     950807  HIT:     105394  MISS:     845413	AVERAGE STALL: 36.6711
L1BTB BRANCH_INDIRECT_CALL	ACCESS:     172364  HIT:      21117  MISS:     151247	AVERAGE STALL: 109.319
L1BTB BRANCH_RETURN	ACCESS:    1123156  HIT:     290169  MISS:     832987	AVERAGE STALL: 36.302
L1BTB BRANCH_OTHER ACCESS:          0  HIT:          0  MISS:          0	AVERAGE STALL: -nan
L1BTB TOTAL ROB OCCUPANCY AT BTB MISS: 12.7136

L2BTB TOTAL     ACCESS:    3625057  HIT:    3133958  MISS:     491099  HIT %:    86.4527  MISS %:    13.5473   MPKI: 9.82198
L2BTB BRANCH_DIRECT_JUMP	ACCESS:     400882  HIT:     350261  MISS:      50621	AVERAGE STALL: 35.4265
L2BTB BRANCH_INDIRECT	ACCESS:     106502  HIT:      97729  MISS:       8773	AVERAGE STALL: 82.2916
L2BTB BRANCH_CONDITIONAL	ACCESS:    1298851  HIT:    1157280  MISS:     141571	AVERAGE STALL: 35.8428
L2BTB BRANCH_DIRECT_CALL	ACCESS:     845413  HIT:     686424  MISS:     158989	AVERAGE STALL: 36.6711
L2BTB BRANCH_INDIRECT_CALL	ACCESS:     141848  HIT:     108539  MISS:      33309	AVERAGE STALL: 109.319
L2BTB BRANCH_RETURN	ACCESS:     831561  HIT:     733725  MISS:      97836	AVERAGE STALL: 36.302
L2BTB BRANCH_OTHER ACCESS:          0  HIT:          0  MISS:          0	AVERAGE STALL: -nan
L2BTB TOTAL ROB OCCUPANCY AT BTB MISS: 94.499

L2C TOTAL     ACCESS:    4517960  HIT:    4062289  MISS:     455671  HIT %:    89.9142  MISS %:    10.0858   MPKI: 9.11342
L2C LOAD INSTRUCTION	ACCESS:    2784564  HIT:    2535081  MISS:     249483  HIT %:    91.0405  MISS %:     8.9595  MPKI: 4.98966
L2C LOAD TRANSLATION INSTRUCTION	ACCESS:        295  HIT:         66  MISS:        229  HIT %:    22.3729  MISS %:    77.6271  MPKI: 0.00458
L2C LOAD DATA	ACCESS:     738037  HIT:     671332  MISS:      66705  HIT %:    90.9618  MISS %:    9.03816  MPKI: 1.3341
L2C RFO DATA	ACCESS:     287203  HIT:     234898  MISS:      52305  HIT %:    81.7881  MISS %:    18.2119  MPKI: 1.0461
L2C PREFETCH DATA	ACCESS:     180033  HIT:     111418  MISS:      68615  HIT %:    61.8875  MISS %:    38.1125  MPKI: 1.3723
L2C WRITEBACK DATA	ACCESS:     526009  HIT:     509022  MISS:      16987  HIT %:    96.7706  MISS %:    3.22941  MPKI: 0.33974
L2C LOAD TRANSLATION DATA	ACCESS:       1766  HIT:        441  MISS:       1325  HIT %:    24.9717  MISS %:    75.0283  MPKI: 0.0265
L2C TRANSLATION FROM L1D PREFETCHER DATA	ACCESS:         53  HIT:         31  MISS:         22  HIT %:    58.4906  MISS %:    41.5094  MPKI: 0.00044

L2C PREFETCH  REQUESTED:      85699  ISSUED:      85699  USEFUL:       6948  USELESS:      61999
L2C USEFUL LOAD PREFETCHES:       6948 PREFETCH ISSUED TO LOWER LEVEL:      68939  ACCURACY: 10.0785
 TIMELY PREFETCHES:       6948 LATE PREFETCHES: 324 DROPPED PREFETCHES: 0
L2C AVERAGE MISS LATENCY: 38.682 cycles
L2C RQ	ACCESS:    3811983	FORWARD:          0	MERGED:          0	TO_CACHE:    3811919
L2C WQ	ACCESS:     526009	FORWARD:         64	MERGED:          0	TO_CACHE:     526009
L2C PQ	ACCESS:     187407	FORWARD:          0	MERGED:       3627	TO_CACHE:     183780

L2C Dense regions hint from L2: 0
PSCL5 TOTAL     ACCESS:       4012  HIT:       2006  MISS:       2006  HIT %:         50  MISS %:         50   MPKI: 0.04012
PSCL5 LOAD TRANSLATION INSTRUCTION	ACCESS:       3908  HIT:       1954  MISS:       1954  HIT %:         50  MISS %:         50  MPKI: 0.03908
PSCL5 TRANSLATION FROM L1D PREFETCHER INSTRUCTION	ACCESS:        104  HIT:         52  MISS:         52  HIT %:         50  MISS %:         50  MPKI: 0.00104


PSCL4 TOTAL     ACCESS:       3944  HIT:       1970  MISS:       1974  HIT %:    49.9493  MISS %:    50.0507   MPKI: 0.03948
PSCL4 LOAD TRANSLATION INSTRUCTION	ACCESS:       2087  HIT:       1918  MISS:        169  HIT %:    91.9023  MISS %:    8.09775  MPKI: 0.00338
PSCL4 TRANSLATION FROM L1D PREFETCHER INSTRUCTION	ACCESS:         52  HIT:         52  MISS:          0  HIT %:        100  MISS %:          0  MPKI: 0
PSCL4 LOAD TRANSLATION DATA	ACCESS:       1753  HIT:          0  MISS:       1753  HIT %:          0  MISS %:        100  MPKI: 0.03506
PSCL4 TRANSLATION FROM L1D PREFETCHER DATA	ACCESS:         52  HIT:          0  MISS:         52  HIT %:          0  MISS %:        100  MPKI: 0.00104


PSCL3 TOTAL     ACCESS:       3962  HIT:       1979  MISS:       1983  HIT %:    49.9495  MISS %:    50.0505   MPKI: 0.03966
PSCL3 LOAD TRANSLATION INSTRUCTION	ACCESS:       2096  HIT:       1927  MISS:        169  HIT %:     91.937  MISS %:    8.06298  MPKI: 0.00338
PSCL3 TRANSLATION FROM L1D PREFETCHER INSTRUCTION	ACCESS:         52  HIT:         52  MISS:          0  HIT %:        100  MISS %:          0  MPKI: 0
PSCL3 LOAD TRANSLATION DATA	ACCESS:       1762  HIT:          0  MISS:       1762  HIT %:          0  MISS %:        100  MPKI: 0.03524
PSCL3 TRANSLATION FROM L1D PREFETCHER DATA	ACCESS:         52  HIT:          0  MISS:         52  HIT %:          0  MISS %:        100  MPKI: 0.00104


PSCL2 TOTAL     ACCESS:       3909  HIT:       1903  MISS:       2006  HIT %:    48.6825  MISS %:    51.3175   MPKI: 0.04012
PSCL2 LOAD TRANSLATION INSTRUCTION	ACCESS:       2134  HIT:       1852  MISS:        282  HIT %:    86.7854  MISS %:    13.2146  MPKI: 0.00564
PSCL2 TRANSLATION FROM L1D PREFETCHER INSTRUCTION	ACCESS:         51  HIT:         51  MISS:          0  HIT %:        100  MISS %:          0  MPKI: 0
PSCL2 LOAD TRANSLATION DATA	ACCESS:       1673  HIT:          0  MISS:       1673  HIT %:          0  MISS %:        100  MPKI: 0.03346
PSCL2 TRANSLATION FROM L1D PREFETCHER DATA	ACCESS:         51  HIT:          0  MISS:         51  HIT %:          0  MISS %:        100  MPKI: 0.00102


LLC TOTAL     ACCESS:     510814  HIT:     482544  MISS:      28270  HIT %:    94.4657  MISS %:     5.5343   MPKI: 0.5654
LLC LOAD INSTRUCTION	ACCESS:     249483  HIT:     248388  MISS:       1095  HIT %:    99.5611  MISS %:   0.438908  MPKI: 0.0219
LLC LOAD TRANSLATION INSTRUCTION	ACCESS:        229  HIT:        181  MISS:         48  HIT %:    79.0393  MISS %:    20.9607  MPKI: 0.00096
LLC LOAD DATA	ACCESS:      66393  HIT:      62750  MISS:       3643  HIT %:     94.513  MISS %:    5.48702  MPKI: 0.07286
LLC RFO DATA	ACCESS:      52282  HIT:      39202  MISS:      13080  HIT %:    74.9818  MISS %:    25.0182  MPKI: 0.2616
LLC PREFETCH DATA	ACCESS:      68937  HIT:      58963  MISS:       9974  HIT %:    85.5317  MISS %:    14.4683  MPKI: 0.19948
LLC WRITEBACK DATA	ACCESS:      72143  HIT:      71805  MISS:        338  HIT %:    99.5315  MISS %:   0.468514  MPKI: 0.00676
LLC LOAD TRANSLATION DATA	ACCESS:       1325  HIT:       1233  MISS:         92  HIT %:    93.0566  MISS %:     6.9434  MPKI: 0.00184
LLC TRANSLATION FROM L1D PREFETCHER DATA	ACCESS:         22  HIT:         22  MISS:          0  HIT %:        100  MISS %:          0  MPKI: 0

LLC AVERAGE MISS LATENCY: 156.647 cycles
LLC RQ	ACCESS:     369745	FORWARD:          0	MERGED:          0	TO_CACHE:     369734
LLC WQ	ACCESS:      72143	FORWARD:         13	MERGED:          0	TO_CACHE:      72143
LLC PQ	ACCESS:      68939	FORWARD:          0	MERGED:          0	TO_CACHE:      68937

LLC Dense regions hint to LLC: 0

RAW hits: 1723826
Loads Generated: 12631909
Loads sent to L1D: 10908083
Stores Generated: 6959228
Stores sent to L1D: 6959238
Major fault: 0 Minor fault: 2635
Allocated PAGES: 2635

stream: 
stream:times selected: 1176565
stream:pref_filled: 120947
stream:pref_useful: 24460
stream:pref_late: 6656
stream:misses: 8070
stream:misses_by_poll: 0

CS: 
CS:times selected: 176440
CS:pref_filled: 61167
CS:pref_useful: 37927
CS:pref_late: 6839
CS:misses: 15739
CS:misses_by_poll: 2

CPLX: 
CPLX:times selected: 998971
CPLX:pref_filled: 20132
CPLX:pref_useful: 4796
CPLX:pref_late: 3148
CPLX:misses: 94114
CPLX:misses_by_poll: 2

NL_L1: 
NL:times selected: 20586
NL:pref_filled: 695
NL:pref_useful: 332
NL:pref_late: 329
NL:misses: 1719
NL:misses_by_poll: 0

total selections: 2372562
total_filled: 93988
total_useful: 34133
total_late: 18300
total_polluted: 4
total_misses_after_warmup: 776773
conflicts: 5668535

test: 116315

DRAM Statistics
 CHANNEL 0
 RQ ROW_BUFFER_HIT:      10096  ROW_BUFFER_MISS:      17822
 DBUS_CONGESTED:         10
 WQ ROW_BUFFER_HIT:       1435  ROW_BUFFER_MISS:      12045  FULL:          0

 AVG_CONGESTED_CYCLE: 5

CPU 0 Branch Prediction Accuracy: 99.8084% MPKI: 0.35088 Average ROB Occupancy at Mispredict: 115.807
Branch types
NOT_BRANCH: 40844310 81.6886%
BRANCH_DIRECT_JUMP: 547902 1.0958%
BRANCH_INDIRECT: 182092 0.364184%
BRANCH_CONDITIONAL: 6178908 12.3578%
BRANCH_DIRECT_CALL: 950807 1.90161%
BRANCH_INDIRECT_CALL: 172364 0.344728%
BRANCH_RETURN: 1123156 2.24631%
BRANCH_OTHER: 0 0%

DRAM PAGES: 1048576
Allocated PAGES: 2635
Average_ROB_Occupancy: 111.317
Average_Decode_Occupancy: 12.9539
Average_FTQ_Occupancy: 6.19284
Indirect max targets: 14 Average targets: 1.17891
Branch_type:  BRANCH_DIRECT_JUMP:  Count Percentage: 3.77613 4.78448 4.81564 8.46365 2.40745 6.01233 1.56598 68.1743 
Branch_type:  BRANCH_INDIRECT:  Count Percentage: 6.10758 3.37609 8.14042 9.6785 3.35386 2.81766 3.90159 62.6243 
Branch_type:  BRANCH_CONDITIONAL:  Count Percentage: 25.425 2.35007 1.55286 4.60624 2.44852 3.59382 2.1199 57.9036 
Branch_type:  BRANCH_DIRECT_CALL:  Count Percentage: 0.91612 1.32111 0.714233 3.88468 3.20291 2.69041 3.03686 84.2337 
Branch_type:  BRANCH_INDIRECT_CALL:  Count Percentage: 9.57686 0 3.00512 0.000873243 0.922727 1.72 4.99641 79.778 
Branch_type:  BRANCH_RETURN:  Count Percentage: 8.33509 1.23036 1.01714 3.87704 4.21701 3.48129 2.68701 75.1551 
Branch_type:  BRANCH_DIRECT_JUMP:  Total Count: 41321 52355 52696 92615 26344 65791 17136 746010 
Branch_type:  BRANCH_INDIRECT:  Total Count: 22257 12303 29665 35270 12222 10268 14218 228213 
Branch_type:  BRANCH_CONDITIONAL:  Total Count: 3139812 290218 191768 568840 302376 443813 261793 7150711 
Branch_type:  BRANCH_DIRECT_CALL:  Total Count: 17357 25030 13532 73600 60683 50973 57537 1595909 
Branch_type:  BRANCH_INDIRECT_CALL:  Total Count: 32901 0 10324 3 3170 5909 17165 274075 
Branch_type:  BRANCH_RETURN:  Total Count: 186625 27548 22774 86808 94420 77947 60163 1682743 
Number of unique branch instructions: 10759
Upper 32 bits: 
aaaa
ffff
ffff0000
Unique upper 32 bits: 3
Unique upper 36 bits: 3
Unique upper 40 bits: 5
Unique upper 44 bits: 32
Unique upper 48 bits: 158
Variant_0 : 1092 0.266602
Variant_1 : 1245 0.303955
Variant_2 : 1572 0.383789
Variant_3 : 0 0
Offset_3 4455
Offset_4 260
Offset_5 482
Offset_6 538
Offset_7 639
Offset_8 578
Offset_9 511
Offset_10 421
Offset_11 352
Offset_12 325
Offset_13 240
Offset_14 247
Offset_15 199
Offset_16 231
Offset_17 165
Offset_18 152
Offset_19 262
Offset_20 146
Offset_21 235
Offset_22 410
Offset_23 241
Offset_24 346
Offset_25 117
Offset_47 92
Offset_64 2
decode_dispatch_called: 20144699 44.0934
Dispatch_width: 0 10124278 50.2578 22.1604
Dispatch_width: 1 538388 2.6726 1.17844
Dispatch_width: 2 685957 3.40515 1.50145
Dispatch_width: 3 471239 2.33927 1.03146
Dispatch_width: 4 1454908 7.22229 3.18455
Dispatch_width: 5 363537 1.80463 0.795722
Dispatch_width: 6 6506392 32.2983 14.2414
Empty_decode_cycles: 25541743 55.9066
ROB_full_cycles: 1777920 3.89157
Starvation_cycles_per_kilo_instr: 374.021
Starvation_cycles_per_kilo_instr_3: 355.837
Starvation_cycles_per_kilo_instr_0: 338.881
Branch_type_1  (3,1)  (4,9)  (5,39)  (6,72)  (7,124)  (8,149)  (9,134)  (10,110)  (11,79)  (12,55)  (13,11)  (14,2)  (15,3)  (16,4)  (18,1)  (19,5)  (20,2)  (21,1)  (22,3)  (23,2)  (24,10)  (25,12)  (64,1) 
Branch_type_2  (3,1)  (4,1)  (5,1)  (8,4)  (9,4)  (10,1)  (12,1)  (13,1)  (14,1)  (16,3)  (17,2)  (20,2)  (21,2)  (23,5)  (24,1)  (47,41) 
Branch_type_3  (3,4453)  (4,250)  (5,438)  (6,449)  (7,484)  (8,358)  (9,278)  (10,169)  (11,137)  (12,62)  (13,10)  (24,1)  (64,1) 
Branch_type_4  (6,4)  (7,8)  (8,26)  (9,57)  (10,67)  (11,70)  (12,116)  (13,102)  (14,112)  (15,95)  (16,102)  (17,76)  (18,65)  (19,127)  (20,74)  (21,124)  (22,216)  (23,136)  (24,200)  (25,101) 
Branch_type_5  (8,3)  (9,1)  (10,4)  (11,5)  (12,3)  (13,14)  (14,16)  (15,11)  (16,22)  (17,11)  (18,23)  (19,14)  (20,11)  (21,13)  (22,43)  (23,26)  (24,38) 
Branch_type_6  (5,4)  (6,13)  (7,23)  (8,38)  (9,37)  (10,70)  (11,61)  (12,88)  (13,102)  (14,116)  (15,90)  (16,100)  (17,76)  (18,63)  (19,116)  (20,57)  (21,95)  (22,148)  (23,72)  (24,96)  (25,4)  (47,51) 
Unique trigger count: 
Variant_0_evicts_0 : 0
Variant_0_evicts_1 : 0
Variant_0_evicts_2 : 0
Variant_0_evicts_3 : 0
Variant_1_evicts_0 : 0
Variant_1_evicts_1 : 0
Variant_1_evicts_2 : 0
Variant_1_evicts_3 : 0
Variant_2_evicts_0 : 0
Variant_2_evicts_1 : 0
Variant_2_evicts_2 : 0
Variant_2_evicts_3 : 0
Variant_3_evicts_0 : 0
Variant_3_evicts_1 : 0
Variant_3_evicts_2 : 0
Variant_3_evicts_3 : 0
BTB PER SET UNIQUE ADDR: 2 7 3 6 5 6 7 4 2 7 5 4 2 5 10 8 4 6 5 2 6 10 7 9 5 6 6 4 6 8 7 5 3 6 5 9 6 3 5 9 5 10 6 3 7 6 4 4 7 7 10 6 7 4 2 7 5 3 8 6 5 7 4 7 7 1 5 4 4 8 7 6 5 7 7 9 4 6 6 7 9 7 5 11 8 4 6 3 5 8 7 9 7 8 4 2 4 3 4 6 5 3 4 6 5 5 4 6 6 8 8 1 3 9 2 5 5 6 4 11 6 6 5 5 10 5 3 5 6 2 3 6 4 5 8 6 5 2 7 5 3 4 9 7 4 8 6 5 6 8 3 2 4 10 2 4 6 3 7 5 2 6 4 7 8 2 1 5 9 9 6 6 4 4 5 6 4 6 6 5 5 5 4 9 6 6 4 6 5 6 6 3 6 7 3 7 5 6 6 4 7 8 3 6 1 9 3 4 8 5 2 2 7 6 6 5 7 5 5 6 4 8 5 8 6 10 6 6 7 10 3 7 6 11 4 7 4 7 5 6 6 7 6 5 6 4 4 4 6 7 4 8 4 4 5 5 4 5 7 1 10 6 7 5 4 4 6 5 8 6 7 8 7 5 6 5 6 2 6 9 9 3 7 9 4 5 11 4 8 4 5 2 10 7 8 5 7 3 8 4 12 4 5 11 4 3 8 8 8 4 7 4 7 8 5 5 3 7 6 3 10 8 3 5 9 5 3 6 3 9 4 10 3 5 7 4 7 9 7 7 3 6 5 3 5 5 4 8 1 3 6 7 5 3 7 4 4 6 5 5 10 6 6 8 6 9 6 7 5 3 8 6 9 5 6 5 7 6 4 2 4 6 5 5 8 6 3 7 4 6 5 3 4 6 5 3 6 2 5 3 7 7 6 4 5 10 11 5 9 3 6 4 1 5 6 2 5 4 4 6 6 2 4 6 7 4 6 8 6 7 8 3 4 5 7 1 4 3 2 5 9 5 3 2 3 1 3 5 7 4 10 2 6 5 5 2 6 3 13 5 5 6 6 12 3 9 4 6 2 8 6 7 2 6 4 9 3 2 4 8 5 2 6 4 4 5 4 6 5 7 7 5 6 6 6 5 7 6 3 8 3 3 4 5 6 6 6 3 2 4 7 4 4 3 5 6 10 5 7 6 7 7 9 5 6 13 3 5 5 2 10 7 5 4 3 5 8 9 4 6 3 9 11 12 6 4 7 10 5 3 4 9 3 5 6 8 7 1 6 5 4 3 5 8 7 3 4 5 10 5 6 4 1 7 2 7 10 2 7 4 2 8 2 9 3 4 2 2 6 8 8 7 7 8 4 7 13 8 5 5 11 3 4 2 5 11 8 1 4 3 5 4 6 6 1 5 10 3 8 8 5 6 4 1 8 6 3 5 5 4 5 7 4 5 6 6 3 8 7 11 4 5 5 4 3 6 7 5 4 5 4 5 5 8 5 8 7 4 3 5 4 6 7 10 4 5 5 9 9 6 9 7 8 5 8 4 5 7 5 7 7 9 3 8 9 8 5 10 8 4 6 3 4 7 5 9 5 9 4 10 7 6 4 3 10 4 4 8 7 8 5 2 2 8 5 6 7 6 5 3 7 6 3 8 5 8 10 8 4 8 4 5 9 5 6 2 6 6 3 10 4 11 5 5 5 3 7 5 6 5 7 4 7 5 9 10 9 2 4 8 7 6 7 7 8 7 8 13 6 6 8 5 1 7 7 6 6 8 4 7 7 5 5 6 10 6 6 5 7 10 9 4 4 7 9 6 8 3 5 5 6 6 7 4 6 2 7 3 6 4 6 3 2 6 9 6 11 4 7 6 9 5 5 4 5 6 5 6 11 6 7 6 4 8 5 4 7 5 3 5 1 10 5 4 5 4 4 5 3 4 4 8 4 4 6 5 10 9 4 5 1 6 4 8 7 7 9 8 5 6 4 4 5 3 2 4 4 7 1 7 6 5 6 4 6 5 9 10 4 0 11 3 3 3 4 7 4 10 6 2 7 4 8 6 4 2 5 4 7 10 7 3 5 7 8 10 5 10 8 6 9 1 6 10 4 5 6 8 6 4 3 8 7 4 6 7 4 4 2 7 7 4 4 2 5 3 3 4 8 5 8 7 6 2 11 5 9 5 5 3 6 4 9 5 5 4 7 4 4 4 4 3 5 6 2 4 3 10 6 7 4 6 8 6 9 4 3 6 7 3 4 5 7 9 6 5 5 5 4 2 8 5 8 5 3 3 5 9 5 5 5 7 11 6 6 3 6 7 3 4 6 3 7 7 7 4 7 7 3 4 6 3 6 5 5 7 8 6 2 4 6 5 6 8 7 5 6 6 3 3 4 5 6 4 4 7 10 9 4 3 2 7 4 5 4 7 8 6 9 7 2 5 2 8 9 4 7 6 7 3 8 1 4 4 6 6 4 3 4 9 8 9 6 5 6 3 4 4 4 3 5 11 7 11 4 7 3 6 2 2 7 6 4 5 10 3 6 7 4 6 6 6 5 8 3 8 6 7 4 3 6 6 7 3 4 4 4 5 3 7 9 11 7 3 5 8 3 6 4 5 5 6 0 5 3 3 6 9 7 5 4 2 9 4 2 3 6 9 6 8 12 5 6 3 5 9 4 8 4 6 8 3 11 4 4 4 6 3 6 8 10 10 4 2 8 5 8 6 5 3 6 3 4 3 6 6 5 3 9 4 4 5 6 7 1 6 9 3 8 6 9 3 6 5 6 8 7 5 6 4 3 3 5 3 8 5 4 6 3 3 5 5 6 5 7 5 8 6 3 7 5 9 3 4 6 2 4 4 2 4 3 4 5 3 5 3 7 6 4 10 5 5 11 3 4 7 5 9 8 5 9 4 12 8 6 4 4 6 13 9 7 5 8 10 5 5 7 5 5 6 2 5 5 9 8 7 9 7 8 10 12 6 4 5 11 6 4 4 6 4 3 7 7 6 6 3 5 4 8 13 6 6 4 7 6 4 6 8 6 8 5 7 7 6 9 11 4 6 8 4 5 3 6 7 5 2 8 2 4 6 4 8 8 8 7 2 4 6 6 7 3 5 5 14 9 7 4 5 2 5 2 5 3 7 4 4 6 6 6 2 3 6 10 8 2 6 6 5 5 4 7 5 10 2 3 4 9 8 5 6 3 6 7 4 9 8 4 4 3 6 8 7 5 10 7 10 7 4 3 6 7 4 6 5 10 6 7 8 7 5 7 7 7 4 5 6 8 6 7 4 3 7 2 7 6 5 5 6 12 6 5 3 4 7 10 6 5 6 5 9 6 4 7 1 4 3 8 6 5 10 4 7 5 7 8 4 5 5 6 5 6 6 5 8 5 10 6 4 8 1 6 4 11 8 10 8 10 5 10 3 5 7 10 3 4 6 8 8 7 11 9 2 6 8 6 4 14 6 7 3 4 6 5 5 5 8 6 5 2 6 5 4 7 6 7 7 5 10 4 2 5 6 6 5 2 6 4 9 7 4 4 9 8 5 5 4 4 7 6 7 6 4 4 4 3 6 5 7 6 2 6 5 4 6 4 7 8 5 4 7 5 5 5 5 6 3 3 6 5 6 7 5 6 7 4 5 11 8 9 7 3 8 8 5 4 7 5 5 9 4 3 10 8 8 5 7 3 2 3 3 5 6 9 5 8 5 9 4 5 5 5 6 11 4 7 6 7 5 4 7 12 5 4 5 6 4 4 4 6 5 3 6 4 6 7 5 5 4 2 2 6 4 4 3 5 6 1 5 5 3 6 4 7 2 1 5 6 7 13 3 3 7 4 3 5 5 3 6 4 3 3 5 4 2 4 8 9 5 4 5 1 2 8 6 5 4 4 7 4 6 2 4 3 9 8 5 9 4 4 3 5 4 6 5 4 7 3 4 7 9 6 4 9 4 4 6 5 9 7 5 7 3 3 3 5 6 1 1 3 4 7 8 3 9 5 6 6 5 7 4 2 4 8 10 0 8 4 9 5 10 5 10 3 6 10 8 6 6 3 7 3 7 3 6 4 6 9 4 5 6 5 5 3 4 2 1 5 2 8 2 7 4 7 2 6 4 5 6 3 6 4 4 6 7 6 8 7 4 6 3 5 8 4 3 6 5 4 4 5 8 5 5 3 3 6 6 6 6 5 7 4 6 5 9 6 3 4 8 6 6 2 4 7 4 5 7 2 7 4 3 3 8 3 7 5 4 4 9 4 10 4 5 3 5 7 10 6 8 3 3 4 3 4 5 3 11 1 6 2 5 4 4 3 5 4 5 3 1 3 8 2 6 6 4 3 7 6 3 4 6 6 7 9 3 5 9 1 4 11 4 1 1 9 10 2 7 8 8 6 6 6 5 9 7 7 6 5 2 5 3 5 9 5 7 9 9 4 4 3 7 4 8 6 7 9 9 6 4 8 9 7 5 4 7 6 6 5 6 3 11 4 7 5 14 6 3 5 9 3 5 5 5 4 3 8 7 3 6 4 6 3 4 6 8 5 4 2 3 6 4 1 4 8 10 5 3 5 8 8 8 5 10 7 5 2 9 5 5 9 4 3 11 4 3 7 5 5 14 5 9 5 7 4 6 3 5 8 6 
BTB PER SET COUNT: 2 1904 774 948 866 247 461 929 2 895 937 357 2 721 1070 204 762 178 1159 6 440 1581 1007 624 527 541 369 313 632 1062 747 140 185 1149 723 778 805 149 416 1648 17 1642 19 4 1579 973 189 229 173 1059 1749 476 1041 5 2 778 1003 1080 693 72 1180 981 204 300 165 1 245 261 4 1252 797 270 259 636 398 1609 5 951 1248 246 809 416 198 1468 682 143 1041 3 736 1616 732 1036 1139 1184 10 61 239 8 223 610 719 3 406 154 93 183 46 547 745 965 384 1 146 1201 3 206 429 33 599 2631 413 559 1739 286 37 1146 7 445 926 2 53 543 5 356 675 626 225 134 964 944 8 692 1593 557 4 350 11 499 325 811 245 550 9 939 2 859 205 681 574 294 2 427 5 526 776 85 1 5 313 765 201 783 306 216 380 398 89 231 65 861 120 661 279 658 591 495 4 15 11 172 74 4 1028 723 4 488 218 690 1304 5 420 435 145 305 1 1001 3 587 674 7 3 2 1062 725 330 458 956 269 349 189 201 973 339 1274 2002 1412 188 147 183 1592 413 207 305 4483 237 647 5 456 429 932 624 112 823 236 399 428 720 700 274 474 4 718 8 210 478 151 191 414 467 1 483 539 499 366 197 517 10 469 797 227 479 595 121 561 613 915 195 257 533 680 610 3 380 992 9 583 1997 387 579 7 5 2 1450 698 926 210 14 54 515 262 1090 225 1455 678 239 8 827 29 560 9 176 5 842 379 6 394 3 795 335 8 657 447 258 360 1320 383 383 220 4 453 6 1758 198 724 211 241 920 442 313 578 3 399 351 3 723 277 4 827 1 344 350 180 394 3 720 7 343 579 804 191 2119 329 410 1295 322 3152 813 1339 7 4 621 505 3203 13 421 279 616 587 308 2 166 1128 92 561 1070 328 3 499 80 307 318 5 773 380 92 3 1678 2 474 66 690 1045 356 263 422 1314 2584 703 759 3 235 325 1 563 927 279 504 432 276 676 322 2 6 613 926 771 488 674 1211 477 1594 56 4 502 780 2 383 5 2 104 2017 356 3 3 500 1 1479 24 839 524 1611 257 291 315 619 2 702 5 1523 243 1130 407 41 1046 9 1283 345 266 2 626 450 585 2 427 998 172 136 2 307 693 145 2 296 360 8 430 147 422 170 935 461 429 98 693 784 1003 939 476 80 742 3 202 5 273 8 534 215 96 2 71 1050 356 1038 964 5 585 953 1427 977 674 364 517 1552 8 521 1926 56 13 257 2 2188 770 214 38 4 134 491 684 572 241 202 602 1173 1746 477 1225 1098 1728 823 86 4 1261 957 625 400 671 1160 1 143 139 938 7168 457 892 527 4 1071 170 2149 495 203 306 1 1334 3 1206 1276 3 470 261 4 824 2 896 3 331 251 2 11 2393 840 629 834 1293 242 1806 1110 803 389 334 926 11 614 119 174 934 1338 1 159 197 364 126 1224 353 1 281 1035 343 11948 843 268 301 465 1 696 310 454 227 501 413 512 934 107 930 545 765 4 1182 561 2483 6 322 503 7 4 1042 234 182 224 870 772 365 234 937 186 376 464 255 3 66 444 743 409 115 271 801 5 1667 876 927 479 384 748 3395 1078 425 393 1483 349 890 1193 789 119 1592 567 1137 405 952 149 209 636 3 391 963 268 1370 169 1834 389 1743 648 1406 6 3 1319 102 7 408 1461 630 323 2 221 836 109 970 568 397 349 178 363 499 694 856 459 1014 1034 903 1098 792 304 338 796 470 14 3 7 549 174 2514 6 2175 227 339 262 10 379 145 13 720 1518 307 232 306 278 770 743 3 4 856 633 293 328 181 220 301 795 2142 660 6 128 429 2 340 822 1138 276 679 362 718 793 71 184 228 747 7 721 564 363 1076 524 534 791 12 134 965 177 223 308 214 233 27 648 890 344 2 142 5 287 242 439 3 4 270 1072 573 1933 434 820 75 863 369 151 267 443 1130 423 613 1775 457 792 449 111 794 25 152 1285 184 4 452 10 1808 452 624 531 6 181 883 7 1042 5 548 50 279 622 35 928 150 236 10 1 411 12 429 494 246 1361 298 822 157 738 295 410 4 2 46 1307 1172 1 963 422 1144 514 123 11 631 169 1667 41 0 1812 11 71 4 4 769 625 1082 886 220 902 182 823 842 179 206 104 118 375 1002 730 290 626 597 850 1089 219 633 1459 1002 1760 1 130 467 196 9 1432 369 294 378 9 910 1440 352 260 461 223 147 76 1021 848 83 7 2 1115 344 3 23 246 8 1274 1159 485 2 2319 442 1437 10 1833 242 585 131 728 348 330 30 560 508 4 349 4 4 232 1113 3 59 87 1237 451 391 416 319 959 8 896 111 3 873 18 187 8 450 956 999 382 12 339 1722 5 2 537 285 621 1328 328 3 366 1441 1096 461 15 673 1349 351 507 74 246 1183 5 35 429 335 493 167 580 230 938 1231 3 169 802 3 942 566 690 778 530 359 1474 131 397 630 12 496 426 811 957 53 129 3 389 233 292 83 395 16 1022 1786 293 3 2 591 442 684 573 581 967 718 483 502 2 453 2 1208 982 233 143 694 203 9 1172 1 204 393 283 290 8 99 51 628 1024 1139 642 8 494 597 175 5 287 3 354 2001 772 1657 362 932 6 187 2 125 175 772 287 1335 769 3 11 690 7 314 346 7 426 109 3 905 407 470 5 3 167 509 488 4 486 184 185 759 5 347 945 11959 1276 311 696 19 7 576 34 444 107 467 0 152 3 939 155 1320 1316 192 36 2 654 287 393 5 262 412 167 683 961 12 440 443 81 1328 10 110 460 662 861 78 1463 371 335 250 187 277 1184 781 1199 631 173 2 1886 236 1035 470 655 156 574 41 8 7 763 744 1215 4 975 350 713 7 292 1362 1 215 869 103 713 272 724 9 572 46 455 882 662 200 442 144 3 67 526 3 1238 269 12 594 172 3 508 454 53 274 361 257 31 124 96 353 269 469 4 280 608 2 4 110 2 13 3 229 6 3 601 3 503 234 281 692 405 251 1127 3 199 501 252 1043 719 373 1356 34 250 543 234 545 147 1403 1965 1438 37 814 293 1474 322 683 759 272 293 806 4 330 362 461 967 574 559 1125 811 1042 892 162 50 448 823 766 38 160 512 183 4 389 12 568 73 4 89 1534 331 1888 479 299 6 749 527 161 265 1096 530 373 547 659 219 364 965 1147 172 385 1083 554 2404 3 293 195 17 2 603 2 228 350 422 513 893 650 113 2 317 235 240 713 3 209 347 2009 1303 588 428 159 2 687 2 668 249 271 219 266 12 258 279 244 3 195 534 466 2 373 481 30 15 4 1058 289 355 57 11 379 1019 187 115 506 3 415 905 56 1284 1036 242 271 85 979 1373 550 458 651 366 961 408 60 236 1992 1413 19 501 2050 1197 1056 1121 546 896 114 441 1357 102 127 352 10 839 16 342 5 3 299 2 805 355 9 5 616 946 306 341 5 70 269 1425 422 240 16 7 1629 140 239 997 1 4 4 339 369 591 1486 218 691 514 559 813 613 14 154 9 232 484 217 306 521 436 1795 708 182 252 3 916 497 660 292 1556 930 1045 165 868 94 376 591 1997 305 8 979 83 730 889 1842 1426 2 88 1101 541 732 1206 544 1226 3 495 77 737 214 150 963 255 627 2 866 6 6 201 226 12 497 488 895 221 18 979 436 242 9 2 345 5 427 108 1114 741 878 337 427 398 215 5 834 374 427 977 7 64 373 3 612 399 1184 117 1456 438 303 90 572 5 419 1018 17 163 412 158 225 5 542 408 150 137 667 81 419 264 409 406 646 638 505 1038 165 1331 375 3 713 1208 261 218 207 6 639 859 5 204 724 675 885 136 844 168 2 3 146 290 654 1496 129 785 623 1334 41 308 5 7 747 595 155 700 806 400 486 7 859 611 269 476 252 68 227 511 658 698 767 493 304 5 108 438 8 921 485 2 279 170 231 5 10 426 379 1 534 5 313 298 5 312 2 1 148 193 453 3061 92 390 855 4 241 348 7 5 333 544 169 42 355 109 2 26 966 1049 171 11 52 1 173 522 498 398 229 4 338 360 404 5 233 4 1849 335 546 464 428 187 301 215 76 51 221 209 642 352 4 504 483 196 19 898 14 138 722 592 1250 287 579 837 3 3 3 142 612 1 1 4 679 472 1232 3 1107 336 539 817 710 1427 331 2 4 496 1234 0 372 56 883 143 2003 455 700 3 716 2714 601 256 233 4 1022 3 925 3 347 383 490 471 43 5 581 242 324 7 4 5 1 289 2 901 2 737 553 365 2 165 6 14 410 163 932 118 355 570 1070 206 831 964 173 449 98 213 1260 14 660 171 5 351 911 550 1250 302 448 294 333 330 1141 881 620 7 1351 8 478 292 693 8 10 256 829 1844 517 2 80 894 251 409 728 2 807 10498 246 128 1284 256 1264 698 5 307 1259 642 1578 529 426 407 10 694 1358 497 494 81 219 13 3 5 841 4 1012 1 396 734 249 4 244 273 181 141 357 5 1 3 1265 2 94 648 662 83 1201 483 86 197 1319 133 376 787 3 417 1124 1 715 1212 115 1 1 562 736 4 422 654 1181 65 350 587 406 618 70 1271 513 244 2 550 304 358 1220 222 548 1224 277 217 67 4 828 176 618 800 428 448 1589 544 1244 1281 1307 941 197 171 583 3170 763 323 667 515 1789 4 661 401 1674 7 210 534 1419 257 590 519 209 68 6 1099 1603 455 666 57 496 4 296 62 533 7 330 1357 458 714 272 1 91 378 1507 189 149 5 1152 401 698 294 1756 369 874 2 1067 1564 161 544 7 10 1823 72 172 480 538 142 2860 199 1233 122 511 534 6 41 252 778 977 
To predecode: 0
Predecoding something: 0
Predecode request dropped: 0
sizeofblock_0 0
sizeofblock_1 506094
sizeofblock_2 146414
sizeofblock_3 28788
sizeofblock_4 7255
sizeofblock_5 0
sizeofblock_6 0
sizeofblock_7 0
sizeofblock_8 0
Variant_0 Correct: 1313570 Incorrect: 0 Accuracy: 1
Variant_1 Correct: 1829381 Incorrect: 0 Accuracy: 1
Variant_2 Correct: 3358962 Incorrect: 0 Accuracy: 1
Variant_3 Correct: 0 Incorrect: 0 Accuracy: -nan
