
*** ChampSim Multicore Out-of-Order Simulator ***

Warmup Instructions: 50000000
Simulation Instructions: 50000000
Number of CPUs: 1
LLC sets: 2048
LLC ways: 16
Off-chip DRAM Size: 4096 MB Channels: 1 Width: 64-bit Data Rate: 6400 MT/s
CPU 0 runs ./micro_traces/srv106.trace.gz
.gz
ITLB has LRU replacement policy
DTLB has LRU replacement policy
STLB has LRU replacement policy
FDIP Prefetcher at L1I
L1I has LRU replacement policy
L1D has LRU replacement policy
Initialize SRRIP state for L2C
Initialize DRRIP state for LLC
Heartbeat CPU 0 instructions: 10000000 cycles: 2797518 heartbeat IPC: 3.5746 cumulative IPC: 3.5746 (Simulation time: 0 hr 2 min 4 sec) 
Heartbeat CPU 0 instructions: 20000003 cycles: 5593470 heartbeat IPC: 3.5766 cumulative IPC: 3.5756 (Simulation time: 0 hr 4 min 4 sec) 
Heartbeat CPU 0 instructions: 30000001 cycles: 8390002 heartbeat IPC: 3.57586 cumulative IPC: 3.57568 (Simulation time: 0 hr 5 min 51 sec) 
Heartbeat CPU 0 instructions: 40000001 cycles: 11185651 heartbeat IPC: 3.57699 cumulative IPC: 3.57601 (Simulation time: 0 hr 7 min 52 sec) 
Heartbeat CPU 0 instructions: 50000003 cycles: 13981643 heartbeat IPC: 3.57655 cumulative IPC: 3.57612 (Simulation time: 0 hr 9 min 50 sec) 

Warmup complete CPU 0 instructions: 50000003 cycles: 13981643 (Simulation time: 0 hr 9 min 50 sec) 

Cycle: 20000000 FTQ IN: 58605200 FTQ occupancy: 21.5147 DECODE IN: 58605096 DECODE occupancy: 55.3313 ROB IN: 58605036 ROB occupancy: 324.183 ROB OUT: 58604953
Heartbeat CPU 0 instructions: 60000001 cycles: 20969887 heartbeat IPC: 1.43097 cumulative IPC: 1.43097 (Simulation time: 0 hr 12 min 23 sec) 
Heartbeat CPU 0 instructions: 70000000 cycles: 28049326 heartbeat IPC: 1.41254 cumulative IPC: 1.4217 (Simulation time: 0 hr 15 min 9 sec) 
Cycle: 30000000 FTQ IN: 14184546 FTQ occupancy: 18.132 DECODE IN: 14184552 DECODE occupancy: 44.2889 ROB IN: 14184552 ROB occupancy: 267.433 ROB OUT: 14184348
Heartbeat CPU 0 instructions: 80000003 cycles: 35052361 heartbeat IPC: 1.42795 cumulative IPC: 1.42378 (Simulation time: 0 hr 17 min 48 sec) 
Cycle: 40000000 FTQ IN: 14172043 FTQ occupancy: 18.2392 DECODE IN: 14172015 DECODE occupancy: 44.6244 ROB IN: 14172015 ROB occupancy: 268.509 ROB OUT: 14171950
Heartbeat CPU 0 instructions: 90000001 cycles: 42114610 heartbeat IPC: 1.41598 cumulative IPC: 1.42182 (Simulation time: 0 hr 19 min 31 sec) 
*** Reached end of trace for Core: 0 Repeating trace: ./micro_traces/srv106.trace.gz
Heartbeat CPU 0 instructions: 100000000 cycles: 49110885 heartbeat IPC: 1.42933 cumulative IPC: 1.42332 (Simulation time: 0 hr 20 min 33 sec) 
Finished CPU 0 instructions: 50000001 cycles: 35129243 cumulative IPC: 1.42332 (Simulation time: 0 hr 20 min 33 sec) 

ChampSim completed all CPUs

Region of Interest Statistics

CPU 0 cumulative IPC: 1.42332 instructions: 50000001 cycles: 35129243
 Fetch stage stalled: 23.2084  Sim cycles: 35129243 fetch stall cycle: 8152942
 Empty decode stage: 11.9826  Sim cycles: 35129243 fetch stall cycle: 4209396
ITLB TOTAL     ACCESS:    5981437  HIT:    5488689  MISS:     492748  HIT %:     91.762  MISS %:    8.23795   MPKI: 9.85496
ITLB LOAD TRANSLATION INSTRUCTION	ACCESS:    5828598  HIT:    5335850  MISS:     492748  HIT %:     91.546  MISS %:    8.45397  MPKI: 9.85496
ITLB TRANSLATION FROM L1D PREFETCHER INSTRUCTION	ACCESS:     152839  HIT:     152839  MISS:          0  HIT %:        100  MISS %:          0  MPKI: 0

ITLB AVERAGE MISS LATENCY: 9.04227 cycles
ITLB RQ	ACCESS:    7953608	FORWARD:          0	MERGED:    1434649	TO_CACHE:    6518959

DTLB TOTAL     ACCESS:    8937507  HIT:    8464677  MISS:     472830  HIT %:    94.7096  MISS %:     5.2904   MPKI: 9.4566
DTLB LOAD TRANSLATION DATA	ACCESS:    8937507  HIT:    8464677  MISS:     472830  HIT %:    94.7096  MISS %:     5.2904  MPKI: 9.4566

DTLB AVERAGE MISS LATENCY: 9.29261 cycles
DTLB RQ	ACCESS:   13313378	FORWARD:          0	MERGED:    4338877	TO_CACHE:    8974501

STLB TOTAL     ACCESS:    1213941  HIT:    1212055  MISS:       1886  HIT %:    99.8446  MISS %:   0.155362   MPKI: 0.03772
STLB LOAD TRANSLATION INSTRUCTION	ACCESS:     492748  HIT:     492522  MISS:        226  HIT %:    99.9541  MISS %:  0.0458652  MPKI: 0.00452
STLB LOAD TRANSLATION DATA	ACCESS:     472830  HIT:     471193  MISS:       1637  HIT %:    99.6538  MISS %:   0.346213  MPKI: 0.03274
STLB TRANSLATION FROM L1D PREFETCHER DATA	ACCESS:     248363  HIT:     248340  MISS:         23  HIT %:    99.9907  MISS %: 0.00926064  MPKI: 0.00046

STLB AVERAGE MISS LATENCY: 69.0785 cycles
STLB RQ	ACCESS:    1334802	FORWARD:          0	MERGED:     120829	TO_CACHE:    1213973

STLB Hit, L1D data hit: 0
STLB Hit, L2C data hit: 0
STLB Hit, LLC data hit: 0
STLB Hit, LLC data miss: 0
STLB STLB hints to L2: 0
L1D TOTAL     ACCESS:   13065154  HIT:   11950254  MISS:    1114900  HIT %:    91.4666  MISS %:    8.53339   MPKI: 22.298
L1D LOAD DATA	ACCESS:    6535298  HIT:    5798216  MISS:     737082  HIT %:    88.7215  MISS %:    11.2785  MPKI: 14.7416
L1D RFO DATA	ACCESS:    6202127  HIT:    5917724  MISS:     284403  HIT %:    95.4144  MISS %:    4.58557  MPKI: 5.68806
L1D PREFETCH DATA	ACCESS:     327729  HIT:     234314  MISS:      93415  HIT %:    71.4963  MISS %:    28.5037  MPKI: 1.8683

L1D PREFETCH  REQUESTED:     738826  ISSUED:     738826  USEFUL:      33480  USELESS:      68619
L1D USEFUL LOAD PREFETCHES:      33480 PREFETCH ISSUED TO LOWER LEVEL:     102135  ACCURACY: 32.7801
 TIMELY PREFETCHES:      33480 LATE PREFETCHES: 8695 DROPPED PREFETCHES: 5
L1D AVERAGE MISS LATENCY: 245554 cycles
L1D RQ	ACCESS:   10676101	FORWARD:          0	MERGED:    3943180	TO_CACHE:    6570248
L1D WQ	ACCESS:    6941900	FORWARD:     163053	MERGED:     198770	TO_CACHE:    6743130
L1D PQ	ACCESS:     369603	FORWARD:          0	MERGED:          0	TO_CACHE:     369223

L1D UNIQUE REGIONS ACCESSED: 0
L1D REGIONS CONFLICTS: 0
L1D Cross Page Prefetch Requests: 6799
L1D Same Page Prefetch Requests: 748586
L1D ROI Sum of L1D PQ occupancy: 4688332
L1D PREFETCHES PUSHED FROM L2C: 0
L1I TOTAL     ACCESS:    7133512  HIT:    4373559  MISS:    2759953  HIT %:      61.31  MISS %:      38.69   MPKI: 55.1991
L1I LOAD INSTRUCTION	ACCESS:    6450816  HIT:    3690863  MISS:    2759953  HIT %:    57.2154  MISS %:    42.7846  MPKI: 55.1991
L1I PREFETCH INSTRUCTION	ACCESS:     682696  HIT:     682696  MISS:          0  HIT %:        100  MISS %:          0  MPKI: 0

L1I PREFETCH  REQUESTED:    1678279  ISSUED:    1678279  USEFUL:          0  USELESS:          0
L1I USEFUL LOAD PREFETCHES:          0 PREFETCH ISSUED TO LOWER LEVEL:          0  ACCURACY: -nan
 TIMELY PREFETCHES:          0 LATE PREFETCHES: 0 DROPPED PREFETCHES: 0
L1I AVERAGE MISS LATENCY: 17.3603 cycles
L1I RQ	ACCESS:    9847483	FORWARD:          0	MERGED:    3138800	TO_CACHE:    6708683
L1I PQ	ACCESS:    1678279	FORWARD:          0	MERGED:     433354	TO_CACHE:    1244925

L1BTB TOTAL     ACCESS:    5368534  HIT:    5336090  MISS:      32444  HIT %:    99.3957  MISS %:   0.604336   MPKI: 0.64888
L1BTB BRANCH_DIRECT_JUMP	ACCESS:     548143  HIT:     548143  MISS:          0	AVERAGE STALL: -nan
L1BTB BRANCH_INDIRECT	ACCESS:     182829  HIT:     169956  MISS:      12873	AVERAGE STALL: 125.398
L1BTB BRANCH_CONDITIONAL	ACCESS:    2403650  HIT:    2403650  MISS:          0	AVERAGE STALL: -nan
L1BTB BRANCH_DIRECT_CALL	ACCESS:     944788  HIT:     944788  MISS:          0	AVERAGE STALL: -nan
L1BTB BRANCH_INDIRECT_CALL	ACCESS:     172168  HIT:     152597  MISS:      19571	AVERAGE STALL: 164.947
L1BTB BRANCH_RETURN	ACCESS:    1116956  HIT:    1116956  MISS:          0	AVERAGE STALL: -nan
L1BTB BRANCH_OTHER ACCESS:          0  HIT:          0  MISS:          0	AVERAGE STALL: -nan
L1BTB TOTAL ROB OCCUPANCY AT BTB MISS: 127.498

L2BTB BRANCH_DIRECT_JUMP	ACCESS:          0  HIT:          0  MISS:          0	AVERAGE STALL: -nan
L2BTB BRANCH_INDIRECT	ACCESS:          0  HIT:          0  MISS:          0	AVERAGE STALL: 125.398
L2BTB BRANCH_CONDITIONAL	ACCESS:          0  HIT:          0  MISS:          0	AVERAGE STALL: -nan
L2BTB BRANCH_DIRECT_CALL	ACCESS:          0  HIT:          0  MISS:          0	AVERAGE STALL: -nan
L2BTB BRANCH_INDIRECT_CALL	ACCESS:          0  HIT:          0  MISS:          0	AVERAGE STALL: 164.947
L2BTB BRANCH_RETURN	ACCESS:          0  HIT:          0  MISS:          0	AVERAGE STALL: -nan
L2BTB BRANCH_OTHER ACCESS:          0  HIT:          0  MISS:          0	AVERAGE STALL: -nan
L2BTB TOTAL ROB OCCUPANCY AT BTB MISS: inf

L2C TOTAL     ACCESS:    4483081  HIT:    3978070  MISS:     505011  HIT %:    88.7352  MISS %:    11.2648   MPKI: 10.1002
L2C LOAD INSTRUCTION	ACCESS:    2759952  HIT:    2496930  MISS:     263022  HIT %:    90.4701  MISS %:    9.52995  MPKI: 5.26044
L2C LOAD TRANSLATION INSTRUCTION	ACCESS:        258  HIT:         74  MISS:        184  HIT %:    28.6822  MISS %:    71.3178  MPKI: 0.00368
L2C LOAD DATA	ACCESS:     728352  HIT:     642370  MISS:      85982  HIT %:     88.195  MISS %:     11.805  MPKI: 1.71964
L2C RFO DATA	ACCESS:     284356  HIT:     227168  MISS:      57188  HIT %:    79.8886  MISS %:    20.1114  MPKI: 1.14376
L2C PREFETCH DATA	ACCESS:     187945  HIT:     108437  MISS:      79508  HIT %:    57.6961  MISS %:    42.3039  MPKI: 1.59016
L2C WRITEBACK DATA	ACCESS:     520472  HIT:     502625  MISS:      17847  HIT %:     96.571  MISS %:      3.429  MPKI: 0.35694
L2C LOAD TRANSLATION DATA	ACCESS:       1705  HIT:        437  MISS:       1268  HIT %:    25.6305  MISS %:    74.3695  MPKI: 0.02536
L2C TRANSLATION FROM L1D PREFETCHER DATA	ACCESS:         41  HIT:         29  MISS:         12  HIT %:    70.7317  MISS %:    29.2683  MPKI: 0.00024

L2C PREFETCH  REQUESTED:      94721  ISSUED:      94721  USEFUL:       8920  USELESS:      71185
L2C USEFUL LOAD PREFETCHES:       8920 PREFETCH ISSUED TO LOWER LEVEL:      80050  ACCURACY: 11.143
 TIMELY PREFETCHES:       8920 LATE PREFETCHES: 542 DROPPED PREFETCHES: 0
L2C AVERAGE MISS LATENCY: 37.1182 cycles
L2C RQ	ACCESS:    3774722	FORWARD:          0	MERGED:          0	TO_CACHE:    3774665
L2C WQ	ACCESS:     520472	FORWARD:         57	MERGED:          0	TO_CACHE:     520472
L2C PQ	ACCESS:     196856	FORWARD:          0	MERGED:       4080	TO_CACHE:     192776

L2C Dense regions hint from L2: 0
PSCL5 TOTAL     ACCESS:       3798  HIT:       1899  MISS:       1899  HIT %:         50  MISS %:         50   MPKI: 0.03798
PSCL5 LOAD TRANSLATION INSTRUCTION	ACCESS:       3716  HIT:       1858  MISS:       1858  HIT %:         50  MISS %:         50  MPKI: 0.03716
PSCL5 TRANSLATION FROM L1D PREFETCHER INSTRUCTION	ACCESS:         82  HIT:         41  MISS:         41  HIT %:         50  MISS %:         50  MPKI: 0.00082


PSCL4 TOTAL     ACCESS:       3691  HIT:       1841  MISS:       1850  HIT %:    49.8781  MISS %:    50.1219   MPKI: 0.037
PSCL4 LOAD TRANSLATION INSTRUCTION	ACCESS:       3295  HIT:       1810  MISS:       1485  HIT %:    54.9317  MISS %:    45.0683  MPKI: 0.0297
PSCL4 TRANSLATION FROM L1D PREFETCHER INSTRUCTION	ACCESS:         62  HIT:         31  MISS:         31  HIT %:         50  MISS %:         50  MPKI: 0.00062
PSCL4 LOAD TRANSLATION DATA	ACCESS:        334  HIT:          0  MISS:        334  HIT %:          0  MISS %:        100  MPKI: 0.00668


PSCL3 TOTAL     ACCESS:       3715  HIT:       1853  MISS:       1862  HIT %:    49.8789  MISS %:    50.1211   MPKI: 0.03724
PSCL3 LOAD TRANSLATION INSTRUCTION	ACCESS:       3307  HIT:       1822  MISS:       1485  HIT %:    55.0953  MISS %:    44.9047  MPKI: 0.0297
PSCL3 TRANSLATION FROM L1D PREFETCHER INSTRUCTION	ACCESS:         62  HIT:         31  MISS:         31  HIT %:         50  MISS %:         50  MPKI: 0.00062
PSCL3 LOAD TRANSLATION DATA	ACCESS:        346  HIT:          0  MISS:        346  HIT %:          0  MISS %:        100  MPKI: 0.00692


PSCL2 TOTAL     ACCESS:       3708  HIT:       1810  MISS:       1898  HIT %:    48.8134  MISS %:    51.1866   MPKI: 0.03796
PSCL2 LOAD TRANSLATION INSTRUCTION	ACCESS:       1998  HIT:       1769  MISS:        229  HIT %:    88.5385  MISS %:    11.4615  MPKI: 0.00458
PSCL2 TRANSLATION FROM L1D PREFETCHER INSTRUCTION	ACCESS:         41  HIT:         41  MISS:          0  HIT %:        100  MISS %:          0  MPKI: 0
PSCL2 LOAD TRANSLATION DATA	ACCESS:       1628  HIT:          0  MISS:       1628  HIT %:          0  MISS %:        100  MPKI: 0.03256
PSCL2 TRANSLATION FROM L1D PREFETCHER DATA	ACCESS:         41  HIT:          0  MISS:         41  HIT %:          0  MISS %:        100  MPKI: 0.00082


LLC TOTAL     ACCESS:     570350  HIT:     544078  MISS:      26272  HIT %:    95.3937  MISS %:    4.60629   MPKI: 0.52544
LLC LOAD INSTRUCTION	ACCESS:     263022  HIT:     262335  MISS:        687  HIT %:    99.7388  MISS %:   0.261195  MPKI: 0.01374
LLC LOAD TRANSLATION INSTRUCTION	ACCESS:        184  HIT:        166  MISS:         18  HIT %:    90.2174  MISS %:    9.78261  MPKI: 0.00036
LLC LOAD DATA	ACCESS:      85500  HIT:      82405  MISS:       3095  HIT %:    96.3801  MISS %:    3.61988  MPKI: 0.0619
LLC RFO DATA	ACCESS:      57125  HIT:      44061  MISS:      13064  HIT %:    77.1309  MISS %:    22.8691  MPKI: 0.26128
LLC PREFETCH DATA	ACCESS:      80050  HIT:      70959  MISS:       9091  HIT %:    88.6433  MISS %:    11.3567  MPKI: 0.18182
LLC WRITEBACK DATA	ACCESS:      83189  HIT:      82939  MISS:        250  HIT %:    99.6995  MISS %:   0.300521  MPKI: 0.005
LLC LOAD TRANSLATION DATA	ACCESS:       1268  HIT:       1201  MISS:         67  HIT %:    94.7161  MISS %:    5.28391  MPKI: 0.00134
LLC TRANSLATION FROM L1D PREFETCHER DATA	ACCESS:         12  HIT:         12  MISS:          0  HIT %:        100  MISS %:          0  MPKI: 0

LLC AVERAGE MISS LATENCY: 155.886 cycles
LLC RQ	ACCESS:     407114	FORWARD:          0	MERGED:          0	TO_CACHE:     407111
LLC WQ	ACCESS:      83189	FORWARD:          3	MERGED:          0	TO_CACHE:      83189
LLC PQ	ACCESS:      80050	FORWARD:          0	MERGED:          0	TO_CACHE:      80050

LLC Dense regions hint to LLC: 0

RAW hits: 1953887
Loads Generated: 12629988
Loads sent to L1D: 10676101
Stores Generated: 6941893
Stores sent to L1D: 6941900
Major fault: 0 Minor fault: 2625
Allocated PAGES: 2625

stream: 
stream:times selected: 1183032
stream:pref_filled: 120371
stream:pref_useful: 23269
stream:pref_late: 6903
stream:misses: 7863
stream:misses_by_poll: 0

CS: 
CS:times selected: 176538
CS:pref_filled: 59337
CS:pref_useful: 36033
CS:pref_late: 7561
CS:misses: 16498
CS:misses_by_poll: 6

CPLX: 
CPLX:times selected: 1005409
CPLX:pref_filled: 19653
CPLX:pref_useful: 4713
CPLX:pref_late: 3236
CPLX:misses: 94293
CPLX:misses_by_poll: 0

NL_L1: 
NL:times selected: 20871
NL:pref_filled: 760
NL:pref_useful: 363
NL:pref_late: 276
NL:misses: 1788
NL:misses_by_poll: 0

total selections: 2385850
total_filled: 93415
total_useful: 33480
total_late: 19407
total_polluted: 6
total_misses_after_warmup: 772033
conflicts: 5510884

test: 116587

DRAM Statistics
 CHANNEL 0
 RQ ROW_BUFFER_HIT:       9670  ROW_BUFFER_MISS:      16341
 DBUS_CONGESTED:          5
 WQ ROW_BUFFER_HIT:       1266  ROW_BUFFER_MISS:      11510  FULL:          0

 AVG_CONGESTED_CYCLE: 4

CPU 0 Branch Prediction Accuracy: 99.831% MPKI: 0.30918 Average ROB Occupancy at Mispredict: 191.983
Branch types
NOT_BRANCH: 40853236 81.7065%
BRANCH_DIRECT_JUMP: 548143 1.09629%
BRANCH_INDIRECT: 182829 0.365658%
BRANCH_CONDITIONAL: 6181884 12.3638%
BRANCH_DIRECT_CALL: 944788 1.88958%
BRANCH_INDIRECT_CALL: 172168 0.344336%
BRANCH_RETURN: 1116956 2.23391%
BRANCH_OTHER: 0 0%

DRAM PAGES: 1048576
Allocated PAGES: 2625
Average_ROB_Occupancy: 269.708
Average_Decode_Occupancy: 44.5255
Average_FTQ_Occupancy: 18.1766
Indirect max targets: 14 Average targets: 1.17778
Branch_type:  BRANCH_DIRECT_JUMP:  Count Percentage: 2.90034 4.15039 4.87237 3.14877 8.35219 6.01524 7.41584 63.1449 
Branch_type:  BRANCH_INDIRECT:  Count Percentage: 11.7663 0.802757 2.54238 0 13.0165 2.80814 17.3601 51.7038 
Branch_type:  BRANCH_CONDITIONAL:  Count Percentage: 21.9378 1.74858 2.09562 2.6853 4.30817 4.13998 5.32325 57.7612 
Branch_type:  BRANCH_DIRECT_CALL:  Count Percentage: 0.38813 1.76777 1.14628 1.60448 5.6825 2.7301 4.30211 82.3786 
Branch_type:  BRANCH_INDIRECT_CALL:  Count Percentage: 9.51419 0 2.98247 6.39017 1.40651 2.02503 2.84237 74.8393 
Branch_type:  BRANCH_RETURN:  Count Percentage: 4.44136 1.87972 2.90267 3.31182 5.77045 4.19742 6.49407 71.0025 
Branch_type:  BRANCH_DIRECT_JUMP:  Total Count: 31768 45460 53368 34489 91483 65886 81227 691637 
Branch_type:  BRANCH_INDIRECT:  Total Count: 42990 2933 9289 0 47558 10260 63428 188908 
Branch_type:  BRANCH_CONDITIONAL:  Total Count: 2710464 216041 258918 331774 532283 511503 657698 7136515 
Branch_type:  BRANCH_DIRECT_CALL:  Total Count: 7328 33376 21642 30293 107287 51545 81225 1555330 
Branch_type:  BRANCH_INDIRECT_CALL:  Total Count: 32733 0 10261 21985 4839 6967 9779 257480 
Branch_type:  BRANCH_RETURN:  Total Count: 99173 41973 64815 73951 128851 93726 145009 1585446 
Number of unique branch instructions: 10774
Upper 32 bits: 
aaaa
ffff
ffff0000
Unique upper 32 bits: 3
Unique upper 36 bits: 3
Unique upper 40 bits: 5
Unique upper 44 bits: 32
Unique upper 48 bits: 158
Offset_3 4459
Offset_4 256
Offset_5 480
Offset_6 537
Offset_7 639
Offset_8 572
Offset_9 521
Offset_10 425
Offset_11 354
Offset_12 327
Offset_13 238
Offset_14 245
Offset_15 194
Offset_16 230
Offset_17 167
Offset_18 149
Offset_19 256
Offset_20 143
Offset_21 235
Offset_22 411
Offset_23 241
Offset_24 351
Offset_25 117
Offset_47 94
decode_dispatch_called: 27687668 78.8166
Dispatch_width: 0 15251156 55.0828 43.4144
Dispatch_width: 1 1077746 3.89251 3.06795
Dispatch_width: 2 837835 3.02602 2.38501
Dispatch_width: 3 492182 1.77762 1.40106
Dispatch_width: 4 7174013 25.9105 20.4218
Dispatch_width: 5 54429 0.196582 0.154939
Dispatch_width: 6 2800307 10.1139 7.97144
Empty_decode_cycles: 7441575 21.1834
ROB_full_cycles: 11707235 33.3262
Starvation_cycles_per_kilo_instr: 206.217
Starvation_cycles_per_kilo_instr_3: 133.933
Starvation_cycles_per_kilo_instr_0: 109.855
Branch_type_1  (3,1)  (4,9)  (5,39)  (6,72)  (7,125)  (8,146)  (9,136)  (10,111)  (11,79)  (12,55)  (13,11)  (14,2)  (15,3)  (16,4)  (18,1)  (19,5)  (20,2)  (21,1)  (22,3)  (23,2)  (24,10)  (25,12) 
Branch_type_2  (3,1)  (4,1)  (5,1)  (8,4)  (9,4)  (10,1)  (12,1)  (13,1)  (14,1)  (16,3)  (17,2)  (20,2)  (21,2)  (23,5)  (24,1)  (47,43) 
Branch_type_3  (3,4457)  (4,246)  (5,436)  (6,449)  (7,485)  (8,357)  (9,287)  (10,171)  (11,140)  (12,62)  (13,10) 
Branch_type_4  (6,3)  (7,8)  (8,24)  (9,56)  (10,67)  (11,69)  (12,117)  (13,101)  (14,111)  (15,92)  (16,101)  (17,78)  (18,65)  (19,124)  (20,73)  (21,124)  (22,216)  (23,136)  (24,206)  (25,101) 
Branch_type_5  (8,3)  (9,1)  (10,4)  (11,5)  (12,3)  (13,14)  (14,16)  (15,11)  (16,22)  (17,11)  (18,23)  (19,14)  (20,11)  (21,13)  (22,43)  (23,26)  (24,38) 
Branch_type_6  (5,4)  (6,13)  (7,21)  (8,38)  (9,37)  (10,71)  (11,61)  (12,89)  (13,101)  (14,115)  (15,88)  (16,100)  (17,76)  (18,60)  (19,113)  (20,55)  (21,95)  (22,149)  (23,72)  (24,96)  (25,4)  (47,51) 
Unique trigger count: 
BTB PER SET UNIQUE ADDR: 0 0 0 0 0 0 0 0 0 0 0 0 0 0 0 0 0 0 0 0 0 0 0 0 0 0 0 0 0 0 0 0 0 0 0 0 0 0 0 0 0 0 0 0 0 0 0 0 0 0 0 0 0 0 0 0 0 0 0 0 0 0 0 0 0 0 0 0 0 0 0 0 0 0 0 0 0 0 0 0 0 0 0 0 0 0 0 0 0 0 0 0 0 0 0 0 0 0 0 0 0 0 0 0 0 0 0 0 0 0 0 0 0 0 0 0 0 0 0 0 0 0 0 0 0 0 0 0 0 0 0 0 0 0 0 0 0 0 0 0 0 0 0 0 0 0 0 0 0 0 0 0 0 0 0 0 0 0 0 0 0 0 0 0 0 0 0 0 0 0 0 0 0 0 0 0 0 0 0 0 0 0 0 0 0 0 0 0 0 0 0 0 0 0 0 0 0 0 0 0 0 0 0 0 0 0 0 0 0 0 0 0 0 0 0 0 0 0 0 0 0 0 0 0 0 0 0 0 0 0 0 0 0 0 0 0 0 0 0 0 0 0 0 0 0 0 0 0 0 0 0 0 0 0 0 0 0 0 0 0 0 0 0 0 0 0 0 0 0 0 0 0 0 0 0 0 0 0 0 0 0 0 0 0 0 0 0 0 0 0 0 0 0 0 0 0 0 0 0 0 0 0 0 0 0 0 0 0 0 0 0 0 0 0 0 0 0 0 0 0 0 0 0 0 0 0 0 0 0 0 0 0 0 0 0 0 0 0 0 0 0 0 0 0 0 0 0 0 0 0 0 0 0 0 0 0 0 0 0 0 0 0 0 0 0 0 0 0 0 0 0 0 0 0 0 0 0 0 0 0 0 0 0 0 0 0 0 0 0 0 0 0 0 0 0 0 0 0 0 0 0 0 0 0 0 0 0 0 0 0 0 0 0 0 0 0 0 0 0 0 0 0 0 0 0 0 0 0 0 0 0 0 0 0 0 0 0 0 0 0 0 0 0 0 0 0 0 0 0 0 0 0 0 0 0 0 0 0 0 0 0 0 0 0 0 0 0 0 0 0 0 0 0 0 0 0 0 0 0 0 0 0 0 0 0 0 0 0 0 0 0 0 0 0 0 0 0 0 0 0 0 0 0 0 0 0 0 0 0 0 0 0 0 0 0 0 0 0 0 0 0 0 0 0 0 0 0 0 0 0 0 0 0 0 0 0 0 0 0 0 0 0 0 0 0 0 0 0 0 0 0 0 0 0 0 0 0 0 0 0 0 0 0 0 0 0 0 0 0 0 0 0 0 0 0 0 0 0 0 0 0 0 0 0 0 0 0 0 0 0 0 0 0 0 0 0 0 0 0 0 0 0 0 0 0 0 0 0 0 0 0 0 0 0 0 0 0 0 0 0 0 0 0 0 0 0 0 0 0 0 0 0 0 0 0 0 0 0 0 0 0 0 0 0 0 0 0 0 0 0 0 0 0 0 0 0 0 0 0 0 0 0 0 0 0 0 0 0 0 0 0 0 0 0 0 0 0 0 0 0 0 0 0 0 0 0 0 0 0 0 0 0 0 0 0 0 0 0 0 0 0 0 0 0 0 0 0 0 0 0 0 0 0 0 0 0 0 0 0 0 0 0 0 0 0 0 0 0 0 0 0 0 0 0 0 0 0 0 0 0 0 0 0 0 0 0 0 0 0 0 0 0 0 0 0 0 0 0 0 0 0 0 0 0 0 0 0 0 0 0 0 0 0 0 0 0 0 0 0 0 0 0 0 0 0 0 0 0 0 0 0 0 0 0 0 0 0 0 0 0 0 0 0 0 0 0 0 0 0 0 0 0 0 0 0 0 0 0 0 0 0 0 0 0 0 0 0 0 0 0 0 0 0 0 0 0 0 0 0 0 0 0 0 0 0 0 0 0 0 0 0 0 0 0 0 0 0 0 0 0 0 0 0 0 0 0 0 0 0 0 0 0 0 0 0 0 0 0 0 0 0 0 0 0 0 0 0 0 0 0 0 0 0 0 0 0 0 0 0 0 0 0 0 0 0 0 0 0 0 0 0 0 0 0 0 0 0 0 0 0 0 0 0 0 0 0 0 0 0 0 0 0 0 0 0 0 0 0 0 0 0 0 0 0 0 0 0 0 0 0 0 0 0 0 0 0 0 0 0 0 0 0 0 0 0 0 0 0 0 0 0 0 0 0 0 0 0 0 0 0 0 0 0 0 0 0 0 0 0 0 0 0 0 0 0 0 0 0 0 0 0 0 0 0 0 0 0 0 0 0 0 0 0 0 0 0 0 0 0 0 0 0 0 0 0 0 0 0 0 0 0 0 0 0 0 0 0 0 0 0 0 0 0 0 0 0 0 0 0 0 0 0 0 0 0 0 0 0 0 0 0 0 0 0 0 0 0 0 0 0 0 0 0 0 0 0 0 0 0 0 0 0 0 0 0 0 0 0 0 0 0 0 0 0 0 0 0 0 0 0 0 0 0 0 0 0 0 0 0 0 0 0 0 0 0 0 0 0 0 0 0 0 0 0 0 0 0 0 0 0 0 0 0 0 0 0 0 0 0 0 0 0 0 0 0 0 0 0 0 0 0 0 0 0 0 0 0 0 0 0 0 0 0 0 0 0 0 0 0 0 0 0 0 0 0 0 0 0 0 0 0 0 0 0 0 0 0 0 0 0 0 0 0 0 0 0 0 0 0 0 0 0 0 0 0 0 0 0 0 0 0 0 0 0 0 0 0 0 0 0 0 0 0 0 0 0 0 0 0 0 0 0 0 0 0 0 0 0 0 0 0 0 0 0 0 0 0 0 0 0 0 0 0 0 0 0 0 0 0 0 0 0 0 0 0 0 0 0 0 0 0 0 0 0 0 0 0 0 0 0 0 0 0 0 0 0 0 0 0 0 0 0 0 0 0 0 0 0 0 0 0 0 0 0 0 0 0 0 0 0 0 0 0 0 0 0 0 0 0 0 0 0 0 0 0 0 0 0 0 0 0 0 0 0 0 0 0 0 0 0 0 0 0 0 0 0 0 0 0 0 0 0 0 0 0 0 0 0 0 0 0 0 0 0 0 0 0 0 0 0 0 0 0 0 0 0 0 0 0 0 0 0 0 0 0 0 0 0 0 0 0 0 0 0 0 0 0 0 0 0 0 0 0 0 0 0 0 0 0 0 0 0 0 0 0 0 0 0 0 0 0 0 0 0 0 0 0 0 0 0 0 0 0 0 0 0 0 0 0 0 0 0 0 0 0 0 0 0 0 0 0 0 0 0 0 0 0 0 0 0 0 0 0 0 0 0 0 0 0 0 0 0 0 0 0 0 0 0 0 0 0 0 0 0 0 0 0 0 0 0 0 0 0 0 0 0 0 0 0 0 0 0 0 0 0 0 0 0 0 0 0 0 0 0 0 0 0 0 0 0 0 0 0 0 0 0 0 0 0 0 0 0 0 0 0 0 0 0 0 0 0 0 0 0 0 0 0 0 0 0 0 0 0 0 0 0 0 0 0 0 0 0 0 0 0 0 0 0 0 0 0 0 0 0 0 0 0 0 0 0 0 0 0 0 0 0 0 0 0 0 0 0 0 0 0 0 0 0 0 0 0 0 0 0 0 0 0 0 0 0 0 0 0 0 0 0 0 0 0 0 0 0 0 0 0 0 0 0 0 0 0 0 0 0 0 0 0 0 0 0 0 0 0 0 0 0 0 0 0 0 0 0 0 0 0 0 0 0 0 0 0 0 0 0 0 0 0 0 0 0 0 0 0 0 0 0 0 0 0 0 0 0 0 0 0 0 0 0 0 0 0 0 0 0 0 0 0 0 0 0 0 0 0 0 0 0 0 0 0 0 0 0 0 0 0 0 0 0 0 0 0 0 0 0 0 0 0 0 0 0 0 0 0 0 0 0 0 0 0 0 0 0 0 0 0 0 0 0 0 0 0 0 0 0 0 0 0 0 0 0 0 0 0 0 0 0 0 0 0 0 0 0 0 0 0 0 0 0 0 0 0 0 0 0 0 0 0 0 0 0 0 0 0 0 0 0 0 0 0 0 0 0 0 0 0 0 0 0 0 0 0 0 0 0 0 0 0 0 0 0 0 0 0 0 0 0 0 0 0 0 0 0 0 0 0 0 0 0 0 0 0 0 0 0 0 0 0 0 0 0 0 0 0 0 0 0 0 0 0 0 0 0 0 0 0 0 0 0 0 0 0 0 0 0 0 0 0 0 0 0 0 0 0 0 0 0 0 0 0 0 0 0 0 0 0 0 0 0 0 0 0 0 0 0 0 0 0 0 0 0 0 0 0 0 0 0 0 0 0 0 0 0 0 0 0 0 0 0 0 0 0 0 0 0 0 0 0 0 0 0 0 0 0 0 0 0 0 0 0 0 0 0 0 0 0 0 0 0 0 0 0 0 0 0 0 0 0 0 0 0 0 0 0 0 0 0 0 0 0 0 0 0 0 0 0 0 0 0 0 0 0 0 0 0 0 0 0 0 0 0 0 0 0 0 0 0 0 0 0 0 0 0 0 0 0 0 0 0 0 0 0 0 0 0 0 0 0 0 0 0 0 0 0 0 0 0 0 0 0 0 0 0 0 0 0 0 0 0 
BTB PER SET COUNT: 0 0 0 0 0 0 0 0 0 0 0 0 0 0 0 0 0 0 0 0 0 0 0 0 0 0 0 0 0 0 0 0 0 0 0 0 0 0 0 0 0 0 0 0 0 0 0 0 0 0 0 0 0 0 0 0 0 0 0 0 0 0 0 0 0 0 0 0 0 0 0 0 0 0 0 0 0 0 0 0 0 0 0 0 0 0 0 0 0 0 0 0 0 0 0 0 0 0 0 0 0 0 0 0 0 0 0 0 0 0 0 0 0 0 0 0 0 0 0 0 0 0 0 0 0 0 0 0 0 0 0 0 0 0 0 0 0 0 0 0 0 0 0 0 0 0 0 0 0 0 0 0 0 0 0 0 0 0 0 0 0 0 0 0 0 0 0 0 0 0 0 0 0 0 0 0 0 0 0 0 0 0 0 0 0 0 0 0 0 0 0 0 0 0 0 0 0 0 0 0 0 0 0 0 0 0 0 0 0 0 0 0 0 0 0 0 0 0 0 0 0 0 0 0 0 0 0 0 0 0 0 0 0 0 0 0 0 0 0 0 0 0 0 0 0 0 0 0 0 0 0 0 0 0 0 0 0 0 0 0 0 0 0 0 0 0 0 0 0 0 0 0 0 0 0 0 0 0 0 0 0 0 0 0 0 0 0 0 0 0 0 0 0 0 0 0 0 0 0 0 0 0 0 0 0 0 0 0 0 0 0 0 0 0 0 0 0 0 0 0 0 0 0 0 0 0 0 0 0 0 0 0 0 0 0 0 0 0 0 0 0 0 0 0 0 0 0 0 0 0 0 0 0 0 0 0 0 0 0 0 0 0 0 0 0 0 0 0 0 0 0 0 0 0 0 0 0 0 0 0 0 0 0 0 0 0 0 0 0 0 0 0 0 0 0 0 0 0 0 0 0 0 0 0 0 0 0 0 0 0 0 0 0 0 0 0 0 0 0 0 0 0 0 0 0 0 0 0 0 0 0 0 0 0 0 0 0 0 0 0 0 0 0 0 0 0 0 0 0 0 0 0 0 0 0 0 0 0 0 0 0 0 0 0 0 0 0 0 0 0 0 0 0 0 0 0 0 0 0 0 0 0 0 0 0 0 0 0 0 0 0 0 0 0 0 0 0 0 0 0 0 0 0 0 0 0 0 0 0 0 0 0 0 0 0 0 0 0 0 0 0 0 0 0 0 0 0 0 0 0 0 0 0 0 0 0 0 0 0 0 0 0 0 0 0 0 0 0 0 0 0 0 0 0 0 0 0 0 0 0 0 0 0 0 0 0 0 0 0 0 0 0 0 0 0 0 0 0 0 0 0 0 0 0 0 0 0 0 0 0 0 0 0 0 0 0 0 0 0 0 0 0 0 0 0 0 0 0 0 0 0 0 0 0 0 0 0 0 0 0 0 0 0 0 0 0 0 0 0 0 0 0 0 0 0 0 0 0 0 0 0 0 0 0 0 0 0 0 0 0 0 0 0 0 0 0 0 0 0 0 0 0 0 0 0 0 0 0 0 0 0 0 0 0 0 0 0 0 0 0 0 0 0 0 0 0 0 0 0 0 0 0 0 0 0 0 0 0 0 0 0 0 0 0 0 0 0 0 0 0 0 0 0 0 0 0 0 0 0 0 0 0 0 0 0 0 0 0 0 0 0 0 0 0 0 0 0 0 0 0 0 0 0 0 0 0 0 0 0 0 0 0 0 0 0 0 0 0 0 0 0 0 0 0 0 0 0 0 0 0 0 0 0 0 0 0 0 0 0 0 0 0 0 0 0 0 0 0 0 0 0 0 0 0 0 0 0 0 0 0 0 0 0 0 0 0 0 0 0 0 0 0 0 0 0 0 0 0 0 0 0 0 0 0 0 0 0 0 0 0 0 0 0 0 0 0 0 0 0 0 0 0 0 0 0 0 0 0 0 0 0 0 0 0 0 0 0 0 0 0 0 0 0 0 0 0 0 0 0 0 0 0 0 0 0 0 0 0 0 0 0 0 0 0 0 0 0 0 0 0 0 0 0 0 0 0 0 0 0 0 0 0 0 0 0 0 0 0 0 0 0 0 0 0 0 0 0 0 0 0 0 0 0 0 0 0 0 0 0 0 0 0 0 0 0 0 0 0 0 0 0 0 0 0 0 0 0 0 0 0 0 0 0 0 0 0 0 0 0 0 0 0 0 0 0 0 0 0 0 0 0 0 0 0 0 0 0 0 0 0 0 0 0 0 0 0 0 0 0 0 0 0 0 0 0 0 0 0 0 0 0 0 0 0 0 0 0 0 0 0 0 0 0 0 0 0 0 0 0 0 0 0 0 0 0 0 0 0 0 0 0 0 0 0 0 0 0 0 0 0 0 0 0 0 0 0 0 0 0 0 0 0 0 0 0 0 0 0 0 0 0 0 0 0 0 0 0 0 0 0 0 0 0 0 0 0 0 0 0 0 0 0 0 0 0 0 0 0 0 0 0 0 0 0 0 0 0 0 0 0 0 0 0 0 0 0 0 0 0 0 0 0 0 0 0 0 0 0 0 0 0 0 0 0 0 0 0 0 0 0 0 0 0 0 0 0 0 0 0 0 0 0 0 0 0 0 0 0 0 0 0 0 0 0 0 0 0 0 0 0 0 0 0 0 0 0 0 0 0 0 0 0 0 0 0 0 0 0 0 0 0 0 0 0 0 0 0 0 0 0 0 0 0 0 0 0 0 0 0 0 0 0 0 0 0 0 0 0 0 0 0 0 0 0 0 0 0 0 0 0 0 0 0 0 0 0 0 0 0 0 0 0 0 0 0 0 0 0 0 0 0 0 0 0 0 0 0 0 0 0 0 0 0 0 0 0 0 0 0 0 0 0 0 0 0 0 0 0 0 0 0 0 0 0 0 0 0 0 0 0 0 0 0 0 0 0 0 0 0 0 0 0 0 0 0 0 0 0 0 0 0 0 0 0 0 0 0 0 0 0 0 0 0 0 0 0 0 0 0 0 0 0 0 0 0 0 0 0 0 0 0 0 0 0 0 0 0 0 0 0 0 0 0 0 0 0 0 0 0 0 0 0 0 0 0 0 0 0 0 0 0 0 0 0 0 0 0 0 0 0 0 0 0 0 0 0 0 0 0 0 0 0 0 0 0 0 0 0 0 0 0 0 0 0 0 0 0 0 0 0 0 0 0 0 0 0 0 0 0 0 0 0 0 0 0 0 0 0 0 0 0 0 0 0 0 0 0 0 0 0 0 0 0 0 0 0 0 0 0 0 0 0 0 0 0 0 0 0 0 0 0 0 0 0 0 0 0 0 0 0 0 0 0 0 0 0 0 0 0 0 0 0 0 0 0 0 0 0 0 0 0 0 0 0 0 0 0 0 0 0 0 0 0 0 0 0 0 0 0 0 0 0 0 0 0 0 0 0 0 0 0 0 0 0 0 0 0 0 0 0 0 0 0 0 0 0 0 0 0 0 0 0 0 0 0 0 0 0 0 0 0 0 0 0 0 0 0 0 0 0 0 0 0 0 0 0 0 0 0 0 0 0 0 0 0 0 0 0 0 0 0 0 0 0 0 0 0 0 0 0 0 0 0 0 0 0 0 0 0 0 0 0 0 0 0 0 0 0 0 0 0 0 0 0 0 0 0 0 0 0 0 0 0 0 0 0 0 0 0 0 0 0 0 0 0 0 0 0 0 0 0 0 0 0 0 0 0 0 0 0 0 0 0 0 0 0 0 0 0 0 0 0 0 0 0 0 0 0 0 0 0 0 0 0 0 0 0 0 0 0 0 0 0 0 0 0 0 0 0 0 0 0 0 0 0 0 0 0 0 0 0 0 0 0 0 0 0 0 0 0 0 0 0 0 0 0 0 0 0 0 0 0 0 0 0 0 0 0 0 0 0 0 0 0 0 0 0 0 0 0 0 0 0 0 0 0 0 0 0 0 0 0 0 0 0 0 0 0 0 0 0 0 0 0 0 0 0 0 0 0 0 0 0 0 0 0 0 0 0 0 0 0 0 0 0 0 0 0 0 0 0 0 0 0 0 0 0 0 0 0 0 0 0 0 0 0 0 0 0 0 0 0 0 0 0 0 0 0 0 0 0 0 0 0 0 0 0 0 0 0 0 0 0 0 0 0 0 0 0 0 0 0 0 0 0 0 0 0 0 0 0 0 0 0 0 0 0 0 0 0 0 0 0 0 0 0 0 0 0 0 0 0 0 0 0 0 0 0 0 0 0 0 0 0 0 0 0 0 0 0 0 0 0 0 0 0 0 0 0 0 0 0 0 0 0 0 0 0 0 0 0 0 0 0 0 0 0 0 0 0 0 0 0 0 0 0 0 0 0 0 0 0 0 0 0 0 0 0 0 0 0 0 0 0 0 0 0 0 0 0 0 0 0 0 0 0 0 0 0 0 0 0 0 0 0 0 0 0 0 0 0 0 0 0 0 0 0 0 0 0 0 0 0 0 0 0 0 0 0 0 0 0 0 0 0 0 0 0 0 0 0 0 0 0 0 0 0 0 0 0 0 0 0 0 0 0 0 0 0 0 0 0 0 0 0 0 0 0 0 0 0 0 0 0 0 0 0 0 0 0 0 0 0 0 0 0 0 0 0 0 0 0 0 0 0 0 0 0 
