
*** ChampSim Multicore Out-of-Order Simulator ***

Warmup Instructions: 50000000
Simulation Instructions: 50000000
Number of CPUs: 1
LLC sets: 2048
LLC ways: 16
Off-chip DRAM Size: 4096 MB Channels: 1 Width: 64-bit Data Rate: 6400 MT/s
CPU 0 runs ./micro_traces/srv192.trace.gz
.gz
ITLB has LRU replacement policy
DTLB has LRU replacement policy
STLB has LRU replacement policy
FDIP Prefetcher at L1I
L1I has LRU replacement policy
L1D has LRU replacement policy
Initialize SRRIP state for L2C
Initialize DRRIP state for LLC
Heartbeat_Variant_0 : 1067 0.260498 per_variant_size: 0 1067 0 0 0 0 0 0 0 
Heartbeat_Variant_1 : 2290 0.559082 per_variant_size: 0 429 1861 0 0 0 0 0 0 
Heartbeat_Variant_2 : 0 0 per_variant_size: 0 0 0 0 0 0 0 0 0 
Heartbeat_Variant_3 : 0 0 per_variant_size: 0 0 0 0 0 0 0 0 0 
Heartbeat_Variant_0_evicts 0 : 21797 1 : 18388 2 : 0 3 : 0 
Heartbeat_Variant_1_evicts 0 : 18460 1 : 0 2 : 0 3 : 0 
Heartbeat_Variant_2_evicts 0 : 0 1 : 0 2 : 0 3 : 0 
Heartbeat_Variant_3_evicts 0 : 0 1 : 0 2 : 0 3 : 0 
Heartbeat CPU 0 instructions: 10000000 cycles: 2797784 heartbeat IPC: 3.57426 cumulative IPC: 3.57426 (Simulation time: 0 hr 2 min 10 sec) 
Heartbeat_Variant_0 : 1099 0.268311 per_variant_size: 0 1099 0 0 0 0 0 0 0 
Heartbeat_Variant_1 : 2322 0.566895 per_variant_size: 0 421 1901 0 0 0 0 0 0 
Heartbeat_Variant_2 : 0 0 per_variant_size: 0 0 0 0 0 0 0 0 0 
Heartbeat_Variant_3 : 0 0 per_variant_size: 0 0 0 0 0 0 0 0 0 
Heartbeat_Variant_0_evicts 0 : 22257 1 : 18793 2 : 0 3 : 0 
Heartbeat_Variant_1_evicts 0 : 18776 1 : 0 2 : 0 3 : 0 
Heartbeat_Variant_2_evicts 0 : 0 1 : 0 2 : 0 3 : 0 
Heartbeat_Variant_3_evicts 0 : 0 1 : 0 2 : 0 3 : 0 
Heartbeat CPU 0 instructions: 20000001 cycles: 5594099 heartbeat IPC: 3.57614 cumulative IPC: 3.5752 (Simulation time: 0 hr 4 min 24 sec) 
Heartbeat_Variant_0 : 1089 0.265869 per_variant_size: 0 1089 0 0 0 0 0 0 0 
Heartbeat_Variant_1 : 2334 0.569824 per_variant_size: 0 412 1922 0 0 0 0 0 0 
Heartbeat_Variant_2 : 0 0 per_variant_size: 0 0 0 0 0 0 0 0 0 
Heartbeat_Variant_3 : 0 0 per_variant_size: 0 0 0 0 0 0 0 0 0 
Heartbeat_Variant_0_evicts 0 : 22032 1 : 18557 2 : 0 3 : 0 
Heartbeat_Variant_1_evicts 0 : 18567 1 : 0 2 : 0 3 : 0 
Heartbeat_Variant_2_evicts 0 : 0 1 : 0 2 : 0 3 : 0 
Heartbeat_Variant_3_evicts 0 : 0 1 : 0 2 : 0 3 : 0 
Heartbeat CPU 0 instructions: 30000002 cycles: 8390169 heartbeat IPC: 3.57645 cumulative IPC: 3.57561 (Simulation time: 0 hr 6 min 37 sec) 
Heartbeat_Variant_0 : 1081 0.263916 per_variant_size: 0 1081 0 0 0 0 0 0 0 
Heartbeat_Variant_1 : 2343 0.572021 per_variant_size: 0 420 1923 0 0 0 0 0 0 
Heartbeat_Variant_2 : 0 0 per_variant_size: 0 0 0 0 0 0 0 0 0 
Heartbeat_Variant_3 : 0 0 per_variant_size: 0 0 0 0 0 0 0 0 0 
Heartbeat_Variant_0_evicts 0 : 21573 1 : 18073 2 : 0 3 : 0 
Heartbeat_Variant_1_evicts 0 : 18081 1 : 0 2 : 0 3 : 0 
Heartbeat_Variant_2_evicts 0 : 0 1 : 0 2 : 0 3 : 0 
Heartbeat_Variant_3_evicts 0 : 0 1 : 0 2 : 0 3 : 0 
Heartbeat CPU 0 instructions: 40000001 cycles: 11186586 heartbeat IPC: 3.576 cumulative IPC: 3.57571 (Simulation time: 0 hr 8 min 52 sec) 
Heartbeat_Variant_0 : 1094 0.26709 per_variant_size: 0 1094 0 0 0 0 0 0 0 
Heartbeat_Variant_1 : 2334 0.569824 per_variant_size: 0 425 1909 0 0 0 0 0 0 
Heartbeat_Variant_2 : 0 0 per_variant_size: 0 0 0 0 0 0 0 0 0 
Heartbeat_Variant_3 : 0 0 per_variant_size: 0 0 0 0 0 0 0 0 0 
Heartbeat_Variant_0_evicts 0 : 22029 1 : 18674 2 : 0 3 : 0 
Heartbeat_Variant_1_evicts 0 : 18661 1 : 0 2 : 0 3 : 0 
Heartbeat_Variant_2_evicts 0 : 0 1 : 0 2 : 0 3 : 0 
Heartbeat_Variant_3_evicts 0 : 0 1 : 0 2 : 0 3 : 0 
Heartbeat CPU 0 instructions: 50000002 cycles: 13982031 heartbeat IPC: 3.57725 cumulative IPC: 3.57602 (Simulation time: 0 hr 11 min 0 sec) 

Warmup complete CPU 0 instructions: 50000002 cycles: 13982031 (Simulation time: 0 hr 11 min 0 sec) 

Cycle: 20000000 FTQ IN: 56753112 FTQ occupancy: 18.2472 DECODE IN: 56753100 DECODE occupancy: 46.6532 ROB IN: 56753100 ROB occupancy: 281.488 ROB OUT: 56753087
Heartbeat_Variant_0 : 1125 0.274658 per_variant_size: 0 1125 0 0 0 0 0 0 0 
Heartbeat_Variant_1 : 2452 0.598633 per_variant_size: 0 445 2007 0 0 0 0 0 0 
Heartbeat_Variant_2 : 0 0 per_variant_size: 0 0 0 0 0 0 0 0 0 
Heartbeat_Variant_3 : 0 0 per_variant_size: 0 0 0 0 0 0 0 0 0 
Heartbeat_Variant_0_evicts 0 : 21924 1 : 18640 2 : 0 3 : 0 
Heartbeat_Variant_1_evicts 0 : 18646 1 : 0 2 : 0 3 : 0 
Heartbeat_Variant_2_evicts 0 : 0 1 : 0 2 : 0 3 : 0 
Heartbeat_Variant_3_evicts 0 : 0 1 : 0 2 : 0 3 : 0 
Heartbeat CPU 0 instructions: 60000000 cycles: 22989717 heartbeat IPC: 1.11016 cumulative IPC: 1.11016 (Simulation time: 0 hr 12 min 50 sec) 
Cycle: 30000000 FTQ IN: 11343268 FTQ occupancy: 7.09004 DECODE IN: 11343280 DECODE occupancy: 15.3893 ROB IN: 11343280 ROB occupancy: 128.386 ROB OUT: 11343120
Heartbeat_Variant_0 : 1136 0.277344 per_variant_size: 0 1136 0 0 0 0 0 0 0 
Heartbeat_Variant_1 : 2441 0.595947 per_variant_size: 0 443 1998 0 0 0 0 0 0 
Heartbeat_Variant_2 : 0 0 per_variant_size: 0 0 0 0 0 0 0 0 0 
Heartbeat_Variant_3 : 0 0 per_variant_size: 0 0 0 0 0 0 0 0 0 
Heartbeat_Variant_0_evicts 0 : 21377 1 : 17669 2 : 0 3 : 0 
Heartbeat_Variant_1_evicts 0 : 17658 1 : 0 2 : 0 3 : 0 
Heartbeat_Variant_2_evicts 0 : 0 1 : 0 2 : 0 3 : 0 
Heartbeat_Variant_3_evicts 0 : 0 1 : 0 2 : 0 3 : 0 
Heartbeat CPU 0 instructions: 70000002 cycles: 31654296 heartbeat IPC: 1.15412 cumulative IPC: 1.13172 (Simulation time: 0 hr 14 min 45 sec) 
Cycle: 40000000 FTQ IN: 11419580 FTQ occupancy: 6.95917 DECODE IN: 11419577 DECODE occupancy: 15.0995 ROB IN: 11419517 ROB occupancy: 125.418 ROB OUT: 11419617
Heartbeat_Variant_0 : 1143 0.279053 per_variant_size: 0 1143 0 0 0 0 0 0 0 
Heartbeat_Variant_1 : 2455 0.599365 per_variant_size: 0 432 2023 0 0 0 0 0 0 
Heartbeat_Variant_2 : 0 0 per_variant_size: 0 0 0 0 0 0 0 0 0 
Heartbeat_Variant_3 : 0 0 per_variant_size: 0 0 0 0 0 0 0 0 0 
Heartbeat_Variant_0_evicts 0 : 22218 1 : 18757 2 : 0 3 : 0 
Heartbeat_Variant_1_evicts 0 : 18753 1 : 0 2 : 0 3 : 0 
Heartbeat_Variant_2_evicts 0 : 0 1 : 0 2 : 0 3 : 0 
Heartbeat_Variant_3_evicts 0 : 0 1 : 0 2 : 0 3 : 0 
Heartbeat CPU 0 instructions: 80000001 cycles: 40422387 heartbeat IPC: 1.1405 cumulative IPC: 1.13463 (Simulation time: 0 hr 16 min 38 sec) 
Heartbeat_Variant_0 : 1147 0.280029 per_variant_size: 0 1147 0 0 0 0 0 0 0 
Heartbeat_Variant_1 : 2451 0.598389 per_variant_size: 0 418 2033 0 0 0 0 0 0 
Heartbeat_Variant_2 : 0 0 per_variant_size: 0 0 0 0 0 0 0 0 0 
Heartbeat_Variant_3 : 0 0 per_variant_size: 0 0 0 0 0 0 0 0 0 
Heartbeat_Variant_0_evicts 0 : 21727 1 : 18374 2 : 0 3 : 0 
Heartbeat_Variant_1_evicts 0 : 18370 1 : 0 2 : 0 3 : 0 
Heartbeat_Variant_2_evicts 0 : 0 1 : 0 2 : 0 3 : 0 
Heartbeat_Variant_3_evicts 0 : 0 1 : 0 2 : 0 3 : 0 
Heartbeat CPU 0 instructions: 90000002 cycles: 49276650 heartbeat IPC: 1.1294 cumulative IPC: 1.13332 (Simulation time: 0 hr 18 min 40 sec) 
Cycle: 50000000 FTQ IN: 11310090 FTQ occupancy: 7.20423 DECODE IN: 11310089 DECODE occupancy: 15.6246 ROB IN: 11310149 ROB occupancy: 127.526 ROB OUT: 11310162
Heartbeat_Variant_0 : 1131 0.276123 per_variant_size: 0 1131 0 0 0 0 0 0 0 
Heartbeat_Variant_1 : 2467 0.602295 per_variant_size: 0 441 2026 0 0 0 0 0 0 
Heartbeat_Variant_2 : 0 0 per_variant_size: 0 0 0 0 0 0 0 0 0 
Heartbeat_Variant_3 : 0 0 per_variant_size: 0 0 0 0 0 0 0 0 0 
Heartbeat_Variant_0_evicts 0 : 22085 1 : 18767 2 : 0 3 : 0 
Heartbeat_Variant_1_evicts 0 : 18783 1 : 0 2 : 0 3 : 0 
Heartbeat_Variant_2_evicts 0 : 0 1 : 0 2 : 0 3 : 0 
Heartbeat_Variant_3_evicts 0 : 0 1 : 0 2 : 0 3 : 0 
Heartbeat CPU 0 instructions: 100000001 cycles: 58056480 heartbeat IPC: 1.13897 cumulative IPC: 1.13444 (Simulation time: 0 hr 20 min 31 sec) 
Finished CPU 0 instructions: 50000003 cycles: 44074450 cumulative IPC: 1.13444 (Simulation time: 0 hr 20 min 31 sec) 

ChampSim completed all CPUs

Region of Interest Statistics

CPU 0 cumulative IPC: 1.13444 instructions: 50000003 cycles: 44074450
 Fetch stage stalled: 70.1658  Sim cycles: 44074450 fetch stall cycle: 30925182
 Empty decode stage: 58.6023  Sim cycles: 44074450 fetch stall cycle: 25828662
ITLB TOTAL     ACCESS:    5621372  HIT:    5126379  MISS:     494993  HIT %:    91.1944  MISS %:    8.80555   MPKI: 9.89986
ITLB LOAD TRANSLATION INSTRUCTION	ACCESS:    5518571  HIT:    5023578  MISS:     494993  HIT %:    91.0304  MISS %:    8.96959  MPKI: 9.89986
ITLB TRANSLATION FROM L1D PREFETCHER INSTRUCTION	ACCESS:     102801  HIT:     102801  MISS:          0  HIT %:        100  MISS %:          0  MPKI: 0

ITLB AVERAGE MISS LATENCY: 9.06234 cycles
ITLB RQ	ACCESS:    7469518	FORWARD:          0	MERGED:    1352529	TO_CACHE:    6116989

DTLB TOTAL     ACCESS:    9292890  HIT:    8823353  MISS:     469537  HIT %:    94.9474  MISS %:    5.05265   MPKI: 9.39074
DTLB LOAD TRANSLATION DATA	ACCESS:    9292890  HIT:    8823353  MISS:     469537  HIT %:    94.9474  MISS %:    5.05265  MPKI: 9.39074

DTLB AVERAGE MISS LATENCY: 9.34674 cycles
DTLB RQ	ACCESS:   13580905	FORWARD:          0	MERGED:    4253822	TO_CACHE:    9327083

STLB TOTAL     ACCESS:    1211140  HIT:    1209067  MISS:       2073  HIT %:    99.8288  MISS %:   0.171161   MPKI: 0.04146
STLB LOAD TRANSLATION INSTRUCTION	ACCESS:     494993  HIT:     494735  MISS:        258  HIT %:    99.9479  MISS %:  0.0521219  MPKI: 0.00516
STLB LOAD TRANSLATION DATA	ACCESS:     469498  HIT:     467716  MISS:       1782  HIT %:    99.6204  MISS %:   0.379554  MPKI: 0.03564
STLB TRANSLATION FROM L1D PREFETCHER DATA	ACCESS:     246649  HIT:     246616  MISS:         33  HIT %:    99.9866  MISS %:  0.0133793  MPKI: 0.00066

STLB AVERAGE MISS LATENCY: 80.1679 cycles
STLB RQ	ACCESS:    1331869	FORWARD:          0	MERGED:     120684	TO_CACHE:    1211185

STLB Hit, L1D data hit: 0
STLB Hit, L2C data hit: 0
STLB Hit, LLC data hit: 0
STLB Hit, LLC data miss: 0
STLB STLB hints to L2: 0
L1D TOTAL     ACCESS:   13341830  HIT:   12221899  MISS:    1119931  HIT %:    91.6059  MISS %:    8.39413   MPKI: 22.3986
L1D LOAD DATA	ACCESS:    6776497  HIT:    6036506  MISS:     739991  HIT %:      89.08  MISS %:      10.92  MPKI: 14.7998
L1D RFO DATA	ACCESS:    6238885  HIT:    5953143  MISS:     285742  HIT %:      95.42  MISS %:    4.58002  MPKI: 5.71484
L1D PREFETCH DATA	ACCESS:     326448  HIT:     232250  MISS:      94198  HIT %:    71.1446  MISS %:    28.8554  MPKI: 1.88396

L1D PREFETCH  REQUESTED:     734972  ISSUED:     734972  USEFUL:      34203  USELESS:      68137
L1D USEFUL LOAD PREFETCHES:      34203 PREFETCH ISSUED TO LOWER LEVEL:     102445  ACCURACY: 33.3867
 TIMELY PREFETCHES:      34203 LATE PREFETCHES: 8153 DROPPED PREFETCHES: 7
L1D AVERAGE MISS LATENCY: 258404 cycles
L1D RQ	ACCESS:   10857888	FORWARD:          0	MERGED:    3886229	TO_CACHE:    6807818
L1D WQ	ACCESS:    6949231	FORWARD:     164135	MERGED:     176144	TO_CACHE:    6773087
L1D PQ	ACCESS:     367633	FORWARD:          0	MERGED:          0	TO_CACHE:     367339

L1D UNIQUE REGIONS ACCESSED: 0
L1D REGIONS CONFLICTS: 0
L1D Cross Page Prefetch Requests: 6935
L1D Same Page Prefetch Requests: 745226
L1D ROI Sum of L1D PQ occupancy: 4675072
L1D PREFETCHES PUSHED FROM L2C: 0
L1I TOTAL     ACCESS:    6951626  HIT:    4183600  MISS:    2768026  HIT %:    60.1816  MISS %:    39.8184   MPKI: 55.3605
L1I LOAD INSTRUCTION	ACCESS:    6458443  HIT:    3690417  MISS:    2768026  HIT %:     57.141  MISS %:     42.859  MPKI: 55.3605
L1I PREFETCH INSTRUCTION	ACCESS:     493183  HIT:     493183  MISS:          0  HIT %:        100  MISS %:          0  MPKI: 0

L1I PREFETCH  REQUESTED:    1107749  ISSUED:    1107749  USEFUL:          0  USELESS:          0
L1I USEFUL LOAD PREFETCHES:          0 PREFETCH ISSUED TO LOWER LEVEL:          0  ACCURACY: -nan
 TIMELY PREFETCHES:          0 LATE PREFETCHES: 0 DROPPED PREFETCHES: 0
L1I AVERAGE MISS LATENCY: 17.5817 cycles
L1I RQ	ACCESS:    9457735	FORWARD:          0	MERGED:    2779566	TO_CACHE:    6678169
L1I PQ	ACCESS:    1107749	FORWARD:          0	MERGED:     316400	TO_CACHE:     791349

L1BTB TOTAL     ACCESS:    5669854  HIT:    2035115  MISS:    3634739  HIT %:    35.8936  MISS %:    64.1064   MPKI: 72.6948
L1BTB BRANCH_DIRECT_JUMP	ACCESS:     548317 HIT:     144314 MISS:     404003 AVERAGE STALL: 37.0742 AVERAGE FETCH STALL: 19.5253 AVERAGE FETCH QUEUE STALL: 8.70489 AVERAGE DECODE STALL: 8.04184 AVERAGE EXECUTE STALL: 4.04259e+14
L1BTB BRANCH_INDIRECT	ACCESS:     182414 HIT:      65643 MISS:     116771 AVERAGE STALL: 94.7447 AVERAGE FETCH STALL: 15.9335 AVERAGE FETCH QUEUE STALL: 7.97055 AVERAGE DECODE STALL: 7.30358 AVERAGE EXECUTE STALL: 62.5959
L1BTB BRANCH_CONDITIONAL	ACCESS:    2700543 HIT:    1405897 MISS:    1294646 AVERAGE STALL: 37.824 AVERAGE FETCH STALL: 22.8739 AVERAGE FETCH QUEUE STALL: 7.08779 AVERAGE DECODE STALL: 7.11023 AVERAGE EXECUTE STALL: 1.61886e+14
L1BTB BRANCH_DIRECT_CALL	ACCESS:     946962 HIT:     106414 MISS:     840548 AVERAGE STALL: 38.8873 AVERAGE FETCH STALL: 22.1466 AVERAGE FETCH QUEUE STALL: 8.16759 AVERAGE DECODE STALL: 7.80804 AVERAGE EXECUTE STALL: 1.07965e+14
L1BTB BRANCH_INDIRECT_CALL	ACCESS:     172330 HIT:      21720 MISS:     150610 AVERAGE STALL: 114.861 AVERAGE FETCH STALL: 18.4075 AVERAGE FETCH QUEUE STALL: 7.07732 AVERAGE DECODE STALL: 7.18405 AVERAGE EXECUTE STALL: 81.6639
L1BTB BRANCH_RETURN	ACCESS:    1119288 HIT:     291127 MISS:     828161 AVERAGE STALL: 36.8273 AVERAGE FETCH STALL: 18.2268 AVERAGE FETCH QUEUE STALL: 5.55711 AVERAGE DECODE STALL: 6.09922 AVERAGE EXECUTE STALL: 1.92903e+14
L1BTB BRANCH_OTHER ACCESS:          0 HIT:          0 MISS:          0 AVERAGE STALL: -nan AVERAGE FETCH STALL: -nan AVERAGE FETCH QUEUE STALL: -nan AVERAGE DECODE STALL: -nan AVERAGE EXECUTE STALL: -nan
L1BTB TOTAL ROB OCCUPANCY AT BTB MISS: 13.6292

L2BTB TOTAL     ACCESS:    3609418  HIT:    3146018  MISS:     463400  HIT %:    87.1614  MISS %:    12.8386   MPKI: 9.268
L2BTB BRANCH_DIRECT_JUMP	ACCESS:     399907 HIT:     358312 MISS:      41595 AVERAGE STALL: 37.0742 AVERAGE FETCH STALL: 19.5253 AVERAGE FETCH QUEUE STALL: 8.70489 AVERAGE DECODE STALL: 8.04184 AVERAGE EXECUTE STALL: 4.04259e+14
L2BTB BRANCH_INDIRECT	ACCESS:     106446 HIT:      97105 MISS:       9341 AVERAGE STALL: 94.7447 AVERAGE FETCH STALL: 15.9335 AVERAGE FETCH QUEUE STALL: 7.97055 AVERAGE DECODE STALL: 7.30358 AVERAGE EXECUTE STALL: 62.5959
L2BTB BRANCH_CONDITIONAL	ACCESS:    1294646 HIT:    1180149 MISS:     114497 AVERAGE STALL: 37.824 AVERAGE FETCH STALL: 22.8739 AVERAGE FETCH QUEUE STALL: 7.08779 AVERAGE DECODE STALL: 7.11023 AVERAGE EXECUTE STALL: 1.61886e+14
L2BTB BRANCH_DIRECT_CALL	ACCESS:     840548 HIT:     669581 MISS:     170967 AVERAGE STALL: 38.8873 AVERAGE FETCH STALL: 22.1466 AVERAGE FETCH QUEUE STALL: 8.16759 AVERAGE DECODE STALL: 7.80804 AVERAGE EXECUTE STALL: 1.07965e+14
L2BTB BRANCH_INDIRECT_CALL	ACCESS:     141124 HIT:     108398 MISS:      32726 AVERAGE STALL: 114.861 AVERAGE FETCH STALL: 18.4075 AVERAGE FETCH QUEUE STALL: 7.07732 AVERAGE DECODE STALL: 7.18405 AVERAGE EXECUTE STALL: 81.6639
L2BTB BRANCH_RETURN	ACCESS:     826747 HIT:     732473 MISS:      94274 AVERAGE STALL: 36.8273 AVERAGE FETCH STALL: 18.2268 AVERAGE FETCH QUEUE STALL: 5.55711 AVERAGE DECODE STALL: 6.09922 AVERAGE EXECUTE STALL: 1.92903e+14
L2BTB BRANCH_OTHER ACCESS:          0 HIT:          0 MISS:          0 AVERAGE STALL: -nan AVERAGE FETCH STALL: -nan AVERAGE FETCH QUEUE STALL: -nan AVERAGE DECODE STALL: -nan AVERAGE EXECUTE STALL: -nan
L2BTB TOTAL ROB OCCUPANCY AT BTB MISS: 106.902

L2C TOTAL     ACCESS:    4497880  HIT:    3978735  MISS:     519145  HIT %:     88.458  MISS %:     11.542   MPKI: 10.3829
L2C LOAD INSTRUCTION	ACCESS:    2768026  HIT:    2478697  MISS:     289329  HIT %:    89.5475  MISS %:    10.4525  MPKI: 5.78658
L2C LOAD TRANSLATION INSTRUCTION	ACCESS:        294  HIT:         83  MISS:        211  HIT %:    28.2313  MISS %:    71.7687  MPKI: 0.00422
L2C LOAD DATA	ACCESS:     731812  HIT:     654537  MISS:      77275  HIT %:    89.4406  MISS %:    10.5594  MPKI: 1.5455
L2C RFO DATA	ACCESS:     285634  HIT:     226283  MISS:      59351  HIT %:    79.2213  MISS %:    20.7787  MPKI: 1.18702
L2C PREFETCH DATA	ACCESS:     187561  HIT:     116201  MISS:      71360  HIT %:    61.9537  MISS %:    38.0463  MPKI: 1.4272
L2C WRITEBACK DATA	ACCESS:     522641  HIT:     502409  MISS:      20232  HIT %:    96.1289  MISS %:    3.87111  MPKI: 0.40464
L2C LOAD TRANSLATION DATA	ACCESS:       1856  HIT:        485  MISS:       1371  HIT %:    26.1315  MISS %:    73.8685  MPKI: 0.02742
L2C TRANSLATION FROM L1D PREFETCHER DATA	ACCESS:         56  HIT:         40  MISS:         16  HIT %:    71.4286  MISS %:    28.5714  MPKI: 0.00032

L2C PREFETCH  REQUESTED:      92108  ISSUED:      92108  USEFUL:       7527  USELESS:      64129
L2C USEFUL LOAD PREFETCHES:       7527 PREFETCH ISSUED TO LOWER LEVEL:      71643  ACCURACY: 10.5063
 TIMELY PREFETCHES:       7527 LATE PREFETCHES: 283 DROPPED PREFETCHES: 0
L2C AVERAGE MISS LATENCY: 37.688 cycles
L2C RQ	ACCESS:    3787719	FORWARD:          0	MERGED:          0	TO_CACHE:    3787679
L2C WQ	ACCESS:     522641	FORWARD:         40	MERGED:          0	TO_CACHE:     522641
L2C PQ	ACCESS:     194553	FORWARD:          0	MERGED:       3135	TO_CACHE:     191418

L2C Dense regions hint from L2: 0
PSCL5 TOTAL     ACCESS:       4172  HIT:       2086  MISS:       2086  HIT %:         50  MISS %:         50   MPKI: 0.04172
PSCL5 LOAD TRANSLATION INSTRUCTION	ACCESS:       4060  HIT:       2030  MISS:       2030  HIT %:         50  MISS %:         50  MPKI: 0.0406
PSCL5 TRANSLATION FROM L1D PREFETCHER INSTRUCTION	ACCESS:        112  HIT:         56  MISS:         56  HIT %:         50  MISS %:         50  MPKI: 0.00112


PSCL4 TOTAL     ACCESS:       3902  HIT:       1948  MISS:       1954  HIT %:    49.9231  MISS %:    50.0769   MPKI: 0.03908
PSCL4 LOAD TRANSLATION INSTRUCTION	ACCESS:       2873  HIT:       1896  MISS:        977  HIT %:    65.9937  MISS %:    34.0063  MPKI: 0.01954
PSCL4 TRANSLATION FROM L1D PREFETCHER INSTRUCTION	ACCESS:         80  HIT:         52  MISS:         28  HIT %:         65  MISS %:         35  MPKI: 0.00056
PSCL4 LOAD TRANSLATION DATA	ACCESS:        925  HIT:          0  MISS:        925  HIT %:          0  MISS %:        100  MPKI: 0.0185
PSCL4 TRANSLATION FROM L1D PREFETCHER DATA	ACCESS:         24  HIT:          0  MISS:         24  HIT %:          0  MISS %:        100  MPKI: 0.00048


PSCL3 TOTAL     ACCESS:       3948  HIT:       1971  MISS:       1977  HIT %:     49.924  MISS %:     50.076   MPKI: 0.03954
PSCL3 LOAD TRANSLATION INSTRUCTION	ACCESS:       2896  HIT:       1919  MISS:        977  HIT %:    66.2638  MISS %:    33.7362  MPKI: 0.01954
PSCL3 TRANSLATION FROM L1D PREFETCHER INSTRUCTION	ACCESS:         80  HIT:         52  MISS:         28  HIT %:         65  MISS %:         35  MPKI: 0.00056
PSCL3 LOAD TRANSLATION DATA	ACCESS:        948  HIT:          0  MISS:        948  HIT %:          0  MISS %:        100  MPKI: 0.01896
PSCL3 TRANSLATION FROM L1D PREFETCHER DATA	ACCESS:         24  HIT:          0  MISS:         24  HIT %:          0  MISS %:        100  MPKI: 0.00048


PSCL2 TOTAL     ACCESS:       4059  HIT:       1973  MISS:       2086  HIT %:     48.608  MISS %:     51.392   MPKI: 0.04172
PSCL2 LOAD TRANSLATION INSTRUCTION	ACCESS:       2180  HIT:       1917  MISS:        263  HIT %:    87.9358  MISS %:    12.0642  MPKI: 0.00526
PSCL2 TRANSLATION FROM L1D PREFETCHER INSTRUCTION	ACCESS:         56  HIT:         56  MISS:          0  HIT %:        100  MISS %:          0  MPKI: 0
PSCL2 LOAD TRANSLATION DATA	ACCESS:       1767  HIT:          0  MISS:       1767  HIT %:          0  MISS %:        100  MPKI: 0.03534
PSCL2 TRANSLATION FROM L1D PREFETCHER DATA	ACCESS:         56  HIT:          0  MISS:         56  HIT %:          0  MISS %:        100  MPKI: 0.00112


LLC TOTAL     ACCESS:     581094  HIT:     552205  MISS:      28889  HIT %:    95.0285  MISS %:    4.97148   MPKI: 0.57778
LLC LOAD INSTRUCTION	ACCESS:     289329  HIT:     288144  MISS:       1185  HIT %:    99.5904  MISS %:   0.409568  MPKI: 0.0237
LLC LOAD TRANSLATION INSTRUCTION	ACCESS:        211  HIT:        152  MISS:         59  HIT %:    72.0379  MISS %:    27.9621  MPKI: 0.00118
LLC LOAD DATA	ACCESS:      76989  HIT:      73403  MISS:       3586  HIT %:    95.3422  MISS %:    4.65781  MPKI: 0.07172
LLC RFO DATA	ACCESS:      59341  HIT:      45686  MISS:      13655  HIT %:    76.9889  MISS %:    23.0111  MPKI: 0.2731
LLC PREFETCH DATA	ACCESS:      71642  HIT:      61723  MISS:       9919  HIT %:    86.1548  MISS %:    13.8452  MPKI: 0.19838
LLC WRITEBACK DATA	ACCESS:      82195  HIT:      81821  MISS:        374  HIT %:     99.545  MISS %:   0.455016  MPKI: 0.00748
LLC LOAD TRANSLATION DATA	ACCESS:       1371  HIT:       1261  MISS:        110  HIT %:    91.9767  MISS %:    8.02334  MPKI: 0.0022
LLC TRANSLATION FROM L1D PREFETCHER DATA	ACCESS:         16  HIT:         15  MISS:          1  HIT %:      93.75  MISS %:       6.25  MPKI: 2e-05

LLC AVERAGE MISS LATENCY: 157.967 cycles
LLC RQ	ACCESS:     427271	FORWARD:          0	MERGED:          0	TO_CACHE:     427258
LLC WQ	ACCESS:      82195	FORWARD:         14	MERGED:          0	TO_CACHE:      82195
LLC PQ	ACCESS:      71643	FORWARD:          0	MERGED:          0	TO_CACHE:      71642

LLC Dense regions hint to LLC: 0

RAW hits: 1773795
Loads Generated: 12631682
Loads sent to L1D: 10857888
Stores Generated: 6949229
Stores sent to L1D: 6949231
Major fault: 0 Minor fault: 2596
Allocated PAGES: 2596

stream: 
stream:times selected: 1177603
stream:pref_filled: 121894
stream:pref_useful: 24569
stream:pref_late: 7121
stream:misses: 8134
stream:misses_by_poll: 0

CS: 
CS:times selected: 174441
CS:pref_filled: 59244
CS:pref_useful: 35950
CS:pref_late: 6849
CS:misses: 15792
CS:misses_by_poll: 3

CPLX: 
CPLX:times selected: 1002036
CPLX:pref_filled: 19710
CPLX:pref_useful: 4554
CPLX:pref_late: 3196
CPLX:misses: 94424
CPLX:misses_by_poll: 0

NL_L1: 
NL:times selected: 21622
NL:pref_filled: 716
NL:pref_useful: 307
NL:pref_late: 353
NL:misses: 1792
NL:misses_by_poll: 0

total selections: 2375702
total_filled: 94198
total_useful: 34203
total_late: 18875
total_polluted: 3
total_misses_after_warmup: 771315
conflicts: 5634617

test: 114314

DRAM Statistics
 CHANNEL 0
 RQ ROW_BUFFER_HIT:      10582  ROW_BUFFER_MISS:      17929
 DBUS_CONGESTED:         10
 WQ ROW_BUFFER_HIT:       1513  ROW_BUFFER_MISS:      12017  FULL:          0

 AVG_CONGESTED_CYCLE: 6

CPU 0 Branch Prediction Accuracy: 99.8107% MPKI: 0.3463 Average ROB Occupancy at Mispredict: 130.026
Branch types
NOT_BRANCH: 40850849 81.7017%
BRANCH_DIRECT_JUMP: 548317 1.09663%
BRANCH_INDIRECT: 182414 0.364828%
BRANCH_CONDITIONAL: 6179555 12.3591%
BRANCH_DIRECT_CALL: 946962 1.89392%
BRANCH_INDIRECT_CALL: 172330 0.34466%
BRANCH_RETURN: 1119288 2.23858%
BRANCH_OTHER: 0 0%

DRAM PAGES: 1048576
Allocated PAGES: 2596
Average_ROB_Occupancy: 127.494
Average_Decode_Occupancy: 15.3301
Average_FTQ_Occupancy: 7.07733
Indirect max targets: 14 Average targets: 1.17949
Branch_type:  BRANCH_DIRECT_JUMP:  Count Percentage: 3.23343 6.23306 3.41642 5.7858 4.68841 5.96085 0.92626 69.7558 
Branch_type:  BRANCH_INDIRECT:  Count Percentage: 11.7558 3.40709 2.50286 9.68466 11.3362 4.0163 2.01527 55.2818 
Branch_type:  BRANCH_CONDITIONAL:  Count Percentage: 20.964 3.81136 1.17722 4.19444 3.2944 4.35092 0.695035 61.5126 
Branch_type:  BRANCH_DIRECT_CALL:  Count Percentage: 0.769626 1.27911 1.11835 3.35525 3.18152 2.3497 0.699501 87.2469 
Branch_type:  BRANCH_INDIRECT_CALL:  Count Percentage: 9.55496 0.559713 2.9957 4.83883 1.09791 2.98989 0.995563 76.9674 
Branch_type:  BRANCH_RETURN:  Count Percentage: 5.64004 0.829496 1.62737 6.04179 3.84413 4.62107 1.13061 76.2655 
Branch_type:  BRANCH_DIRECT_JUMP:  Total Count: 35446 68329 37452 63426 51396 65345 10154 764688 
Branch_type:  BRANCH_INDIRECT:  Total Count: 42916 12438 9137 35355 41384 14662 7357 201813 
Branch_type:  BRANCH_CONDITIONAL:  Total Count: 2590387 470945 145461 518280 407068 537615 85881 7600723 
Branch_type:  BRANCH_DIRECT_CALL:  Total Count: 14553 24187 21147 63445 60160 44431 13227 1649769 
Branch_type:  BRANCH_INDIRECT_CALL:  Total Count: 32862 1925 10303 16642 3776 10283 3424 264711 
Branch_type:  BRANCH_RETURN:  Total Count: 126094 18545 36383 135076 85943 103313 25277 1705063 
Number of unique branch instructions: 10649
Upper 32 bits: 
aaaa
ffff
ffff0000
Unique upper 32 bits: 3
Unique upper 36 bits: 3
Unique upper 40 bits: 5
Unique upper 44 bits: 32
Unique upper 48 bits: 157
Variant_0 : 1131 0.276123
Variant_1 : 2467 0.602295
Variant_2 : 0 0
Variant_3 : 0 0
Offset_3 4410
Offset_4 251
Offset_5 474
Offset_6 534
Offset_7 629
Offset_8 564
Offset_9 513
Offset_10 418
Offset_11 353
Offset_12 322
Offset_13 232
Offset_14 245
Offset_15 194
Offset_16 227
Offset_17 164
Offset_18 149
Offset_19 251
Offset_20 140
Offset_21 235
Offset_22 410
Offset_23 241
Offset_24 341
Offset_25 117
Offset_47 92
decode_dispatch_called: 19960246 45.2876
Dispatch_width: 0 9896529 49.5812 22.4541
Dispatch_width: 1 560654 2.80885 1.27206
Dispatch_width: 2 648887 3.2509 1.47225
Dispatch_width: 3 409256 2.05036 0.928556
Dispatch_width: 4 1728002 8.65722 3.92064
Dispatch_width: 5 299870 1.50234 0.680372
Dispatch_width: 6 6417048 32.1491 14.5596
Empty_decode_cycles: 24114204 54.7124
ROB_full_cycles: 2539340 5.76148
Starvation_cycles_per_kilo_instr: 351.181
Starvation_cycles_per_kilo_instr_3: 330.902
Starvation_cycles_per_kilo_instr_0: 314.714
Branch_type_1  (3,1)  (4,7)  (5,38)  (6,73)  (7,123)  (8,147)  (9,137)  (10,111)  (11,79)  (12,55)  (13,11)  (14,2)  (15,3)  (16,4)  (18,1)  (19,5)  (20,2)  (21,1)  (22,3)  (23,2)  (24,10)  (25,12) 
Branch_type_2  (3,1)  (4,1)  (5,1)  (8,4)  (9,4)  (10,1)  (12,1)  (13,1)  (14,1)  (16,3)  (17,2)  (20,2)  (21,2)  (23,5)  (24,1)  (47,41) 
Branch_type_3  (3,4408)  (4,243)  (5,431)  (6,445)  (7,477)  (8,350)  (9,280)  (10,167)  (11,138)  (12,62)  (13,10) 
Branch_type_4  (6,3)  (7,8)  (8,25)  (9,53)  (10,66)  (11,70)  (12,113)  (13,98)  (14,111)  (15,92)  (16,99)  (17,76)  (18,65)  (19,122)  (20,71)  (21,124)  (22,216)  (23,136)  (24,197)  (25,101) 
Branch_type_5  (8,3)  (9,1)  (10,4)  (11,5)  (12,3)  (13,14)  (14,16)  (15,11)  (16,22)  (17,11)  (18,23)  (19,14)  (20,11)  (21,13)  (22,43)  (23,26)  (24,37) 
Branch_type_6  (5,4)  (6,13)  (7,21)  (8,35)  (9,38)  (10,69)  (11,61)  (12,88)  (13,98)  (14,115)  (15,88)  (16,99)  (17,75)  (18,60)  (19,110)  (20,54)  (21,95)  (22,148)  (23,72)  (24,96)  (25,4)  (47,51) 
Unique trigger count: 
Variant_0_evicts_0 : 0
Variant_0_evicts_1 : 0
Variant_0_evicts_2 : 0
Variant_0_evicts_3 : 0
Variant_1_evicts_0 : 0
Variant_1_evicts_1 : 0
Variant_1_evicts_2 : 0
Variant_1_evicts_3 : 0
Variant_2_evicts_0 : 0
Variant_2_evicts_1 : 0
Variant_2_evicts_2 : 0
Variant_2_evicts_3 : 0
Variant_3_evicts_0 : 0
Variant_3_evicts_1 : 0
Variant_3_evicts_2 : 0
Variant_3_evicts_3 : 0
BTB PER SET UNIQUE ADDR: 6 7 6 5 3 4 7 9 10 2 5 2 8 5 4 4 6 4 8 9 5 8 7 8 8 11 1 7 6 6 10 10 6 5 8 4 4 7 6 3 8 5 6 10 9 8 5 12 11 6 5 3 13 2 2 7 5 5 9 8 4 12 4 8 5 9 9 9 6 7 6 2 6 5 6 7 6 15 6 5 8 6 7 6 6 7 7 9 8 10 10 9 9 6 8 5 10 8 5 5 8 7 9 9 6 8 7 8 7 5 7 7 4 8 5 11 3 8 6 2 8 9 4 3 6 4 4 7 11 8 11 3 12 6 9 6 5 3 6 8 8 8 7 6 5 11 5 8 12 8 7 14 6 10 7 9 8 9 6 11 11 8 11 5 12 8 3 4 13 7 6 4 8 7 4 3 6 8 10 5 6 7 10 8 9 12 6 6 6 8 6 8 6 7 6 10 11 4 11 6 4 6 8 4 8 4 5 8 7 2 3 6 9 9 7 6 4 9 7 6 6 4 6 7 6 8 13 7 3 11 13 9 4 5 7 9 11 5 4 5 4 3 10 8 17 11 1 7 6 7 9 10 6 7 5 12 4 8 11 6 8 5 7 4 9 16 6 5 7 5 7 7 4 8 9 8 7 3 4 8 9 5 9 5 9 9 6 7 8 4 5 7 4 10 7 3 5 10 6 6 6 6 5 4 6 4 6 4 12 9 6 4 8 4 6 5 9 13 6 5 7 11 5 8 5 6 6 10 3 1 9 2 5 7 9 4 7 8 8 1 6 6 2 9 7 7 3 7 10 6 5 13 11 6 8 7 7 2 8 5 7 10 6 8 11 8 4 4 4 4 8 4 6 5 8 4 11 7 6 10 9 7 6 12 6 4 8 5 8 4 9 5 8 4 7 4 5 5 2 8 7 5 7 7 5 6 8 5 4 3 5 3 11 7 2 6 9 4 2 7 2 6 7 7 10 8 4 2 4 8 3 4 15 5 8 10 6 6 7 4 5 6 10 3 7 9 6 6 5 4 6 3 4 3 9 3 5 7 9 6 5 4 7 11 5 5 11 3 6 7 2 6 10 7 4 3 10 5 3 3 5 2 3 4 3 7 8 3 7 2 13 4 4 8 1 11 4 7 5 4 11 3 5 3 2 5 5 3 4 6 8 4 8 11 3 4 2 10 6 9 7 4 8 6 11 9 6 9 9 8 7 6 6 8 5 6 7 1 6 4 5 8 11 4 9 5 10 14 14 11 7 9 7 8 2 6 9 3 7 4 10 5 9 5 5 6 10 9 11 7 7 4 11 11 6 7 6 12 3 9 13 5 2 6 5 3 3 15 7 5 8 8 4 7 5 5 9 5 6 5 13 5 11 11 8 5 4 9 8 5 8 8 7 7 8 5 7 5 5 7 8 6 11 4 5 10 8 8 4 6 8 7 7 7 7 8 6 7 6 4 11 8 4 6 3 3 7 8 8 8 7 5 10 3 5 4 11 5 6 8 12 3 6 11 7 7 7 6 6 10 7 8 6 7 11 9 8 6 8 6 9 11 9 6 8 8 6 9 7 6 3 8 3 5 5 7 10 7 7 9 3 12 6 5 7 12 3 4 5 5 7 8 6 5 5 7 11 6 1 8 5 3 5 4 4 3 3 9 2 11 8 11 8 2 7 8 10 3 6 4 5 8 5 10 4 5 6 4 7 7 6 3 4 7 2 5 5 10 9 4 5 6 6 7 7 6 14 6 6 3 9 6 0 5 7 5 6 10 4 3 9 6 4 6 10 9 9 8 3 9 3 9 6 7 6 13 12 5 6 4 13 4 8 4 7 7 7 9 5 7 3 4 6 5 5 6 1 5 5 10 7 4 9 4 5 5 6 4 7 6 7 3 7 4 10 6 4 5 6 5 5 5 6 6 5 7 9 6 6 4 8 8 6 9 6 10 8 5 7 6 7 7 4 4 12 7 6 8 10 10 4 7 6 9 7 2 2 6 7 4 3 7 6 7 10 5 7 5 5 7 9 3 4 7 5 3 8 12 4 3 12 8 4 6 9 7 7 11 6 8 9 7 5 4 3 10 6 7 8 6 9 7 8 6 9 8 6 5 5 13 6 4 11 10 6 8 10 10 3 9 8 9 6 4 6 8 9 7 9 6 9 3 13 7 5 6 9 13 6 9 6 6 10 5 3 9 10 9 10 5 3 5 3 9 12 6 8 5 4 7 13 6 4 5 5 7 4 5 9 8 8 7 7 11 4 11 6 11 5 6 5 5 5 4 7 6 7 6 7 6 9 4 9 6 11 4 9 5 3 8 11 6 14 5 
BTB PER SET COUNT: 7 7 7 5 3 5 7 2076 5427 7 5 2 1461 5 4 6 7 5 48 3402 5 10 7 98 4934 2614 1 8 1477 6 3892 1408 1450 6 10 5 2947 7 10 3 27 5 11 2685 3362 10 5 4580 3915 8 5 5 10341 2 2 1449 7 5 983 1535 6 2944 4 34 5 1289 404 29 6 750 745 2 7 5 6 7 487 6888 8 5 925 6 1000 6 968 8 7 182 8056 2106 1727 631 2896 9 13 6 2183 24 5 6 26 12 26 3101 8 26 10 1935 1931 5 1929 7 4 1075 5 4570 3 10 6 2 8 32 4 5 490 6 5 14 7304 12 1983 4 8877 10 2953 6 5 3 6 1979 19 20 9 6 5 844 7 9 2972 2410 9 7125 6 10108 15 939 10 1932 6 1358 4791 10 4389 6 1564 2980 3 4 7085 13 6 4 18 134 4 4 6 491 2348 5 6 7 5443 9 12 6892 8 7 2973 19 6 3129 6 11 8 46 1032 4 37 6 5 9 9 6 12 4 5 3699 10 2 3 10 134 20 10 8 4 374 9 6 6 4 6 14 6 1924 5521 3258 5 4337 8267 1016 4 5 21 2429 2326 5 4 6 5 3 6346 10 7840 3083 1 7 8 9 19 4072 6 14 5 2903 5 8 1500 7 2241 5 7 4 2219 7005 995 7 1939 5 1796 9 5 1927 988 748 9 3 4 2417 19 5 1246 5 2558 3373 6 501 18 4 5 7 485 2433 2895 3 10 3704 7 6 6 6 5 5 6 4 6 4 4265 1580 9 4 2125 4 6 6 972 4188 1930 6 8 1369 5 11 5 6 8 1282 3 1 2189 3 5 7 5437 5 1452 10 17 1 6 6 2 2353 970 907 3 7 226 9 5 602 1009 996 8 13 13 3 2234 41 402 1183 6 1809 1042 798 5 4 4 5 8 6 6 5 25 4 6215 7 6 2064 2414 2405 6 7180 8 4 48 5 11 4 1473 6 2410 6 8 5 1477 9 2 9 12 7 1451 9 754 6 3156 5 4 2866 12 3 1499 10 1470 8 144 4 3 1464 2 8 7 19 1376 18 10 2 4 724 126 4 6610 6 1768 2126 6 6 15 5 5 6 1411 3 11 44 7 1959 5 4 6 3 5 4 1613 3 5 8 534 6 967 4 42 1067 24 5 4877 3 7 7 2 17 1954 492 285 3 25938 5 3 3 5 2 3 485 5 164 1736 375 7 2 1368 4 5 1215 1 5970 4 29 6 4 3719 17 11 3 2 5 5 3 4 6 34 5 9 33 5 4 2 11265 6 1303 11 1475 21 746 585 1930 7 969 1422 30 7 6 6 21 5 971 10 1 10 4 5 1930 113 5 37 5 67 2340 4109 7711 9 4006 9 14 2 6 1199 3 7 4 5387 5 1934 7 5 6 990 15 1940 42 2266 6 2481 5378 1446 1451 6 5346 4 4735 10118 42 2 1451 1476 3 3 6358 21 5 12 2413 6 998 1983 6 12 5 6 5 1927 7 4782 1157 10 2898 4 2946 11 7 2896 14 11 7 8 7 2570 5 5 7 14 1370 4380 4 1488 988 28 1435 11 1448 1451 1478 9 14 7 11 7 9 399 4 7367 732 4 6 3 4 10 9 592 12 10 5 8366 4 6 4 1999 5 1450 2891 12640 5 6 6460 7 1453 2968 968 24 1937 974 15 8 10 6626 3015 492 6 2375 6 23 6664 27 968 17668 1175 39 4380 1491 7 3 1219 3 7 5 9 6833 8 8 93 3 2907 6 5 262 4139 3 1476 5 1477 134 11 8 5 968 7 1990 1135 1 1935 10 3 5 4 4 5 3 1074 2 6226 1449 3990 999 2 9 264 21 3 6 4 9 473 5 8369 4 7 773 7 7 1362 9 3 4 532 2 5 5 4491 6422 993 5 6 996 21 3012 7 9369 6 12 3 58 6 0 174 7 1497 6 2452 5 3 2414 10 4 7 1941 1807 1067 20 428 974 3 1789 6 9 226 6381 3019 5 6 4 4657 4 1536 6 1947 2476 10 21 5 10 3 5 6 510 5 7 2 5 8 2463 9 4 515 403 5 6 996 4 1448 56 754 3 501 4 7933 6 5 5 6 5 354 5 6 1481 5 13 991 6 7 6 3377 1501 6 16 11 8849 33 5 1449 10 12 8 4 4 8940 1016 6 1944 3376 505 4 8 6 1538 7 2 4 7 7 4 3 9 6 7 2990 12 1456 7 5 7 405 3 4 8 5 3 39 4038 4 3 5043 1803 154 46 778 12 9 3395 6 12 1963 9 5 6 4 152 7 972 4813 1926 44 13 1933 6 998 1534 6 8 5 1075 7 485 3887 2006 8 971 4853 2833 3 3373 448 429 7 993 9 1453 28 248 16 8 3845 3 7084 9 7 7 1991 8307 14 3373 6 490 7347 5 7 963 94 1175 41 5 3 5 3 391 2460 6 998 6 4 7 2702 6 485 5 5 13 4 6 32 9 3447 15 2409 2950 4 2603 6 5336 10 6 6 6 5 4 18 6 967 6 7 7 2912 5 7421 386 3135 5 1075 6 3 10 2003 8 3614 5 
To predecode: 0
Predecoding something: 0
Predecode request dropped: 0
sizeofblock_0 0
sizeofblock_1 220405
sizeofblock_2 358475
sizeofblock_3 0
sizeofblock_4 0
sizeofblock_5 0
sizeofblock_6 0
sizeofblock_7 0
sizeofblock_8 0
Variant_0 Correct: 0 Incorrect: 0 Accuracy: -nan
Variant_1 Correct: 0 Incorrect: 0 Accuracy: -nan
Variant_2 Correct: 0 Incorrect: 0 Accuracy: -nan
Variant_3 Correct: 0 Incorrect: 0 Accuracy: -nan
