
*** ChampSim Multicore Out-of-Order Simulator ***

Warmup Instructions: 50000000
Simulation Instructions: 50000000
Number of CPUs: 1
LLC sets: 2048
LLC ways: 16
Off-chip DRAM Size: 4096 MB Channels: 1 Width: 64-bit Data Rate: 6400 MT/s
CPU 0 runs ./micro_traces/srv193.trace.gz
.gz
ITLB has LRU replacement policy
DTLB has LRU replacement policy
STLB has LRU replacement policy
FDIP Prefetcher at L1I
L1I has LRU replacement policy
L1D has LRU replacement policy
Initialize SRRIP state for L2C
Initialize DRRIP state for LLC
Heartbeat_Variant_0 : 1367 0.33374 per_variant_size: 0 1367 0 0 0 0 0 0 0 
Heartbeat_Variant_1 : 2436 0.594727 per_variant_size: 0 183 2253 0 0 0 0 0 0 
Heartbeat_Variant_2 : 0 0 per_variant_size: 0 0 0 0 0 0 0 0 0 
Heartbeat_Variant_3 : 0 0 per_variant_size: 0 0 0 0 0 0 0 0 0 
Heartbeat_Variant_0_evicts 0 : 5530 1 : 1 2 : 0 3 : 0 
Heartbeat_Variant_1_evicts 0 : 3 1 : 0 2 : 0 3 : 0 
Heartbeat_Variant_2_evicts 0 : 0 1 : 0 2 : 0 3 : 0 
Heartbeat_Variant_3_evicts 0 : 0 1 : 0 2 : 0 3 : 0 
Heartbeat CPU 0 instructions: 10000002 cycles: 2795009 heartbeat IPC: 3.57781 cumulative IPC: 3.57781 (Simulation time: 0 hr 1 min 40 sec) 
Heartbeat_Variant_0 : 1366 0.333496 per_variant_size: 0 1366 0 0 0 0 0 0 0 
Heartbeat_Variant_1 : 2450 0.598145 per_variant_size: 0 186 2264 0 0 0 0 0 0 
Heartbeat_Variant_2 : 0 0 per_variant_size: 0 0 0 0 0 0 0 0 0 
Heartbeat_Variant_3 : 0 0 per_variant_size: 0 0 0 0 0 0 0 0 0 
Heartbeat_Variant_0_evicts 0 : 5483 1 : 0 2 : 0 3 : 0 
Heartbeat_Variant_1_evicts 0 : 1 1 : 0 2 : 0 3 : 0 
Heartbeat_Variant_2_evicts 0 : 0 1 : 0 2 : 0 3 : 0 
Heartbeat_Variant_3_evicts 0 : 0 1 : 0 2 : 0 3 : 0 
Heartbeat CPU 0 instructions: 20000001 cycles: 5589916 heartbeat IPC: 3.57794 cumulative IPC: 3.57787 (Simulation time: 0 hr 3 min 19 sec) 
Heartbeat_Variant_0 : 1412 0.344727 per_variant_size: 0 1412 0 0 0 0 0 0 0 
Heartbeat_Variant_1 : 2554 0.623535 per_variant_size: 0 170 2384 0 0 0 0 0 0 
Heartbeat_Variant_2 : 0 0 per_variant_size: 0 0 0 0 0 0 0 0 0 
Heartbeat_Variant_3 : 0 0 per_variant_size: 0 0 0 0 0 0 0 0 0 
Heartbeat_Variant_0_evicts 0 : 5439 1 : 19 2 : 0 3 : 0 
Heartbeat_Variant_1_evicts 0 : 14 1 : 0 2 : 0 3 : 0 
Heartbeat_Variant_2_evicts 0 : 0 1 : 0 2 : 0 3 : 0 
Heartbeat_Variant_3_evicts 0 : 0 1 : 0 2 : 0 3 : 0 
Heartbeat CPU 0 instructions: 30000001 cycles: 8384587 heartbeat IPC: 3.57824 cumulative IPC: 3.57799 (Simulation time: 0 hr 5 min 0 sec) 
Heartbeat_Variant_0 : 1449 0.35376 per_variant_size: 0 1449 0 0 0 0 0 0 0 
Heartbeat_Variant_1 : 2595 0.633545 per_variant_size: 0 135 2460 0 0 0 0 0 0 
Heartbeat_Variant_2 : 0 0 per_variant_size: 0 0 0 0 0 0 0 0 0 
Heartbeat_Variant_3 : 0 0 per_variant_size: 0 0 0 0 0 0 0 0 0 
Heartbeat_Variant_0_evicts 0 : 5681 1 : 52 2 : 0 3 : 0 
Heartbeat_Variant_1_evicts 0 : 36 1 : 0 2 : 0 3 : 0 
Heartbeat_Variant_2_evicts 0 : 0 1 : 0 2 : 0 3 : 0 
Heartbeat_Variant_3_evicts 0 : 0 1 : 0 2 : 0 3 : 0 
Heartbeat CPU 0 instructions: 40000001 cycles: 11178777 heartbeat IPC: 3.57885 cumulative IPC: 3.57821 (Simulation time: 0 hr 6 min 42 sec) 
Heartbeat_Variant_0 : 1450 0.354004 per_variant_size: 0 1450 0 0 0 0 0 0 0 
Heartbeat_Variant_1 : 2600 0.634766 per_variant_size: 0 135 2465 0 0 0 0 0 0 
Heartbeat_Variant_2 : 0 0 per_variant_size: 0 0 0 0 0 0 0 0 0 
Heartbeat_Variant_3 : 0 0 per_variant_size: 0 0 0 0 0 0 0 0 0 
Heartbeat_Variant_0_evicts 0 : 5495 1 : 13 2 : 0 3 : 0 
Heartbeat_Variant_1_evicts 0 : 13 1 : 0 2 : 0 3 : 0 
Heartbeat_Variant_2_evicts 0 : 0 1 : 0 2 : 0 3 : 0 
Heartbeat_Variant_3_evicts 0 : 0 1 : 0 2 : 0 3 : 0 
Heartbeat CPU 0 instructions: 50000002 cycles: 13974620 heartbeat IPC: 3.57674 cumulative IPC: 3.57791 (Simulation time: 0 hr 8 min 24 sec) 

Warmup complete CPU 0 instructions: 50000002 cycles: 13974620 (Simulation time: 0 hr 8 min 24 sec) 

*** Reached end of trace for Core: 0 Repeating trace: ./micro_traces/srv193.trace.gz
Cycle: 20000000 FTQ IN: 58388865 FTQ occupancy: 20.5353 DECODE IN: 58388762 DECODE occupancy: 53.416 ROB IN: 58388702 ROB occupancy: 319.277 ROB OUT: 58388350
Heartbeat_Variant_0 : 1461 0.356689 per_variant_size: 0 1461 0 0 0 0 0 0 0 
Heartbeat_Variant_1 : 2616 0.638672 per_variant_size: 0 132 2484 0 0 0 0 0 0 
Heartbeat_Variant_2 : 0 0 per_variant_size: 0 0 0 0 0 0 0 0 0 
Heartbeat_Variant_3 : 0 0 per_variant_size: 0 0 0 0 0 0 0 0 0 
Heartbeat_Variant_0_evicts 0 : 5568 1 : 106 2 : 0 3 : 0 
Heartbeat_Variant_1_evicts 0 : 104 1 : 0 2 : 0 3 : 0 
Heartbeat_Variant_2_evicts 0 : 0 1 : 0 2 : 0 3 : 0 
Heartbeat_Variant_3_evicts 0 : 0 1 : 0 2 : 0 3 : 0 
Heartbeat CPU 0 instructions: 60000001 cycles: 21273116 heartbeat IPC: 1.37015 cumulative IPC: 1.37015 (Simulation time: 0 hr 10 min 25 sec) 
Heartbeat_Variant_0 : 1456 0.355469 per_variant_size: 0 1456 0 0 0 0 0 0 0 
Heartbeat_Variant_1 : 2621 0.639893 per_variant_size: 0 139 2482 0 0 0 0 0 0 
Heartbeat_Variant_2 : 0 0 per_variant_size: 0 0 0 0 0 0 0 0 0 
Heartbeat_Variant_3 : 0 0 per_variant_size: 0 0 0 0 0 0 0 0 0 
Heartbeat_Variant_0_evicts 0 : 5568 1 : 24 2 : 0 3 : 0 
Heartbeat_Variant_1_evicts 0 : 29 1 : 0 2 : 0 3 : 0 
Heartbeat_Variant_2_evicts 0 : 0 1 : 0 2 : 0 3 : 0 
Heartbeat_Variant_3_evicts 0 : 0 1 : 0 2 : 0 3 : 0 
Heartbeat CPU 0 instructions: 70000001 cycles: 28407393 heartbeat IPC: 1.40168 cumulative IPC: 1.38574 (Simulation time: 0 hr 12 min 25 sec) 
Cycle: 30000000 FTQ IN: 13848760 FTQ occupancy: 15.1026 DECODE IN: 13848758 DECODE occupancy: 38.5272 ROB IN: 13848758 ROB occupancy: 254.93 ROB OUT: 13848758
Heartbeat_Variant_0 : 1457 0.355713 per_variant_size: 0 1457 0 0 0 0 0 0 0 
Heartbeat_Variant_1 : 2620 0.639648 per_variant_size: 0 137 2483 0 0 0 0 0 0 
Heartbeat_Variant_2 : 0 0 per_variant_size: 0 0 0 0 0 0 0 0 0 
Heartbeat_Variant_3 : 0 0 per_variant_size: 0 0 0 0 0 0 0 0 0 
Heartbeat_Variant_0_evicts 0 : 5471 1 : 7 2 : 0 3 : 0 
Heartbeat_Variant_1_evicts 0 : 6 1 : 0 2 : 0 3 : 0 
Heartbeat_Variant_2_evicts 0 : 0 1 : 0 2 : 0 3 : 0 
Heartbeat_Variant_3_evicts 0 : 0 1 : 0 2 : 0 3 : 0 
Heartbeat CPU 0 instructions: 80000001 cycles: 35526997 heartbeat IPC: 1.40457 cumulative IPC: 1.39196 (Simulation time: 0 hr 14 min 24 sec) 
Cycle: 40000000 FTQ IN: 13920099 FTQ occupancy: 15.034 DECODE IN: 13920200 DECODE occupancy: 38.4635 ROB IN: 13920260 ROB occupancy: 252.974 ROB OUT: 13920419
Heartbeat_Variant_0 : 1461 0.356689 per_variant_size: 0 1461 0 0 0 0 0 0 0 
Heartbeat_Variant_1 : 2619 0.639404 per_variant_size: 0 115 2504 0 0 0 0 0 0 
Heartbeat_Variant_2 : 0 0 per_variant_size: 0 0 0 0 0 0 0 0 0 
Heartbeat_Variant_3 : 0 0 per_variant_size: 0 0 0 0 0 0 0 0 0 
Heartbeat_Variant_0_evicts 0 : 5537 1 : 78 2 : 0 3 : 0 
Heartbeat_Variant_1_evicts 0 : 75 1 : 0 2 : 0 3 : 0 
Heartbeat_Variant_2_evicts 0 : 0 1 : 0 2 : 0 3 : 0 
Heartbeat_Variant_3_evicts 0 : 0 1 : 0 2 : 0 3 : 0 
Heartbeat CPU 0 instructions: 90000002 cycles: 42758785 heartbeat IPC: 1.38278 cumulative IPC: 1.38965 (Simulation time: 0 hr 16 min 23 sec) 
Heartbeat_Variant_0 : 1467 0.358154 per_variant_size: 0 1467 0 0 0 0 0 0 0 
Heartbeat_Variant_1 : 2615 0.638428 per_variant_size: 0 122 2493 0 0 0 0 0 0 
Heartbeat_Variant_2 : 0 0 per_variant_size: 0 0 0 0 0 0 0 0 0 
Heartbeat_Variant_3 : 0 0 per_variant_size: 0 0 0 0 0 0 0 0 0 
Heartbeat_Variant_0_evicts 0 : 5668 1 : 49 2 : 0 3 : 0 
Heartbeat_Variant_1_evicts 0 : 43 1 : 0 2 : 0 3 : 0 
Heartbeat_Variant_2_evicts 0 : 0 1 : 0 2 : 0 3 : 0 
Heartbeat_Variant_3_evicts 0 : 0 1 : 0 2 : 0 3 : 0 
Heartbeat CPU 0 instructions: 100000001 cycles: 49885293 heartbeat IPC: 1.40321 cumulative IPC: 1.39234 (Simulation time: 0 hr 18 min 23 sec) 
Finished CPU 0 instructions: 50000003 cycles: 35910674 cumulative IPC: 1.39234 (Simulation time: 0 hr 18 min 23 sec) 

ChampSim completed all CPUs

Region of Interest Statistics

CPU 0 cumulative IPC: 1.39234 instructions: 50000003 cycles: 35910674
 Fetch stage stalled: 45.0393  Sim cycles: 35910674 fetch stall cycle: 16173913
 Empty decode stage: 25.1118  Sim cycles: 35910674 fetch stall cycle: 9017799
ITLB TOTAL     ACCESS:    5843717  HIT:    5352788  MISS:     490929  HIT %:     91.599  MISS %:    8.40097   MPKI: 9.81858
ITLB LOAD TRANSLATION INSTRUCTION	ACCESS:    5706034  HIT:    5215105  MISS:     490929  HIT %:    91.3963  MISS %:    8.60368  MPKI: 9.81858
ITLB TRANSLATION FROM L1D PREFETCHER INSTRUCTION	ACCESS:     137683  HIT:     137683  MISS:          0  HIT %:        100  MISS %:          0  MPKI: 0

ITLB AVERAGE MISS LATENCY: 9.0819 cycles
ITLB RQ	ACCESS:    7934812	FORWARD:          0	MERGED:    1611425	TO_CACHE:    6323387

DTLB TOTAL     ACCESS:    8912887  HIT:    8437073  MISS:     475814  HIT %:    94.6615  MISS %:    5.33849   MPKI: 9.51628
DTLB LOAD TRANSLATION DATA	ACCESS:    8912887  HIT:    8437073  MISS:     475814  HIT %:    94.6615  MISS %:    5.33849  MPKI: 9.51628

DTLB AVERAGE MISS LATENCY: 9.32429 cycles
DTLB RQ	ACCESS:   13276613	FORWARD:          0	MERGED:    4326433	TO_CACHE:    8950180

STLB TOTAL     ACCESS:    1222066  HIT:    1219817  MISS:       2249  HIT %:     99.816  MISS %:   0.184033   MPKI: 0.04498
STLB LOAD TRANSLATION INSTRUCTION	ACCESS:     490929  HIT:     490617  MISS:        312  HIT %:    99.9364  MISS %:   0.063553  MPKI: 0.00624
STLB LOAD TRANSLATION DATA	ACCESS:     475814  HIT:     473917  MISS:       1897  HIT %:    99.6013  MISS %:   0.398685  MPKI: 0.03794
STLB TRANSLATION FROM L1D PREFETCHER DATA	ACCESS:     255323  HIT:     255283  MISS:         40  HIT %:    99.9843  MISS %:  0.0156664  MPKI: 0.0008

STLB AVERAGE MISS LATENCY: 74.104 cycles
STLB RQ	ACCESS:    1369565	FORWARD:          0	MERGED:     147464	TO_CACHE:    1222101

STLB Hit, L1D data hit: 0
STLB Hit, L2C data hit: 0
STLB Hit, LLC data hit: 0
STLB Hit, LLC data miss: 0
STLB STLB hints to L2: 0
L1D TOTAL     ACCESS:   13028842  HIT:   11859113  MISS:    1169729  HIT %:     91.022  MISS %:      8.978   MPKI: 23.3946
L1D LOAD DATA	ACCESS:    6531892  HIT:    5761689  MISS:     770203  HIT %:    88.2086  MISS %:    11.7914  MPKI: 15.4041
L1D RFO DATA	ACCESS:    6159728  HIT:    5866995  MISS:     292733  HIT %:    95.2476  MISS %:    4.75237  MPKI: 5.85466
L1D PREFETCH DATA	ACCESS:     337222  HIT:     230429  MISS:     106793  HIT %:    68.3315  MISS %:    31.6685  MPKI: 2.13586

L1D PREFETCH  REQUESTED:     806145  ISSUED:     806145  USEFUL:      48779  USELESS:      71759
L1D USEFUL LOAD PREFETCHES:      48779 PREFETCH ISSUED TO LOWER LEVEL:     120574  ACCURACY: 40.4557
 TIMELY PREFETCHES:      48779 LATE PREFETCHES: 13732 DROPPED PREFETCHES: 5
L1D AVERAGE MISS LATENCY: 364544 cycles
L1D RQ	ACCESS:   10656332	FORWARD:          0	MERGED:    3925541	TO_CACHE:    6567595
L1D WQ	ACCESS:    6906510	FORWARD:     163697	MERGED:     197492	TO_CACHE:    6709018
L1D PQ	ACCESS:     403323	FORWARD:          0	MERGED:          0	TO_CACHE:     402822

L1D UNIQUE REGIONS ACCESSED: 0
L1D REGIONS CONFLICTS: 0
L1D Cross Page Prefetch Requests: 8003
L1D Same Page Prefetch Requests: 812163
L1D ROI Sum of L1D PQ occupancy: 5144255
L1D PREFETCHES PUSHED FROM L2C: 0
L1I TOTAL     ACCESS:    7118378  HIT:    4365815  MISS:    2752563  HIT %:    61.3316  MISS %:    38.6684   MPKI: 55.0513
L1I LOAD INSTRUCTION	ACCESS:    6453013  HIT:    3700450  MISS:    2752563  HIT %:    57.3445  MISS %:    42.6555  MPKI: 55.0513
L1I PREFETCH INSTRUCTION	ACCESS:     665365  HIT:     665365  MISS:          0  HIT %:        100  MISS %:          0  MPKI: 0

L1I PREFETCH  REQUESTED:    1615694  ISSUED:    1615694  USEFUL:          0  USELESS:          0
L1I USEFUL LOAD PREFETCHES:          0 PREFETCH ISSUED TO LOWER LEVEL:          0  ACCURACY: -nan
 TIMELY PREFETCHES:          0 LATE PREFETCHES: 0 DROPPED PREFETCHES: 0
L1I AVERAGE MISS LATENCY: 16.978 cycles
L1I RQ	ACCESS:    9571193	FORWARD:          0	MERGED:    2821703	TO_CACHE:    6749490
L1I PQ	ACCESS:    1615694	FORWARD:          0	MERGED:     430372	TO_CACHE:    1185322

L1BTB TOTAL     ACCESS:    5683296  HIT:    2072664  MISS:    3610632  HIT %:    36.4694  MISS %:    63.5306   MPKI: 72.2126
L1BTB BRANCH_DIRECT_JUMP	ACCESS:     543933 HIT:     143532 MISS:     400401 AVERAGE STALL: 53.1055 AVERAGE FETCH STALL: 13.6774 AVERAGE FETCH QUEUE STALL: 18.9366 AVERAGE DECODE STALL: 19.559 AVERAGE EXECUTE STALL: 2.37288e+15
L1BTB BRANCH_INDIRECT	ACCESS:     181519 HIT:      65560 MISS:     115959 AVERAGE STALL: 109.234 AVERAGE FETCH STALL: 10.893 AVERAGE FETCH QUEUE STALL: 18.2746 AVERAGE DECODE STALL: 12.8582 AVERAGE EXECUTE STALL: 66.2457
L1BTB BRANCH_CONDITIONAL	ACCESS:    2736725 HIT:    1450203 MISS:    1286522 AVERAGE STALL: 55.9818 AVERAGE FETCH STALL: 23.1733 AVERAGE FETCH QUEUE STALL: 17.9896 AVERAGE DECODE STALL: 14.1294 AVERAGE EXECUTE STALL: 3.13347e+15
L1BTB BRANCH_DIRECT_CALL	ACCESS:     940050 HIT:     103443 MISS:     836607 AVERAGE STALL: 69.929 AVERAGE FETCH STALL: 24.0541 AVERAGE FETCH QUEUE STALL: 22.5233 AVERAGE DECODE STALL: 22.426 AVERAGE EXECUTE STALL: 1.24724e+16
L1BTB BRANCH_INDIRECT_CALL	ACCESS:     170507 HIT:      20998 MISS:     149509 AVERAGE STALL: 139.349 AVERAGE FETCH STALL: 12.3026 AVERAGE FETCH QUEUE STALL: 17.3475 AVERAGE DECODE STALL: 11.8854 AVERAGE EXECUTE STALL: 97.3235
L1BTB BRANCH_RETURN	ACCESS:    1110562 HIT:     288928 MISS:     821634 AVERAGE STALL: 49.8134 AVERAGE FETCH STALL: 17.0423 AVERAGE FETCH QUEUE STALL: 4.463 AVERAGE DECODE STALL: 6.15493 AVERAGE EXECUTE STALL: 4.41796e+14
L1BTB BRANCH_OTHER ACCESS:          0 HIT:          0 MISS:          0 AVERAGE STALL: -nan AVERAGE FETCH STALL: -nan AVERAGE FETCH QUEUE STALL: -nan AVERAGE DECODE STALL: -nan AVERAGE EXECUTE STALL: -nan
L1BTB TOTAL ROB OCCUPANCY AT BTB MISS: 2.5515

L2BTB TOTAL     ACCESS:    3585675  HIT:    3521371  MISS:      64304  HIT %:    98.2066  MISS %:    1.79336   MPKI: 1.28608
L2BTB BRANCH_DIRECT_JUMP	ACCESS:     396306 HIT:     392624 MISS:       3682 AVERAGE STALL: 53.1055 AVERAGE FETCH STALL: 13.6774 AVERAGE FETCH QUEUE STALL: 18.9366 AVERAGE DECODE STALL: 19.559 AVERAGE EXECUTE STALL: 2.37288e+15
L2BTB BRANCH_INDIRECT	ACCESS:     105748 HIT:     103114 MISS:       2634 AVERAGE STALL: 109.234 AVERAGE FETCH STALL: 10.893 AVERAGE FETCH QUEUE STALL: 18.2746 AVERAGE DECODE STALL: 12.8582 AVERAGE EXECUTE STALL: 66.2457
L2BTB BRANCH_CONDITIONAL	ACCESS:    1286522 HIT:    1280589 MISS:       5933 AVERAGE STALL: 55.9818 AVERAGE FETCH STALL: 23.1733 AVERAGE FETCH QUEUE STALL: 17.9896 AVERAGE DECODE STALL: 14.1294 AVERAGE EXECUTE STALL: 3.13347e+15
L2BTB BRANCH_DIRECT_CALL	ACCESS:     836607 HIT:     835101 MISS:       1506 AVERAGE STALL: 69.929 AVERAGE FETCH STALL: 24.0541 AVERAGE FETCH QUEUE STALL: 22.5233 AVERAGE DECODE STALL: 22.426 AVERAGE EXECUTE STALL: 1.24724e+16
L2BTB BRANCH_INDIRECT_CALL	ACCESS:     140081 HIT:     130090 MISS:       9991 AVERAGE STALL: 139.349 AVERAGE FETCH STALL: 12.3026 AVERAGE FETCH QUEUE STALL: 17.3475 AVERAGE DECODE STALL: 11.8854 AVERAGE EXECUTE STALL: 97.3235
L2BTB BRANCH_RETURN	ACCESS:     820411 HIT:     779853 MISS:      40558 AVERAGE STALL: 49.8134 AVERAGE FETCH STALL: 17.0423 AVERAGE FETCH QUEUE STALL: 4.463 AVERAGE DECODE STALL: 6.15493 AVERAGE EXECUTE STALL: 4.41796e+14
L2BTB BRANCH_OTHER ACCESS:          0 HIT:          0 MISS:          0 AVERAGE STALL: -nan AVERAGE FETCH STALL: -nan AVERAGE FETCH QUEUE STALL: -nan AVERAGE DECODE STALL: -nan AVERAGE EXECUTE STALL: -nan
L2BTB TOTAL ROB OCCUPANCY AT BTB MISS: 143.265

L2C TOTAL     ACCESS:    4547627  HIT:    4068153  MISS:     479474  HIT %:    89.4566  MISS %:    10.5434   MPKI: 9.58948
L2C LOAD INSTRUCTION	ACCESS:    2752563  HIT:    2518946  MISS:     233617  HIT %:    91.5127  MISS %:    8.48725  MPKI: 4.67234
L2C LOAD TRANSLATION INSTRUCTION	ACCESS:        369  HIT:         96  MISS:        273  HIT %:    26.0163  MISS %:    73.9837  MPKI: 0.00546
L2C LOAD DATA	ACCESS:     756444  HIT:     675087  MISS:      81357  HIT %:    89.2448  MISS %:    10.7552  MPKI: 1.62714
L2C RFO DATA	ACCESS:     292675  HIT:     225267  MISS:      67408  HIT %:    76.9683  MISS %:    23.0317  MPKI: 1.34816
L2C PREFETCH DATA	ACCESS:     210821  HIT:     132738  MISS:      78083  HIT %:    62.9624  MISS %:    37.0376  MPKI: 1.56166
L2C WRITEBACK DATA	ACCESS:     532648  HIT:     515474  MISS:      17174  HIT %:    96.7757  MISS %:    3.22427  MPKI: 0.34348
L2C LOAD TRANSLATION DATA	ACCESS:       2047  HIT:        498  MISS:       1549  HIT %:    24.3283  MISS %:    75.6717  MPKI: 0.03098
L2C TRANSLATION FROM L1D PREFETCHER DATA	ACCESS:         60  HIT:         47  MISS:         13  HIT %:    78.3333  MISS %:    21.6667  MPKI: 0.00026

L2C PREFETCH  REQUESTED:      98680  ISSUED:      98680  USEFUL:       9324  USELESS:      69399
L2C USEFUL LOAD PREFETCHES:       9324 PREFETCH ISSUED TO LOWER LEVEL:      78527  ACCURACY: 11.8736
 TIMELY PREFETCHES:       9324 LATE PREFETCHES: 444 DROPPED PREFETCHES: 0
L2C AVERAGE MISS LATENCY: 41.9493 cycles
L2C RQ	ACCESS:    3804196	FORWARD:          0	MERGED:          0	TO_CACHE:    3804160
L2C WQ	ACCESS:     532648	FORWARD:         36	MERGED:          0	TO_CACHE:     532648
L2C PQ	ACCESS:     219254	FORWARD:          0	MERGED:       3504	TO_CACHE:     215750

L2C Dense regions hint from L2: 0
PSCL5 TOTAL     ACCESS:       4510  HIT:       2255  MISS:       2255  HIT %:         50  MISS %:         50   MPKI: 0.0451
PSCL5 LOAD TRANSLATION INSTRUCTION	ACCESS:       4392  HIT:       2196  MISS:       2196  HIT %:         50  MISS %:         50  MPKI: 0.04392
PSCL5 TRANSLATION FROM L1D PREFETCHER INSTRUCTION	ACCESS:        118  HIT:         59  MISS:         59  HIT %:         50  MISS %:         50  MPKI: 0.00118


PSCL4 TOTAL     ACCESS:       4290  HIT:       2140  MISS:       2150  HIT %:    49.8834  MISS %:    50.1166   MPKI: 0.043
PSCL4 LOAD TRANSLATION INSTRUCTION	ACCESS:       3638  HIT:       2081  MISS:       1557  HIT %:    57.2018  MISS %:    42.7982  MPKI: 0.03114
PSCL4 TRANSLATION FROM L1D PREFETCHER INSTRUCTION	ACCESS:        116  HIT:         59  MISS:         57  HIT %:    50.8621  MISS %:    49.1379  MPKI: 0.00114
PSCL4 LOAD TRANSLATION DATA	ACCESS:        534  HIT:          0  MISS:        534  HIT %:          0  MISS %:        100  MPKI: 0.01068
PSCL4 TRANSLATION FROM L1D PREFETCHER DATA	ACCESS:          2  HIT:          0  MISS:          2  HIT %:          0  MISS %:        100  MPKI: 4e-05


PSCL3 TOTAL     ACCESS:       4303  HIT:       2139  MISS:       2164  HIT %:    49.7095  MISS %:    50.2905   MPKI: 0.04328
PSCL3 LOAD TRANSLATION INSTRUCTION	ACCESS:       2764  HIT:       2097  MISS:        667  HIT %:    75.8683  MISS %:    24.1317  MPKI: 0.01334
PSCL3 TRANSLATION FROM L1D PREFETCHER INSTRUCTION	ACCESS:         60  HIT:         42  MISS:         18  HIT %:         70  MISS %:         30  MPKI: 0.00036
PSCL3 LOAD TRANSLATION DATA	ACCESS:       1455  HIT:          0  MISS:       1455  HIT %:          0  MISS %:        100  MPKI: 0.0291
PSCL3 TRANSLATION FROM L1D PREFETCHER DATA	ACCESS:         24  HIT:          0  MISS:         24  HIT %:          0  MISS %:        100  MPKI: 0.00048


PSCL2 TOTAL     ACCESS:       4324  HIT:       2069  MISS:       2255  HIT %:    47.8492  MISS %:    52.1508   MPKI: 0.0451
PSCL2 LOAD TRANSLATION INSTRUCTION	ACCESS:       2324  HIT:       2011  MISS:        313  HIT %:    86.5318  MISS %:    13.4682  MPKI: 0.00626
PSCL2 TRANSLATION FROM L1D PREFETCHER INSTRUCTION	ACCESS:         58  HIT:         58  MISS:          0  HIT %:        100  MISS %:          0  MPKI: 0
PSCL2 LOAD TRANSLATION DATA	ACCESS:       1884  HIT:          0  MISS:       1884  HIT %:          0  MISS %:        100  MPKI: 0.03768
PSCL2 TRANSLATION FROM L1D PREFETCHER DATA	ACCESS:         58  HIT:          0  MISS:         58  HIT %:          0  MISS %:        100  MPKI: 0.00116


LLC TOTAL     ACCESS:     553016  HIT:     523080  MISS:      29936  HIT %:    94.5868  MISS %:    5.41322   MPKI: 0.59872
LLC LOAD INSTRUCTION	ACCESS:     233617  HIT:     232750  MISS:        867  HIT %:    99.6289  MISS %:    0.37112  MPKI: 0.01734
LLC LOAD TRANSLATION INSTRUCTION	ACCESS:        273  HIT:        231  MISS:         42  HIT %:    84.6154  MISS %:    15.3846  MPKI: 0.00084
LLC LOAD DATA	ACCESS:      80933  HIT:      77353  MISS:       3580  HIT %:    95.5766  MISS %:    4.42341  MPKI: 0.0716
LLC RFO DATA	ACCESS:      67378  HIT:      52687  MISS:      14691  HIT %:    78.1961  MISS %:    21.8039  MPKI: 0.29382
LLC PREFETCH DATA	ACCESS:      78527  HIT:      68063  MISS:      10464  HIT %:    86.6746  MISS %:    13.3254  MPKI: 0.20928
LLC WRITEBACK DATA	ACCESS:      90726  HIT:      90526  MISS:        200  HIT %:    99.7796  MISS %:   0.220444  MPKI: 0.004
LLC LOAD TRANSLATION DATA	ACCESS:       1549  HIT:       1458  MISS:         91  HIT %:    94.1252  MISS %:    5.87476  MPKI: 0.00182
LLC TRANSLATION FROM L1D PREFETCHER DATA	ACCESS:         13  HIT:         12  MISS:          1  HIT %:    92.3077  MISS %:    7.69231  MPKI: 2e-05

LLC AVERAGE MISS LATENCY: 208.482 cycles
LLC RQ	ACCESS:     383773	FORWARD:          0	MERGED:          0	TO_CACHE:     383763
LLC WQ	ACCESS:      90726	FORWARD:         10	MERGED:          0	TO_CACHE:      90726
LLC PQ	ACCESS:      78527	FORWARD:          0	MERGED:          0	TO_CACHE:      78527

LLC Dense regions hint to LLC: 0

RAW hits: 1944703
Loads Generated: 12601036
Loads sent to L1D: 10656332
Stores Generated: 6906488
Stores sent to L1D: 6906510
Major fault: 0 Minor fault: 2387
Allocated PAGES: 2387

stream: 
stream:times selected: 1244966
stream:pref_filled: 129125
stream:pref_useful: 28862
stream:pref_late: 9603
stream:misses: 10808
stream:misses_by_poll: 0

CS: 
CS:times selected: 194601
CS:pref_filled: 75171
CS:pref_useful: 51911
CS:pref_late: 9750
CS:misses: 23962
CS:misses_by_poll: 0

CPLX: 
CPLX:times selected: 1049188
CPLX:pref_filled: 25596
CPLX:pref_useful: 7938
CPLX:pref_late: 4162
CPLX:misses: 133304
CPLX:misses_by_poll: 0

NL_L1: 
NL:times selected: 21721
NL:pref_filled: 1157
NL:pref_useful: 478
NL:pref_late: 799
NL:misses: 3222
NL:misses_by_poll: 0

total selections: 2510476
total_filled: 106793
total_useful: 48779
total_late: 26678
total_polluted: 0
total_misses_after_warmup: 805906
conflicts: 5483209

test: 118470

DRAM Statistics
 CHANNEL 0
 RQ ROW_BUFFER_HIT:      11056  ROW_BUFFER_MISS:      18677
 DBUS_CONGESTED:         20
 WQ ROW_BUFFER_HIT:       2093  ROW_BUFFER_MISS:      14057  FULL:          0

 AVG_CONGESTED_CYCLE: 4

CPU 0 Branch Prediction Accuracy: 99.8222% MPKI: 0.32582 Average ROB Occupancy at Mispredict: 203.273
Branch types
NOT_BRANCH: 40836653 81.6733%
BRANCH_DIRECT_JUMP: 543933 1.08787%
BRANCH_INDIRECT: 181519 0.363038%
BRANCH_CONDITIONAL: 6216771 12.4335%
BRANCH_DIRECT_CALL: 940050 1.8801%
BRANCH_INDIRECT_CALL: 170507 0.341014%
BRANCH_RETURN: 1110562 2.22112%
BRANCH_OTHER: 0 0%

DRAM PAGES: 1048576
Allocated PAGES: 2387
Average_ROB_Occupancy: 254.577
Average_Decode_Occupancy: 38.4303
Average_FTQ_Occupancy: 15.0122
Indirect max targets: 14 Average targets: 1.15563
Branch_type:  BRANCH_DIRECT_JUMP:  Count Percentage: 4.13897 5.12003 3.97698 8.46497 2.40668 6.32723 1.55263 68.0125 
Branch_type:  BRANCH_INDIRECT:  Count Percentage: 6.11545 3.53349 8.13041 9.68367 3.33861 2.80496 1.73821 64.6552 
Branch_type:  BRANCH_CONDITIONAL:  Count Percentage: 22.8197 2.76048 1.65328 7.56645 2.91521 3.56897 1.63215 57.0837 
Branch_type:  BRANCH_DIRECT_CALL:  Count Percentage: 0.391087 1.2553 0.737933 4.49537 2.99523 2.60552 2.82928 84.6903 
Branch_type:  BRANCH_INDIRECT_CALL:  Count Percentage: 9.54811 0 3.00299 0.00410886 0.999921 1.71134 2.70539 82.0281 
Branch_type:  BRANCH_RETURN:  Count Percentage: 4.25868 4.66014 1.24136 4.75127 5.54162 3.53595 1.82368 74.1873 
Branch_type:  BRANCH_DIRECT_JUMP:  Total Count: 44969 55628 43209 91970 26148 68744 16869 738941 
Branch_type:  BRANCH_INDIRECT:  Total Count: 22186 12819 29496 35131 12112 10176 6306 234560 
Branch_type:  BRANCH_CONDITIONAL:  Total Count: 2834992 342947 205394 940013 362169 443389 202769 7091763 
Branch_type:  BRANCH_DIRECT_CALL:  Total Count: 7346 23579 13861 84439 56261 48941 53144 1590785 
Branch_type:  BRANCH_INDIRECT_CALL:  Total Count: 32533 0 10232 14 3407 5831 9218 279492 
Branch_type:  BRANCH_RETURN:  Total Count: 94539 103451 27557 105474 123019 78495 40484 1646893 
Number of unique branch instructions: 10480
Upper 32 bits: 
aaaa
ffff
ffff0000
Unique upper 32 bits: 3
Unique upper 36 bits: 3
Unique upper 40 bits: 5
Unique upper 44 bits: 32
Unique upper 48 bits: 159
Variant_0 : 1467 0.358154
Variant_1 : 2615 0.638428
Variant_2 : 0 0
Variant_3 : 0 0
Offset_3 4329
Offset_4 269
Offset_5 477
Offset_6 537
Offset_7 614
Offset_8 534
Offset_9 506
Offset_10 415
Offset_11 342
Offset_12 277
Offset_13 218
Offset_14 228
Offset_15 203
Offset_16 234
Offset_17 165
Offset_18 135
Offset_19 254
Offset_20 145
Offset_21 267
Offset_22 403
Offset_23 241
Offset_24 348
Offset_25 88
Offset_47 84
decode_dispatch_called: 26584812 74.0304
Dispatch_width: 0 14320902 53.8687 39.8792
Dispatch_width: 1 1063868 4.00179 2.96254
Dispatch_width: 2 867860 3.2645 2.41672
Dispatch_width: 3 514526 1.93541 1.43279
Dispatch_width: 4 6571108 24.7175 18.2985
Dispatch_width: 5 106883 0.402045 0.297636
Dispatch_width: 6 3139665 11.81 8.74299
Empty_decode_cycles: 9325862 25.9696
ROB_full_cycles: 10568655 29.4304
Starvation_cycles_per_kilo_instr: 222.024
Starvation_cycles_per_kilo_instr_3: 155.244
Starvation_cycles_per_kilo_instr_0: 130.781
Branch_type_1  (3,1)  (4,8)  (5,39)  (6,77)  (7,121)  (8,130)  (9,134)  (10,108)  (11,79)  (12,43)  (13,7)  (14,2)  (15,3)  (16,4)  (18,1)  (19,4)  (20,2)  (21,1)  (22,3)  (23,2)  (24,10)  (25,12) 
Branch_type_2  (3,1)  (5,1)  (8,3)  (9,3)  (12,1)  (13,1)  (14,1)  (16,3)  (17,2)  (20,2)  (21,2)  (23,5)  (24,1)  (47,38) 
Branch_type_3  (3,4327)  (4,261)  (5,433)  (6,444)  (7,460)  (8,342)  (9,281)  (10,173)  (11,136)  (12,49)  (13,7) 
Branch_type_4  (6,4)  (7,8)  (8,26)  (9,53)  (10,62)  (11,64)  (12,100)  (13,94)  (14,101)  (15,98)  (16,106)  (17,76)  (18,62)  (19,122)  (20,74)  (21,144)  (22,217)  (23,136)  (24,199)  (25,72) 
Branch_type_5  (8,2)  (9,1)  (10,4)  (11,6)  (12,3)  (13,14)  (14,16)  (15,11)  (16,20)  (17,12)  (18,16)  (19,13)  (20,11)  (21,13)  (22,42)  (23,26)  (24,40) 
Branch_type_6  (5,4)  (6,12)  (7,25)  (8,31)  (9,34)  (10,68)  (11,57)  (12,81)  (13,95)  (14,108)  (15,91)  (16,101)  (17,75)  (18,56)  (19,115)  (20,56)  (21,107)  (22,141)  (23,72)  (24,98)  (25,4)  (47,46) 
Unique trigger count: 
Variant_0_evicts_0 : 0
Variant_0_evicts_1 : 0
Variant_0_evicts_2 : 0
Variant_0_evicts_3 : 0
Variant_1_evicts_0 : 0
Variant_1_evicts_1 : 0
Variant_1_evicts_2 : 0
Variant_1_evicts_3 : 0
Variant_2_evicts_0 : 0
Variant_2_evicts_1 : 0
Variant_2_evicts_2 : 0
Variant_2_evicts_3 : 0
Variant_3_evicts_0 : 0
Variant_3_evicts_1 : 0
Variant_3_evicts_2 : 0
Variant_3_evicts_3 : 0
BTB PER SET UNIQUE ADDR: 39 28 33 35 25 37 37 29 28 41 39 36 34 30 26 37 32 37 43 26 40 27 29 38 36 27 27 32 32 39 34 25 33 33 41 31 36 29 27 33 40 33 31 32 39 29 34 26 33 25 28 36 29 38 41 30 27 39 37 29 38 29 28 40 25 31 44 30 34 29 31 39 37 26 29 38 29 37 36 31 35 26 26 30 26 39 34 26 21 37 36 34 36 28 29 27 38 25 31 40 33 31 37 29 29 33 33 28 29 27 28 37 26 38 34 36 39 31 33 33 36 28 30 34 27 39 35 29 26 33 35 30 32 31 20 40 32 25 38 38 32 37 41 29 31 28 30 32 34 34 29 31 27 39 34 25 46 30 28 35 41 23 28 32 30 47 41 27 29 38 41 29 41 28 30 36 30 33 37 28 37 31 29 40 31 33 24 34 27 34 38 30 32 31 26 35 23 37 37 32 26 36 38 33 42 31 26 38 27 32 32 25 34 30 26 44 28 30 28 36 25 32 33 31 29 43 33 27 36 26 29 34 33 26 31 34 28 40 33 29 38 26 31 33 30 30 41 22 26 36 37 26 31 29 30 37 
BTB PER SET COUNT: 49 55 1495 39 26 42 887 30 33 1643 496 3408 38 1490 26 58 35 1619 48 27 220 31 1488 763 331 276 2020 1803 4420 719 37 25 43 120 197 35 55 36 29 35 630 413 32 59 1825 37 1122 981 230 3315 1669 509 40 110 10470 35 32 115 1509 2299 42 35 639 1007 27 32 242 36 36 1490 83 48 397 39 31 41 1271 5938 2776 273 688 3737 29 37 28 1356 1491 27 21 44 40 362 46 29 511 33 41 25 498 1483 1951 35 1447 54 42 36 3927 29 1491 2106 34 42 76 9120 296 44 40 1957 1609 37 43 31 32 2377 336 208 38 990 1492 37 402 32 215 375 1781 1003 38 1005 348 45 530 1940 51 44 33 28 835 38 1996 485 29 33 36 50 38 31 50 401 28 38 114 2896 2437 801 31 2211 1431 35 18166 1366 1007 330 43 34 33 75 33 39 1522 29 47 35 34 206 33 2026 982 40 34 39 41 627 162 2681 28 380 26 43 964 991 26 1018 67 1937 1105 990 4876 886 35 69 336 26 966 41 38 662 320 826 31 1449 28 495 323 1011 31 46 1020 29 871 33 32 52 41 664 31 37 1061 48 60 32 42 33 991 1014 2936 995 162 1596 28 343 1777 31 46 29 1008 89 
To predecode: 0
Predecoding something: 0
Predecode request dropped: 0
sizeofblock_0 0
sizeofblock_1 38673
sizeofblock_2 95500
sizeofblock_3 0
sizeofblock_4 0
sizeofblock_5 0
sizeofblock_6 0
sizeofblock_7 0
sizeofblock_8 0
Variant_0 Correct: 1603433 Incorrect: 0 Accuracy: 1
Variant_1 Correct: 5705230 Incorrect: 0 Accuracy: 1
Variant_2 Correct: 0 Incorrect: 0 Accuracy: -nan
Variant_3 Correct: 0 Incorrect: 0 Accuracy: -nan
