
*** ChampSim Multicore Out-of-Order Simulator ***

Warmup Instructions: 50000000
Simulation Instructions: 50000000
Number of CPUs: 1
LLC sets: 2048
LLC ways: 16
Off-chip DRAM Size: 4096 MB Channels: 1 Width: 64-bit Data Rate: 6400 MT/s
CPU 0 runs ./micro_traces/srv115.trace.gz
.gz
ITLB has LRU replacement policy
DTLB has LRU replacement policy
STLB has LRU replacement policy
FDIP Prefetcher at L1I
L1I has LRU replacement policy
L1D has LRU replacement policy
Initialize SRRIP state for L2C
Initialize DRRIP state for LLC
Heartbeat_Variant_0 : 1334 0.325684 per_variant_size: 0 1334 0 0 0 0 0 0 0 
Heartbeat_Variant_1 : 2347 0.572998 per_variant_size: 0 162 2185 0 0 0 0 0 0 
Heartbeat_Variant_2 : 0 0 per_variant_size: 0 0 0 0 0 0 0 0 0 
Heartbeat_Variant_3 : 0 0 per_variant_size: 0 0 0 0 0 0 0 0 0 
Heartbeat_Variant_0_evicts 0 : 5572 1 : 1 2 : 0 3 : 0 
Heartbeat_Variant_1_evicts 0 : 0 1 : 0 2 : 0 3 : 0 
Heartbeat_Variant_2_evicts 0 : 0 1 : 0 2 : 0 3 : 0 
Heartbeat_Variant_3_evicts 0 : 0 1 : 0 2 : 0 3 : 0 
Heartbeat CPU 0 instructions: 10000001 cycles: 2796927 heartbeat IPC: 3.57535 cumulative IPC: 3.57535 (Simulation time: 0 hr 1 min 45 sec) 
Heartbeat_Variant_0 : 1376 0.335938 per_variant_size: 0 1376 0 0 0 0 0 0 0 
Heartbeat_Variant_1 : 2448 0.597656 per_variant_size: 0 168 2280 0 0 0 0 0 0 
Heartbeat_Variant_2 : 0 0 per_variant_size: 0 0 0 0 0 0 0 0 0 
Heartbeat_Variant_3 : 0 0 per_variant_size: 0 0 0 0 0 0 0 0 0 
Heartbeat_Variant_0_evicts 0 : 5655 1 : 8 2 : 0 3 : 0 
Heartbeat_Variant_1_evicts 0 : 6 1 : 0 2 : 0 3 : 0 
Heartbeat_Variant_2_evicts 0 : 0 1 : 0 2 : 0 3 : 0 
Heartbeat_Variant_3_evicts 0 : 0 1 : 0 2 : 0 3 : 0 
Heartbeat CPU 0 instructions: 20000003 cycles: 5593889 heartbeat IPC: 3.57531 cumulative IPC: 3.57533 (Simulation time: 0 hr 3 min 27 sec) 
Heartbeat_Variant_0 : 1376 0.335938 per_variant_size: 0 1376 0 0 0 0 0 0 0 
Heartbeat_Variant_1 : 2450 0.598145 per_variant_size: 0 167 2283 0 0 0 0 0 0 
Heartbeat_Variant_2 : 0 0 per_variant_size: 0 0 0 0 0 0 0 0 0 
Heartbeat_Variant_3 : 0 0 per_variant_size: 0 0 0 0 0 0 0 0 0 
Heartbeat_Variant_0_evicts 0 : 5623 1 : 0 2 : 0 3 : 0 
Heartbeat_Variant_1_evicts 0 : 0 1 : 0 2 : 0 3 : 0 
Heartbeat_Variant_2_evicts 0 : 0 1 : 0 2 : 0 3 : 0 
Heartbeat_Variant_3_evicts 0 : 0 1 : 0 2 : 0 3 : 0 
Heartbeat CPU 0 instructions: 30000000 cycles: 8389611 heartbeat IPC: 3.57689 cumulative IPC: 3.57585 (Simulation time: 0 hr 5 min 11 sec) 
Heartbeat_Variant_0 : 1380 0.336914 per_variant_size: 0 1380 0 0 0 0 0 0 0 
Heartbeat_Variant_1 : 2467 0.602295 per_variant_size: 0 176 2291 0 0 0 0 0 0 
Heartbeat_Variant_2 : 0 0 per_variant_size: 0 0 0 0 0 0 0 0 0 
Heartbeat_Variant_3 : 0 0 per_variant_size: 0 0 0 0 0 0 0 0 0 
Heartbeat_Variant_0_evicts 0 : 5495 1 : 0 2 : 0 3 : 0 
Heartbeat_Variant_1_evicts 0 : 2 1 : 0 2 : 0 3 : 0 
Heartbeat_Variant_2_evicts 0 : 0 1 : 0 2 : 0 3 : 0 
Heartbeat_Variant_3_evicts 0 : 0 1 : 0 2 : 0 3 : 0 
Heartbeat CPU 0 instructions: 40000000 cycles: 11185542 heartbeat IPC: 3.57663 cumulative IPC: 3.57604 (Simulation time: 0 hr 6 min 55 sec) 
Heartbeat_Variant_0 : 1422 0.347168 per_variant_size: 0 1422 0 0 0 0 0 0 0 
Heartbeat_Variant_1 : 2524 0.616211 per_variant_size: 0 139 2385 0 0 0 0 0 0 
Heartbeat_Variant_2 : 0 0 per_variant_size: 0 0 0 0 0 0 0 0 0 
Heartbeat_Variant_3 : 0 0 per_variant_size: 0 0 0 0 0 0 0 0 0 
Heartbeat_Variant_0_evicts 0 : 5565 1 : 14 2 : 0 3 : 0 
Heartbeat_Variant_1_evicts 0 : 11 1 : 0 2 : 0 3 : 0 
Heartbeat_Variant_2_evicts 0 : 0 1 : 0 2 : 0 3 : 0 
Heartbeat_Variant_3_evicts 0 : 0 1 : 0 2 : 0 3 : 0 
Heartbeat CPU 0 instructions: 50000002 cycles: 13981706 heartbeat IPC: 3.57633 cumulative IPC: 3.5761 (Simulation time: 0 hr 8 min 38 sec) 

Warmup complete CPU 0 instructions: 50000002 cycles: 13981706 (Simulation time: 0 hr 8 min 38 sec) 

Cycle: 20000000 FTQ IN: 58478191 FTQ occupancy: 20.5547 DECODE IN: 58478160 DECODE occupancy: 53.421 ROB IN: 58478160 ROB occupancy: 318.923 ROB OUT: 58478146
Heartbeat_Variant_0 : 1422 0.347168 per_variant_size: 0 1422 0 0 0 0 0 0 0 
Heartbeat_Variant_1 : 2525 0.616455 per_variant_size: 0 156 2369 0 0 0 0 0 0 
Heartbeat_Variant_2 : 0 0 per_variant_size: 0 0 0 0 0 0 0 0 0 
Heartbeat_Variant_3 : 0 0 per_variant_size: 0 0 0 0 0 0 0 0 0 
Heartbeat_Variant_0_evicts 0 : 5708 1 : 0 2 : 0 3 : 0 
Heartbeat_Variant_1_evicts 0 : 1 1 : 0 2 : 0 3 : 0 
Heartbeat_Variant_2_evicts 0 : 0 1 : 0 2 : 0 3 : 0 
Heartbeat_Variant_3_evicts 0 : 0 1 : 0 2 : 0 3 : 0 
Heartbeat CPU 0 instructions: 60000000 cycles: 21081257 heartbeat IPC: 1.40854 cumulative IPC: 1.40854 (Simulation time: 0 hr 10 min 37 sec) 
Heartbeat_Variant_0 : 1425 0.3479 per_variant_size: 0 1425 0 0 0 0 0 0 0 
Heartbeat_Variant_1 : 2524 0.616211 per_variant_size: 0 152 2372 0 0 0 0 0 0 
Heartbeat_Variant_2 : 0 0 per_variant_size: 0 0 0 0 0 0 0 0 0 
Heartbeat_Variant_3 : 0 0 per_variant_size: 0 0 0 0 0 0 0 0 0 
Heartbeat_Variant_0_evicts 0 : 5519 1 : 4 2 : 0 3 : 0 
Heartbeat_Variant_1_evicts 0 : 2 1 : 0 2 : 0 3 : 0 
Heartbeat_Variant_2_evicts 0 : 0 1 : 0 2 : 0 3 : 0 
Heartbeat_Variant_3_evicts 0 : 0 1 : 0 2 : 0 3 : 0 
Heartbeat CPU 0 instructions: 70000002 cycles: 28288772 heartbeat IPC: 1.38744 cumulative IPC: 1.39791 (Simulation time: 0 hr 12 min 39 sec) 
Cycle: 30000000 FTQ IN: 13925072 FTQ occupancy: 14.9224 DECODE IN: 13925021 DECODE occupancy: 37.9742 ROB IN: 13925021 ROB occupancy: 251.044 ROB OUT: 13924955
Heartbeat_Variant_0 : 1430 0.349121 per_variant_size: 0 1430 0 0 0 0 0 0 0 
Heartbeat_Variant_1 : 2535 0.618896 per_variant_size: 0 150 2385 0 0 0 0 0 0 
Heartbeat_Variant_2 : 0 0 per_variant_size: 0 0 0 0 0 0 0 0 0 
Heartbeat_Variant_3 : 0 0 per_variant_size: 0 0 0 0 0 0 0 0 0 
Heartbeat_Variant_0_evicts 0 : 5684 1 : 5 2 : 0 3 : 0 
Heartbeat_Variant_1_evicts 0 : 5 1 : 0 2 : 0 3 : 0 
Heartbeat_Variant_2_evicts 0 : 0 1 : 0 2 : 0 3 : 0 
Heartbeat_Variant_3_evicts 0 : 0 1 : 0 2 : 0 3 : 0 
Heartbeat CPU 0 instructions: 80000002 cycles: 35389213 heartbeat IPC: 1.40836 cumulative IPC: 1.40138 (Simulation time: 0 hr 14 min 41 sec) 
Cycle: 40000000 FTQ IN: 14051169 FTQ occupancy: 14.8395 DECODE IN: 14051159 DECODE occupancy: 38.037 ROB IN: 14051099 ROB occupancy: 251.577 ROB OUT: 14050917
Heartbeat_Variant_0 : 1430 0.349121 per_variant_size: 0 1430 0 0 0 0 0 0 0 
Heartbeat_Variant_1 : 2537 0.619385 per_variant_size: 0 148 2389 0 0 0 0 0 0 
Heartbeat_Variant_2 : 0 0 per_variant_size: 0 0 0 0 0 0 0 0 0 
Heartbeat_Variant_3 : 0 0 per_variant_size: 0 0 0 0 0 0 0 0 0 
Heartbeat_Variant_0_evicts 0 : 5532 1 : 1 2 : 0 3 : 0 
Heartbeat_Variant_1_evicts 0 : 1 1 : 0 2 : 0 3 : 0 
Heartbeat_Variant_2_evicts 0 : 0 1 : 0 2 : 0 3 : 0 
Heartbeat_Variant_3_evicts 0 : 0 1 : 0 2 : 0 3 : 0 
Heartbeat CPU 0 instructions: 90000000 cycles: 42511766 heartbeat IPC: 1.40399 cumulative IPC: 1.40203 (Simulation time: 0 hr 16 min 41 sec) 
Heartbeat_Variant_0 : 1430 0.349121 per_variant_size: 0 1430 0 0 0 0 0 0 0 
Heartbeat_Variant_1 : 2537 0.619385 per_variant_size: 0 149 2388 0 0 0 0 0 0 
Heartbeat_Variant_2 : 0 0 per_variant_size: 0 0 0 0 0 0 0 0 0 
Heartbeat_Variant_3 : 0 0 per_variant_size: 0 0 0 0 0 0 0 0 0 
Heartbeat_Variant_0_evicts 0 : 5509 1 : 2 2 : 0 3 : 0 
Heartbeat_Variant_1_evicts 0 : 2 1 : 0 2 : 0 3 : 0 
Heartbeat_Variant_2_evicts 0 : 0 1 : 0 2 : 0 3 : 0 
Heartbeat_Variant_3_evicts 0 : 0 1 : 0 2 : 0 3 : 0 
Heartbeat CPU 0 instructions: 100000002 cycles: 49713910 heartbeat IPC: 1.38848 cumulative IPC: 1.3993 (Simulation time: 0 hr 18 min 37 sec) 
Finished CPU 0 instructions: 50000000 cycles: 35732204 cumulative IPC: 1.3993 (Simulation time: 0 hr 18 min 37 sec) 

ChampSim completed all CPUs

Region of Interest Statistics

CPU 0 cumulative IPC: 1.3993 instructions: 50000000 cycles: 35732204
 Fetch stage stalled: 45.7104  Sim cycles: 35732204 fetch stall cycle: 16333328
 Empty decode stage: 25.7895  Sim cycles: 35732204 fetch stall cycle: 9215151
ITLB TOTAL     ACCESS:    5835612  HIT:    5341536  MISS:     494076  HIT %:    91.5334  MISS %:    8.46657   MPKI: 9.88152
ITLB LOAD TRANSLATION INSTRUCTION	ACCESS:    5696705  HIT:    5202629  MISS:     494076  HIT %:     91.327  MISS %:    8.67301  MPKI: 9.88152
ITLB TRANSLATION FROM L1D PREFETCHER INSTRUCTION	ACCESS:     138907  HIT:     138907  MISS:          0  HIT %:        100  MISS %:          0  MPKI: 0

ITLB AVERAGE MISS LATENCY: 9.04148 cycles
ITLB RQ	ACCESS:    7942738	FORWARD:          0	MERGED:    1623068	TO_CACHE:    6319670

DTLB TOTAL     ACCESS:    8951482  HIT:    8481246  MISS:     470236  HIT %:    94.7468  MISS %:    5.25316   MPKI: 9.40472
DTLB LOAD TRANSLATION DATA	ACCESS:    8951482  HIT:    8481246  MISS:     470236  HIT %:    94.7468  MISS %:    5.25316  MPKI: 9.40472

DTLB AVERAGE MISS LATENCY: 9.32531 cycles
DTLB RQ	ACCESS:   13325844	FORWARD:          0	MERGED:    4338213	TO_CACHE:    8987631

STLB TOTAL     ACCESS:    1211223  HIT:    1209190  MISS:       2033  HIT %:    99.8322  MISS %:   0.167847   MPKI: 0.04066
STLB LOAD TRANSLATION INSTRUCTION	ACCESS:     494076  HIT:     493862  MISS:        214  HIT %:    99.9567  MISS %:  0.0433132  MPKI: 0.00428
STLB LOAD TRANSLATION DATA	ACCESS:     470236  HIT:     468442  MISS:       1794  HIT %:    99.6185  MISS %:   0.381511  MPKI: 0.03588
STLB TRANSLATION FROM L1D PREFETCHER DATA	ACCESS:     246911  HIT:     246886  MISS:         25  HIT %:    99.9899  MISS %:  0.0101251  MPKI: 0.0005

STLB AVERAGE MISS LATENCY: 70.1697 cycles
STLB RQ	ACCESS:    1331666	FORWARD:          0	MERGED:     120404	TO_CACHE:    1211262

STLB Hit, L1D data hit: 0
STLB Hit, L2C data hit: 0
STLB Hit, LLC data hit: 0
STLB Hit, LLC data miss: 0
STLB STLB hints to L2: 0
L1D TOTAL     ACCESS:   13075649  HIT:   11963179  MISS:    1112470  HIT %:     91.492  MISS %:    8.50795   MPKI: 22.2494
L1D LOAD DATA	ACCESS:    6540887  HIT:    5807008  MISS:     733879  HIT %:    88.7801  MISS %:    11.2199  MPKI: 14.6776
L1D RFO DATA	ACCESS:    6208075  HIT:    5923726  MISS:     284349  HIT %:    95.4197  MISS %:    4.58031  MPKI: 5.68698
L1D PREFETCH DATA	ACCESS:     326687  HIT:     232445  MISS:      94242  HIT %:    71.1522  MISS %:    28.8478  MPKI: 1.88484

L1D PREFETCH  REQUESTED:     735060  ISSUED:     735060  USEFUL:      33267  USELESS:      69016
L1D USEFUL LOAD PREFETCHES:      33267 PREFETCH ISSUED TO LOWER LEVEL:     102352  ACCURACY: 32.5025
 TIMELY PREFETCHES:      33267 LATE PREFETCHES: 8037 DROPPED PREFETCHES: 6
L1D AVERAGE MISS LATENCY: 237459 cycles
L1D RQ	ACCESS:   10681796	FORWARD:          0	MERGED:    3938344	TO_CACHE:    6576995
L1D WQ	ACCESS:    6945943	FORWARD:     166811	MERGED:     197094	TO_CACHE:    6748849
L1D PQ	ACCESS:     367707	FORWARD:          0	MERGED:          0	TO_CACHE:     367353

L1D UNIQUE REGIONS ACCESSED: 0
L1D REGIONS CONFLICTS: 0
L1D Cross Page Prefetch Requests: 6972
L1D Same Page Prefetch Requests: 747266
L1D ROI Sum of L1D PQ occupancy: 4661240
L1D PREFETCHES PUSHED FROM L2C: 0
L1I TOTAL     ACCESS:    7127025  HIT:    4363299  MISS:    2763726  HIT %:    61.2219  MISS %:    38.7781   MPKI: 55.2745
L1I LOAD INSTRUCTION	ACCESS:    6450804  HIT:    3687078  MISS:    2763726  HIT %:    57.1569  MISS %:    42.8431  MPKI: 55.2745
L1I PREFETCH INSTRUCTION	ACCESS:     676221  HIT:     676221  MISS:          0  HIT %:        100  MISS %:          0  MPKI: 0

L1I PREFETCH  REQUESTED:    1611718  ISSUED:    1611718  USEFUL:          0  USELESS:          0
L1I USEFUL LOAD PREFETCHES:          0 PREFETCH ISSUED TO LOWER LEVEL:          0  ACCURACY: -nan
 TIMELY PREFETCHES:          0 LATE PREFETCHES: 0 DROPPED PREFETCHES: 0
L1I AVERAGE MISS LATENCY: 17.2756 cycles
L1I RQ	ACCESS:    9565359	FORWARD:          0	MERGED:    2810828	TO_CACHE:    6754531
L1I PQ	ACCESS:    1611718	FORWARD:          0	MERGED:     423511	TO_CACHE:    1188207

L1BTB TOTAL     ACCESS:    5670939  HIT:    2040952  MISS:    3629987  HIT %:    35.9897  MISS %:    64.0103   MPKI: 72.5997
L1BTB BRANCH_DIRECT_JUMP	ACCESS:     548563 HIT:     144654 MISS:     403909 AVERAGE STALL: 54.0062 AVERAGE FETCH STALL: 14.1057 AVERAGE FETCH QUEUE STALL: 19.1036 AVERAGE DECODE STALL: 19.8547 AVERAGE EXECUTE STALL: 2.16207e+15
L1BTB BRANCH_INDIRECT	ACCESS:     183058 HIT:      66074 MISS:     116984 AVERAGE STALL: 111.373 AVERAGE FETCH STALL: 10.7372 AVERAGE FETCH QUEUE STALL: 19.3298 AVERAGE DECODE STALL: 13.9673 AVERAGE EXECUTE STALL: 66.3762
L1BTB BRANCH_CONDITIONAL	ACCESS:    2704627 HIT:    1411402 MISS:    1293225 AVERAGE STALL: 61.7056 AVERAGE FETCH STALL: 21.455 AVERAGE FETCH QUEUE STALL: 23.4081 AVERAGE DECODE STALL: 16.2938 AVERAGE EXECUTE STALL: 3.98504e+15
L1BTB BRANCH_DIRECT_CALL	ACCESS:     945276 HIT:     106290 MISS:     838986 AVERAGE STALL: 51.5464 AVERAGE FETCH STALL: 19.5851 AVERAGE FETCH QUEUE STALL: 19.6029 AVERAGE DECODE STALL: 11.5536 AVERAGE EXECUTE STALL: 1.2128e+16
L1BTB BRANCH_INDIRECT_CALL	ACCESS:     172068 HIT:      21568 MISS:     150500 AVERAGE STALL: 141.953 AVERAGE FETCH STALL: 12.5677 AVERAGE FETCH QUEUE STALL: 19.0152 AVERAGE DECODE STALL: 12.2929 AVERAGE EXECUTE STALL: 97.5883
L1BTB BRANCH_RETURN	ACCESS:    1117347 HIT:     290964 MISS:     826383 AVERAGE STALL: 48.719 AVERAGE FETCH STALL: 16.387 AVERAGE FETCH QUEUE STALL: 5.92777 AVERAGE DECODE STALL: 6.08967 AVERAGE EXECUTE STALL: 4.17394e+14
L1BTB BRANCH_OTHER ACCESS:          0 HIT:          0 MISS:          0 AVERAGE STALL: -nan AVERAGE FETCH STALL: -nan AVERAGE FETCH QUEUE STALL: -nan AVERAGE DECODE STALL: -nan AVERAGE EXECUTE STALL: -nan
L1BTB TOTAL ROB OCCUPANCY AT BTB MISS: 2.79415

L2BTB TOTAL     ACCESS:    3604589  HIT:    3538481  MISS:      66108  HIT %:     98.166  MISS %:      1.834   MPKI: 1.32216
L2BTB BRANCH_DIRECT_JUMP	ACCESS:     399746 HIT:     395376 MISS:       4370 AVERAGE STALL: 54.0062 AVERAGE FETCH STALL: 14.1057 AVERAGE FETCH QUEUE STALL: 19.1036 AVERAGE DECODE STALL: 19.8547 AVERAGE EXECUTE STALL: 2.16207e+15
L2BTB BRANCH_INDIRECT	ACCESS:     106697 HIT:     104019 MISS:       2678 AVERAGE STALL: 111.373 AVERAGE FETCH STALL: 10.7372 AVERAGE FETCH QUEUE STALL: 19.3298 AVERAGE DECODE STALL: 13.9673 AVERAGE EXECUTE STALL: 66.3762
L2BTB BRANCH_CONDITIONAL	ACCESS:    1293225 HIT:    1288544 MISS:       4681 AVERAGE STALL: 61.7056 AVERAGE FETCH STALL: 21.455 AVERAGE FETCH QUEUE STALL: 23.4081 AVERAGE DECODE STALL: 16.2938 AVERAGE EXECUTE STALL: 3.98504e+15
L2BTB BRANCH_DIRECT_CALL	ACCESS:     838986 HIT:     837463 MISS:       1523 AVERAGE STALL: 51.5464 AVERAGE FETCH STALL: 19.5851 AVERAGE FETCH QUEUE STALL: 19.6029 AVERAGE DECODE STALL: 11.5536 AVERAGE EXECUTE STALL: 1.2128e+16
L2BTB BRANCH_INDIRECT_CALL	ACCESS:     140955 HIT:     130903 MISS:      10052 AVERAGE STALL: 141.953 AVERAGE FETCH STALL: 12.5677 AVERAGE FETCH QUEUE STALL: 19.0152 AVERAGE DECODE STALL: 12.2929 AVERAGE EXECUTE STALL: 97.5883
L2BTB BRANCH_RETURN	ACCESS:     824980 HIT:     782176 MISS:      42804 AVERAGE STALL: 48.719 AVERAGE FETCH STALL: 16.387 AVERAGE FETCH QUEUE STALL: 5.92777 AVERAGE DECODE STALL: 6.08967 AVERAGE EXECUTE STALL: 4.17394e+14
L2BTB BRANCH_OTHER ACCESS:          0 HIT:          0 MISS:          0 AVERAGE STALL: -nan AVERAGE FETCH STALL: -nan AVERAGE FETCH QUEUE STALL: -nan AVERAGE DECODE STALL: -nan AVERAGE EXECUTE STALL: -nan
L2BTB TOTAL ROB OCCUPANCY AT BTB MISS: 153.427

L2C TOTAL     ACCESS:    4476792  HIT:    4008219  MISS:     468573  HIT %:    89.5333  MISS %:    10.4667   MPKI: 9.37146
L2C LOAD INSTRUCTION	ACCESS:    2763726  HIT:    2500894  MISS:     262832  HIT %:    90.4899  MISS %:    9.51006  MPKI: 5.25664
L2C LOAD TRANSLATION INSTRUCTION	ACCESS:        238  HIT:         70  MISS:        168  HIT %:    29.4118  MISS %:    70.5882  MPKI: 0.00336
L2C LOAD DATA	ACCESS:     725810  HIT:     654872  MISS:      70938  HIT %:    90.2264  MISS %:    9.77363  MPKI: 1.41876
L2C RFO DATA	ACCESS:     284251  HIT:     234362  MISS:      49889  HIT %:     82.449  MISS %:     17.551  MPKI: 0.99778
L2C PREFETCH DATA	ACCESS:     181434  HIT:     112541  MISS:      68893  HIT %:    62.0286  MISS %:    37.9714  MPKI: 1.37786
L2C WRITEBACK DATA	ACCESS:     519427  HIT:     504936  MISS:      14491  HIT %:    97.2102  MISS %:     2.7898  MPKI: 0.28982
L2C LOAD TRANSLATION DATA	ACCESS:       1858  HIT:        515  MISS:       1343  HIT %:     27.718  MISS %:     72.282  MPKI: 0.02686
L2C TRANSLATION FROM L1D PREFETCHER DATA	ACCESS:         48  HIT:         29  MISS:         19  HIT %:    60.4167  MISS %:    39.5833  MPKI: 0.00038

L2C PREFETCH  REQUESTED:      86793  ISSUED:      86793  USEFUL:       6917  USELESS:      62153
L2C USEFUL LOAD PREFETCHES:       6917 PREFETCH ISSUED TO LOWER LEVEL:      69295  ACCURACY: 9.98196
 TIMELY PREFETCHES:       6917 LATE PREFETCHES: 402 DROPPED PREFETCHES: 0
L2C AVERAGE MISS LATENCY: 38.2162 cycles
L2C RQ	ACCESS:    3775991	FORWARD:          0	MERGED:          0	TO_CACHE:    3775934
L2C WQ	ACCESS:     519427	FORWARD:         57	MERGED:          0	TO_CACHE:     519427
L2C PQ	ACCESS:     189145	FORWARD:          0	MERGED:       3441	TO_CACHE:     185704

L2C Dense regions hint from L2: 0
PSCL5 TOTAL     ACCESS:       4086  HIT:       2043  MISS:       2043  HIT %:         50  MISS %:         50   MPKI: 0.04086
PSCL5 LOAD TRANSLATION INSTRUCTION	ACCESS:       3990  HIT:       1995  MISS:       1995  HIT %:         50  MISS %:         50  MPKI: 0.0399
PSCL5 TRANSLATION FROM L1D PREFETCHER INSTRUCTION	ACCESS:         96  HIT:         48  MISS:         48  HIT %:         50  MISS %:         50  MPKI: 0.00096


PSCL4 TOTAL     ACCESS:       3705  HIT:       1847  MISS:       1858  HIT %:    49.8516  MISS %:    50.1484   MPKI: 0.03716
PSCL4 LOAD TRANSLATION INSTRUCTION	ACCESS:       1802  HIT:       1802  MISS:          0  HIT %:        100  MISS %:          0  MPKI: 0
PSCL4 TRANSLATION FROM L1D PREFETCHER INSTRUCTION	ACCESS:         45  HIT:         45  MISS:          0  HIT %:        100  MISS %:          0  MPKI: 0
PSCL4 LOAD TRANSLATION DATA	ACCESS:       1813  HIT:          0  MISS:       1813  HIT %:          0  MISS %:        100  MPKI: 0.03626
PSCL4 TRANSLATION FROM L1D PREFETCHER DATA	ACCESS:         45  HIT:          0  MISS:         45  HIT %:          0  MISS %:        100  MPKI: 0.0009


PSCL3 TOTAL     ACCESS:       3717  HIT:       1853  MISS:       1864  HIT %:     49.852  MISS %:     50.148   MPKI: 0.03728
PSCL3 LOAD TRANSLATION INSTRUCTION	ACCESS:       1808  HIT:       1808  MISS:          0  HIT %:        100  MISS %:          0  MPKI: 0
PSCL3 TRANSLATION FROM L1D PREFETCHER INSTRUCTION	ACCESS:         45  HIT:         45  MISS:          0  HIT %:        100  MISS %:          0  MPKI: 0
PSCL3 LOAD TRANSLATION DATA	ACCESS:       1819  HIT:          0  MISS:       1819  HIT %:          0  MISS %:        100  MPKI: 0.03638
PSCL3 TRANSLATION FROM L1D PREFETCHER DATA	ACCESS:         45  HIT:          0  MISS:         45  HIT %:          0  MISS %:        100  MPKI: 0.0009


PSCL2 TOTAL     ACCESS:       4006  HIT:       1963  MISS:       2043  HIT %:    49.0015  MISS %:    50.9985   MPKI: 0.04086
PSCL2 LOAD TRANSLATION INSTRUCTION	ACCESS:       2129  HIT:       1915  MISS:        214  HIT %:    89.9483  MISS %:    10.0517  MPKI: 0.00428
PSCL2 TRANSLATION FROM L1D PREFETCHER INSTRUCTION	ACCESS:         48  HIT:         48  MISS:          0  HIT %:        100  MISS %:          0  MPKI: 0
PSCL2 LOAD TRANSLATION DATA	ACCESS:       1781  HIT:          0  MISS:       1781  HIT %:          0  MISS %:        100  MPKI: 0.03562
PSCL2 TRANSLATION FROM L1D PREFETCHER DATA	ACCESS:         48  HIT:          0  MISS:         48  HIT %:          0  MISS %:        100  MPKI: 0.00096


LLC TOTAL     ACCESS:     527047  HIT:     499752  MISS:      27295  HIT %:    94.8211  MISS %:    5.17886   MPKI: 0.5459
LLC LOAD INSTRUCTION	ACCESS:     262832  HIT:     262179  MISS:        653  HIT %:    99.7516  MISS %:   0.248448  MPKI: 0.01306
LLC LOAD TRANSLATION INSTRUCTION	ACCESS:        168  HIT:        153  MISS:         15  HIT %:    91.0714  MISS %:    8.92857  MPKI: 0.0003
LLC LOAD DATA	ACCESS:      70551  HIT:      67115  MISS:       3436  HIT %:    95.1298  MISS %:    4.87024  MPKI: 0.06872
LLC RFO DATA	ACCESS:      49866  HIT:      36720  MISS:      13146  HIT %:    73.6373  MISS %:    26.3627  MPKI: 0.26292
LLC PREFETCH DATA	ACCESS:      69294  HIT:      59628  MISS:       9666  HIT %:    86.0507  MISS %:    13.9493  MPKI: 0.19332
LLC WRITEBACK DATA	ACCESS:      72974  HIT:      72678  MISS:        296  HIT %:    99.5944  MISS %:   0.405624  MPKI: 0.00592
LLC LOAD TRANSLATION DATA	ACCESS:       1343  HIT:       1260  MISS:         83  HIT %:    93.8198  MISS %:    6.18019  MPKI: 0.00166
LLC TRANSLATION FROM L1D PREFETCHER DATA	ACCESS:         19  HIT:         19  MISS:          0  HIT %:        100  MISS %:          0  MPKI: 0

LLC AVERAGE MISS LATENCY: 155.575 cycles
LLC RQ	ACCESS:     384787	FORWARD:          0	MERGED:          0	TO_CACHE:     384779
LLC WQ	ACCESS:      72974	FORWARD:          9	MERGED:          0	TO_CACHE:      72974
LLC PQ	ACCESS:      69295	FORWARD:          0	MERGED:          0	TO_CACHE:      69294

LLC Dense regions hint to LLC: 0

RAW hits: 1951673
Loads Generated: 12633469
Loads sent to L1D: 10681796
Stores Generated: 6945939
Stores sent to L1D: 6945943
Major fault: 0 Minor fault: 2559
Allocated PAGES: 2559

stream: 
stream:times selected: 1185694
stream:pref_filled: 122731
stream:pref_useful: 23812
stream:pref_late: 6667
stream:misses: 8182
stream:misses_by_poll: 0

CS: 
CS:times selected: 178151
CS:pref_filled: 60108
CS:pref_useful: 36710
CS:pref_late: 7163
CS:misses: 16221
CS:misses_by_poll: 3

CPLX: 
CPLX:times selected: 1006394
CPLX:pref_filled: 19610
CPLX:pref_useful: 4655
CPLX:pref_late: 3324
CPLX:misses: 93250
CPLX:misses_by_poll: 1

NL_L1: 
NL:times selected: 20976
NL:pref_filled: 760
NL:pref_useful: 367
NL:pref_late: 273
NL:misses: 1741
NL:misses_by_poll: 0

total selections: 2391215
total_filled: 94242
total_useful: 33267
total_late: 18884
total_polluted: 4
total_misses_after_warmup: 769987
conflicts: 5513991

test: 117849

DRAM Statistics
 CHANNEL 0
 RQ ROW_BUFFER_HIT:       9853  ROW_BUFFER_MISS:      17144
 DBUS_CONGESTED:         14
 WQ ROW_BUFFER_HIT:       1317  ROW_BUFFER_MISS:      11819  FULL:          0

 AVG_CONGESTED_CYCLE: 5

CPU 0 Branch Prediction Accuracy: 99.8238% MPKI: 0.3225 Average ROB Occupancy at Mispredict: 197.104
Branch types
NOT_BRANCH: 40850334 81.7007%
BRANCH_DIRECT_JUMP: 548563 1.09713%
BRANCH_INDIRECT: 183058 0.366116%
BRANCH_CONDITIONAL: 6183334 12.3667%
BRANCH_DIRECT_CALL: 945276 1.89055%
BRANCH_INDIRECT_CALL: 172068 0.344136%
BRANCH_RETURN: 1117347 2.23469%
BRANCH_OTHER: 0 0%

DRAM PAGES: 1048576
Allocated PAGES: 2559
Average_ROB_Occupancy: 252.657
Average_Decode_Occupancy: 38.0473
Average_FTQ_Occupancy: 14.902
Indirect max targets: 14 Average targets: 1.15282
Branch_type:  BRANCH_DIRECT_JUMP:  Count Percentage: 5.30488 5.7869 3.60886 3.01026 2.76596 11.1281 6.97179 61.4233 
Branch_type:  BRANCH_INDIRECT:  Count Percentage: 16.3953 0.80299 10.6146 0 1.33604 10.4719 9.80254 50.5766 
Branch_type:  BRANCH_CONDITIONAL:  Count Percentage: 26.4921 2.4825 1.71658 6.55289 1.20283 6.39272 4.06605 51.0943 
Branch_type:  BRANCH_DIRECT_CALL:  Count Percentage: 0.884893 1.26771 0.428697 2.3133 2.25422 3.48049 2.50786 86.8628 
Branch_type:  BRANCH_INDIRECT_CALL:  Count Percentage: 9.54987 0 2.9935 0.00174922 0.000583073 2.37427 0.997347 84.0827 
Branch_type:  BRANCH_RETURN:  Count Percentage: 9.96523 1.41949 1.35701 5.36063 1.75357 8.90502 3.15854 68.0805 
Branch_type:  BRANCH_DIRECT_JUMP:  Total Count: 58153 63437 39561 32999 30321 121988 76426 673333 
Branch_type:  BRANCH_INDIRECT:  Total Count: 60008 2939 38850 0 4890 38328 35878 185114 
Branch_type:  BRANCH_CONDITIONAL:  Total Count: 3274443 306839 212170 809941 148671 790144 502566 6315284 
Branch_type:  BRANCH_DIRECT_CALL:  Total Count: 16701 23926 8091 43660 42545 65689 47332 1639403 
Branch_type:  BRANCH_INDIRECT_CALL:  Total Count: 32757 0 10268 6 2 8144 3421 288412 
Branch_type:  BRANCH_RETURN:  Total Count: 222340 31671 30277 119604 39125 198685 70472 1518983 
Number of unique branch instructions: 9958
Upper 32 bits: 
aaaa
ffff
ffff0000
Unique upper 32 bits: 3
Unique upper 36 bits: 3
Unique upper 40 bits: 5
Unique upper 44 bits: 32
Unique upper 48 bits: 156
Variant_0 : 1430 0.349121
Variant_1 : 2537 0.619385
Variant_2 : 0 0
Variant_3 : 0 0
Offset_3 4093
Offset_4 255
Offset_5 462
Offset_6 508
Offset_7 575
Offset_8 514
Offset_9 475
Offset_10 382
Offset_11 305
Offset_12 275
Offset_13 206
Offset_14 227
Offset_15 190
Offset_16 219
Offset_17 151
Offset_18 118
Offset_19 237
Offset_20 140
Offset_21 265
Offset_22 391
Offset_23 241
Offset_24 338
Offset_25 88
Offset_47 84
Offset_64 1
decode_dispatch_called: 26288811 73.5718
Dispatch_width: 0 14059945 53.4826 39.3481
Dispatch_width: 1 1050512 3.99604 2.93996
Dispatch_width: 2 866281 3.29525 2.42437
Dispatch_width: 3 504272 1.9182 1.41125
Dispatch_width: 4 6515396 24.7839 18.234
Dispatch_width: 5 111904 0.425672 0.313174
Dispatch_width: 6 3180501 12.0983 8.90094
Empty_decode_cycles: 9443393 26.4282
ROB_full_cycles: 10209944 28.5735
Starvation_cycles_per_kilo_instr: 223.418
Starvation_cycles_per_kilo_instr_3: 157.145
Starvation_cycles_per_kilo_instr_0: 132.934
Branch_type_1  (3,1)  (4,8)  (5,38)  (6,72)  (7,112)  (8,132)  (9,128)  (10,99)  (11,67)  (12,43)  (13,8)  (14,2)  (15,3)  (16,4)  (18,1)  (19,4)  (20,2)  (21,1)  (22,3)  (23,2)  (24,10)  (25,12) 
Branch_type_2  (3,1)  (5,1)  (8,3)  (9,3)  (12,1)  (13,1)  (14,1)  (16,3)  (17,2)  (20,2)  (21,2)  (23,5)  (24,1)  (47,38) 
Branch_type_3  (3,4091)  (4,247)  (5,419)  (6,421)  (7,431)  (8,319)  (9,261)  (10,152)  (11,120)  (12,50)  (13,7) 
Branch_type_4  (6,3)  (7,8)  (8,26)  (9,51)  (10,61)  (11,61)  (12,97)  (13,87)  (14,100)  (15,89)  (16,98)  (17,68)  (18,53)  (19,114)  (20,71)  (21,144)  (22,208)  (23,136)  (24,190)  (25,72) 
Branch_type_5  (8,2)  (9,1)  (10,4)  (11,5)  (12,3)  (13,14)  (14,16)  (15,11)  (16,20)  (17,11)  (18,16)  (19,13)  (20,12)  (21,13)  (22,42)  (23,26)  (24,40) 
Branch_type_6  (5,4)  (6,12)  (7,24)  (8,32)  (9,31)  (10,66)  (11,52)  (12,81)  (13,89)  (14,108)  (15,87)  (16,94)  (17,70)  (18,48)  (19,106)  (20,53)  (21,105)  (22,138)  (23,72)  (24,97)  (25,4)  (47,46)  (64,1) 
Unique trigger count: 
Variant_0_evicts_0 : 0
Variant_0_evicts_1 : 0
Variant_0_evicts_2 : 0
Variant_0_evicts_3 : 0
Variant_1_evicts_0 : 0
Variant_1_evicts_1 : 0
Variant_1_evicts_2 : 0
Variant_1_evicts_3 : 0
Variant_2_evicts_0 : 0
Variant_2_evicts_1 : 0
Variant_2_evicts_2 : 0
Variant_2_evicts_3 : 0
Variant_3_evicts_0 : 0
Variant_3_evicts_1 : 0
Variant_3_evicts_2 : 0
Variant_3_evicts_3 : 0
BTB PER SET UNIQUE ADDR: 25 26 25 29 29 27 27 31 22 23 30 27 24 24 22 27 23 28 23 21 26 26 21 24 21 22 23 26 27 28 28 24 26 28 27 28 27 25 26 25 26 23 26 25 22 23 27 23 26 27 23 25 23 24 27 26 28 24 27 25 28 25 23 28 22 25 22 27 26 19 25 23 25 24 24 30 26 23 27 28 27 24 26 28 29 31 24 24 23 29 27 24 23 26 30 31 30 24 24 31 30 27 21 26 28 23 29 22 27 21 22 26 29 24 27 26 26 22 24 23 28 26 25 25 23 27 27 25 25 25 25 22 23 31 22 23 28 27 23 26 23 25 31 24 27 21 25 22 26 22 26 22 25 32 28 24 25 25 29 24 25 27 26 25 27 24 29 26 29 27 26 23 26 25 26 27 23 25 25 27 25 27 23 26 27 29 22 31 27 26 25 25 26 23 19 29 22 27 31 25 23 30 25 23 32 26 29 28 25 23 28 26 29 27 21 27 26 24 25 29 28 28 26 23 29 28 31 26 24 27 23 26 25 26 27 28 23 27 24 26 29 26 22 29 26 28 24 26 21 25 29 27 26 26 26 26 
BTB PER SET COUNT: 29 29 1492 42 552 32 27 1986 508 23 1501 1229 24 914 1489 31 326 1792 23 21 30 30 23 25 23 23 1007 1495 2965 42 526 24 1530 31 327 33 29 26 39 25 644 23 28 419 24 27 1004 1975 885 28 24 1977 28 1001 30 524 28 107 31 482 520 28 1498 560 23 1122 16552 30 1501 21 25 1005 522 26 3941 522 1979 219 4197 46 183 25 2227 30 29 1504 24 1491 25 30 28 26 1490 31 30 1513 32 20991 24 33 528 30 22 26 1493 24 47 24 311 21 22 53 31 24 1009 511 521 1007 25 23 1371 30 1924 4445 24 30 28 27 3491 28 26 44 1005 1011 1488 29 28 33 23 26 1492 25 38 1530 27 21 167 25 27 28 2472 22 26 524 1003 2891 613 3443 1991 24 27 28 1497 2090 2980 29 31 26 2019 28 417 24 1322 27 760 30 29 36 27 29 1000 1018 23 433 29 33 28 34 27 30 25 31 26 23 22 1496 643 29 34 27 23 95 43 24 2714 1496 44 1500 26 530 28 29 1500 2985 23 59 67 125 1976 1675 29 1025 1009 1000 35 37 31 26 7861 705 3631 28 27 1071 1497 262 23 1011 1006 1010 32 33 22 1175 26 81 1007 5173 21 31 29 1246 657 1009 392 26 
To predecode: 0
Predecoding something: 0
Predecode request dropped: 0
sizeofblock_0 0
sizeofblock_1 38914
sizeofblock_2 98444
sizeofblock_3 0
sizeofblock_4 0
sizeofblock_5 0
sizeofblock_6 0
sizeofblock_7 0
sizeofblock_8 0
Variant_0 Correct: 1614949 Incorrect: 0 Accuracy: 1
Variant_1 Correct: 5731986 Incorrect: 0 Accuracy: 1
Variant_2 Correct: 0 Incorrect: 0 Accuracy: -nan
Variant_3 Correct: 0 Incorrect: 0 Accuracy: -nan
