
*** ChampSim Multicore Out-of-Order Simulator ***

Warmup Instructions: 50000000
Simulation Instructions: 50000000
Number of CPUs: 1
LLC sets: 2048
LLC ways: 16
Off-chip DRAM Size: 4096 MB Channels: 1 Width: 64-bit Data Rate: 6400 MT/s
CPU 0 runs ./micro_traces/srv178.trace.gz
.gz
ITLB has LRU replacement policy
DTLB has LRU replacement policy
STLB has LRU replacement policy
FDIP Prefetcher at L1I
L1I has LRU replacement policy
L1D has LRU replacement policy
Initialize SRRIP state for L2C
Initialize DRRIP state for LLC
Heartbeat_Variant_0 : 1397 0.170532 per_variant_size: 0 1397 0 0 0 0 0 0 0 
Heartbeat_Variant_1 : 3013 0.367798 per_variant_size: 0 1199 1814 0 0 0 0 0 0 
Heartbeat_Variant_2 : 0 0 per_variant_size: 0 0 0 0 0 0 0 0 0 
Heartbeat_Variant_3 : 0 0 per_variant_size: 0 0 0 0 0 0 0 0 0 
Heartbeat_Variant_0_evicts 0 : 5576 1 : 4 2 : 0 3 : 0 
Heartbeat_Variant_1_evicts 0 : 3 1 : 0 2 : 0 3 : 0 
Heartbeat_Variant_2_evicts 0 : 0 1 : 0 2 : 0 3 : 0 
Heartbeat_Variant_3_evicts 0 : 0 1 : 0 2 : 0 3 : 0 
Heartbeat CPU 0 instructions: 10000003 cycles: 2797723 heartbeat IPC: 3.57434 cumulative IPC: 3.57434 (Simulation time: 0 hr 2 min 2 sec) 
Heartbeat_Variant_0 : 1423 0.173706 per_variant_size: 0 1423 0 0 0 0 0 0 0 
Heartbeat_Variant_1 : 3105 0.379028 per_variant_size: 0 1217 1888 0 0 0 0 0 0 
Heartbeat_Variant_2 : 0 0 per_variant_size: 0 0 0 0 0 0 0 0 0 
Heartbeat_Variant_3 : 0 0 per_variant_size: 0 0 0 0 0 0 0 0 0 
Heartbeat_Variant_0_evicts 0 : 5553 1 : 0 2 : 0 3 : 0 
Heartbeat_Variant_1_evicts 0 : 1 1 : 0 2 : 0 3 : 0 
Heartbeat_Variant_2_evicts 0 : 0 1 : 0 2 : 0 3 : 0 
Heartbeat_Variant_3_evicts 0 : 0 1 : 0 2 : 0 3 : 0 
Heartbeat CPU 0 instructions: 20000001 cycles: 5593447 heartbeat IPC: 3.57689 cumulative IPC: 3.57561 (Simulation time: 0 hr 4 min 13 sec) 
Heartbeat_Variant_0 : 1424 0.173828 per_variant_size: 0 1424 0 0 0 0 0 0 0 
Heartbeat_Variant_1 : 3104 0.378906 per_variant_size: 0 1216 1888 0 0 0 0 0 0 
Heartbeat_Variant_2 : 0 0 per_variant_size: 0 0 0 0 0 0 0 0 0 
Heartbeat_Variant_3 : 0 0 per_variant_size: 0 0 0 0 0 0 0 0 0 
Heartbeat_Variant_0_evicts 0 : 5566 1 : 1 2 : 0 3 : 0 
Heartbeat_Variant_1_evicts 0 : 0 1 : 0 2 : 0 3 : 0 
Heartbeat_Variant_2_evicts 0 : 0 1 : 0 2 : 0 3 : 0 
Heartbeat_Variant_3_evicts 0 : 0 1 : 0 2 : 0 3 : 0 
Heartbeat CPU 0 instructions: 30000000 cycles: 8389927 heartbeat IPC: 3.57592 cumulative IPC: 3.57572 (Simulation time: 0 hr 6 min 15 sec) 
Heartbeat_Variant_0 : 1424 0.173828 per_variant_size: 0 1424 0 0 0 0 0 0 0 
Heartbeat_Variant_1 : 3105 0.379028 per_variant_size: 0 1209 1896 0 0 0 0 0 0 
Heartbeat_Variant_2 : 0 0 per_variant_size: 0 0 0 0 0 0 0 0 0 
Heartbeat_Variant_3 : 0 0 per_variant_size: 0 0 0 0 0 0 0 0 0 
Heartbeat_Variant_0_evicts 0 : 5543 1 : 0 2 : 0 3 : 0 
Heartbeat_Variant_1_evicts 0 : 0 1 : 0 2 : 0 3 : 0 
Heartbeat_Variant_2_evicts 0 : 0 1 : 0 2 : 0 3 : 0 
Heartbeat_Variant_3_evicts 0 : 0 1 : 0 2 : 0 3 : 0 
Heartbeat CPU 0 instructions: 40000003 cycles: 11187650 heartbeat IPC: 3.57434 cumulative IPC: 3.57537 (Simulation time: 0 hr 8 min 21 sec) 
Heartbeat_Variant_0 : 1424 0.173828 per_variant_size: 0 1424 0 0 0 0 0 0 0 
Heartbeat_Variant_1 : 3105 0.379028 per_variant_size: 0 1216 1889 0 0 0 0 0 0 
Heartbeat_Variant_2 : 0 0 per_variant_size: 0 0 0 0 0 0 0 0 0 
Heartbeat_Variant_3 : 0 0 per_variant_size: 0 0 0 0 0 0 0 0 0 
Heartbeat_Variant_0_evicts 0 : 5711 1 : 0 2 : 0 3 : 0 
Heartbeat_Variant_1_evicts 0 : 0 1 : 0 2 : 0 3 : 0 
Heartbeat_Variant_2_evicts 0 : 0 1 : 0 2 : 0 3 : 0 
Heartbeat_Variant_3_evicts 0 : 0 1 : 0 2 : 0 3 : 0 
Heartbeat CPU 0 instructions: 50000000 cycles: 13984190 heartbeat IPC: 3.57585 cumulative IPC: 3.57547 (Simulation time: 0 hr 10 min 38 sec) 

Warmup complete CPU 0 instructions: 50000004 cycles: 13984191 (Simulation time: 0 hr 10 min 38 sec) 

Cycle: 20000000 FTQ IN: 58121206 FTQ occupancy: 19.9103 DECODE IN: 58121083 DECODE occupancy: 51.8744 ROB IN: 58121023 ROB occupancy: 313.312 ROB OUT: 58120671
Heartbeat_Variant_0 : 1499 0.182983 per_variant_size: 0 1499 0 0 0 0 0 0 0 
Heartbeat_Variant_1 : 3271 0.399292 per_variant_size: 0 1265 2006 0 0 0 0 0 0 
Heartbeat_Variant_2 : 0 0 per_variant_size: 0 0 0 0 0 0 0 0 0 
Heartbeat_Variant_3 : 0 0 per_variant_size: 0 0 0 0 0 0 0 0 0 
Heartbeat_Variant_0_evicts 0 : 5603 1 : 3 2 : 0 3 : 0 
Heartbeat_Variant_1_evicts 0 : 2 1 : 0 2 : 0 3 : 0 
Heartbeat_Variant_2_evicts 0 : 0 1 : 0 2 : 0 3 : 0 
Heartbeat_Variant_3_evicts 0 : 0 1 : 0 2 : 0 3 : 0 
Heartbeat CPU 0 instructions: 60000000 cycles: 21350858 heartbeat IPC: 1.35747 cumulative IPC: 1.35747 (Simulation time: 0 hr 13 min 11 sec) 
Heartbeat_Variant_0 : 1499 0.182983 per_variant_size: 0 1499 0 0 0 0 0 0 0 
Heartbeat_Variant_1 : 3271 0.399292 per_variant_size: 0 1270 2001 0 0 0 0 0 0 
Heartbeat_Variant_2 : 0 0 per_variant_size: 0 0 0 0 0 0 0 0 0 
Heartbeat_Variant_3 : 0 0 per_variant_size: 0 0 0 0 0 0 0 0 0 
Heartbeat_Variant_0_evicts 0 : 5646 1 : 0 2 : 0 3 : 0 
Heartbeat_Variant_1_evicts 0 : 0 1 : 0 2 : 0 3 : 0 
Heartbeat_Variant_2_evicts 0 : 0 1 : 0 2 : 0 3 : 0 
Heartbeat_Variant_3_evicts 0 : 0 1 : 0 2 : 0 3 : 0 
Heartbeat CPU 0 instructions: 70000003 cycles: 28496909 heartbeat IPC: 1.39937 cumulative IPC: 1.3781 (Simulation time: 0 hr 15 min 43 sec) 
Cycle: 30000000 FTQ IN: 13974767 FTQ occupancy: 12.7771 DECODE IN: 13974788 DECODE occupancy: 33.4801 ROB IN: 13974788 ROB occupancy: 237.543 ROB OUT: 13974788
Heartbeat_Variant_0 : 1510 0.184326 per_variant_size: 0 1510 0 0 0 0 0 0 0 
Heartbeat_Variant_1 : 3280 0.400391 per_variant_size: 0 1261 2019 0 0 0 0 0 0 
Heartbeat_Variant_2 : 0 0 per_variant_size: 0 0 0 0 0 0 0 0 0 
Heartbeat_Variant_3 : 0 0 per_variant_size: 0 0 0 0 0 0 0 0 0 
Heartbeat_Variant_0_evicts 0 : 5568 1 : 4 2 : 0 3 : 0 
Heartbeat_Variant_1_evicts 0 : 0 1 : 0 2 : 0 3 : 0 
Heartbeat_Variant_2_evicts 0 : 0 1 : 0 2 : 0 3 : 0 
Heartbeat_Variant_3_evicts 0 : 0 1 : 0 2 : 0 3 : 0 
Heartbeat CPU 0 instructions: 80000001 cycles: 35741313 heartbeat IPC: 1.38038 cumulative IPC: 1.37886 (Simulation time: 0 hr 17 min 57 sec) 
Cycle: 40000000 FTQ IN: 13855420 FTQ occupancy: 12.9504 DECODE IN: 13855491 DECODE occupancy: 33.781 ROB IN: 13855551 ROB occupancy: 238.429 ROB OUT: 13855729
Heartbeat_Variant_0 : 1510 0.184326 per_variant_size: 0 1510 0 0 0 0 0 0 0 
Heartbeat_Variant_1 : 3281 0.400513 per_variant_size: 0 1263 2018 0 0 0 0 0 0 
Heartbeat_Variant_2 : 0 0 per_variant_size: 0 0 0 0 0 0 0 0 0 
Heartbeat_Variant_3 : 0 0 per_variant_size: 0 0 0 0 0 0 0 0 0 
Heartbeat_Variant_0_evicts 0 : 5639 1 : 0 2 : 0 3 : 0 
Heartbeat_Variant_1_evicts 0 : 0 1 : 0 2 : 0 3 : 0 
Heartbeat_Variant_2_evicts 0 : 0 1 : 0 2 : 0 3 : 0 
Heartbeat_Variant_3_evicts 0 : 0 1 : 0 2 : 0 3 : 0 
Heartbeat CPU 0 instructions: 90000000 cycles: 42886008 heartbeat IPC: 1.39964 cumulative IPC: 1.384 (Simulation time: 0 hr 20 min 18 sec) 
Cycle: 50000000 FTQ IN: 13829626 FTQ occupancy: 13.0256 DECODE IN: 13829528 DECODE occupancy: 33.9761 ROB IN: 13829468 ROB occupancy: 238.305 ROB OUT: 13829294
Heartbeat_Variant_0 : 1524 0.186035 per_variant_size: 0 1524 0 0 0 0 0 0 0 
Heartbeat_Variant_1 : 3313 0.404419 per_variant_size: 0 1266 2047 0 0 0 0 0 0 
Heartbeat_Variant_2 : 0 0 per_variant_size: 0 0 0 0 0 0 0 0 0 
Heartbeat_Variant_3 : 0 0 per_variant_size: 0 0 0 0 0 0 0 0 0 
Heartbeat_Variant_0_evicts 0 : 5560 1 : 0 2 : 0 3 : 0 
Heartbeat_Variant_1_evicts 0 : 0 1 : 0 2 : 0 3 : 0 
Heartbeat_Variant_2_evicts 0 : 0 1 : 0 2 : 0 3 : 0 
Heartbeat_Variant_3_evicts 0 : 0 1 : 0 2 : 0 3 : 0 
Heartbeat CPU 0 instructions: 100000002 cycles: 50156962 heartbeat IPC: 1.37534 cumulative IPC: 1.38226 (Simulation time: 0 hr 22 min 49 sec) 
Finished CPU 0 instructions: 50000001 cycles: 36172790 cumulative IPC: 1.38225 (Simulation time: 0 hr 22 min 49 sec) 

ChampSim completed all CPUs

Region of Interest Statistics

CPU 0 cumulative IPC: 1.38225 instructions: 50000001 cycles: 36172790
 Fetch stage stalled: 53.5799  Sim cycles: 36172790 fetch stall cycle: 19381343
 Empty decode stage: 35.3447  Sim cycles: 36172790 fetch stall cycle: 12785172
ITLB TOTAL     ACCESS:    5863559  HIT:    5367887  MISS:     495672  HIT %:    91.5466  MISS %:    8.45343   MPKI: 9.91344
ITLB LOAD TRANSLATION INSTRUCTION	ACCESS:    5736981  HIT:    5241309  MISS:     495672  HIT %:    91.3601  MISS %:    8.63994  MPKI: 9.91344
ITLB TRANSLATION FROM L1D PREFETCHER INSTRUCTION	ACCESS:     126578  HIT:     126578  MISS:          0  HIT %:        100  MISS %:          0  MPKI: 0

ITLB AVERAGE MISS LATENCY: 9.09508 cycles
ITLB RQ	ACCESS:    8003635	FORWARD:          0	MERGED:    1692353	TO_CACHE:    6311282

DTLB TOTAL     ACCESS:    8976121  HIT:    8500950  MISS:     475171  HIT %:    94.7063  MISS %:    5.29372   MPKI: 9.50342
DTLB LOAD TRANSLATION DATA	ACCESS:    8976121  HIT:    8500950  MISS:     475171  HIT %:    94.7063  MISS %:    5.29372  MPKI: 9.50342

DTLB AVERAGE MISS LATENCY: 9.36645 cycles
DTLB RQ	ACCESS:   13353612	FORWARD:          0	MERGED:    4340135	TO_CACHE:    9013477

STLB TOTAL     ACCESS:    1218129  HIT:    1215518  MISS:       2611  HIT %:    99.7857  MISS %:   0.214345   MPKI: 0.05222
STLB LOAD TRANSLATION INSTRUCTION	ACCESS:     495672  HIT:     495120  MISS:        552  HIT %:    99.8886  MISS %:   0.111364  MPKI: 0.01104
STLB LOAD TRANSLATION DATA	ACCESS:     475171  HIT:     473151  MISS:       2020  HIT %:    99.5749  MISS %:    0.42511  MPKI: 0.0404
STLB TRANSLATION FROM L1D PREFETCHER DATA	ACCESS:     247286  HIT:     247247  MISS:         39  HIT %:    99.9842  MISS %:  0.0157712  MPKI: 0.00078

STLB AVERAGE MISS LATENCY: 72.2359 cycles
STLB RQ	ACCESS:    1335639	FORWARD:          0	MERGED:     117469	TO_CACHE:    1218170

STLB Hit, L1D data hit: 0
STLB Hit, L2C data hit: 0
STLB Hit, LLC data hit: 0
STLB Hit, LLC data miss: 0
STLB STLB hints to L2: 0
L1D TOTAL     ACCESS:   13098141  HIT:   11980089  MISS:    1118052  HIT %:     91.464  MISS %:    8.53596   MPKI: 22.361
L1D LOAD DATA	ACCESS:    6556611  HIT:    5821822  MISS:     734789  HIT %:    88.7932  MISS %:    11.2068  MPKI: 14.6958
L1D RFO DATA	ACCESS:    6215283  HIT:    5926460  MISS:     288823  HIT %:     95.353  MISS %:    4.64698  MPKI: 5.77646
L1D PREFETCH DATA	ACCESS:     326247  HIT:     231807  MISS:      94440  HIT %:    71.0526  MISS %:    28.9474  MPKI: 1.8888

L1D PREFETCH  REQUESTED:     730033  ISSUED:     730033  USEFUL:      33840  USELESS:      68075
L1D USEFUL LOAD PREFETCHES:      33840 PREFETCH ISSUED TO LOWER LEVEL:     101967  ACCURACY: 33.1872
 TIMELY PREFETCHES:      33840 LATE PREFETCHES: 7483 DROPPED PREFETCHES: 11
L1D AVERAGE MISS LATENCY: 215017 cycles
L1D RQ	ACCESS:   10701972	FORWARD:          0	MERGED:    3945336	TO_CACHE:    6591308
L1D WQ	ACCESS:    6958357	FORWARD:     165769	MERGED:     196053	TO_CACHE:    6762304
L1D PQ	ACCESS:     365237	FORWARD:          0	MERGED:          0	TO_CACHE:     364796

L1D UNIQUE REGIONS ACCESSED: 0
L1D REGIONS CONFLICTS: 0
L1D Cross Page Prefetch Requests: 5998
L1D Same Page Prefetch Requests: 743060
L1D ROI Sum of L1D PQ occupancy: 4650578
L1D PREFETCHES PUSHED FROM L2C: 0
L1I TOTAL     ACCESS:    7178558  HIT:    4408519  MISS:    2770039  HIT %:    61.4123  MISS %:    38.5877   MPKI: 55.4008
L1I LOAD INSTRUCTION	ACCESS:    6511646  HIT:    3741607  MISS:    2770039  HIT %:    57.4602  MISS %:    42.5398  MPKI: 55.4008
L1I PREFETCH INSTRUCTION	ACCESS:     666912  HIT:     666912  MISS:          0  HIT %:        100  MISS %:          0  MPKI: 0

L1I PREFETCH  REQUESTED:    1612579  ISSUED:    1612579  USEFUL:          0  USELESS:          0
L1I USEFUL LOAD PREFETCHES:          0 PREFETCH ISSUED TO LOWER LEVEL:          0  ACCURACY: -nan
 TIMELY PREFETCHES:          0 LATE PREFETCHES: 0 DROPPED PREFETCHES: 0
L1I AVERAGE MISS LATENCY: 16.7093 cycles
L1I RQ	ACCESS:    9506095	FORWARD:          0	MERGED:    2679578	TO_CACHE:    6826517
L1I PQ	ACCESS:    1612579	FORWARD:          0	MERGED:     435461	TO_CACHE:    1177118

L1BTB TOTAL     ACCESS:    5667642  HIT:    2031286  MISS:    3636356  HIT %:    35.8401  MISS %:    64.1599   MPKI: 72.7271
L1BTB BRANCH_DIRECT_JUMP	ACCESS:     548633 HIT:     144520 MISS:     404113 AVERAGE STALL: 46.0439 AVERAGE FETCH STALL: 15.2516 AVERAGE FETCH QUEUE STALL: 13.6852 AVERAGE DECODE STALL: 16.173 AVERAGE EXECUTE STALL: 2.42656e+15
L1BTB BRANCH_INDIRECT	ACCESS:     182860 HIT:      65733 MISS:     117127 AVERAGE STALL: 104.086 AVERAGE FETCH STALL: 10.8897 AVERAGE FETCH QUEUE STALL: 14.734 AVERAGE DECODE STALL: 12.0417 AVERAGE EXECUTE STALL: 65.4577
L1BTB BRANCH_CONDITIONAL	ACCESS:    2702151 HIT:    1407438 MISS:    1294713 AVERAGE STALL: 52.114 AVERAGE FETCH STALL: 20.4866 AVERAGE FETCH QUEUE STALL: 18.8896 AVERAGE DECODE STALL: 11.9599 AVERAGE EXECUTE STALL: 3.34908e+15
L1BTB BRANCH_DIRECT_CALL	ACCESS:     945272 HIT:     104017 MISS:     841255 AVERAGE STALL: 88.767 AVERAGE FETCH STALL: 25.9728 AVERAGE FETCH QUEUE STALL: 29.7902 AVERAGE DECODE STALL: 32.1265 AVERAGE EXECUTE STALL: 1.47692e+16
L1BTB BRANCH_INDIRECT_CALL	ACCESS:     171743 HIT:      20902 MISS:     150841 AVERAGE STALL: 132.401 AVERAGE FETCH STALL: 12.9005 AVERAGE FETCH QUEUE STALL: 12.5879 AVERAGE DECODE STALL: 10.2578 AVERAGE EXECUTE STALL: 96.1657
L1BTB BRANCH_RETURN	ACCESS:    1116983 HIT:     288676 MISS:     828307 AVERAGE STALL: 46.3159 AVERAGE FETCH STALL: 16.7312 AVERAGE FETCH QUEUE STALL: 4.14997 AVERAGE DECODE STALL: 5.62235 AVERAGE EXECUTE STALL: 4.37946e+14
L1BTB BRANCH_OTHER ACCESS:          0 HIT:          0 MISS:          0 AVERAGE STALL: -nan AVERAGE FETCH STALL: -nan AVERAGE FETCH QUEUE STALL: -nan AVERAGE DECODE STALL: -nan AVERAGE EXECUTE STALL: -nan
L1BTB TOTAL ROB OCCUPANCY AT BTB MISS: 2.49316

L2BTB TOTAL     ACCESS:    3610923  HIT:    3547086  MISS:      63837  HIT %:    98.2321  MISS %:    1.76789   MPKI: 1.27674
L2BTB BRANCH_DIRECT_JUMP	ACCESS:     399956 HIT:     396481 MISS:       3475 AVERAGE STALL: 46.0439 AVERAGE FETCH STALL: 15.2516 AVERAGE FETCH QUEUE STALL: 13.6852 AVERAGE DECODE STALL: 16.173 AVERAGE EXECUTE STALL: 2.42656e+15
L2BTB BRANCH_INDIRECT	ACCESS:     106796 HIT:     104164 MISS:       2632 AVERAGE STALL: 104.086 AVERAGE FETCH STALL: 10.8897 AVERAGE FETCH QUEUE STALL: 14.734 AVERAGE DECODE STALL: 12.0417 AVERAGE EXECUTE STALL: 65.4577
L2BTB BRANCH_CONDITIONAL	ACCESS:    1294713 HIT:    1289119 MISS:       5594 AVERAGE STALL: 52.114 AVERAGE FETCH STALL: 20.4866 AVERAGE FETCH QUEUE STALL: 18.8896 AVERAGE DECODE STALL: 11.9599 AVERAGE EXECUTE STALL: 3.34908e+15
L2BTB BRANCH_DIRECT_CALL	ACCESS:     841255 HIT:     839952 MISS:       1303 AVERAGE STALL: 88.767 AVERAGE FETCH STALL: 25.9728 AVERAGE FETCH QUEUE STALL: 29.7902 AVERAGE DECODE STALL: 32.1265 AVERAGE EXECUTE STALL: 1.47692e+16
L2BTB BRANCH_INDIRECT_CALL	ACCESS:     141303 HIT:     131228 MISS:      10075 AVERAGE STALL: 132.401 AVERAGE FETCH STALL: 12.9005 AVERAGE FETCH QUEUE STALL: 12.5879 AVERAGE DECODE STALL: 10.2578 AVERAGE EXECUTE STALL: 96.1657
L2BTB BRANCH_RETURN	ACCESS:     826900 HIT:     786142 MISS:      40758 AVERAGE STALL: 46.3159 AVERAGE FETCH STALL: 16.7312 AVERAGE FETCH QUEUE STALL: 4.14997 AVERAGE DECODE STALL: 5.62235 AVERAGE EXECUTE STALL: 4.37946e+14
L2BTB BRANCH_OTHER ACCESS:          0 HIT:          0 MISS:          0 AVERAGE STALL: -nan AVERAGE FETCH STALL: -nan AVERAGE FETCH QUEUE STALL: -nan AVERAGE DECODE STALL: -nan AVERAGE EXECUTE STALL: -nan
L2BTB TOTAL ROB OCCUPANCY AT BTB MISS: 142.018

L2C TOTAL     ACCESS:    4493865  HIT:    4075762  MISS:     418103  HIT %:    90.6961  MISS %:    9.30386   MPKI: 8.36206
L2C LOAD INSTRUCTION	ACCESS:    2770039  HIT:    2557660  MISS:     212379  HIT %:     92.333  MISS %:      7.667  MPKI: 4.24758
L2C LOAD TRANSLATION INSTRUCTION	ACCESS:        604  HIT:        238  MISS:        366  HIT %:     39.404  MISS %:     60.596  MPKI: 0.00732
L2C LOAD DATA	ACCESS:     727272  HIT:     656858  MISS:      70414  HIT %:    90.3181  MISS %:    9.68193  MPKI: 1.40828
L2C RFO DATA	ACCESS:     288758  HIT:     237201  MISS:      51557  HIT %:    82.1453  MISS %:    17.8547  MPKI: 1.03114
L2C PREFETCH DATA	ACCESS:     179809  HIT:     110635  MISS:      69174  HIT %:    61.5292  MISS %:    38.4708  MPKI: 1.38348
L2C WRITEBACK DATA	ACCESS:     525187  HIT:     512555  MISS:      12632  HIT %:    97.5948  MISS %:    2.40524  MPKI: 0.25264
L2C LOAD TRANSLATION DATA	ACCESS:       2134  HIT:        569  MISS:       1565  HIT %:    26.6635  MISS %:    73.3365  MPKI: 0.0313
L2C TRANSLATION FROM L1D PREFETCHER DATA	ACCESS:         62  HIT:         46  MISS:         16  HIT %:    74.1935  MISS %:    25.8065  MPKI: 0.00032

L2C PREFETCH  REQUESTED:      86226  ISSUED:      86226  USEFUL:       7452  USELESS:      62224
L2C USEFUL LOAD PREFETCHES:       7452 PREFETCH ISSUED TO LOWER LEVEL:      69639  ACCURACY: 10.7009
 TIMELY PREFETCHES:       7452 LATE PREFETCHES: 465 DROPPED PREFETCHES: 0
L2C AVERAGE MISS LATENCY: 41.0339 cycles
L2C RQ	ACCESS:    3788925	FORWARD:          0	MERGED:          0	TO_CACHE:    3788871
L2C WQ	ACCESS:     525187	FORWARD:         54	MERGED:          0	TO_CACHE:     525187
L2C PQ	ACCESS:     188193	FORWARD:          0	MERGED:       3790	TO_CACHE:     184403

L2C Dense regions hint from L2: 0
PSCL5 TOTAL     ACCESS:       5250  HIT:       2625  MISS:       2625  HIT %:         50  MISS %:         50   MPKI: 0.0525
PSCL5 LOAD TRANSLATION INSTRUCTION	ACCESS:       5126  HIT:       2563  MISS:       2563  HIT %:         50  MISS %:         50  MPKI: 0.05126
PSCL5 TRANSLATION FROM L1D PREFETCHER INSTRUCTION	ACCESS:        124  HIT:         62  MISS:         62  HIT %:         50  MISS %:         50  MPKI: 0.00124


PSCL4 TOTAL     ACCESS:       3366  HIT:       1677  MISS:       1689  HIT %:    49.8217  MISS %:    50.1783   MPKI: 0.03378
PSCL4 LOAD TRANSLATION INSTRUCTION	ACCESS:       2379  HIT:       1637  MISS:        742  HIT %:    68.8104  MISS %:    31.1896  MPKI: 0.01484
PSCL4 TRANSLATION FROM L1D PREFETCHER INSTRUCTION	ACCESS:         61  HIT:         40  MISS:         21  HIT %:    65.5738  MISS %:    34.4262  MPKI: 0.00042
PSCL4 LOAD TRANSLATION DATA	ACCESS:        907  HIT:          0  MISS:        907  HIT %:          0  MISS %:        100  MPKI: 0.01814
PSCL4 TRANSLATION FROM L1D PREFETCHER DATA	ACCESS:         19  HIT:          0  MISS:         19  HIT %:          0  MISS %:        100  MPKI: 0.00038


PSCL3 TOTAL     ACCESS:       5015  HIT:       2497  MISS:       2518  HIT %:    49.7906  MISS %:    50.2094   MPKI: 0.05036
PSCL3 LOAD TRANSLATION INSTRUCTION	ACCESS:       3437  HIT:       2451  MISS:        986  HIT %:    71.3122  MISS %:    28.6878  MPKI: 0.01972
PSCL3 TRANSLATION FROM L1D PREFETCHER INSTRUCTION	ACCESS:         61  HIT:         46  MISS:         15  HIT %:    75.4098  MISS %:    24.5902  MPKI: 0.0003
PSCL3 LOAD TRANSLATION DATA	ACCESS:       1486  HIT:          0  MISS:       1486  HIT %:          0  MISS %:        100  MPKI: 0.02972
PSCL3 TRANSLATION FROM L1D PREFETCHER DATA	ACCESS:         31  HIT:          0  MISS:         31  HIT %:          0  MISS %:        100  MPKI: 0.00062


PSCL2 TOTAL     ACCESS:       5104  HIT:       2479  MISS:       2625  HIT %:    48.5697  MISS %:    51.4303   MPKI: 0.0525
PSCL2 LOAD TRANSLATION INSTRUCTION	ACCESS:       2974  HIT:       2417  MISS:        557  HIT %:     81.271  MISS %:     18.729  MPKI: 0.01114
PSCL2 TRANSLATION FROM L1D PREFETCHER INSTRUCTION	ACCESS:         62  HIT:         62  MISS:          0  HIT %:        100  MISS %:          0  MPKI: 0
PSCL2 LOAD TRANSLATION DATA	ACCESS:       2006  HIT:          0  MISS:       2006  HIT %:          0  MISS %:        100  MPKI: 0.04012
PSCL2 TRANSLATION FROM L1D PREFETCHER DATA	ACCESS:         62  HIT:          0  MISS:         62  HIT %:          0  MISS %:        100  MPKI: 0.00124


LLC TOTAL     ACCESS:     478527  HIT:     446980  MISS:      31547  HIT %:    93.4075  MISS %:    6.59252   MPKI: 0.63094
LLC LOAD INSTRUCTION	ACCESS:     212379  HIT:     211002  MISS:       1377  HIT %:    99.3516  MISS %:   0.648369  MPKI: 0.02754
LLC LOAD TRANSLATION INSTRUCTION	ACCESS:        366  HIT:        320  MISS:         46  HIT %:    87.4317  MISS %:    12.5683  MPKI: 0.00092
LLC LOAD DATA	ACCESS:      69969  HIT:      66209  MISS:       3760  HIT %:    94.6262  MISS %:    5.37381  MPKI: 0.0752
LLC RFO DATA	ACCESS:      51522  HIT:      36037  MISS:      15485  HIT %:    69.9449  MISS %:    30.0551  MPKI: 0.3097
LLC PREFETCH DATA	ACCESS:      69639  HIT:      59285  MISS:      10354  HIT %:    85.1319  MISS %:    14.8681  MPKI: 0.20708
LLC WRITEBACK DATA	ACCESS:      73071  HIT:      72637  MISS:        434  HIT %:    99.4061  MISS %:   0.593943  MPKI: 0.00868
LLC LOAD TRANSLATION DATA	ACCESS:       1565  HIT:       1474  MISS:         91  HIT %:    94.1853  MISS %:     5.8147  MPKI: 0.00182
LLC TRANSLATION FROM L1D PREFETCHER DATA	ACCESS:         16  HIT:         16  MISS:          0  HIT %:        100  MISS %:          0  MPKI: 0

LLC AVERAGE MISS LATENCY: 156.523 cycles
LLC RQ	ACCESS:     335832	FORWARD:          0	MERGED:          0	TO_CACHE:     335817
LLC WQ	ACCESS:      73071	FORWARD:         15	MERGED:          0	TO_CACHE:      73071
LLC PQ	ACCESS:      69639	FORWARD:          0	MERGED:          0	TO_CACHE:      69639

LLC Dense regions hint to LLC: 0

RAW hits: 1942888
Loads Generated: 12644860
Loads sent to L1D: 10701972
Stores Generated: 6958351
Stores sent to L1D: 6958357
Major fault: 0 Minor fault: 2646
Allocated PAGES: 2646

stream: 
stream:times selected: 1180324
stream:pref_filled: 122150
stream:pref_useful: 23883
stream:pref_late: 6543
stream:misses: 6721
stream:misses_by_poll: 0

CS: 
CS:times selected: 178087
CS:pref_filled: 59574
CS:pref_useful: 36097
CS:pref_late: 6402
CS:misses: 15792
CS:misses_by_poll: 6

CPLX: 
CPLX:times selected: 1001125
CPLX:pref_filled: 18956
CPLX:pref_useful: 4301
CPLX:pref_late: 2963
CPLX:misses: 90058
CPLX:misses_by_poll: 0

NL_L1: 
NL:times selected: 19826
NL:pref_filled: 581
NL:pref_useful: 239
NL:pref_late: 189
NL:misses: 1043
NL:misses_by_poll: 0

total selections: 2379362
total_filled: 94440
total_useful: 33840
total_late: 17387
total_polluted: 6
total_misses_after_warmup: 769487
conflicts: 5528028

test: 115053

DRAM Statistics
 CHANNEL 0
 RQ ROW_BUFFER_HIT:      11859  ROW_BUFFER_MISS:      19241
 DBUS_CONGESTED:         13
 WQ ROW_BUFFER_HIT:       1670  ROW_BUFFER_MISS:      13090  FULL:          0

 AVG_CONGESTED_CYCLE: 6

CPU 0 Branch Prediction Accuracy: 99.8088% MPKI: 0.3495 Average ROB Occupancy at Mispredict: 182.378
Branch types
NOT_BRANCH: 40858069 81.7161%
BRANCH_DIRECT_JUMP: 548633 1.09727%
BRANCH_INDIRECT: 182860 0.36572%
BRANCH_CONDITIONAL: 6175962 12.3519%
BRANCH_DIRECT_CALL: 945272 1.89054%
BRANCH_INDIRECT_CALL: 171743 0.343486%
BRANCH_RETURN: 1116983 2.23397%
BRANCH_OTHER: 0 0%

DRAM PAGES: 1048576
Allocated PAGES: 2646
Average_ROB_Occupancy: 238.098
Average_Decode_Occupancy: 33.5709
Average_FTQ_Occupancy: 12.8758
Indirect max targets: 14 Average targets: 1.17778
Branch_type:  BRANCH_DIRECT_JUMP:  Count Percentage: 3.30499 5.44852 4.87371 7.1683 3.47564 6.01704 1.74866 67.9631 
Branch_type:  BRANCH_INDIRECT:  Count Percentage: 6.13629 3.39484 8.16914 9.6806 3.34783 2.81086 3.88344 62.577 
Branch_type:  BRANCH_CONDITIONAL:  Count Percentage: 25.0858 2.46298 2.26188 4.07741 2.33052 4.14494 2.74646 56.89 
Branch_type:  BRANCH_DIRECT_CALL:  Count Percentage: 0.388846 1.27446 0.734298 3.50994 3.15204 2.93523 3.32609 84.6791 
Branch_type:  BRANCH_INDIRECT_CALL:  Count Percentage: 9.574 0 3.0021 0.000874738 0 2.57727 5.00058 79.8452 
Branch_type:  BRANCH_RETURN:  Count Percentage: 7.90705 1.82136 1.14603 3.49522 3.99379 4.57765 3.58495 73.4739 
Branch_type:  BRANCH_DIRECT_JUMP:  Total Count: 36275 59802 53493 78678 38148 66042 19193 745951 
Branch_type:  BRANCH_INDIRECT:  Total Count: 22455 12423 29894 35425 12251 10286 14211 228993 
Branch_type:  BRANCH_CONDITIONAL:  Total Count: 3098226 304191 279354 503581 287831 511922 339202 7026213 
Branch_type:  BRANCH_DIRECT_CALL:  Total Count: 7339 24054 13859 66246 59491 55399 62776 1598218 
Branch_type:  BRANCH_INDIRECT_CALL:  Total Count: 32835 0 10296 3 0 8839 17150 273837 
Branch_type:  BRANCH_RETURN:  Total Count: 176421 40638 25570 77985 89109 102136 79987 1639341 
Number of unique branch instructions: 10788
Upper 32 bits: 
aaaa
ffff
ffff0000
Unique upper 32 bits: 3
Unique upper 36 bits: 3
Unique upper 40 bits: 5
Unique upper 44 bits: 32
Unique upper 48 bits: 158
Variant_0 : 1524 0.186035
Variant_1 : 3313 0.404419
Variant_2 : 0 0
Variant_3 : 0 0
Offset_3 4463
Offset_4 257
Offset_5 482
Offset_6 538
Offset_7 641
Offset_8 578
Offset_9 520
Offset_10 422
Offset_11 350
Offset_12 326
Offset_13 237
Offset_14 248
Offset_15 187
Offset_16 232
Offset_17 168
Offset_18 153
Offset_19 261
Offset_20 140
Offset_21 235
Offset_22 416
Offset_23 241
Offset_24 351
Offset_25 117
Offset_47 94
Offset_64 1
decode_dispatch_called: 25396581 70.2091
Dispatch_width: 0 13568415 53.4261 37.51
Dispatch_width: 1 961390 3.78551 2.65777
Dispatch_width: 2 836308 3.29299 2.31198
Dispatch_width: 3 500221 1.96964 1.38287
Dispatch_width: 4 5576233 21.9566 15.4155
Dispatch_width: 5 163997 0.645744 0.453371
Dispatch_width: 6 3790017 14.9233 10.4775
Empty_decode_cycles: 10776209 29.7909
ROB_full_cycles: 8803223 24.3366
Starvation_cycles_per_kilo_instr: 235.795
Starvation_cycles_per_kilo_instr_3: 178.393
Starvation_cycles_per_kilo_instr_0: 155.414
Branch_type_1  (3,1)  (4,9)  (5,39)  (6,73)  (7,126)  (8,149)  (9,136)  (10,111)  (11,79)  (12,55)  (13,11)  (14,2)  (15,3)  (16,4)  (18,1)  (19,5)  (20,2)  (21,1)  (22,3)  (23,2)  (24,10)  (25,12) 
Branch_type_2  (3,1)  (4,1)  (5,1)  (8,4)  (9,4)  (10,1)  (12,1)  (13,1)  (14,1)  (16,3)  (17,2)  (20,2)  (21,2)  (23,5)  (24,1)  (47,43) 
Branch_type_3  (3,4461)  (4,247)  (5,438)  (6,449)  (7,486)  (8,359)  (9,285)  (10,170)  (11,138)  (12,62)  (13,10)  (64,1) 
Branch_type_4  (6,3)  (7,8)  (8,25)  (9,56)  (10,67)  (11,68)  (12,116)  (13,100)  (14,112)  (15,88)  (16,102)  (17,78)  (18,67)  (19,128)  (20,71)  (21,124)  (22,221)  (23,136)  (24,206)  (25,101) 
Branch_type_5  (8,3)  (9,1)  (10,4)  (11,5)  (12,3)  (13,14)  (14,16)  (15,11)  (16,22)  (17,11)  (18,23)  (19,14)  (20,11)  (21,13)  (22,43)  (23,26)  (24,38) 
Branch_type_6  (5,4)  (6,13)  (7,21)  (8,38)  (9,38)  (10,69)  (11,60)  (12,89)  (13,101)  (14,117)  (15,85)  (16,101)  (17,77)  (18,62)  (19,114)  (20,54)  (21,95)  (22,149)  (23,72)  (24,96)  (25,4)  (47,51) 
Unique trigger count: 
Variant_0_evicts_0 : 0
Variant_0_evicts_1 : 0
Variant_0_evicts_2 : 0
Variant_0_evicts_3 : 0
Variant_1_evicts_0 : 0
Variant_1_evicts_1 : 0
Variant_1_evicts_2 : 0
Variant_1_evicts_3 : 0
Variant_2_evicts_0 : 0
Variant_2_evicts_1 : 0
Variant_2_evicts_2 : 0
Variant_2_evicts_3 : 0
Variant_3_evicts_0 : 0
Variant_3_evicts_1 : 0
Variant_3_evicts_2 : 0
Variant_3_evicts_3 : 0
BTB PER SET UNIQUE ADDR: 2 3 2 4 4 2 3 3 1 3 2 4 3 5 3 4 3 3 3 2 2 3 4 3 5 4 3 1 4 2 4 5 3 2 3 3 3 3 4 3 4 3 5 4 4 4 3 5 5 2 4 4 3 2 3 4 3 3 3 3 4 3 3 4 6 2 3 6 4 2 3 3 3 6 5 4 6 3 4 4 5 5 4 3 4 4 3 3 3 2 4 2 3 4 4 2 5 4 4 4 3 2 3 5 4 4 3 3 4 3 5 2 3 3 3 2 3 6 2 5 3 4 3 3 5 3 5 4 5 0 2 5 6 2 3 3 3 3 4 4 2 2 4 3 3 4 3 2 6 4 3 1 4 4 3 3 5 3 5 2 2 2 2 3 3 2 2 3 5 5 5 3 5 4 4 5 4 4 1 1 3 2 3 3 2 2 1 4 6 3 3 5 4 5 1 3 4 2 6 2 3 3 3 4 2 5 1 1 3 4 3 4 3 4 3 5 3 4 3 4 3 4 3 4 6 3 2 2 5 2 1 6 3 4 2 4 5 2 3 3 4 3 2 3 4 3 2 2 4 3 3 5 2 3 2 4 4 2 4 2 5 5 5 5 2 1 6 4 3 4 4 4 4 4 4 4 5 1 4 4 5 3 1 5 3 2 4 4 6 4 3 5 3 3 3 5 4 3 4 3 4 1 4 3 4 1 3 4 5 3 4 2 4 5 4 5 3 2 2 1 4 3 2 3 5 3 1 2 2 5 2 4 1 3 2 1 4 5 5 3 1 4 4 3 3 4 2 3 3 3 3 4 3 4 4 3 3 5 3 4 3 5 1 4 3 5 4 3 2 2 5 1 5 3 3 6 4 4 3 3 3 4 3 5 4 2 1 3 5 4 5 2 1 5 3 6 3 4 3 4 5 4 2 4 4 5 3 4 6 4 3 2 1 5 4 3 3 2 3 3 4 3 3 7 4 2 3 4 2 4 5 1 3 3 2 1 3 3 2 3 4 3 3 2 4 2 4 3 5 5 3 2 4 4 4 2 3 4 5 2 3 6 2 6 1 3 3 4 4 4 3 2 4 4 3 3 2 1 2 5 2 2 4 2 2 3 3 4 4 4 3 5 3 2 4 6 3 2 1 3 2 3 3 2 3 4 3 2 4 3 3 2 5 3 2 5 5 2 5 3 4 4 3 5 5 4 1 3 3 3 3 5 1 4 2 4 2 4 4 4 3 4 5 7 2 5 6 5 4 3 2 4 3 5 3 4 5 0 3 3 2 6 5 4 4 1 3 3 4 1 4 3 3 4 2 4 2 2 5 4 1 5 4 3 4 3 2 3 5 2 4 3 6 5 1 5 5 4 4 2 4 4 2 3 2 4 3 1 4 4 5 4 5 5 2 3 6 5 4 3 3 2 4 4 3 5 1 4 2 2 3 5 5 3 4 2 1 4 5 3 5 6 2 1 3 3 3 4 4 1 3 3 4 2 3 4 4 4 3 2 2 3 4 6 3 1 5 3 6 2 4 3 3 6 5 3 1 5 2 4 3 3 2 4 5 3 2 4 5 5 5 4 3 2 4 4 4 3 3 7 4 2 2 3 5 4 3 3 5 4 5 3 2 3 3 2 3 4 2 3 4 3 3 4 5 3 5 4 3 6 3 3 4 2 5 5 4 4 3 4 4 4 6 5 3 2 6 2 4 1 5 4 5 2 4 5 3 2 3 4 5 5 5 3 2 6 4 5 2 4 5 2 0 6 5 4 4 4 2 3 4 3 5 4 6 2 3 4 3 5 3 2 3 5 4 2 4 1 2 1 4 5 5 2 3 4 2 1 3 5 4 3 1 4 4 5 4 4 5 4 5 3 4 4 3 4 3 3 3 3 2 5 4 3 5 4 4 4 3 4 2 5 2 4 4 3 5 2 2 3 4 4 3 5 4 2 6 3 2 3 1 4 3 4 6 3 3 4 4 3 3 2 5 5 1 5 3 5 1 6 3 3 2 4 2 3 5 2 2 0 6 4 1 1 2 3 2 4 3 2 3 2 3 3 3 2 4 4 6 3 4 4 3 4 4 4 3 3 3 3 3 2 4 4 4 5 6 4 4 2 3 5 3 5 3 4 5 4 2 3 4 4 2 5 3 1 3 2 7 5 4 5 1 4 5 4 3 4 3 3 4 5 5 3 3 1 5 4 2 5 4 3 4 3 3 4 4 3 4 3 2 1 3 3 4 4 4 4 4 3 2 2 3 5 4 4 1 3 2 2 6 2 3 3 2 4 4 5 3 5 4 4 5 5 3 3 2 3 2 3 3 2 4 4 5 0 5 5 4 2 3 3 3 2 3 4 3 3 2 2 3 3 4 5 4 4 4 4 3 5 4 2 6 4 2 3 2 5 3 2 4 3 4 3 1 4 4 3 4 3 4 4 2 3 4 3 4 3 3 3 6 3 5 1 3 2 4 2 1 2 4 4 1 5 5 3 4 5 3 2 5 2 5 2 2 2 2 5 4 3 2 3 3 2 4 3 6 5 3 5 3 5 2 4 3 3 3 6 4 0 3 4 5 1 3 5 2 2 3 3 4 4 1 2 2 3 2 5 5 3 5 4 1 3 3 1 4 3 2 3 5 3 2 4 3 3 4 3 4 3 5 3 3 4 3 3 4 3 2 5 4 2 4 3 4 4 3 2 2 4 4 4 3 2 4 3 3 2 2 2 5 4 3 3 3 4 4 2 5 6 3 5 2 3 2 3 1 2 5 4 4 1 3 5 4 5 2 6 4 2 3 3 3 5 4 6 4 5 3 2 5 5 4 4 4 2 6 6 1 3 4 4 2 3 5 2 3 5 3 3 3 4 3 4 4 3 5 4 2 5 4 5 4 3 3 3 2 5 5 2 5 5 5 6 2 4 4 3 5 4 3 2 4 4 4 4 3 4 5 4 2 3 3 5 3 5 3 1 2 4 4 3 3 4 5 3 3 7 3 2 4 4 4 3 6 2 4 3 4 5 2 3 3 4 4 4 2 4 3 5 5 4 2 4 5 5 4 2 7 3 5 4 5 3 4 4 4 2 6 3 3 2 4 4 4 2 3 5 3 6 3 6 2 3 4 5 3 4 5 5 2 3 3 3 3 5 3 2 2 3 1 2 2 4 3 5 3 5 3 2 4 3 3 3 4 3 4 4 2 4 4 3 5 5 5 2 3 2 2 5 3 5 3 6 5 5 2 5 2 4 3 2 3 4 4 3 4 5 5 4 3 2 3 3 3 5 4 2 6 3 3 4 3 3 4 4 3 2 5 4 4 4 5 4 4 6 5 4 3 3 3 2 3 2 4 2 3 3 5 5 3 4 5 4 4 3 3 3 4 3 3 3 3 4 4 5 3 2 4 3 5 2 6 3 4 4 4 3 3 2 4 5 4 2 4 6 5 3 4 4 3 3 4 3 4 2 3 4 4 1 3 4 4 3 5 4 3 4 1 3 6 3 4 5 4 3 4 5 2 0 2 5 2 3 2 5 4 2 3 2 1 3 3 4 2 3 3 4 3 5 4 4 6 3 3 4 4 2 4 4 3 3 4 4 1 4 2 3 3 4 6 3 2 3 3 4 4 3 3 2 4 3 1 4 5 3 3 4 3 5 2 4 5 4 2 4 2 2 3 5 2 3 3 2 2 4 4 4 2 3 3 2 5 4 3 4 3 5 4 2 2 5 4 2 2 4 2 4 3 3 4 4 2 4 3 3 2 4 4 4 2 4 4 4 2 2 2 5 2 1 5 3 3 3 3 3 2 4 5 4 3 3 4 2 0 1 6 4 2 2 3 4 3 3 3 4 4 4 2 4 2 5 4 3 2 4 3 4 4 4 4 2 3 3 3 4 3 3 4 5 1 2 2 4 4 6 4 5 2 3 2 1 4 5 3 4 2 3 4 6 4 4 4 3 2 3 2 2 3 3 4 4 4 2 4 3 1 1 3 3 3 5 4 4 4 3 5 3 2 4 5 5 6 4 0 5 3 5 4 4 4 5 4 3 2 6 4 4 2 2 3 7 3 4 4 5 4 3 3 3 5 4 2 3 1 2 6 3 2 2 5 3 4 2 5 4 3 4 0 3 3 2 4 3 5 4 2 2 5 3 3 5 3 1 3 4 5 2 3 5 4 1 5 2 4 2 4 3 3 3 4 2 4 3 4 2 3 5 4 5 2 3 4 3 3 2 1 5 3 0 2 3 2 4 3 3 4 4 6 3 1 4 3 4 4 4 4 3 1 1 3 2 2 2 4 4 2 5 2 2 3 2 3 4 2 4 3 1 2 6 5 3 3 1 4 3 3 4 3 2 4 3 3 2 2 5 3 4 3 3 2 2 4 3 3 2 3 4 2 2 4 3 3 3 4 6 5 2 4 1 3 4 3 4 2 4 4 3 1 4 2 3 3 4 5 5 4 4 2 3 2 3 2 3 3 2 5 4 2 5 2 2 3 5 5 2 4 3 2 2 3 4 5 2 5 4 3 3 3 5 4 3 5 3 5 3 5 2 4 3 1 3 2 4 4 2 4 4 1 3 3 5 5 4 4 4 6 4 5 1 2 2 3 2 4 2 0 3 5 3 2 2 2 2 2 3 3 4 
BTB PER SET COUNT: 2 1475 1471 7 5 2 3 3 1 3 39 4 3 1474 3 5 3 4 3 2 3 3 4 3 495 4 3 1 7 2 5 5 3 2 4 5 3 3 4 4 5 982 6 6 10 832 493 5 6 2 1474 4 3 2 3 4 981 983 3 3 987 5 6 8 6 2 4 8 6 2 7 3 4 8 5 4 8 3 984 4 8 8 4 3 6 4 3 3 494 981 4 2 4 4 6 2 5 4 4 5 3 2 4 7 364 4 3 3 4 3 7 2 3 3 5 2 3 6 2 1964 5 7 731 3 8 3 10 4 619 0 2 5 7 2 3 3 4 3 4 5 2 2 4 3 3 4 4 2 8 4 3 1 4 4 4 4 5 3 5 2 2 2 2 3 3 3 2 3 5 5 5 3 8 4 6 5 6 4 1 1 3 2 3 3 2 2 1 4 6 3 4 5 5 5 1 492 4 2 1521 4 3 1474 6 6 4 5 1 1 35 4 5 5 3 365 3 6 3 860 3 5 3 4 3 494 6 3 2 2 5 2 1 6 3 4 2 4 8 2 3 3 4 6 4 3 4 3 2 2 6 3 3 6 2 4 2 4 1473 2 6 2 5 5 5 7 5 1 8 4 6 4 4 5 4 4 6 4 992 1 4 5 7 5 1 8 3 2 4 4 9 5 3 5 3 5 19 10 4 3 4 3 4 1 1478 3 4 1 5 4 5 13 8 4 5 5 5 6 3 2 2 1 5 4 2 3 5 3 1 3 2 6 2 6 1 3 2 1 4 5 5 4 1 6 5 4 3 5 2 3 3 5 3 7 3 4 4 4 3 9 4 15 4 6 1 10 3 2606 5 3 2 2 5 1 5 7 3 8 4 4 3 3 3 262 3 5 5 2 1 3 5 4 5 2 1 5 10 8 3 4 3 4 7 363 2 4 6 5 6 19 8 5 4 2 1 5 4 3 3 3 4 3 7 3 3 498 4 378 3 4 2 4 5 1 3 3 31 1 3 4 4 3 7 3 3 2 545 5 2456 26 6 6 3 315 4 6 365 2 4 4 9 2 3 8 980 6 1 3 3 4 4 4 3 5 5 4 3 3 2 2 2 10 2 3 4 2 140 3 3 4 4 4 985 5 31 2 4 990 3 2 2 3 2 3 3 3 4 4 3 2 5 3 3 2 5 1962 4 5 5 492 7 3 4 4 3 5 9 4 1 3 3 3 3 5 1 4 3 4 2 91 6 4 6 4 5 7 2 1476 6 5 4 3 3 1473 982 5 3 4 5 0 3 3 982 8911 5 5 4 1 1960 3 4 2 4 3 3 6 3 4 2 3 5 5 1 5 4 5 7 3 4 3 5 987 4 3 8 984 1 1474 5 6 4 2 7 4 981 3 4 7 982 1 4 6 5 4 990 5 2 3 18 5 4 3 3 2 5 8 4 5 1 4 2 2 982 5 5 3 6 2 1 4 5 3 6 7 2 1 3 4 3 5 5 1 3 4 4 2 3 4 4 4 3 2 2 3 4 6 3 1 7 3 6 2 4 3 3 7 7 3 1 7 2 5 983 202 3 4 6 3 2 1473 5 5 5 4 5 2 4 6 5 3 3 8 6 2 2 3 6 4 3 3 5 4 6 5 2 3 3 491 3 4 2 4 4 3 3 4 5 3 5 4 3 8 3 3 4 2 6 5 4 4 3 4 5 4 6 7 3 2 6 2 5 1 1474 4 5 2 4 5 4 2 3 1962 9 7 5 67 2 9 4 495 2 4 10 2 0 6 5 4 5 5 2 3 4 3 5 4 9 2 12 6 257 5 4 2 3 5 7 2 4 1 2 1 5 5 5 2 3 4 2 1 4 9 4 3 1 4 4 5 4 4 5 4 5 3 4 4 3 4 3 3 3 502 2 5 6 3 5 4 4 4 3 5 2 984 2 4 6 4 984 2 3 3 4 4 4 9 4 3 6 3 2 3 1 4 4 4 496 3 3 4 6 3 3 2 5 8 1 5 3 5 1 6 3 4 2 4 4 3 5 2 2 0 1475 4 1 1 2 3 362 4 3 2 3 2 3 982 3 2 4 4 6 9 5 10 3 4 4 4 3 3 3 5 496 983 4 4 4 7 1480 4 5 3 5 5 3 5 3 8 5 983 2 9 5 6 3 6 3 1 3 2 11 7 4 6 1 4 984 4 3 5 1961 3 5 5 6 3 3 1 495 7 2 5 4 3 4 7 3 4 5 3 4 3 2 1 3 3 4 5 4 1019 6 3 2 2 3 7 4 7 1 5 2 2 7 6 5 4 2 4 4 1983 3 499 4 6 8 6 3 3 2 3 3 3 3 2 5 5 6 0 5 496 4 2 4 3 3 2 3 4 3 4 2 2 3 3 5 5 4 6 983 4 3 7 4 2 6 7 2 3 4 5 1472 8 4 3 4 3 1 9 5 3 4 3 5 390 2 4 6 3 6 3 3 5 6 4 5 2 3 2 5 2 1 2 4 4 1 8 5 4 12 5 111 2 8 2 10 2 2 3 2 5 4 3 2 3 3 2 4 4 7 147 7 6 3 7 2 4 3 3 3 7 5 0 3 4 5 1 5 5 2 2 4 3 4 20590 1 2 2 5 2 984 5 3 5 5 1 4 3 1 4 3 2 3 5 3 2 4 3 6 4 3 6 3 1471 3 3 5 4 3 4 4 2 5 1473 4 4 3 6 4 3 2 2 5 4 6 3 2 4 4 3 3 2 2 5 7 3 3 3 4 4 2 5 367 1472 5 2 1473 3 3 1 2 5 4 617 1 6 5 4 5 2 7 8 2 3 3 5 5 4 25 4 5 3 4 5 16 4 8 4 2 7 7 1 3 4 494 2 3 5 2 3 5 3 3 3 35 3 4 983 3 6 9 2 5 4 5 4 3 3 3 3 5 6 2 5 6 5 999 2 4 4 3 5 4 3 2 4 4 4 4 3 6 8 5 4 3 8 14 5 5 3 1 2 4 5 3 4 7 5 3 3 7 3 2 4 4 4 3 6 2 4 1476 6 1474 2 3 3 6 4 5 2 4 3 11 5 4 2 4 5 7 5 2 11 3 2946 4 5 4 5 4 4 2 11 3 3 2 12 5 7 2 3 7 4 6 3 6 2 3 4 5 3 7 5 8 2 3 3 4 3 6 4 2 2 3 1 2 2 4 3 5 3 7 3 2 5 3 3 3 4 3 4 4 4 21 4 3 5 5 8 2 3 3 2 5 3 5 3 6 5 5 2 10 2 2452 3 2 5 2944 4 4 4 5 5 4 3 2 6 5 3 6 4 4 6 3 3 244 5 3 6 4 4 5 5 4 4 6 5 4 4 6 7 6 4 3 3 2 3 2 4 2 3 3 7 8 3 4 987 4 4 3 3 4 4 3 3 3 3 4 4 6 3 2 4 3 493 2 6 4 4 4 4 3 3 2 5 5 4 2 4 985 5 3 6 8 4 4 6 3 4 2 3 5 983 1 3 4 5 4 7 43 3 4 1 3 6 4 4 9 4 3 5 7 2 0 2 5 2 4 2 5 4 2 4 2 1 3 3 6 2 3 2942 494 3 5 4 4 7 3 3 7 8 2 6 1473 3 3 47 6 1 6 2 5 3 4 6 3 2 3 3 4 5 4 3 2 4 3 2 249 7 3 3 5 3 5 2 4 7 4 2 4 3 2 3 5 2 3 4 2 2 11 4 4 2 3 3 2 162 4 9 4 4 6 4 2 2 5 6 2 2 4 2 4 3 3 4 4 4 4 9 3 2 6 4 4 3 6 4 10 3 2 2 7 4 1 7 3 3 3 3 3 6 5 5 4 3 4 10 2 0 1 6 4 2 2 3 4 3 3 4 4 7 4 2 4 2 5 5 3 2 4 235 4 5 4 4 2 5 3 3 5 3 6 5 5 1 2 3 4 4 6 494 267 2 3 3 1 4 5 3 4 2 5 4 6 4 6 4 3 2 3 2 3 3 3 6 4 4 2 366 3 1 2 3 3 3 7 4 5 4 3 5 3 2 4 7 5 6 5 0 5 3 7 4 493 4 6 4 3 2 9 152 4 2 2 3 7 3 4 5 5 4 9 4 3 5 4 2 3 1 2 12 3 2 8 5 3 28 3 5 6 5 4 0 3 3 2 4 3 5 4 2 2 5 3 3 9 3 1 7 6 6 2 4 114 4 1 5 2 4 1471 4 3 3 3 6 2 4 3 8 2 5 6 187 5 2 3 4 3 4 3 1 5 11 0 2 8 2 4 3 3 4 983 7 3 2 4 4 4 5 4 4 3 1 1 3 2 2 2 12 4 2 5 1471 2 14712 2 151 4 2 4 5 1 2 6 6 3 1476 1 4 3 4 4 4 2 5 3 3 2 2 5 4 4 3 4 3 2 5 505 3 2 3 5 2 3 5 3 4 26 4 7 6 2 4 1 4 5 3 19 3 4 4 3 1 5 2 3 3 4 5 6 4 983 3 982 2 29 2 3 2936 2 6 4 491 5 2 1470 3 6 6 4 4 3 2 2 138 4 9 2 5 1027 3 4 3 6 4 3 5 3 6 3 1345 2 5 3 1 3 2 4 4 2 6 4 1 1472 3 175 5 1473 4 5 1474 4 1345 1 5 2 1228 2 4 2 0 4 5 3 2 2 2 2 2 3 3 1032 
To predecode: 0
Predecoding something: 0
Predecode request dropped: 0
sizeofblock_0 0
sizeofblock_1 60198
sizeofblock_2 73243
sizeofblock_3 0
sizeofblock_4 0
sizeofblock_5 0
sizeofblock_6 0
sizeofblock_7 0
sizeofblock_8 0
Variant_0 Correct: 1618302 Incorrect: 0 Accuracy: 1
Variant_1 Correct: 5749763 Incorrect: 0 Accuracy: 1
Variant_2 Correct: 0 Incorrect: 0 Accuracy: -nan
Variant_3 Correct: 0 Incorrect: 0 Accuracy: -nan
