
*** ChampSim Multicore Out-of-Order Simulator ***

Warmup Instructions: 50000000
Simulation Instructions: 50000000
Number of CPUs: 1
LLC sets: 2048
LLC ways: 16
Off-chip DRAM Size: 4096 MB Channels: 1 Width: 64-bit Data Rate: 6400 MT/s
CPU 0 runs ./micro_traces/srv193.trace.gz
.gz
ITLB has LRU replacement policy
DTLB has LRU replacement policy
STLB has LRU replacement policy
FDIP Prefetcher at L1I
L1I has LRU replacement policy
L1D has LRU replacement policy
Initialize SRRIP state for L2C
Initialize DRRIP state for LLC
Heartbeat_Variant_0 : 1342 0.327637 per_variant_size: 0 1342 0 0 0 0 0 0 0 
Heartbeat_Variant_1 : 1220 0.297852 per_variant_size: 0 580 640 0 0 0 0 0 0 
Heartbeat_Variant_2 : 1338 0.32666 per_variant_size: 0 554 364 222 198 0 0 0 0 
Heartbeat_Variant_3 : 0 0 per_variant_size: 0 0 0 0 0 0 0 0 0 
Heartbeat_Variant_0_evicts 0 : 5853 1 : 351 2 : 385 3 : 0 
Heartbeat_Variant_1_evicts 0 : 331 1 : 0 2 : 506 3 : 0 
Heartbeat_Variant_2_evicts 0 : 361 1 : 501 2 : 0 3 : 0 
Heartbeat_Variant_3_evicts 0 : 0 1 : 0 2 : 0 3 : 0 
Heartbeat CPU 0 instructions: 10000002 cycles: 2795067 heartbeat IPC: 3.57773 cumulative IPC: 3.57773 (Simulation time: 0 hr 2 min 17 sec) 
Heartbeat_Variant_0 : 1341 0.327393 per_variant_size: 0 1341 0 0 0 0 0 0 0 
Heartbeat_Variant_1 : 1230 0.300293 per_variant_size: 0 583 647 0 0 0 0 0 0 
Heartbeat_Variant_2 : 1354 0.330566 per_variant_size: 0 562 370 220 202 0 0 0 0 
Heartbeat_Variant_3 : 0 0 per_variant_size: 0 0 0 0 0 0 0 0 0 
Heartbeat_Variant_0_evicts 0 : 5517 1 : 44 2 : 54 3 : 0 
Heartbeat_Variant_1_evicts 0 : 52 1 : 0 2 : 232 3 : 0 
Heartbeat_Variant_2_evicts 0 : 52 1 : 239 2 : 0 3 : 0 
Heartbeat_Variant_3_evicts 0 : 0 1 : 0 2 : 0 3 : 0 
Heartbeat CPU 0 instructions: 20000001 cycles: 5590090 heartbeat IPC: 3.57779 cumulative IPC: 3.57776 (Simulation time: 0 hr 3 min 54 sec) 
Heartbeat_Variant_0 : 1373 0.335205 per_variant_size: 0 1373 0 0 0 0 0 0 0 
Heartbeat_Variant_1 : 1259 0.307373 per_variant_size: 0 572 687 0 0 0 0 0 0 
Heartbeat_Variant_2 : 1375 0.335693 per_variant_size: 0 547 401 209 218 0 0 0 0 
Heartbeat_Variant_3 : 0 0 per_variant_size: 0 0 0 0 0 0 0 0 0 
Heartbeat_Variant_0_evicts 0 : 5744 1 : 311 2 : 312 3 : 0 
Heartbeat_Variant_1_evicts 0 : 320 1 : 0 2 : 507 3 : 0 
Heartbeat_Variant_2_evicts 0 : 295 1 : 510 2 : 0 3 : 0 
Heartbeat_Variant_3_evicts 0 : 0 1 : 0 2 : 0 3 : 0 
Heartbeat CPU 0 instructions: 30000001 cycles: 8384898 heartbeat IPC: 3.57806 cumulative IPC: 3.57786 (Simulation time: 0 hr 5 min 30 sec) 
Heartbeat_Variant_0 : 1391 0.3396 per_variant_size: 0 1391 0 0 0 0 0 0 0 
Heartbeat_Variant_1 : 1277 0.311768 per_variant_size: 0 572 705 0 0 0 0 0 0 
Heartbeat_Variant_2 : 1365 0.333252 per_variant_size: 0 520 391 239 215 0 0 0 0 
Heartbeat_Variant_3 : 0 0 per_variant_size: 0 0 0 0 0 0 0 0 0 
Heartbeat_Variant_0_evicts 0 : 5841 1 : 213 2 : 183 3 : 0 
Heartbeat_Variant_1_evicts 0 : 207 1 : 0 2 : 388 3 : 0 
Heartbeat_Variant_2_evicts 0 : 179 1 : 375 2 : 0 3 : 0 
Heartbeat_Variant_3_evicts 0 : 0 1 : 0 2 : 0 3 : 0 
Heartbeat CPU 0 instructions: 40000001 cycles: 11179198 heartbeat IPC: 3.57871 cumulative IPC: 3.57807 (Simulation time: 0 hr 7 min 2 sec) 
Heartbeat_Variant_0 : 1402 0.342285 per_variant_size: 0 1402 0 0 0 0 0 0 0 
Heartbeat_Variant_1 : 1269 0.309814 per_variant_size: 0 548 721 0 0 0 0 0 0 
Heartbeat_Variant_2 : 1367 0.33374 per_variant_size: 0 512 391 249 215 0 0 0 0 
Heartbeat_Variant_3 : 0 0 per_variant_size: 0 0 0 0 0 0 0 0 0 
Heartbeat_Variant_0_evicts 0 : 5561 1 : 81 2 : 67 3 : 0 
Heartbeat_Variant_1_evicts 0 : 65 1 : 0 2 : 272 3 : 0 
Heartbeat_Variant_2_evicts 0 : 72 1 : 266 2 : 0 3 : 0 
Heartbeat_Variant_3_evicts 0 : 0 1 : 0 2 : 0 3 : 0 
Heartbeat CPU 0 instructions: 50000002 cycles: 13975129 heartbeat IPC: 3.57663 cumulative IPC: 3.57778 (Simulation time: 0 hr 8 min 41 sec) 

Warmup complete CPU 0 instructions: 50000002 cycles: 13975129 (Simulation time: 0 hr 8 min 41 sec) 

Cycle: 20000000 FTQ IN: 57840087 FTQ occupancy: 18.5595 DECODE IN: 57840022 DECODE occupancy: 47.8856 ROB IN: 57839962 ROB occupancy: 295.178 ROB OUT: 57839928
*** Reached end of trace for Core: 0 Repeating trace: ./micro_traces/srv193.trace.gz
Heartbeat_Variant_0 : 1408 0.34375 per_variant_size: 0 1408 0 0 0 0 0 0 0 
Heartbeat_Variant_1 : 1270 0.310059 per_variant_size: 0 538 732 0 0 0 0 0 0 
Heartbeat_Variant_2 : 1374 0.335449 per_variant_size: 0 509 391 254 220 0 0 0 0 
Heartbeat_Variant_3 : 0 0 per_variant_size: 0 0 0 0 0 0 0 0 0 
Heartbeat_Variant_0_evicts 0 : 5678 1 : 160 2 : 160 3 : 0 
Heartbeat_Variant_1_evicts 0 : 143 1 : 0 2 : 341 3 : 0 
Heartbeat_Variant_2_evicts 0 : 172 1 : 328 2 : 0 3 : 0 
Heartbeat_Variant_3_evicts 0 : 0 1 : 0 2 : 0 3 : 0 
Heartbeat CPU 0 instructions: 60000000 cycles: 21768801 heartbeat IPC: 1.28309 cumulative IPC: 1.28309 (Simulation time: 0 hr 10 min 17 sec) 
Heartbeat_Variant_0 : 1405 0.343018 per_variant_size: 0 1405 0 0 0 0 0 0 0 
Heartbeat_Variant_1 : 1273 0.310791 per_variant_size: 0 549 724 0 0 0 0 0 0 
Heartbeat_Variant_2 : 1376 0.335938 per_variant_size: 0 522 383 238 233 0 0 0 0 
Heartbeat_Variant_3 : 0 0 per_variant_size: 0 0 0 0 0 0 0 0 0 
Heartbeat_Variant_0_evicts 0 : 5660 1 : 70 2 : 99 3 : 0 
Heartbeat_Variant_1_evicts 0 : 78 1 : 0 2 : 295 3 : 0 
Heartbeat_Variant_2_evicts 0 : 94 1 : 300 2 : 0 3 : 0 
Heartbeat_Variant_3_evicts 0 : 0 1 : 0 2 : 0 3 : 0 
Heartbeat CPU 0 instructions: 70000001 cycles: 29388972 heartbeat IPC: 1.31231 cumulative IPC: 1.29753 (Simulation time: 0 hr 11 min 47 sec) 
Cycle: 30000000 FTQ IN: 12960143 FTQ occupancy: 8.6514 DECODE IN: 12960176 DECODE occupancy: 20.4622 ROB IN: 12960220 ROB occupancy: 174.612 ROB OUT: 12960164
Heartbeat_Variant_0 : 1398 0.341309 per_variant_size: 0 1398 0 0 0 0 0 0 0 
Heartbeat_Variant_1 : 1277 0.311768 per_variant_size: 0 550 727 0 0 0 0 0 0 
Heartbeat_Variant_2 : 1380 0.336914 per_variant_size: 0 521 397 240 222 0 0 0 0 
Heartbeat_Variant_3 : 0 0 per_variant_size: 0 0 0 0 0 0 0 0 0 
Heartbeat_Variant_0_evicts 0 : 5495 1 : 46 2 : 44 3 : 0 
Heartbeat_Variant_1_evicts 0 : 49 1 : 0 2 : 222 3 : 0 
Heartbeat_Variant_2_evicts 0 : 48 1 : 221 2 : 0 3 : 0 
Heartbeat_Variant_3_evicts 0 : 0 1 : 0 2 : 0 3 : 0 
Heartbeat CPU 0 instructions: 80000001 cycles: 36987480 heartbeat IPC: 1.31605 cumulative IPC: 1.30365 (Simulation time: 0 hr 13 min 19 sec) 
Cycle: 40000000 FTQ IN: 13031822 FTQ occupancy: 8.41659 DECODE IN: 13031723 DECODE occupancy: 19.8403 ROB IN: 13031679 ROB occupancy: 173.308 ROB OUT: 13031421
Heartbeat_Variant_0 : 1403 0.342529 per_variant_size: 0 1403 0 0 0 0 0 0 0 
Heartbeat_Variant_1 : 1275 0.311279 per_variant_size: 0 544 731 0 0 0 0 0 0 
Heartbeat_Variant_2 : 1383 0.337646 per_variant_size: 0 513 405 252 213 0 0 0 0 
Heartbeat_Variant_3 : 0 0 per_variant_size: 0 0 0 0 0 0 0 0 0 
Heartbeat_Variant_0_evicts 0 : 5728 1 : 274 2 : 277 3 : 0 
Heartbeat_Variant_1_evicts 0 : 246 1 : 0 2 : 448 3 : 0 
Heartbeat_Variant_2_evicts 0 : 300 1 : 423 2 : 0 3 : 0 
Heartbeat_Variant_3_evicts 0 : 0 1 : 0 2 : 0 3 : 0 
Heartbeat CPU 0 instructions: 90000002 cycles: 44731907 heartbeat IPC: 1.29125 cumulative IPC: 1.30053 (Simulation time: 0 hr 14 min 52 sec) 
Cycle: 50000000 FTQ IN: 13114699 FTQ occupancy: 8.33174 DECODE IN: 13114830 DECODE occupancy: 19.7103 ROB IN: 13114890 ROB occupancy: 171.747 ROB OUT: 13115235
Heartbeat_Variant_0 : 1406 0.343262 per_variant_size: 0 1406 0 0 0 0 0 0 0 
Heartbeat_Variant_1 : 1267 0.309326 per_variant_size: 0 532 735 0 0 0 0 0 0 
Heartbeat_Variant_2 : 1393 0.340088 per_variant_size: 0 528 395 272 198 0 0 0 0 
Heartbeat_Variant_3 : 0 0 per_variant_size: 0 0 0 0 0 0 0 0 0 
Heartbeat_Variant_0_evicts 0 : 5833 1 : 172 2 : 163 3 : 0 
Heartbeat_Variant_1_evicts 0 : 172 1 : 0 2 : 376 3 : 0 
Heartbeat_Variant_2_evicts 0 : 162 1 : 385 2 : 0 3 : 0 
Heartbeat_Variant_3_evicts 0 : 0 1 : 0 2 : 0 3 : 0 
Heartbeat CPU 0 instructions: 100000001 cycles: 52337654 heartbeat IPC: 1.3148 cumulative IPC: 1.30336 (Simulation time: 0 hr 16 min 22 sec) 
Finished CPU 0 instructions: 50000003 cycles: 38362526 cumulative IPC: 1.30336 (Simulation time: 0 hr 16 min 22 sec) 

ChampSim completed all CPUs

Region of Interest Statistics

CPU 0 cumulative IPC: 1.30336 instructions: 50000003 cycles: 38362526
 Fetch stage stalled: 64.876  Sim cycles: 38362526 fetch stall cycle: 24888061
 Empty decode stage: 63.6381  Sim cycles: 38362526 fetch stall cycle: 24413174
ITLB TOTAL     ACCESS:    5852141  HIT:    5360561  MISS:     491580  HIT %:       91.6  MISS %:        8.4   MPKI: 9.8316
ITLB LOAD TRANSLATION INSTRUCTION	ACCESS:    5741535  HIT:    5249955  MISS:     491580  HIT %:    91.4382  MISS %:    8.56182  MPKI: 9.8316
ITLB TRANSLATION FROM L1D PREFETCHER INSTRUCTION	ACCESS:     110606  HIT:     110606  MISS:          0  HIT %:        100  MISS %:          0  MPKI: 0

ITLB AVERAGE MISS LATENCY: 9.07401 cycles
ITLB RQ	ACCESS:    7962103	FORWARD:          0	MERGED:    1702072	TO_CACHE:    6260031

DTLB TOTAL     ACCESS:    9072957  HIT:    8596485  MISS:     476472  HIT %:    94.7484  MISS %:    5.25156   MPKI: 9.52944
DTLB LOAD TRANSLATION DATA	ACCESS:    9072957  HIT:    8596485  MISS:     476472  HIT %:    94.7484  MISS %:    5.25156  MPKI: 9.52944

DTLB AVERAGE MISS LATENCY: 9.30906 cycles
DTLB RQ	ACCESS:   13406906	FORWARD:          0	MERGED:    4295998	TO_CACHE:    9110908

STLB TOTAL     ACCESS:    1221785  HIT:    1219534  MISS:       2251  HIT %:    99.8158  MISS %:   0.184239   MPKI: 0.04502
STLB LOAD TRANSLATION INSTRUCTION	ACCESS:     491581  HIT:     491268  MISS:        313  HIT %:    99.9363  MISS %:  0.0636721  MPKI: 0.00626
STLB LOAD TRANSLATION DATA	ACCESS:     476399  HIT:     474500  MISS:       1899  HIT %:    99.6014  MISS %:   0.398615  MPKI: 0.03798
STLB TRANSLATION FROM L1D PREFETCHER DATA	ACCESS:     253805  HIT:     253766  MISS:         39  HIT %:    99.9846  MISS %:  0.0153661  MPKI: 0.00078

STLB AVERAGE MISS LATENCY: 69.3234 cycles
STLB RQ	ACCESS:    1369896	FORWARD:          0	MERGED:     148077	TO_CACHE:    1221819

STLB Hit, L1D data hit: 0
STLB Hit, L2C data hit: 0
STLB Hit, LLC data hit: 0
STLB Hit, LLC data miss: 0
STLB STLB hints to L2: 0
L1D TOTAL     ACCESS:   13161933  HIT:   11992815  MISS:    1169118  HIT %:    91.1174  MISS %:    8.88257   MPKI: 23.3824
L1D LOAD DATA	ACCESS:    6653852  HIT:    5884568  MISS:     769284  HIT %:    88.4385  MISS %:    11.5615  MPKI: 15.3857
L1D RFO DATA	ACCESS:    6172549  HIT:    5878923  MISS:     293626  HIT %:     95.243  MISS %:    4.75697  MPKI: 5.87252
L1D PREFETCH DATA	ACCESS:     335532  HIT:     229324  MISS:     106208  HIT %:    68.3464  MISS %:    31.6536  MPKI: 2.12416

L1D PREFETCH  REQUESTED:     804067  ISSUED:     804067  USEFUL:      49200  USELESS:      71232
L1D USEFUL LOAD PREFETCHES:      49200 PREFETCH ISSUED TO LOWER LEVEL:     120493  ACCURACY: 40.8322
 TIMELY PREFETCHES:      49200 LATE PREFETCHES: 14218 DROPPED PREFETCHES: 4
L1D AVERAGE MISS LATENCY: 393153 cycles
L1D RQ	ACCESS:   10732574	FORWARD:          0	MERGED:    3883363	TO_CACHE:    6688928
L1D WQ	ACCESS:    6906510	FORWARD:     160666	MERGED:     188532	TO_CACHE:    6717978
L1D PQ	ACCESS:     402225	FORWARD:          0	MERGED:          0	TO_CACHE:     401842

L1D UNIQUE REGIONS ACCESSED: 0
L1D REGIONS CONFLICTS: 0
L1D Cross Page Prefetch Requests: 8018
L1D Same Page Prefetch Requests: 811031
L1D ROI Sum of L1D PQ occupancy: 5140333
L1D PREFETCHES PUSHED FROM L2C: 0
L1I TOTAL     ACCESS:    7227568  HIT:    4474204  MISS:    2753364  HIT %:    61.9047  MISS %:    38.0953   MPKI: 55.0673
L1I LOAD INSTRUCTION	ACCESS:    6587274  HIT:    3833910  MISS:    2753364  HIT %:    58.2018  MISS %:    41.7982  MPKI: 55.0673
L1I PREFETCH INSTRUCTION	ACCESS:     640294  HIT:     640294  MISS:          0  HIT %:        100  MISS %:          0  MPKI: 0

L1I PREFETCH  REQUESTED:    1525943  ISSUED:    1525943  USEFUL:          0  USELESS:          0
L1I USEFUL LOAD PREFETCHES:          0 PREFETCH ISSUED TO LOWER LEVEL:          0  ACCURACY: -nan
 TIMELY PREFETCHES:          0 LATE PREFETCHES: 0 DROPPED PREFETCHES: 0
L1I AVERAGE MISS LATENCY: 17.0076 cycles
L1I RQ	ACCESS:    9451209	FORWARD:          0	MERGED:    2589016	TO_CACHE:    6862193
L1I PQ	ACCESS:    1525943	FORWARD:          0	MERGED:     426033	TO_CACHE:    1099910

L1BTB TOTAL     ACCESS:    5683284  HIT:    2072664  MISS:    3610620  HIT %:    36.4695  MISS %:    63.5305   MPKI: 72.2124
L1BTB BRANCH_DIRECT_JUMP	ACCESS:     543933  HIT:     143533  MISS:     400400	AVERAGE STALL: 39.7265
L1BTB BRANCH_INDIRECT	ACCESS:     181519  HIT:      65560  MISS:     115959	AVERAGE STALL: 75.9749
L1BTB BRANCH_CONDITIONAL	ACCESS:    2736717  HIT:    1450200  MISS:    1286517	AVERAGE STALL: 45.4426
L1BTB BRANCH_DIRECT_CALL	ACCESS:     940050  HIT:     103444  MISS:     836606	AVERAGE STALL: 51.553
L1BTB BRANCH_INDIRECT_CALL	ACCESS:     170506  HIT:      20998  MISS:     149508	AVERAGE STALL: 103.884
L1BTB BRANCH_RETURN	ACCESS:    1110559  HIT:     288929  MISS:     821630	AVERAGE STALL: 40.3176
L1BTB BRANCH_OTHER ACCESS:          0  HIT:          0  MISS:          0	AVERAGE STALL: -nan
L1BTB TOTAL ROB OCCUPANCY AT BTB MISS: 2.1709

L2BTB TOTAL     ACCESS:    3585653  HIT:    3514427  MISS:      71226  HIT %:    98.0136  MISS %:    1.98642   MPKI: 1.42452
L2BTB BRANCH_DIRECT_JUMP	ACCESS:     396306  HIT:     391397  MISS:       4909	AVERAGE STALL: 39.7265
L2BTB BRANCH_INDIRECT	ACCESS:     105737  HIT:     103072  MISS:       2665	AVERAGE STALL: 75.9749
L2BTB BRANCH_CONDITIONAL	ACCESS:    1286517  HIT:    1280790  MISS:       5727	AVERAGE STALL: 45.4426
L2BTB BRANCH_DIRECT_CALL	ACCESS:     836606  HIT:     833747  MISS:       2859	AVERAGE STALL: 51.553
L2BTB BRANCH_INDIRECT_CALL	ACCESS:     140079  HIT:     129641  MISS:      10438	AVERAGE STALL: 103.884
L2BTB BRANCH_RETURN	ACCESS:     820408  HIT:     775780  MISS:      44628	AVERAGE STALL: 40.3176
L2BTB BRANCH_OTHER ACCESS:          0  HIT:          0  MISS:          0	AVERAGE STALL: -nan
L2BTB TOTAL ROB OCCUPANCY AT BTB MISS: 110.048

L2C TOTAL     ACCESS:    4551046  HIT:    4054121  MISS:     496925  HIT %:    89.0811  MISS %:    10.9189   MPKI: 9.9385
L2C LOAD INSTRUCTION	ACCESS:    2753364  HIT:    2506936  MISS:     246428  HIT %:    91.0499  MISS %:    8.95007  MPKI: 4.92856
L2C LOAD TRANSLATION INSTRUCTION	ACCESS:        370  HIT:         98  MISS:        272  HIT %:    26.4865  MISS %:    73.5135  MPKI: 0.00544
L2C LOAD DATA	ACCESS:     755039  HIT:     669284  MISS:      85755  HIT %:    88.6423  MISS %:    11.3577  MPKI: 1.7151
L2C RFO DATA	ACCESS:     293531  HIT:     228884  MISS:      64647  HIT %:    77.9761  MISS %:    22.0239  MPKI: 1.29294
L2C PREFETCH DATA	ACCESS:     214134  HIT:     133338  MISS:      80796  HIT %:    62.2685  MISS %:    37.7315  MPKI: 1.61592
L2C WRITEBACK DATA	ACCESS:     532501  HIT:     515034  MISS:      17467  HIT %:    96.7198  MISS %:    3.28018  MPKI: 0.34934
L2C LOAD TRANSLATION DATA	ACCESS:       2050  HIT:        504  MISS:       1546  HIT %:    24.5854  MISS %:    75.4146  MPKI: 0.03092
L2C TRANSLATION FROM L1D PREFETCHER DATA	ACCESS:         57  HIT:         43  MISS:         14  HIT %:    75.4386  MISS %:    24.5614  MPKI: 0.00028

L2C PREFETCH  REQUESTED:     102122  ISSUED:     102122  USEFUL:       9262  USELESS:      72198
L2C USEFUL LOAD PREFETCHES:       9262 PREFETCH ISSUED TO LOWER LEVEL:      81306  ACCURACY: 11.3915
 TIMELY PREFETCHES:       9262 LATE PREFETCHES: 510 DROPPED PREFETCHES: 0
L2C AVERAGE MISS LATENCY: 41.4746 cycles
L2C RQ	ACCESS:    3804468	FORWARD:          0	MERGED:          0	TO_CACHE:    3804413
L2C WQ	ACCESS:     532501	FORWARD:         55	MERGED:          0	TO_CACHE:     532501
L2C PQ	ACCESS:     222615	FORWARD:          0	MERGED:       3596	TO_CACHE:     219019

L2C Dense regions hint from L2: 0
PSCL5 TOTAL     ACCESS:       4512  HIT:       2256  MISS:       2256  HIT %:         50  MISS %:         50   MPKI: 0.04512
PSCL5 LOAD TRANSLATION INSTRUCTION	ACCESS:       4398  HIT:       2199  MISS:       2199  HIT %:         50  MISS %:         50  MPKI: 0.04398
PSCL5 TRANSLATION FROM L1D PREFETCHER INSTRUCTION	ACCESS:        114  HIT:         57  MISS:         57  HIT %:         50  MISS %:         50  MPKI: 0.00114


PSCL4 TOTAL     ACCESS:       4294  HIT:       2142  MISS:       2152  HIT %:    49.8836  MISS %:    50.1164   MPKI: 0.04304
PSCL4 LOAD TRANSLATION INSTRUCTION	ACCESS:       3644  HIT:       2085  MISS:       1559  HIT %:    57.2173  MISS %:    42.7827  MPKI: 0.03118
PSCL4 TRANSLATION FROM L1D PREFETCHER INSTRUCTION	ACCESS:        112  HIT:         57  MISS:         55  HIT %:    50.8929  MISS %:    49.1071  MPKI: 0.0011
PSCL4 LOAD TRANSLATION DATA	ACCESS:        536  HIT:          0  MISS:        536  HIT %:          0  MISS %:        100  MPKI: 0.01072
PSCL4 TRANSLATION FROM L1D PREFETCHER DATA	ACCESS:          2  HIT:          0  MISS:          2  HIT %:          0  MISS %:        100  MPKI: 4e-05


PSCL3 TOTAL     ACCESS:       4305  HIT:       2140  MISS:       2165  HIT %:    49.7096  MISS %:    50.2904   MPKI: 0.0433
PSCL3 LOAD TRANSLATION INSTRUCTION	ACCESS:       2767  HIT:       2099  MISS:        668  HIT %:    75.8583  MISS %:    24.1417  MPKI: 0.01336
PSCL3 TRANSLATION FROM L1D PREFETCHER INSTRUCTION	ACCESS:         58  HIT:         41  MISS:         17  HIT %:    70.6897  MISS %:    29.3103  MPKI: 0.00034
PSCL3 LOAD TRANSLATION DATA	ACCESS:       1456  HIT:          0  MISS:       1456  HIT %:          0  MISS %:        100  MPKI: 0.02912
PSCL3 TRANSLATION FROM L1D PREFETCHER DATA	ACCESS:         24  HIT:          0  MISS:         24  HIT %:          0  MISS %:        100  MPKI: 0.00048


PSCL2 TOTAL     ACCESS:       4326  HIT:       2070  MISS:       2256  HIT %:    47.8502  MISS %:    52.1498   MPKI: 0.04512
PSCL2 LOAD TRANSLATION INSTRUCTION	ACCESS:       2327  HIT:       2013  MISS:        314  HIT %:    86.5062  MISS %:    13.4938  MPKI: 0.00628
PSCL2 TRANSLATION FROM L1D PREFETCHER INSTRUCTION	ACCESS:         57  HIT:         57  MISS:          0  HIT %:        100  MISS %:          0  MPKI: 0
PSCL2 LOAD TRANSLATION DATA	ACCESS:       1885  HIT:          0  MISS:       1885  HIT %:          0  MISS %:        100  MPKI: 0.0377
PSCL2 TRANSLATION FROM L1D PREFETCHER DATA	ACCESS:         57  HIT:          0  MISS:         57  HIT %:          0  MISS %:        100  MPKI: 0.00114


LLC TOTAL     ACCESS:     568126  HIT:     538066  MISS:      30060  HIT %:    94.7089  MISS %:    5.29108   MPKI: 0.6012
LLC LOAD INSTRUCTION	ACCESS:     246428  HIT:     245543  MISS:        885  HIT %:    99.6409  MISS %:   0.359131  MPKI: 0.0177
LLC LOAD TRANSLATION INSTRUCTION	ACCESS:        272  HIT:        228  MISS:         44  HIT %:    83.8235  MISS %:    16.1765  MPKI: 0.00088
LLC LOAD DATA	ACCESS:      85275  HIT:      81789  MISS:       3486  HIT %:     95.912  MISS %:    4.08795  MPKI: 0.06972
LLC RFO DATA	ACCESS:      64605  HIT:      49777  MISS:      14828  HIT %:    77.0482  MISS %:    22.9518  MPKI: 0.29656
LLC PREFETCH DATA	ACCESS:      81303  HIT:      70796  MISS:      10507  HIT %:    87.0767  MISS %:    12.9233  MPKI: 0.21014
LLC WRITEBACK DATA	ACCESS:      88683  HIT:      88470  MISS:        213  HIT %:    99.7598  MISS %:   0.240181  MPKI: 0.00426
LLC LOAD TRANSLATION DATA	ACCESS:       1546  HIT:       1452  MISS:         94  HIT %:    93.9198  MISS %:    6.08021  MPKI: 0.00188
LLC TRANSLATION FROM L1D PREFETCHER DATA	ACCESS:         14  HIT:         11  MISS:          3  HIT %:    78.5714  MISS %:    21.4286  MPKI: 6e-05

LLC AVERAGE MISS LATENCY: 206.948 cycles
LLC RQ	ACCESS:     398152	FORWARD:          0	MERGED:          0	TO_CACHE:     398140
LLC WQ	ACCESS:      88683	FORWARD:         15	MERGED:          0	TO_CACHE:      88683
LLC PQ	ACCESS:      81306	FORWARD:          0	MERGED:          0	TO_CACHE:      81303

LLC Dense regions hint to LLC: 0

RAW hits: 1868461
Loads Generated: 12601036
Loads sent to L1D: 10732574
Stores Generated: 6906488
Stores sent to L1D: 6906510
Major fault: 0 Minor fault: 2387
Allocated PAGES: 2387

stream: 
stream:times selected: 1243952
stream:pref_filled: 128090
stream:pref_useful: 28758
stream:pref_late: 9774
stream:misses: 10716
stream:misses_by_poll: 0

CS: 
CS:times selected: 194825
CS:pref_filled: 75155
CS:pref_useful: 51894
CS:pref_late: 9855
CS:misses: 24307
CS:misses_by_poll: 0

CPLX: 
CPLX:times selected: 1048023
CPLX:pref_filled: 25782
CPLX:pref_useful: 7911
CPLX:pref_late: 4177
CPLX:misses: 133329
CPLX:misses_by_poll: 1

NL_L1: 
NL:times selected: 21665
NL:pref_filled: 1121
NL:pref_useful: 496
NL:pref_late: 767
NL:misses: 3230
NL:misses_by_poll: 0

total selections: 2508465
total_filled: 106208
total_useful: 49200
total_late: 27240
total_polluted: 1
total_misses_after_warmup: 804360
conflicts: 5540563

test: 117861

DRAM Statistics
 CHANNEL 0
 RQ ROW_BUFFER_HIT:      11279  ROW_BUFFER_MISS:      18547
 DBUS_CONGESTED:         13
 WQ ROW_BUFFER_HIT:       2125  ROW_BUFFER_MISS:      14173  FULL:          0

 AVG_CONGESTED_CYCLE: 5

CPU 0 Branch Prediction Accuracy: 99.8222% MPKI: 0.32582 Average ROB Occupancy at Mispredict: 158.359
Branch types
NOT_BRANCH: 40836581 81.6732%
BRANCH_DIRECT_JUMP: 543933 1.08787%
BRANCH_INDIRECT: 181519 0.363038%
BRANCH_CONDITIONAL: 6216755 12.4335%
BRANCH_DIRECT_CALL: 940050 1.8801%
BRANCH_INDIRECT_CALL: 170506 0.341012%
BRANCH_RETURN: 1110559 2.22112%
BRANCH_OTHER: 0 0%

DRAM PAGES: 1048576
Allocated PAGES: 2387
Average_ROB_Occupancy: 174.464
Average_Decode_Occupancy: 19.9714
Average_FTQ_Occupancy: 8.43435
Indirect max targets: 14 Average targets: 1.15563
Branch_type:  BRANCH_DIRECT_JUMP:  Count Percentage: 4.13897 5.12003 3.97698 8.46497 2.40668 6.32723 1.55263 68.0125 
Branch_type:  BRANCH_INDIRECT:  Count Percentage: 6.11545 3.53349 8.13041 9.68367 3.33861 2.80496 1.73821 64.6552 
Branch_type:  BRANCH_CONDITIONAL:  Count Percentage: 22.8197 2.76049 1.65328 7.56646 2.91521 3.56898 2.0386 56.6772 
Branch_type:  BRANCH_DIRECT_CALL:  Count Percentage: 0.391087 1.2553 0.737933 4.49537 2.99523 2.60552 2.82928 84.6903 
Branch_type:  BRANCH_INDIRECT_CALL:  Count Percentage: 9.54814 0 3.003 0.00410887 0.999924 1.71135 2.7054 82.0281 
Branch_type:  BRANCH_RETURN:  Count Percentage: 4.25869 4.66015 1.24136 4.75128 5.54162 3.53596 2.6988 73.3121 
Branch_type:  BRANCH_DIRECT_JUMP:  Total Count: 44969 55628 43209 91970 26148 68744 16869 738941 
Branch_type:  BRANCH_INDIRECT:  Total Count: 22186 12819 29496 35131 12112 10176 6306 234560 
Branch_type:  BRANCH_CONDITIONAL:  Total Count: 2834992 342947 205394 940013 362169 443389 253264 7041252 
Branch_type:  BRANCH_DIRECT_CALL:  Total Count: 7346 23579 13861 84439 56261 48941 53144 1590785 
Branch_type:  BRANCH_INDIRECT_CALL:  Total Count: 32533 0 10232 14 3407 5831 9218 279491 
Branch_type:  BRANCH_RETURN:  Total Count: 94539 103451 27557 105474 123019 78495 59911 1627463 
Number of unique branch instructions: 10480
Upper 32 bits: 
aaaa
ffff
ffff0000
Unique upper 32 bits: 3
Unique upper 36 bits: 3
Unique upper 40 bits: 5
Unique upper 44 bits: 32
Unique upper 48 bits: 159
Variant_0 : 1406 0.343262
Variant_1 : 1267 0.309326
Variant_2 : 1393 0.340088
Variant_3 : 0 0
Offset_3 4329
Offset_4 269
Offset_5 477
Offset_6 537
Offset_7 614
Offset_8 534
Offset_9 506
Offset_10 415
Offset_11 342
Offset_12 277
Offset_13 218
Offset_14 228
Offset_15 203
Offset_16 234
Offset_17 165
Offset_18 135
Offset_19 254
Offset_20 145
Offset_21 267
Offset_22 403
Offset_23 241
Offset_24 348
Offset_25 88
Offset_47 84
decode_dispatch_called: 21723771 56.6276
Dispatch_width: 0 11171977 51.4274 29.1221
Dispatch_width: 1 679893 3.12972 1.77228
Dispatch_width: 2 708532 3.26155 1.84694
Dispatch_width: 3 474586 2.18464 1.23711
Dispatch_width: 4 2679174 12.3329 6.98383
Dispatch_width: 5 295062 1.35824 0.769141
Dispatch_width: 6 5714547 26.3055 14.8962
Empty_decode_cycles: 16638755 43.3724
ROB_full_cycles: 4060201 10.5838
Starvation_cycles_per_kilo_instr: 285.878
Starvation_cycles_per_kilo_instr_3: 256.135
Starvation_cycles_per_kilo_instr_0: 237.505
Branch_type_1  (3,1)  (4,8)  (5,39)  (6,77)  (7,121)  (8,130)  (9,134)  (10,108)  (11,79)  (12,43)  (13,7)  (14,2)  (15,3)  (16,4)  (18,1)  (19,4)  (20,2)  (21,1)  (22,3)  (23,2)  (24,10)  (25,12) 
Branch_type_2  (3,1)  (5,1)  (8,3)  (9,3)  (12,1)  (13,1)  (14,1)  (16,3)  (17,2)  (20,2)  (21,2)  (23,5)  (24,1)  (47,38) 
Branch_type_3  (3,4327)  (4,261)  (5,433)  (6,444)  (7,460)  (8,342)  (9,281)  (10,173)  (11,136)  (12,49)  (13,7) 
Branch_type_4  (6,4)  (7,8)  (8,26)  (9,53)  (10,62)  (11,64)  (12,100)  (13,94)  (14,101)  (15,98)  (16,106)  (17,76)  (18,62)  (19,122)  (20,74)  (21,144)  (22,217)  (23,136)  (24,199)  (25,72) 
Branch_type_5  (8,2)  (9,1)  (10,4)  (11,6)  (12,3)  (13,14)  (14,16)  (15,11)  (16,20)  (17,12)  (18,16)  (19,13)  (20,11)  (21,13)  (22,42)  (23,26)  (24,40) 
Branch_type_6  (5,4)  (6,12)  (7,25)  (8,31)  (9,34)  (10,68)  (11,57)  (12,81)  (13,95)  (14,108)  (15,91)  (16,101)  (17,75)  (18,56)  (19,115)  (20,56)  (21,107)  (22,141)  (23,72)  (24,98)  (25,4)  (47,46) 
Unique trigger count: 
Variant_0_evicts_0 : 0
Variant_0_evicts_1 : 0
Variant_0_evicts_2 : 0
Variant_0_evicts_3 : 0
Variant_1_evicts_0 : 0
Variant_1_evicts_1 : 0
Variant_1_evicts_2 : 0
Variant_1_evicts_3 : 0
Variant_2_evicts_0 : 0
Variant_2_evicts_1 : 0
Variant_2_evicts_2 : 0
Variant_2_evicts_3 : 0
Variant_3_evicts_0 : 0
Variant_3_evicts_1 : 0
Variant_3_evicts_2 : 0
Variant_3_evicts_3 : 0
BTB PER SET UNIQUE ADDR: 11 14 9 13 13 14 15 10 10 15 11 21 17 15 13 13 18 15 13 19 14 11 19 18 12 19 14 18 18 15 17 18 16 10 14 11 12 16 8 15 10 13 16 20 11 14 18 9 15 12 21 12 14 15 15 7 9 14 12 14 14 13 14 17 16 16 14 12 18 12 13 15 18 13 12 10 11 14 15 15 12 7 9 19 18 13 14 10 11 26 10 10 13 13 5 18 11 15 15 16 18 19 11 12 13 13 15 10 11 9 15 13 12 17 14 9 14 14 15 13 19 11 12 11 14 15 7 13 18 16 9 18 16 17 12 19 11 14 10 28 12 19 11 12 12 15 16 10 8 15 19 19 14 11 11 19 19 24 17 15 17 12 16 14 14 11 14 14 16 10 13 18 17 11 16 9 16 14 16 17 8 12 11 18 20 18 6 16 13 16 18 10 15 16 14 15 10 15 13 19 16 15 11 10 13 12 15 14 10 14 11 18 13 12 14 17 12 14 14 24 11 12 10 10 12 15 21 15 9 20 12 10 13 23 11 19 15 15 12 12 10 17 16 19 10 14 7 14 18 10 17 20 13 15 14 18 11 13 8 17 12 14 7 15 13 7 15 11 11 16 11 19 11 10 8 12 12 20 14 14 12 16 11 13 16 10 10 14 17 16 16 13 14 20 9 20 13 15 15 16 11 15 15 18 16 15 12 10 23 12 15 15 11 21 12 10 15 17 9 22 12 13 9 12 20 11 16 13 10 9 16 18 13 14 15 12 11 15 10 21 13 16 9 15 14 15 12 15 14 15 15 12 13 13 13 17 13 17 10 13 15 18 13 15 15 14 9 15 17 16 14 13 17 16 10 21 18 21 13 18 9 15 15 10 15 15 18 18 19 14 24 12 13 12 12 12 15 13 16 14 9 14 17 16 20 16 21 12 14 17 14 13 12 14 11 20 16 16 14 19 13 16 21 14 15 11 12 12 13 12 17 14 14 16 16 18 19 11 12 13 10 11 13 18 20 12 10 16 21 16 17 17 14 14 24 17 18 18 13 23 11 14 14 16 25 13 11 13 12 13 15 16 17 15 16 21 12 15 9 18 25 18 12 15 9 14 18 20 12 14 11 17 12 9 13 15 12 20 13 17 12 20 14 15 11 11 14 19 13 17 17 18 15 13 15 22 13 18 9 14 8 12 11 15 14 22 24 14 12 16 18 14 15 13 15 17 14 16 18 16 21 15 19 16 16 16 11 17 8 9 14 22 13 17 14 13 12 13 21 21 11 16 12 14 15 18 15 14 15 13 15 14 16 19 15 16 20 20 10 14 15 15 15 13 14 21 19 17 23 18 10 13 15 14 8 12 10 16 17 17 10 15 11 13 13 13 16 12 16 14 17 14 18 13 4 19 14 11 11 13 17 10 12 11 9 19 13 14 11 14 10 16 19 17 14 15 18 15 11 18 12 17 21 22 15 20 20 16 22 14 13 20 13 17 23 15 16 13 17 14 14 6 14 17 14 17 8 14 10 13 13 11 11 19 19 17 16 19 15 17 13 16 12 16 17 15 14 19 20 17 17 18 17 11 10 11 15 20 14 17 9 15 20 19 7 13 12 12 8 8 14 14 13 15 16 13 23 8 10 21 15 12 14 14 12 11 12 12 11 11 13 12 17 14 7 16 16 16 18 17 13 8 13 20 27 18 15 13 9 16 16 15 15 16 12 15 24 15 15 12 12 11 9 18 11 21 10 19 13 15 15 16 11 9 10 11 16 17 21 17 10 21 18 11 15 17 11 17 14 8 10 9 16 18 20 20 13 13 16 15 19 13 21 14 21 11 11 15 13 11 15 20 11 20 16 18 17 19 8 21 11 24 8 17 16 17 9 14 20 15 15 15 20 13 11 15 19 15 10 9 16 14 14 16 7 19 12 20 13 11 11 17 13 17 17 18 12 15 13 12 16 13 8 12 25 14 14 11 15 16 13 16 16 13 19 7 11 10 13 15 14 9 17 17 12 14 18 16 14 14 19 13 14 14 17 16 19 16 12 10 16 12 11 18 11 19 12 16 16 18 10 10 15 17 12 12 14 13 15 12 16 14 13 16 14 13 9 17 14 13 16 19 14 12 12 23 11 16 17 16 11 17 12 15 16 16 16 16 16 20 18 17 14 12 15 14 15 14 13 18 18 16 13 21 18 16 15 15 8 24 11 15 14 13 18 16 25 15 17 12 15 12 15 16 8 20 21 13 20 11 17 15 19 13 17 13 17 15 19 16 17 19 10 8 18 14 12 16 13 20 13 15 17 14 18 15 6 11 10 11 7 17 12 10 
BTB PER SET COUNT: 970 17 1914 18 36 22 21 13 286 26 23 984 20454 1322 20 26 263 745 191 28 27 39 745 129 20 35 21 41 329 23 41 36 24 10 22 408 21 31 11 640 11 18 18 55 390 176 27 13 1608 27 43 20 19 23 29 27 10 31 17 14 18 33 16 31 23 59 16 21 30 21 16 731 33 25 24 21 16 23 32 21 873 9 11 35 23 18 25 13 13 63 12 11 506 163 5 23 128 835 20 24 30 36 15 97 2649 20 30 10 979 904 20 14 218 27 18 12 16 20 1762 1540 265 11 17 14 19 30 10 111 35 864 14 5592 26 25 26 30 24 28 22 55 17 32 15 26 21 380 969 197 13 28 28 244 1127 15 15 23 94 42 26 25 25 200 347 19 61 982 22 17 29 1773 24 31 27 18 28 12 25 24 133 819 12 193 3408 32 28 18 8 32 975 1384 31 14 17 23 22 77 13 22 15 35 23 18 992 14 17 16 24 25 12 19 14 26 14 1248 30 268 18 507 2893 54 30 17 15 11 20 35 37 20 17 31 15 18 22 33 27 29 26 25 21 14 10 22 26 253 13 22 7 21 288 13 31 37 15 19 18 288 42 17 10 37 24 25 8 61 23 10 24 16 335 26 21 262 11 14 222 17 14 37 20 29 18 22 294 13 25 13 10 659 30 21 24 13 25 83 11 38 20 25 19 394 13 27 430 33 20 19 17 14 55 17 997 28 20 28 1472 235 20 34 13 46 21 2929 13 16 23 47 27 28 11 12 31 26 18 26 17 19 18 115 13 34 20 1230 10 644 24 21 15 21 22 23 34 73 22 18 24 23 23 31 13 15 23 30 15 23 26 135 11 30 21 21 19 407 31 56 963 30 27 38 69 29 12 23 25 11 16 21 296 35 38 1172 43 14 20 13 17 19 18 20 1476 19 15 17 32 17 35 22 34 498 22 26 19 18 18 22 15 33 32 58 26 26 21 34 31 19 25 16 20 15 21 16 35 18 16 20 257 41 27 105 18 25 17 14 46 26 2465 355 101 17 31 31 31 798 17 19 32 127 33 25 20 40 20 22 20 521 38 19 254 27 15 19 22 22 21 29 23 34 15 21 11 28 53 134 17 22 15 22 38 31 15 82 13 611 491 10 16 23 16 30 34 30 20 30 22 20 21 13 20 44 23 27 32 2042 416 36 22 36 26 24 16 762 8 16 15 315 17 39 443 1186 23 33 35 63 353 18 26 54 38 782 33 27 39 19 49 20 28 194 17 21 11 749 20 37 23 41 35 16 24 21 51 39 11 112 29 16 695 30 126 20 27 37 24 32 18 38 2446 24 42 1691 21 19 23 26 26 852 18 38 506 35 43 26 15 16 24 21 11 15 15 331 24 22 16 18 19 22 19 24 31 317 20 22 33 1456 103 20 4 35 199 18 16 290 30 16 17 13 12 25 24 16 12 21 17 30 39 24 17 23 28 653 12 22 18 27 34 50 536 191 573 21 88 20 16 27 21 30 67 30 20 16 98 16 123 6 26 25 44 33 14 997 837 20 25 17 20 25 29 117 31 28 26 30 18 24 765 27 36 28 21 23 45 24 22 30 24 17 12 20 536 1662 19 30 13 31 951 28 8 113 13 22 8 15 19 20 879 18 200 16 303 10 13 557 289 359 17 27 16 13 17 23 540 14 164 13380 21 24 9 277 810 32 21 27 924 15 503 32 581 30 165 18 12 23 1489 21 21 1965 1669 32 45 541 19 20 23 25 10 250 19 36 10 298 21 140 27 31 24 14 19 14 23 194 28 26 291 40 41 16 26 26 16 24 29 12 14 986 32 33 975 166 94 16 24 1149 32 18 29 23 129 14 17 30 14 73 19 9295 21 40 174 26 30 1162 12 170 15 40 13 28 23 35 14 20 33 25 28 33 37 19 536 33 38 709 448 121 37 998 19 23 7 29 18 52 17 15 20 347 15 31 1371 22 15 24 23 18 793 21 39 20 41 22 26 13 27 29 17 35 24 19 28 10 19 14 489 19 21 10 26 20 13 1401 35 20 14 43 34 19 171 44 26 38 25 28 20 17 34 26 18 387 21 31 16 27 28 24 19 323 23 20 17 1058 1476 291 20 18 25 908 967 25 28 414 14 26 18 29 28 28 25 22 12 1665 15 29 1457 26 11 1076 14 23 29 27 27 23 28 30 277 225 2371 1109 19 17 247 21 16 35 39 26 16 35 31 20 20 21 9 36 63 407 23 19 2436 31 526 30 985 20 38 14 20 263 9 658 602 25 39 14 36 17 32 28 30 18 26 1496 31 1473 292 40 15 11 25 18 23 19 19 196 265 307 20 23 24 22 7 16 10 11 9 22 17 15 
To predecode: 0
Predecoding something: 0
Predecode request dropped: 0
sizeofblock_0 0
sizeofblock_1 43143
sizeofblock_2 35990
sizeofblock_3 41179
sizeofblock_4 25988
sizeofblock_5 0
sizeofblock_6 0
sizeofblock_7 0
sizeofblock_8 0
Variant_0 Correct: 1598881 Incorrect: 0 Accuracy: 1
Variant_1 Correct: 2075812 Incorrect: 0 Accuracy: 1
Variant_2 Correct: 3619806 Incorrect: 0 Accuracy: 1
Variant_3 Correct: 0 Incorrect: 0 Accuracy: -nan
