
*** ChampSim Multicore Out-of-Order Simulator ***

Warmup Instructions: 50000000
Simulation Instructions: 50000000
Number of CPUs: 1
LLC sets: 2048
LLC ways: 16
Off-chip DRAM Size: 4096 MB Channels: 1 Width: 64-bit Data Rate: 6400 MT/s
CPU 0 runs ./micro_traces/srv183.trace.gz
.gz
ITLB has LRU replacement policy
DTLB has LRU replacement policy
STLB has LRU replacement policy
FDIP Prefetcher at L1I
L1I has LRU replacement policy
L1D has LRU replacement policy
Initialize SRRIP state for L2C
Initialize DRRIP state for LLC
Heartbeat_Variant_0 : 1385 0.225423 per_variant_size: 0 1385 0 0 0 0 0 0 0 
Heartbeat_Variant_1 : 1364 0.222005 per_variant_size: 0 778 586 0 0 0 0 0 0 
Heartbeat_Variant_2 : 1518 0.24707 per_variant_size: 0 730 418 187 183 0 0 0 0 
Heartbeat_Variant_3 : 0 0 per_variant_size: 0 0 0 0 0 0 0 0 0 
Heartbeat_Variant_0_evicts 0 : 5501 1 : 21 2 : 33 3 : 0 
Heartbeat_Variant_1_evicts 0 : 15 1 : 0 2 : 203 3 : 0 
Heartbeat_Variant_2_evicts 0 : 22 1 : 203 2 : 0 3 : 0 
Heartbeat_Variant_3_evicts 0 : 0 1 : 0 2 : 0 3 : 0 
Heartbeat CPU 0 instructions: 10000002 cycles: 2797716 heartbeat IPC: 3.57434 cumulative IPC: 3.57434 (Simulation time: 0 hr 1 min 59 sec) 
Heartbeat_Variant_0 : 1390 0.226237 per_variant_size: 0 1390 0 0 0 0 0 0 0 
Heartbeat_Variant_1 : 1376 0.223958 per_variant_size: 0 783 593 0 0 0 0 0 0 
Heartbeat_Variant_2 : 1525 0.24821 per_variant_size: 0 736 417 190 182 0 0 0 0 
Heartbeat_Variant_3 : 0 0 per_variant_size: 0 0 0 0 0 0 0 0 0 
Heartbeat_Variant_0_evicts 0 : 5541 1 : 5 2 : 2 3 : 0 
Heartbeat_Variant_1_evicts 0 : 8 1 : 0 2 : 192 3 : 0 
Heartbeat_Variant_2_evicts 0 : 0 1 : 191 2 : 0 3 : 0 
Heartbeat_Variant_3_evicts 0 : 0 1 : 0 2 : 0 3 : 0 
Heartbeat CPU 0 instructions: 20000003 cycles: 5594102 heartbeat IPC: 3.57604 cumulative IPC: 3.57519 (Simulation time: 0 hr 3 min 52 sec) 
Heartbeat_Variant_0 : 1403 0.228353 per_variant_size: 0 1403 0 0 0 0 0 0 0 
Heartbeat_Variant_1 : 1387 0.225749 per_variant_size: 0 784 603 0 0 0 0 0 0 
Heartbeat_Variant_2 : 1533 0.249512 per_variant_size: 0 731 426 190 186 0 0 0 0 
Heartbeat_Variant_3 : 0 0 per_variant_size: 0 0 0 0 0 0 0 0 0 
Heartbeat_Variant_0_evicts 0 : 5529 1 : 1 2 : 0 3 : 0 
Heartbeat_Variant_1_evicts 0 : 0 1 : 0 2 : 193 3 : 0 
Heartbeat_Variant_2_evicts 0 : 0 1 : 193 2 : 0 3 : 0 
Heartbeat_Variant_3_evicts 0 : 0 1 : 0 2 : 0 3 : 0 
Heartbeat CPU 0 instructions: 30000000 cycles: 8391707 heartbeat IPC: 3.57449 cumulative IPC: 3.57496 (Simulation time: 0 hr 5 min 56 sec) 
Heartbeat_Variant_0 : 1408 0.229167 per_variant_size: 0 1408 0 0 0 0 0 0 0 
Heartbeat_Variant_1 : 1397 0.227376 per_variant_size: 0 793 604 0 0 0 0 0 0 
Heartbeat_Variant_2 : 1542 0.250977 per_variant_size: 0 733 434 187 188 0 0 0 0 
Heartbeat_Variant_3 : 0 0 per_variant_size: 0 0 0 0 0 0 0 0 0 
Heartbeat_Variant_0_evicts 0 : 5631 1 : 6 2 : 6 3 : 0 
Heartbeat_Variant_1_evicts 0 : 7 1 : 0 2 : 196 3 : 0 
Heartbeat_Variant_2_evicts 0 : 4 1 : 195 2 : 0 3 : 0 
Heartbeat_Variant_3_evicts 0 : 0 1 : 0 2 : 0 3 : 0 
Heartbeat CPU 0 instructions: 40000002 cycles: 11187598 heartbeat IPC: 3.57668 cumulative IPC: 3.57539 (Simulation time: 0 hr 8 min 4 sec) 
Heartbeat_Variant_0 : 1408 0.229167 per_variant_size: 0 1408 0 0 0 0 0 0 0 
Heartbeat_Variant_1 : 1400 0.227865 per_variant_size: 0 794 606 0 0 0 0 0 0 
Heartbeat_Variant_2 : 1544 0.251302 per_variant_size: 0 735 434 192 183 0 0 0 0 
Heartbeat_Variant_3 : 0 0 per_variant_size: 0 0 0 0 0 0 0 0 0 
Heartbeat_Variant_0_evicts 0 : 5566 1 : 0 2 : 0 3 : 0 
Heartbeat_Variant_1_evicts 0 : 0 1 : 0 2 : 191 3 : 0 
Heartbeat_Variant_2_evicts 0 : 0 1 : 190 2 : 0 3 : 0 
Heartbeat_Variant_3_evicts 0 : 0 1 : 0 2 : 0 3 : 0 
Heartbeat CPU 0 instructions: 50000003 cycles: 13984802 heartbeat IPC: 3.575 cumulative IPC: 3.57531 (Simulation time: 0 hr 10 min 5 sec) 

Warmup complete CPU 0 instructions: 50000003 cycles: 13984802 (Simulation time: 0 hr 10 min 5 sec) 

Cycle: 20000000 FTQ IN: 58173447 FTQ occupancy: 19.9857 DECODE IN: 58173447 DECODE occupancy: 52.0774 ROB IN: 58173447 ROB occupancy: 314.19 ROB OUT: 58173445
Heartbeat_Variant_0 : 1420 0.23112 per_variant_size: 0 1420 0 0 0 0 0 0 0 
Heartbeat_Variant_1 : 1416 0.230469 per_variant_size: 0 798 618 0 0 0 0 0 0 
Heartbeat_Variant_2 : 1557 0.253418 per_variant_size: 0 736 442 184 195 0 0 0 0 
Heartbeat_Variant_3 : 0 0 per_variant_size: 0 0 0 0 0 0 0 0 0 
Heartbeat_Variant_0_evicts 0 : 5534 1 : 2 2 : 0 3 : 0 
Heartbeat_Variant_1_evicts 0 : 1 1 : 0 2 : 192 3 : 0 
Heartbeat_Variant_2_evicts 0 : 3 1 : 191 2 : 0 3 : 0 
Heartbeat_Variant_3_evicts 0 : 0 1 : 0 2 : 0 3 : 0 
Heartbeat CPU 0 instructions: 60000002 cycles: 21319765 heartbeat IPC: 1.36333 cumulative IPC: 1.36333 (Simulation time: 0 hr 12 min 31 sec) 
Heartbeat_Variant_0 : 1420 0.23112 per_variant_size: 0 1420 0 0 0 0 0 0 0 
Heartbeat_Variant_1 : 1416 0.230469 per_variant_size: 0 796 620 0 0 0 0 0 0 
Heartbeat_Variant_2 : 1558 0.253581 per_variant_size: 0 736 443 190 189 0 0 0 0 
Heartbeat_Variant_3 : 0 0 per_variant_size: 0 0 0 0 0 0 0 0 0 
Heartbeat_Variant_0_evicts 0 : 5561 1 : 0 2 : 0 3 : 0 
Heartbeat_Variant_1_evicts 0 : 0 1 : 0 2 : 192 3 : 0 
Heartbeat_Variant_2_evicts 0 : 0 1 : 192 2 : 0 3 : 0 
Heartbeat_Variant_3_evicts 0 : 0 1 : 0 2 : 0 3 : 0 
Heartbeat CPU 0 instructions: 70000002 cycles: 28516165 heartbeat IPC: 1.38958 cumulative IPC: 1.37633 (Simulation time: 0 hr 14 min 41 sec) 
Cycle: 30000000 FTQ IN: 13766231 FTQ occupancy: 12.9554 DECODE IN: 13766231 DECODE occupancy: 33.771 ROB IN: 13766231 ROB occupancy: 237.355 ROB OUT: 13766203
Heartbeat_Variant_0 : 1457 0.237142 per_variant_size: 0 1457 0 0 0 0 0 0 0 
Heartbeat_Variant_1 : 1447 0.235514 per_variant_size: 0 809 638 0 0 0 0 0 0 
Heartbeat_Variant_2 : 1585 0.257975 per_variant_size: 0 750 436 196 203 0 0 0 0 
Heartbeat_Variant_3 : 0 0 per_variant_size: 0 0 0 0 0 0 0 0 0 
Heartbeat_Variant_0_evicts 0 : 5594 1 : 10 2 : 4 3 : 0 
Heartbeat_Variant_1_evicts 0 : 7 1 : 0 2 : 198 3 : 0 
Heartbeat_Variant_2_evicts 0 : 2 1 : 198 2 : 0 3 : 0 
Heartbeat_Variant_3_evicts 0 : 0 1 : 0 2 : 0 3 : 0 
Heartbeat CPU 0 instructions: 80000001 cycles: 35819070 heartbeat IPC: 1.36932 cumulative IPC: 1.37399 (Simulation time: 0 hr 17 min 11 sec) 
Cycle: 40000000 FTQ IN: 13848553 FTQ occupancy: 12.9605 DECODE IN: 13848414 DECODE occupancy: 33.969 ROB IN: 13848354 ROB occupancy: 236.634 ROB OUT: 13848032
Heartbeat_Variant_0 : 1479 0.240723 per_variant_size: 0 1479 0 0 0 0 0 0 0 
Heartbeat_Variant_1 : 1477 0.240397 per_variant_size: 0 815 662 0 0 0 0 0 0 
Heartbeat_Variant_2 : 1601 0.260579 per_variant_size: 0 763 435 195 208 0 0 0 0 
Heartbeat_Variant_3 : 0 0 per_variant_size: 0 0 0 0 0 0 0 0 0 
Heartbeat_Variant_0_evicts 0 : 5574 1 : 9 2 : 4 3 : 0 
Heartbeat_Variant_1_evicts 0 : 6 1 : 0 2 : 203 3 : 0 
Heartbeat_Variant_2_evicts 0 : 4 1 : 199 2 : 0 3 : 0 
Heartbeat_Variant_3_evicts 0 : 0 1 : 0 2 : 0 3 : 0 
Heartbeat CPU 0 instructions: 90000000 cycles: 43024427 heartbeat IPC: 1.38786 cumulative IPC: 1.37743 (Simulation time: 0 hr 19 min 29 sec) 
Cycle: 50000000 FTQ IN: 13582708 FTQ occupancy: 12.9452 DECODE IN: 13582802 DECODE occupancy: 33.5992 ROB IN: 13582802 ROB occupancy: 234.35 ROB OUT: 13582802
Heartbeat_Variant_0 : 1551 0.252441 per_variant_size: 0 1551 0 0 0 0 0 0 0 
Heartbeat_Variant_1 : 1574 0.256185 per_variant_size: 0 827 747 0 0 0 0 0 0 
Heartbeat_Variant_2 : 1665 0.270996 per_variant_size: 0 777 444 222 222 0 0 0 0 
Heartbeat_Variant_3 : 0 0 per_variant_size: 0 0 0 0 0 0 0 0 0 
Heartbeat_Variant_0_evicts 0 : 5569 1 : 22 2 : 19 3 : 0 
Heartbeat_Variant_1_evicts 0 : 22 1 : 0 2 : 200 3 : 0 
Heartbeat_Variant_2_evicts 0 : 15 1 : 200 2 : 0 3 : 0 
Heartbeat_Variant_3_evicts 0 : 0 1 : 0 2 : 0 3 : 0 
Heartbeat CPU 0 instructions: 100000000 cycles: 50449427 heartbeat IPC: 1.3468 cumulative IPC: 1.37119 (Simulation time: 0 hr 21 min 49 sec) 
Finished CPU 0 instructions: 50000001 cycles: 36464626 cumulative IPC: 1.37119 (Simulation time: 0 hr 21 min 49 sec) 

ChampSim completed all CPUs

Region of Interest Statistics

CPU 0 cumulative IPC: 1.37119 instructions: 50000001 cycles: 36464626
 Fetch stage stalled: 53.7051  Sim cycles: 36464626 fetch stall cycle: 19583361
 Empty decode stage: 35.0297  Sim cycles: 36464626 fetch stall cycle: 12773437
ITLB TOTAL     ACCESS:    5858731  HIT:    5362633  MISS:     496098  HIT %:    91.5323  MISS %:    8.46767   MPKI: 9.92196
ITLB LOAD TRANSLATION INSTRUCTION	ACCESS:    5733960  HIT:    5237862  MISS:     496098  HIT %:    91.3481  MISS %:    8.65193  MPKI: 9.92196
ITLB TRANSLATION FROM L1D PREFETCHER INSTRUCTION	ACCESS:     124771  HIT:     124771  MISS:          0  HIT %:        100  MISS %:          0  MPKI: 0

ITLB AVERAGE MISS LATENCY: 9.07449 cycles
ITLB RQ	ACCESS:    8003876	FORWARD:          0	MERGED:    1699079	TO_CACHE:    6304797

DTLB TOTAL     ACCESS:    8977283  HIT:    8504753  MISS:     472530  HIT %:    94.7364  MISS %:    5.26362   MPKI: 9.4506
DTLB LOAD TRANSLATION DATA	ACCESS:    8977283  HIT:    8504753  MISS:     472530  HIT %:    94.7364  MISS %:    5.26362  MPKI: 9.4506

DTLB AVERAGE MISS LATENCY: 9.38647 cycles
DTLB RQ	ACCESS:   13350791	FORWARD:          0	MERGED:    4335654	TO_CACHE:    9015137

STLB TOTAL     ACCESS:    1216732  HIT:    1214446  MISS:       2286  HIT %:    99.8121  MISS %:    0.18788   MPKI: 0.04572
STLB LOAD TRANSLATION INSTRUCTION	ACCESS:     496098  HIT:     495778  MISS:        320  HIT %:    99.9355  MISS %:  0.0645034  MPKI: 0.0064
STLB LOAD TRANSLATION DATA	ACCESS:     472529  HIT:     470608  MISS:       1921  HIT %:    99.5935  MISS %:   0.406536  MPKI: 0.03842
STLB TRANSLATION FROM L1D PREFETCHER DATA	ACCESS:     248105  HIT:     248060  MISS:         45  HIT %:    99.9819  MISS %:  0.0181375  MPKI: 0.0009

STLB AVERAGE MISS LATENCY: 82.0862 cycles
STLB RQ	ACCESS:    1337546	FORWARD:          0	MERGED:     120777	TO_CACHE:    1216769

STLB Hit, L1D data hit: 0
STLB Hit, L2C data hit: 0
STLB Hit, LLC data hit: 0
STLB Hit, LLC data miss: 0
STLB STLB hints to L2: 0
L1D TOTAL     ACCESS:   13090919  HIT:   11964346  MISS:    1126573  HIT %:    91.3942  MISS %:    8.60576   MPKI: 22.5315
L1D LOAD DATA	ACCESS:    6557936  HIT:    5815630  MISS:     742306  HIT %:    88.6808  MISS %:    11.3192  MPKI: 14.8461
L1D RFO DATA	ACCESS:    6205630  HIT:    5916536  MISS:     289094  HIT %:    95.3414  MISS %:    4.65858  MPKI: 5.78188
L1D PREFETCH DATA	ACCESS:     327353  HIT:     232180  MISS:      95173  HIT %:    70.9265  MISS %:    29.0735  MPKI: 1.90346

L1D PREFETCH  REQUESTED:     738181  ISSUED:     738181  USEFUL:      35132  USELESS:      68029
L1D USEFUL LOAD PREFETCHES:      35132 PREFETCH ISSUED TO LOWER LEVEL:     103265  ACCURACY: 34.0212
 TIMELY PREFETCHES:      35132 LATE PREFETCHES: 8025 DROPPED PREFETCHES: 11
L1D AVERAGE MISS LATENCY: 228144 cycles
L1D RQ	ACCESS:   10695725	FORWARD:          0	MERGED:    3937663	TO_CACHE:    6593825
L1D WQ	ACCESS:    6954528	FORWARD:     164582	MERGED:     197562	TO_CACHE:    6756966
L1D PQ	ACCESS:     369263	FORWARD:          0	MERGED:          0	TO_CACHE:     368918

L1D UNIQUE REGIONS ACCESSED: 0
L1D REGIONS CONFLICTS: 0
L1D Cross Page Prefetch Requests: 6998
L1D Same Page Prefetch Requests: 748152
L1D ROI Sum of L1D PQ occupancy: 4695630
L1D PREFETCHES PUSHED FROM L2C: 0
L1I TOTAL     ACCESS:    7165386  HIT:    4391556  MISS:    2773830  HIT %:    61.2885  MISS %:    38.7115   MPKI: 55.4766
L1I LOAD INSTRUCTION	ACCESS:    6498194  HIT:    3724364  MISS:    2773830  HIT %:    57.3138  MISS %:    42.6862  MPKI: 55.4766
L1I PREFETCH INSTRUCTION	ACCESS:     667192  HIT:     667192  MISS:          0  HIT %:        100  MISS %:          0  MPKI: 0

L1I PREFETCH  REQUESTED:    1619277  ISSUED:    1619277  USEFUL:          0  USELESS:          0
L1I USEFUL LOAD PREFETCHES:          0 PREFETCH ISSUED TO LOWER LEVEL:          0  ACCURACY: -nan
 TIMELY PREFETCHES:          0 LATE PREFETCHES: 0 DROPPED PREFETCHES: 0
L1I AVERAGE MISS LATENCY: 17.2005 cycles
L1I RQ	ACCESS:    9509128	FORWARD:          0	MERGED:    2685666	TO_CACHE:    6823462
L1I PQ	ACCESS:    1619277	FORWARD:          0	MERGED:     438863	TO_CACHE:    1180414

L1BTB TOTAL     ACCESS:    5670141  HIT:    2034382  MISS:    3635759  HIT %:    35.8789  MISS %:    64.1211   MPKI: 72.7152
L1BTB BRANCH_DIRECT_JUMP	ACCESS:     546743  HIT:     143376  MISS:     403367	AVERAGE STALL: 52.4174
L1BTB BRANCH_INDIRECT	ACCESS:     182459  HIT:      65639  MISS:     116820	AVERAGE STALL: 103.525
L1BTB BRANCH_CONDITIONAL	ACCESS:    2705179  HIT:    1411054  MISS:    1294125	AVERAGE STALL: 60.453
L1BTB BRANCH_DIRECT_CALL	ACCESS:     946771  HIT:     104164  MISS:     842607	AVERAGE STALL: 89.26
L1BTB BRANCH_INDIRECT_CALL	ACCESS:     171107  HIT:      20725  MISS:     150382	AVERAGE STALL: 132.147
L1BTB BRANCH_RETURN	ACCESS:    1117882  HIT:     289424  MISS:     828458	AVERAGE STALL: 50.2228
L1BTB BRANCH_OTHER ACCESS:          0  HIT:          0  MISS:          0	AVERAGE STALL: -nan
L1BTB TOTAL ROB OCCUPANCY AT BTB MISS: 2.36846

L2BTB TOTAL     ACCESS:    3610376  HIT:    3547108  MISS:      63268  HIT %:    98.2476  MISS %:    1.75239   MPKI: 1.26536
L2BTB BRANCH_DIRECT_JUMP	ACCESS:     399224  HIT:     396146  MISS:       3078	AVERAGE STALL: 52.4174
L2BTB BRANCH_INDIRECT	ACCESS:     106498  HIT:     103837  MISS:       2661	AVERAGE STALL: 103.525
L2BTB BRANCH_CONDITIONAL	ACCESS:    1294125  HIT:    1290048  MISS:       4077	AVERAGE STALL: 60.453
L2BTB BRANCH_DIRECT_CALL	ACCESS:     842607  HIT:     841884  MISS:        723	AVERAGE STALL: 89.26
L2BTB BRANCH_INDIRECT_CALL	ACCESS:     140895  HIT:     131040  MISS:       9855	AVERAGE STALL: 132.147
L2BTB BRANCH_RETURN	ACCESS:     827027  HIT:     784153  MISS:      42874	AVERAGE STALL: 50.2228
L2BTB BRANCH_OTHER ACCESS:          0  HIT:          0  MISS:          0	AVERAGE STALL: -nan
L2BTB TOTAL ROB OCCUPANCY AT BTB MISS: 136.106

L2C TOTAL     ACCESS:    4514775  HIT:    4030411  MISS:     484364  HIT %:    89.2716  MISS %:    10.7284   MPKI: 9.68728
L2C LOAD INSTRUCTION	ACCESS:    2773828  HIT:    2516157  MISS:     257671  HIT %:    90.7106  MISS %:    9.28936  MPKI: 5.15342
L2C LOAD TRANSLATION INSTRUCTION	ACCESS:        374  HIT:        125  MISS:        249  HIT %:    33.4225  MISS %:    66.5775  MPKI: 0.00498
L2C LOAD DATA	ACCESS:     734261  HIT:     660307  MISS:      73954  HIT %:    89.9281  MISS %:    10.0719  MPKI: 1.47908
L2C RFO DATA	ACCESS:     288996  HIT:     228886  MISS:      60110  HIT %:    79.2004  MISS %:    20.7996  MPKI: 1.2022
L2C PREFETCH DATA	ACCESS:     188188  HIT:     113694  MISS:      74494  HIT %:    60.4151  MISS %:    39.5849  MPKI: 1.48988
L2C WRITEBACK DATA	ACCESS:     527004  HIT:     510602  MISS:      16402  HIT %:    96.8877  MISS %:    3.11231  MPKI: 0.32804
L2C LOAD TRANSLATION DATA	ACCESS:       2053  HIT:        589  MISS:       1464  HIT %:    28.6897  MISS %:    71.3103  MPKI: 0.02928
L2C TRANSLATION FROM L1D PREFETCHER DATA	ACCESS:         71  HIT:         51  MISS:         20  HIT %:     71.831  MISS %:     28.169  MPKI: 0.0004

L2C PREFETCH  REQUESTED:      92351  ISSUED:      92351  USEFUL:       7767  USELESS:      67261
L2C USEFUL LOAD PREFETCHES:       7767 PREFETCH ISSUED TO LOWER LEVEL:      74931  ACCURACY: 10.3655
 TIMELY PREFETCHES:       7767 LATE PREFETCHES: 437 DROPPED PREFETCHES: 0
L2C AVERAGE MISS LATENCY: 39.7725 cycles
L2C RQ	ACCESS:    3799635	FORWARD:          0	MERGED:          0	TO_CACHE:    3799584
L2C WQ	ACCESS:     527004	FORWARD:         52	MERGED:          0	TO_CACHE:     527004
L2C PQ	ACCESS:     195616	FORWARD:          0	MERGED:       3375	TO_CACHE:     192240

L2C Dense regions hint from L2: 0
PSCL5 TOTAL     ACCESS:       4600  HIT:       2300  MISS:       2300  HIT %:         50  MISS %:         50   MPKI: 0.046
PSCL5 LOAD TRANSLATION INSTRUCTION	ACCESS:       4460  HIT:       2230  MISS:       2230  HIT %:         50  MISS %:         50  MPKI: 0.0446
PSCL5 TRANSLATION FROM L1D PREFETCHER INSTRUCTION	ACCESS:        140  HIT:         70  MISS:         70  HIT %:         50  MISS %:         50  MPKI: 0.0014


PSCL4 TOTAL     ACCESS:       4450  HIT:       2218  MISS:       2232  HIT %:    49.8427  MISS %:    50.1573   MPKI: 0.04464
PSCL4 LOAD TRANSLATION INSTRUCTION	ACCESS:       3547  HIT:       2148  MISS:       1399  HIT %:    60.5582  MISS %:    39.4418  MPKI: 0.02798
PSCL4 TRANSLATION FROM L1D PREFETCHER INSTRUCTION	ACCESS:        121  HIT:         70  MISS:         51  HIT %:    57.8512  MISS %:    42.1488  MPKI: 0.00102
PSCL4 LOAD TRANSLATION DATA	ACCESS:        763  HIT:          0  MISS:        763  HIT %:          0  MISS %:        100  MPKI: 0.01526
PSCL4 TRANSLATION FROM L1D PREFETCHER DATA	ACCESS:         19  HIT:          0  MISS:         19  HIT %:          0  MISS %:        100  MPKI: 0.00038


PSCL3 TOTAL     ACCESS:       4518  HIT:       2252  MISS:       2266  HIT %:    49.8451  MISS %:    50.1549   MPKI: 0.04532
PSCL3 LOAD TRANSLATION INSTRUCTION	ACCESS:       3581  HIT:       2182  MISS:       1399  HIT %:    60.9327  MISS %:    39.0673  MPKI: 0.02798
PSCL3 TRANSLATION FROM L1D PREFETCHER INSTRUCTION	ACCESS:        121  HIT:         70  MISS:         51  HIT %:    57.8512  MISS %:    42.1488  MPKI: 0.00102
PSCL3 LOAD TRANSLATION DATA	ACCESS:        797  HIT:          0  MISS:        797  HIT %:          0  MISS %:        100  MPKI: 0.01594
PSCL3 TRANSLATION FROM L1D PREFETCHER DATA	ACCESS:         19  HIT:          0  MISS:         19  HIT %:          0  MISS %:        100  MPKI: 0.00038


PSCL2 TOTAL     ACCESS:       4424  HIT:       2124  MISS:       2300  HIT %:    48.0108  MISS %:    51.9892   MPKI: 0.046
PSCL2 LOAD TRANSLATION INSTRUCTION	ACCESS:       2391  HIT:       2055  MISS:        336  HIT %:    85.9473  MISS %:    14.0527  MPKI: 0.00672
PSCL2 TRANSLATION FROM L1D PREFETCHER INSTRUCTION	ACCESS:         69  HIT:         69  MISS:          0  HIT %:        100  MISS %:          0  MPKI: 0
PSCL2 LOAD TRANSLATION DATA	ACCESS:       1895  HIT:          0  MISS:       1895  HIT %:          0  MISS %:        100  MPKI: 0.0379
PSCL2 TRANSLATION FROM L1D PREFETCHER DATA	ACCESS:         69  HIT:          0  MISS:         69  HIT %:          0  MISS %:        100  MPKI: 0.00138


LLC TOTAL     ACCESS:     548945  HIT:     516823  MISS:      32122  HIT %:    94.1484  MISS %:    5.85159   MPKI: 0.64244
LLC LOAD INSTRUCTION	ACCESS:     257671  HIT:     256281  MISS:       1390  HIT %:    99.4606  MISS %:   0.539448  MPKI: 0.0278
LLC LOAD TRANSLATION INSTRUCTION	ACCESS:        249  HIT:        207  MISS:         42  HIT %:    83.1325  MISS %:    16.8675  MPKI: 0.00084
LLC LOAD DATA	ACCESS:      73554  HIT:      69610  MISS:       3944  HIT %:     94.638  MISS %:    5.36205  MPKI: 0.07888
LLC RFO DATA	ACCESS:      60064  HIT:      44491  MISS:      15573  HIT %:    74.0727  MISS %:    25.9273  MPKI: 0.31146
LLC PREFETCH DATA	ACCESS:      74931  HIT:      64317  MISS:      10614  HIT %:     85.835  MISS %:     14.165  MPKI: 0.21228
LLC WRITEBACK DATA	ACCESS:      80992  HIT:      80554  MISS:        438  HIT %:    99.4592  MISS %:   0.540794  MPKI: 0.00876
LLC LOAD TRANSLATION DATA	ACCESS:       1464  HIT:       1343  MISS:        121  HIT %:     91.735  MISS %:    8.26503  MPKI: 0.00242
LLC TRANSLATION FROM L1D PREFETCHER DATA	ACCESS:         20  HIT:         20  MISS:          0  HIT %:        100  MISS %:          0  MPKI: 0

LLC AVERAGE MISS LATENCY: 161.49 cycles
LLC RQ	ACCESS:     393031	FORWARD:          0	MERGED:          0	TO_CACHE:     393022
LLC WQ	ACCESS:      80992	FORWARD:          9	MERGED:          0	TO_CACHE:      80992
LLC PQ	ACCESS:      74931	FORWARD:          0	MERGED:          0	TO_CACHE:      74931

LLC Dense regions hint to LLC: 0

RAW hits: 1943039
Loads Generated: 12638764
Loads sent to L1D: 10695725
Stores Generated: 6954524
Stores sent to L1D: 6954528
Major fault: 0 Minor fault: 2672
Allocated PAGES: 2672

stream: 
stream:times selected: 1188341
stream:pref_filled: 122054
stream:pref_useful: 24726
stream:pref_late: 6881
stream:misses: 8052
stream:misses_by_poll: 0

CS: 
CS:times selected: 179004
CS:pref_filled: 59914
CS:pref_useful: 36621
CS:pref_late: 6880
CS:misses: 16167
CS:misses_by_poll: 8

CPLX: 
CPLX:times selected: 1008147
CPLX:pref_filled: 19378
CPLX:pref_useful: 4627
CPLX:pref_late: 2963
CPLX:misses: 94056
CPLX:misses_by_poll: 1

NL_L1: 
NL:times selected: 21503
NL:pref_filled: 634
NL:pref_useful: 263
NL:pref_late: 365
NL:misses: 1824
NL:misses_by_poll: 0

total selections: 2396995
total_filled: 95173
total_useful: 35132
total_late: 18463
total_polluted: 9
total_misses_after_warmup: 778197
conflicts: 5524194

test: 116081

DRAM Statistics
 CHANNEL 0
 RQ ROW_BUFFER_HIT:      11457  ROW_BUFFER_MISS:      20215
 DBUS_CONGESTED:          7
 WQ ROW_BUFFER_HIT:       1735  ROW_BUFFER_MISS:      13812  FULL:          0

 AVG_CONGESTED_CYCLE: 4

CPU 0 Branch Prediction Accuracy: 99.7901% MPKI: 0.3838 Average ROB Occupancy at Mispredict: 169.974
Branch types
NOT_BRANCH: 40858638 81.7173%
BRANCH_DIRECT_JUMP: 546743 1.09349%
BRANCH_INDIRECT: 182459 0.364918%
BRANCH_CONDITIONAL: 6176392 12.3528%
BRANCH_DIRECT_CALL: 946771 1.89354%
BRANCH_INDIRECT_CALL: 171107 0.342214%
BRANCH_RETURN: 1117882 2.23576%
BRANCH_OTHER: 0 0%

DRAM PAGES: 1048576
Allocated PAGES: 2672
Average_ROB_Occupancy: 237.011
Average_Decode_Occupancy: 33.7286
Average_FTQ_Occupancy: 12.9512
Indirect max targets: 14 Average targets: 1.18266
Branch_type:  BRANCH_DIRECT_JUMP:  Count Percentage: 2.117 7.16123 4.13221 8.54386 9.65518 4.36117 0.90289 63.1265 
Branch_type:  BRANCH_INDIRECT:  Count Percentage: 11.7457 3.43481 2.55791 0 16.6757 9.68397 2.27217 53.6298 
Branch_type:  BRANCH_CONDITIONAL:  Count Percentage: 25.2881 2.75396 1.70479 5.25749 4.90105 4.53203 0.510389 55.0522 
Branch_type:  BRANCH_DIRECT_CALL:  Count Percentage: 0.774726 1.29441 1.37467 3.9975 4.18531 0.988976 0.938116 86.4463 
Branch_type:  BRANCH_INDIRECT_CALL:  Count Percentage: 9.56615 0 2.99692 8.72297 2.42915 0.00292668 1.28862 74.9933 
Branch_type:  BRANCH_RETURN:  Count Percentage: 8.40549 1.09493 1.32088 5.8674 6.58122 5.20846 1.47697 70.0447 
Branch_type:  BRANCH_DIRECT_JUMP:  Total Count: 23189 78442 45263 93587 105760 47771 9890 691469 
Branch_type:  BRANCH_INDIRECT:  Total Count: 42916 12550 9346 0 60929 35383 8302 195951 
Branch_type:  BRANCH_CONDITIONAL:  Total Count: 3125748 340405 210722 649855 605798 560185 63087 6804765 
Branch_type:  BRANCH_DIRECT_CALL:  Total Count: 14623 24432 25947 75453 78998 18667 17707 1631680 
Branch_type:  BRANCH_INDIRECT_CALL:  Total Count: 32686 0 10240 29805 8300 10 4403 256240 
Branch_type:  BRANCH_RETURN:  Total Count: 187451 24418 29457 130849 146768 116154 32938 1562068 
Number of unique branch instructions: 11118
Upper 32 bits: 
aaaa
ffff
ffff0000
Unique upper 32 bits: 3
Unique upper 36 bits: 3
Unique upper 40 bits: 5
Unique upper 44 bits: 32
Unique upper 48 bits: 160
Variant_0 : 1551 0.252441
Variant_1 : 1574 0.256185
Variant_2 : 1665 0.270996
Variant_3 : 0 0
Offset_3 4608
Offset_4 284
Offset_5 501
Offset_6 557
Offset_7 661
Offset_8 615
Offset_9 547
Offset_10 433
Offset_11 357
Offset_12 336
Offset_13 248
Offset_14 252
Offset_15 203
Offset_16 234
Offset_17 178
Offset_18 152
Offset_19 270
Offset_20 148
Offset_21 262
Offset_22 412
Offset_23 245
Offset_24 373
Offset_25 117
Offset_47 100
Offset_64 21
decode_dispatch_called: 25537678 70.0341
Dispatch_width: 0 13729559 53.762 37.6517
Dispatch_width: 1 952048 3.72801 2.61088
Dispatch_width: 2 832275 3.25901 2.28242
Dispatch_width: 3 498426 1.95173 1.36688
Dispatch_width: 4 5553553 21.7465 15.23
Dispatch_width: 5 156989 0.614735 0.430524
Dispatch_width: 6 3814828 14.938 10.4617
Empty_decode_cycles: 10926948 29.9659
ROB_full_cycles: 8897052 24.3991
Starvation_cycles_per_kilo_instr: 237.527
Starvation_cycles_per_kilo_instr_3: 180.422
Starvation_cycles_per_kilo_instr_0: 157.595
Branch_type_1  (3,1)  (4,10)  (5,41)  (6,75)  (7,129)  (8,159)  (9,144)  (10,113)  (11,79)  (12,55)  (13,11)  (14,2)  (15,3)  (16,4)  (18,1)  (19,5)  (20,2)  (21,1)  (22,3)  (23,2)  (24,10)  (25,12)  (64,2) 
Branch_type_2  (3,1)  (4,1)  (5,1)  (8,4)  (9,4)  (10,1)  (12,1)  (13,1)  (14,1)  (16,3)  (17,2)  (20,2)  (21,2)  (23,5)  (24,1)  (47,46) 
Branch_type_3  (3,4606)  (4,273)  (5,455)  (6,464)  (7,498)  (8,381)  (9,302)  (10,175)  (11,138)  (12,62)  (13,10)  (24,3)  (64,15) 
Branch_type_4  (6,4)  (7,8)  (8,30)  (9,58)  (10,68)  (11,73)  (12,121)  (13,106)  (14,113)  (15,97)  (16,103)  (17,84)  (18,65)  (19,130)  (20,74)  (21,141)  (22,218)  (23,138)  (24,216)  (25,101)  (64,2) 
Branch_type_5  (8,3)  (9,1)  (10,4)  (11,5)  (12,3)  (13,14)  (14,16)  (15,11)  (16,22)  (17,11)  (18,23)  (19,15)  (20,12)  (21,13)  (22,43)  (23,26)  (24,42)  (64,1) 
Branch_type_6  (5,4)  (6,14)  (7,26)  (8,38)  (9,38)  (10,72)  (11,62)  (12,94)  (13,106)  (14,120)  (15,92)  (16,102)  (17,81)  (18,63)  (19,120)  (20,58)  (21,105)  (22,148)  (23,74)  (24,101)  (25,4)  (47,54)  (64,1) 
Unique trigger count: 
Variant_0_evicts_0 : 0
Variant_0_evicts_1 : 0
Variant_0_evicts_2 : 0
Variant_0_evicts_3 : 0
Variant_1_evicts_0 : 0
Variant_1_evicts_1 : 0
Variant_1_evicts_2 : 0
Variant_1_evicts_3 : 0
Variant_2_evicts_0 : 0
Variant_2_evicts_1 : 0
Variant_2_evicts_2 : 0
Variant_2_evicts_3 : 0
Variant_3_evicts_0 : 0
Variant_3_evicts_1 : 0
Variant_3_evicts_2 : 0
Variant_3_evicts_3 : 0
BTB PER SET UNIQUE ADDR: 11 3 4 9 7 6 9 5 5 11 7 10 1 6 7 8 6 8 7 5 4 3 4 5 7 9 8 8 6 6 5 9 4 6 9 8 7 5 5 4 7 7 7 6 3 8 5 6 9 4 5 8 3 7 6 5 8 5 7 4 6 5 3 6 7 5 8 9 6 6 7 9 3 4 6 8 11 3 5 9 8 6 9 5 5 7 4 10 7 8 4 7 3 6 6 6 8 7 7 5 5 5 7 7 6 4 7 5 9 9 5 3 5 4 7 5 4 8 7 3 9 5 6 5 10 8 8 5 14 7 4 5 8 3 3 6 8 5 6 7 3 8 3 4 6 7 8 5 5 6 8 7 4 6 7 5 4 5 9 8 9 4 7 9 5 6 6 8 8 9 11 5 6 4 6 7 8 9 6 5 8 5 6 7 4 5 5 7 5 9 9 10 6 5 4 7 4 6 8 5 3 6 6 11 6 8 7 7 8 9 6 11 8 8 5 6 6 9 4 10 3 9 7 5 8 5 7 5 8 6 3 9 5 4 6 11 11 11 6 10 6 8 10 6 9 10 5 7 7 5 7 8 8 4 4 8 6 6 7 7 10 7 7 5 3 4 8 9 7 5 12 7 8 7 9 3 6 3 12 6 8 8 3 9 5 10 5 7 8 5 7 5 4 6 5 9 8 3 8 7 8 7 4 6 7 5 5 6 8 5 5 5 5 4 8 5 7 9 4 4 9 9 4 6 7 8 7 4 5 7 7 8 9 6 7 5 3 4 7 4 4 8 6 10 7 7 7 4 6 6 7 6 4 6 5 7 7 10 5 5 6 7 8 8 5 6 7 5 6 6 10 5 11 8 4 8 7 4 4 7 5 5 7 5 5 8 7 6 7 9 5 8 5 6 6 5 6 8 5 6 6 6 9 7 5 6 10 5 8 6 5 4 4 5 3 6 10 8 8 5 5 5 6 10 7 5 6 8 7 4 10 4 8 3 5 5 10 6 6 10 8 6 4 8 6 3 10 6 4 7 7 8 5 4 7 8 6 5 4 8 6 7 4 10 8 4 9 8 7 5 9 7 3 6 5 12 8 5 6 4 6 7 7 7 7 6 5 6 8 9 11 6 3 5 3 8 11 6 6 7 8 6 6 6 10 6 5 8 6 6 6 3 4 3 3 2 6 4 5 4 4 3 5 5 5 4 2 5 4 7 3 3 5 6 5 6 5 6 7 5 3 4 5 7 4 3 5 9 5 4 5 4 2 3 2 9 7 3 8 2 3 3 4 5 4 2 4 5 2 2 3 3 1 3 1 5 4 3 4 3 2 5 4 4 4 4 3 4 5 4 5 4 5 4 4 5 6 4 4 4 6 1 3 2 5 3 5 4 3 3 3 4 3 4 2 2 7 3 6 6 3 2 2 3 5 6 1 4 3 6 4 5 7 3 5 2 5 3 5 4 6 5 1 4 2 3 3 5 3 3 3 3 5 4 2 6 4 4 3 3 2 2 5 4 6 2 2 3 7 2 5 4 3 3 4 2 3 4 3 9 4 5 2 4 4 4 3 7 6 5 6 4 3 4 2 4 6 4 3 8 4 4 3 2 5 4 4 4 4 4 5 3 2 4 4 6 3 3 3 4 6 6 2 4 5 5 6 6 2 3 3 2 8 2 3 4 6 4 2 5 7 6 6 6 2 1 5 3 3 4 5 5 8 4 8 7 2 4 4 3 7 3 6 5 3 4 7 9 3 7 4 3 2 5 3 4 6 5 1 5 4 5 3 7 8 7 5 5 6 6 5 3 4 7 7 2 8 3 3 3 6 3 5 1 7 4 8 6 4 5 6 3 4 4 4 4 4 3 4 5 6 4 5 3 5 5 4 2 3 6 5 5 5 7 5 3 6 6 2 3 4 6 4 4 4 7 6 4 4 3 8 3 2 6 4 2 7 5 3 5 3 6 4 6 6 3 6 4 5 4 4 1 6 4 3 3 3 4 4 4 5 5 4 3 4 5 8 5 5 1 8 2 3 2 5 2 2 4 3 3 5 3 4 4 4 3 5 4 5 4 5 3 4 5 3 6 4 2 5 2 4 3 4 7 4 6 6 6 2 5 4 6 3 3 3 5 3 4 2 4 6 6 2 4 2 2 3 5 4 5 6 4 4 4 7 6 5 5 2 3 5 4 4 3 4 2 7 5 3 5 6 5 4 6 3 5 3 6 7 4 4 4 3 5 4 3 6 3 6 4 4 4 4 5 5 3 2 5 4 4 6 2 5 2 3 6 5 5 5 4 3 5 7 3 6 3 4 4 3 4 4 4 9 4 5 5 4 5 5 3 2 6 3 4 2 5 6 3 2 4 4 4 5 5 8 2 5 5 1 4 4 5 7 3 6 5 7 6 2 3 5 5 4 3 3 3 7 5 3 5 4 5 3 6 4 3 5 5 4 3 7 1 3 3 3 6 4 3 4 7 4 7 6 7 5 1 7 4 2 3 7 6 4 8 6 4 2 4 2 3 5 6 4 3 7 4 7 4 5 5 4 6 2 6 4 5 4 6 4 2 6 3 3 1 4 4 5 4 4 4 5 3 3 3 3 6 3 4 3 3 6 7 2 4 2 2 3 6 4 5 4 3 3 2 2 4 4 4 5 4 7 6 6 5 2 2 4 5 2 4 6 2 6 5 6 4 6 2 2 6 4 5 3 1 3 4 5 3 3 2 5 4 2 4 5 3 4 2 5 2 3 6 4 3 3 4 6 5 4 7 6 2 4 6 4 5 5 4 4 3 3 3 4 4 4 5 2 4 3 1 4 5 6 4 3 3 2 3 4 7 3 6 5 4 6 2 3 5 2 6 4 3 6 6 1 3 5 6 2 6 7 4 4 4 3 5 6 6 4 4 3 5 4 6 7 5 2 5 7 5 6 5 6 3 4 3 4 5 6 5 4 4 2 7 3 3 2 3 3 5 5 10 8 4 3 7 5 4 3 4 4 6 4 5 6 2 5 4 6 4 4 2 5 4 5 6 6 6 4 10 4 4 4 3 8 7 5 3 7 3 3 3 4 8 9 2 3 4 7 4 4 2 4 3 4 4 4 5 4 6 4 3 2 5 5 6 4 4 3 5 1 4 4 4 2 3 2 6 4 4 4 3 5 4 1 6 4 3 3 7 5 4 5 2 2 3 5 6 3 9 5 5 4 6 4 4 5 3 4 5 3 5 6 5 6 4 3 5 1 6 6 3 5 4 6 4 2 5 6 3 4 2 4 2 5 5 4 2 3 3 3 6 5 4 4 7 7 1 5 6 4 3 5 8 4 6 3 5 6 5 6 3 3 3 4 6 3 3 6 6 6 4 4 5 4 4 5 3 2 7 3 5 4 6 6 4 5 2 3 3 5 3 6 6 4 6 4 4 4 1 2 6 3 4 3 5 5 3 2 6 3 2 5 8 4 2 7 4 4 4 3 5 4 2 5 5 
BTB PER SET COUNT: 15 1557 1466 1589 9 6 10 5 6 610 77 10 1 6 968 10 6 9 8 5 4 3 5 7 633 421 11 490 9 6 9 13 4 6 11 10 8 7 6 5 10 2872 9 8 3 1106 78 7 28 6 5 15 3 16 8 5 598 8 7 4 7 6 3 8 7 5 13 10 6 6 12 10 3 4 8 8 17 3 976 9 96 9 912 5 6 7 5 11 507 1948 4 12 3 6 50 6 9 13 93 5 6 5 11 8 6 4 7 5 9 1479 5 4 14 4 9 8 4 8 9 3 16 6 668 14 90 11 13 5 412 8 6 6 8 3 3 7 12 5 6 7 775 18 3 4 6 8 11 9 5 20 15 598 213 6 7 974 4 8 12 14 12 6 9 10 6 7 6 11 10 1168 15 7 101 4 6 19 8 29 8 9 10 5 10 8 4 5 6 8 5 10 588 442 6 1481 5 491 4 7 15 6 3 1474 6 17 6 23 8 7 9 22 9 30 9 8 6 9 8 845 4 13 3 11 7 5 9 5 7 6 11 8 3 14 8 14633 991 12 19 14 15 11 7 8 18 500 41 11 7839 144 1471 5 268 9 8 4 4 12 6 9 12 7 11 10 9 5 4 8 24 10 1469 5 95 8 12 9 13 3 11 5 24 8 10 10 3 996 6 1976 5 7 12 5 101 5 4 7 607 9 32 4 11 11 9 13 4 8 117 6 7 6 9 13 5 6 7 4 11 5 13 10 10 6 11 9 5 6 1861 9 23 4 10 7 31 12 18 16 12 5 3 5 7 33 4 9 6 14 8 10 8 5 182 7 7 12 4 6 5 7 56 14 19 112 6 11 1470 16 6 6 11 5 8 10 12 6 1949 10 5 33 9 4 5 7 7 417 11 6 5 12 7 8 10 15 5 8 5 10 6 6 1458 10 485 8 6 10 9 8 7 13 10 29 10 9 7 4 4 5 6 6 18 42 9 5 7 5 7 11 9 362 11 9 7 4 10 988 8 3 5 5 22 8 8 13 9 7 14 8 334 4 1382 8 4 10 20 10 5 4 496 9 10 6 4 1172 990 600 933 12 222 4 80 11 7 5 2228 462 4 6 6 23 15 7 6 6 9 7 8 1469 110 8 990 501 12 9 14 6 4 6 3 9 13 15 9 11 116 9 7 6 12 7 5 9 11 6 14 3 4 9 3 2 6 603 5 4 5 4 9 6 7 5 2 50 4 7 4 3 6 10 29 10 5 91 14 5 47 4 5 10 6 1565 5 9 19 6 10 4 986 3 2 10 7 5 12 4 987 3 4 9 6 2 899 6 987 3 3 4 1 4 1 6 4 10 4 5 7 7 5 4 4 6 4 4 5 1204 5 4 6 988 4 5 1468 5 5 5 7 1 987 2 7 3 894 4 3 3 3 4 3 4 2 2 1469 3 6 6 3 2 4 7 6 6 1 4 4 6 893 10 9 4 8 2 7 3 6 4 8 5 1 8 2 4 4 8 3 4 3 4 5 4 6 6 4 5 3 3 2 2 7 4 6 2 2 3 13 2 5 4 3 2930 4 3 3 5 3 10 971 367 3 4 4 4 3 1470 8 5 7 5 5 4 2 4 8 5 4 10 4 5 3 5 8 4 5 5 5 4 6 3 2 4 4 992 6 3 3 6 6 7 5 4 5 5 7 12 2 11 3 3 37 2 4 5 6 10 2 6 9 6 8 6 2 1 5 4 3 4 5 6 10 4 10 9 3 4 4 3 9 11 6 24 3 5 9 3433 3 10 8 3 3 5 7 4 11 7 1 5 6 5 3 7 11 9 9 5 321 6 8 3 4 9 7 970 15 4 4 3 41 3 8 1 7 4 17 6 5 240 8 6 5 4 6 4 4 3 5 6 9 4 5 3 5 5 47 3 3 500 9 9 6 7 6 5 6 6 2 6 4 973 5 5 5 7 977 4 6 974 41 971 3 10 1974 3 7 5 3 6 4 8 4 6 497 4 6 5 6 5 4 1 128 5 3 3 3 4 4 4 6 5 6 9 4 5 8 5 5 1 1471 2 3 2933 7 2 2 8 3 13 5 31 4 918 6 3 10 5 6 4 10 3 5 5 3 25 66 2 7 2 499 3 4 52 4 8 1469 7 2 5 47 15 3 3 3 7 3 4 2 4 7 8 3 5 2 3 3 14 6 5 8 14 5 5 1184 6 5 6 5 3 6 5 4 4 6 2 503 10 3 6 9 5 5 18 5 8 4 15 72 4 4 5 4 6 5 4 7 998 7 4 5 6 7 6 5 3 4 1469 4 4 6 3 7 1913 3 7 9 8 497 4 3 7 24 3 6 4 5 4 4 4 5 12 11 4 6 5 5 36 9 5 93 6 4 4 2 5 6 4 2 8 4 498 5 6 14 2 602 9 1 4 5 5 8 4 6 5 7 1468 2 45 7 6 4 3 3 9 7 5 3 6 4 502 3 6 6 3 7 5 6 5 7 1 3 3 4 7 11 3 6 8 4 12 14 10 5 1 25 4 2 3 12 6 10 2438 486 5 2 5 2 4 6 6 6 3 9 6 9 151 5 5 4 6 13 12 4 6 4 7 6 2 6 3 3 1 4 7 6 4 4 4 5 20491 3 3 3 11 3 4 3 4 6 7 2 4 3 2 3 6 4 5 5 3 3 3 2 7 5 4 5 6 500 11 8 996 2 3 5 5 4 5 1469 3 6 7 266 4 977 2 2 13 4 5 3 1 6 496 7 4 4 2 6 6 2 5 6 3 5 2 6 2 3 7 5 1466 3 4 6 8 5 8 360 2 8 7 4 9 5 5 4 3 3 3 6 5 4 5 2 10 3 2 5 9 9 5 3 3 1464 3 4 16 3 504 5 4 8 2 3 6 2 7 4 27 6 7 1 3 6 7 2 135 9 4 4 5 3 5 8 7 5 5 6 5 4 978 10 13 2 5 11 5 7 5 10 4 4 3 4 5 7 6 973 4 2 7 3 3 2 3 3 5 5 12 8 7 3 8 11 4 3 4 9 6 4 5 7 2 6 1565 7 4 4 2 6 4 9 6 22 11 4 515 4 5 4 3 99 9 14 3 8 4 3 3 4 9 10 3 3 4 10 6 7 2 12 4 5 4 5 5 6 6 4 5 2 13 14 6 4 5 3 604 1 976 4 5 2 3 2 14 4 5 4 3 5 7 1 8 4 3 7 7 5 6 5 2 3 3 5 6 3 70 6 6 4 6 4 4 10 3 5 974 3 5 10 5 8 5 7 106 1 2259 6 4 8 2906 8 4 2 6 6 3 4 47 6 2 5 6 4 2 3 3 3 8 9 5 4 8 26 1 5 6 4 7 9 9 10 1763 3 5 101 5 11 3 3 3 4 6 3 3 13 12 7 4 5 9 6 4 5 3 2 9 3 7 5 7 6 6 5 2 4 3 5 3 14 8 4 977 4 6 4 1 10 7 3 4 3 8 8 3 2 1011 4 10 5 1569 4 2 8 5 971 5 3 27 4 2 5 6 
To predecode: 0
Predecoding something: 0
Predecode request dropped: 0
sizeofblock_0 0
sizeofblock_1 39017
sizeofblock_2 44996
sizeofblock_3 29896
sizeofblock_4 20226
sizeofblock_5 0
sizeofblock_6 0
sizeofblock_7 0
sizeofblock_8 0
Variant_0 Correct: 1614769 Incorrect: 0 Accuracy: 1
Variant_1 Correct: 2093172 Incorrect: 0 Accuracy: 1
Variant_2 Correct: 3655915 Incorrect: 1585 Accuracy: 0.999567
Variant_3 Correct: 0 Incorrect: 0 Accuracy: -nan
