
*** ChampSim Multicore Out-of-Order Simulator ***

Warmup Instructions: 50000000
Simulation Instructions: 50000000
Number of CPUs: 1
LLC sets: 2048
LLC ways: 16
Off-chip DRAM Size: 4096 MB Channels: 1 Width: 64-bit Data Rate: 6400 MT/s
CPU 0 runs ./micro_traces/srv109.trace.gz
.gz
ITLB has LRU replacement policy
DTLB has LRU replacement policy
STLB has LRU replacement policy
FDIP Prefetcher at L1I
L1I has LRU replacement policy
L1D has LRU replacement policy
Initialize SRRIP state for L2C
Initialize DRRIP state for LLC
Heartbeat_Variant_0 : 1353 0.330322 per_variant_size: 0 1353 0 0 0 0 0 0 0 
Heartbeat_Variant_1 : 2633 0.642822 per_variant_size: 0 503 2130 0 0 0 0 0 0 
Heartbeat_Variant_2 : 0 0 per_variant_size: 0 0 0 0 0 0 0 0 0 
Heartbeat_Variant_3 : 0 0 per_variant_size: 0 0 0 0 0 0 0 0 0 
Heartbeat_Variant_0_evicts 0 : 5835 1 : 778 2 : 0 3 : 0 
Heartbeat_Variant_1_evicts 0 : 741 1 : 0 2 : 0 3 : 0 
Heartbeat_Variant_2_evicts 0 : 0 1 : 0 2 : 0 3 : 0 
Heartbeat_Variant_3_evicts 0 : 0 1 : 0 2 : 0 3 : 0 
Heartbeat CPU 0 instructions: 10000001 cycles: 2797625 heartbeat IPC: 3.57446 cumulative IPC: 3.57446 (Simulation time: 0 hr 1 min 37 sec) 
Heartbeat_Variant_0 : 1348 0.329102 per_variant_size: 0 1348 0 0 0 0 0 0 0 
Heartbeat_Variant_1 : 2644 0.645508 per_variant_size: 0 524 2120 0 0 0 0 0 0 
Heartbeat_Variant_2 : 0 0 per_variant_size: 0 0 0 0 0 0 0 0 0 
Heartbeat_Variant_3 : 0 0 per_variant_size: 0 0 0 0 0 0 0 0 0 
Heartbeat_Variant_0_evicts 0 : 5614 1 : 104 2 : 0 3 : 0 
Heartbeat_Variant_1_evicts 0 : 111 1 : 0 2 : 0 3 : 0 
Heartbeat_Variant_2_evicts 0 : 0 1 : 0 2 : 0 3 : 0 
Heartbeat_Variant_3_evicts 0 : 0 1 : 0 2 : 0 3 : 0 
Heartbeat CPU 0 instructions: 20000003 cycles: 5593648 heartbeat IPC: 3.57651 cumulative IPC: 3.57548 (Simulation time: 0 hr 3 min 12 sec) 
Heartbeat_Variant_0 : 1338 0.32666 per_variant_size: 0 1338 0 0 0 0 0 0 0 
Heartbeat_Variant_1 : 2685 0.655518 per_variant_size: 0 506 2179 0 0 0 0 0 0 
Heartbeat_Variant_2 : 0 0 per_variant_size: 0 0 0 0 0 0 0 0 0 
Heartbeat_Variant_3 : 0 0 per_variant_size: 0 0 0 0 0 0 0 0 0 
Heartbeat_Variant_0_evicts 0 : 5720 1 : 348 2 : 0 3 : 0 
Heartbeat_Variant_1_evicts 0 : 366 1 : 0 2 : 0 3 : 0 
Heartbeat_Variant_2_evicts 0 : 0 1 : 0 2 : 0 3 : 0 
Heartbeat_Variant_3_evicts 0 : 0 1 : 0 2 : 0 3 : 0 
Heartbeat CPU 0 instructions: 30000001 cycles: 8390905 heartbeat IPC: 3.57493 cumulative IPC: 3.5753 (Simulation time: 0 hr 4 min 54 sec) 
Heartbeat_Variant_0 : 1362 0.33252 per_variant_size: 0 1362 0 0 0 0 0 0 0 
Heartbeat_Variant_1 : 2676 0.65332 per_variant_size: 0 492 2184 0 0 0 0 0 0 
Heartbeat_Variant_2 : 0 0 per_variant_size: 0 0 0 0 0 0 0 0 0 
Heartbeat_Variant_3 : 0 0 per_variant_size: 0 0 0 0 0 0 0 0 0 
Heartbeat_Variant_0_evicts 0 : 5646 1 : 283 2 : 0 3 : 0 
Heartbeat_Variant_1_evicts 0 : 264 1 : 0 2 : 0 3 : 0 
Heartbeat_Variant_2_evicts 0 : 0 1 : 0 2 : 0 3 : 0 
Heartbeat_Variant_3_evicts 0 : 0 1 : 0 2 : 0 3 : 0 
Heartbeat CPU 0 instructions: 40000001 cycles: 11187636 heartbeat IPC: 3.5756 cumulative IPC: 3.57538 (Simulation time: 0 hr 6 min 32 sec) 
Heartbeat_Variant_0 : 1369 0.334229 per_variant_size: 0 1369 0 0 0 0 0 0 0 
Heartbeat_Variant_1 : 2677 0.653564 per_variant_size: 0 495 2182 0 0 0 0 0 0 
Heartbeat_Variant_2 : 0 0 per_variant_size: 0 0 0 0 0 0 0 0 0 
Heartbeat_Variant_3 : 0 0 per_variant_size: 0 0 0 0 0 0 0 0 0 
Heartbeat_Variant_0_evicts 0 : 5596 1 : 134 2 : 0 3 : 0 
Heartbeat_Variant_1_evicts 0 : 129 1 : 0 2 : 0 3 : 0 
Heartbeat_Variant_2_evicts 0 : 0 1 : 0 2 : 0 3 : 0 
Heartbeat_Variant_3_evicts 0 : 0 1 : 0 2 : 0 3 : 0 
Heartbeat CPU 0 instructions: 50000000 cycles: 13985296 heartbeat IPC: 3.57442 cumulative IPC: 3.57518 (Simulation time: 0 hr 8 min 13 sec) 

Warmup complete CPU 0 instructions: 50000004 cycles: 13985297 (Simulation time: 0 hr 8 min 13 sec) 

Cycle: 20000000 FTQ IN: 58252130 FTQ occupancy: 20.3172 DECODE IN: 58252098 DECODE occupancy: 52.6426 ROB IN: 58252086 ROB occupancy: 314.633 ROB OUT: 58252030
Heartbeat_Variant_0 : 1379 0.33667 per_variant_size: 0 1379 0 0 0 0 0 0 0 
Heartbeat_Variant_1 : 2681 0.654541 per_variant_size: 0 499 2182 0 0 0 0 0 0 
Heartbeat_Variant_2 : 0 0 per_variant_size: 0 0 0 0 0 0 0 0 0 
Heartbeat_Variant_3 : 0 0 per_variant_size: 0 0 0 0 0 0 0 0 0 
Heartbeat_Variant_0_evicts 0 : 5808 1 : 497 2 : 0 3 : 0 
Heartbeat_Variant_1_evicts 0 : 493 1 : 0 2 : 0 3 : 0 
Heartbeat_Variant_2_evicts 0 : 0 1 : 0 2 : 0 3 : 0 
Heartbeat_Variant_3_evicts 0 : 0 1 : 0 2 : 0 3 : 0 
Heartbeat CPU 0 instructions: 60000000 cycles: 21277737 heartbeat IPC: 1.37128 cumulative IPC: 1.37128 (Simulation time: 0 hr 10 min 7 sec) 
Heartbeat_Variant_0 : 1384 0.337891 per_variant_size: 0 1384 0 0 0 0 0 0 0 
Heartbeat_Variant_1 : 2679 0.654053 per_variant_size: 0 485 2194 0 0 0 0 0 0 
Heartbeat_Variant_2 : 0 0 per_variant_size: 0 0 0 0 0 0 0 0 0 
Heartbeat_Variant_3 : 0 0 per_variant_size: 0 0 0 0 0 0 0 0 0 
Heartbeat_Variant_0_evicts 0 : 5620 1 : 146 2 : 0 3 : 0 
Heartbeat_Variant_1_evicts 0 : 141 1 : 0 2 : 0 3 : 0 
Heartbeat_Variant_2_evicts 0 : 0 1 : 0 2 : 0 3 : 0 
Heartbeat_Variant_3_evicts 0 : 0 1 : 0 2 : 0 3 : 0 
Heartbeat CPU 0 instructions: 70000001 cycles: 28557779 heartbeat IPC: 1.37362 cumulative IPC: 1.37245 (Simulation time: 0 hr 12 min 8 sec) 
Cycle: 30000000 FTQ IN: 13762743 FTQ occupancy: 14.8003 DECODE IN: 13762775 DECODE occupancy: 37.3225 ROB IN: 13762787 ROB occupancy: 243.878 ROB OUT: 13762612
Heartbeat_Variant_0 : 1381 0.337158 per_variant_size: 0 1381 0 0 0 0 0 0 0 
Heartbeat_Variant_1 : 2685 0.655518 per_variant_size: 0 486 2199 0 0 0 0 0 0 
Heartbeat_Variant_2 : 0 0 per_variant_size: 0 0 0 0 0 0 0 0 0 
Heartbeat_Variant_3 : 0 0 per_variant_size: 0 0 0 0 0 0 0 0 0 
Heartbeat_Variant_0_evicts 0 : 5788 1 : 198 2 : 0 3 : 0 
Heartbeat_Variant_1_evicts 0 : 201 1 : 0 2 : 0 3 : 0 
Heartbeat_Variant_2_evicts 0 : 0 1 : 0 2 : 0 3 : 0 
Heartbeat_Variant_3_evicts 0 : 0 1 : 0 2 : 0 3 : 0 
Heartbeat CPU 0 instructions: 80000002 cycles: 35739086 heartbeat IPC: 1.3925 cumulative IPC: 1.37907 (Simulation time: 0 hr 14 min 4 sec) 
Cycle: 40000000 FTQ IN: 13925885 FTQ occupancy: 14.857 DECODE IN: 13925746 DECODE occupancy: 37.6835 ROB IN: 13925686 ROB occupancy: 244.011 ROB OUT: 13925569
Heartbeat_Variant_0 : 1387 0.338623 per_variant_size: 0 1387 0 0 0 0 0 0 0 
Heartbeat_Variant_1 : 2679 0.654053 per_variant_size: 0 477 2202 0 0 0 0 0 0 
Heartbeat_Variant_2 : 0 0 per_variant_size: 0 0 0 0 0 0 0 0 0 
Heartbeat_Variant_3 : 0 0 per_variant_size: 0 0 0 0 0 0 0 0 0 
Heartbeat_Variant_0_evicts 0 : 5661 1 : 106 2 : 0 3 : 0 
Heartbeat_Variant_1_evicts 0 : 100 1 : 0 2 : 0 3 : 0 
Heartbeat_Variant_2_evicts 0 : 0 1 : 0 2 : 0 3 : 0 
Heartbeat_Variant_3_evicts 0 : 0 1 : 0 2 : 0 3 : 0 
Heartbeat CPU 0 instructions: 90000002 cycles: 43012204 heartbeat IPC: 1.37493 cumulative IPC: 1.37803 (Simulation time: 0 hr 16 min 0 sec) 
Cycle: 50000000 FTQ IN: 13785526 FTQ occupancy: 15.0069 DECODE IN: 13785643 DECODE occupancy: 37.8193 ROB IN: 13785643 ROB occupancy: 245.643 ROB OUT: 13785641
Heartbeat_Variant_0 : 1381 0.337158 per_variant_size: 0 1381 0 0 0 0 0 0 0 
Heartbeat_Variant_1 : 2685 0.655518 per_variant_size: 0 468 2217 0 0 0 0 0 0 
Heartbeat_Variant_2 : 0 0 per_variant_size: 0 0 0 0 0 0 0 0 0 
Heartbeat_Variant_3 : 0 0 per_variant_size: 0 0 0 0 0 0 0 0 0 
Heartbeat_Variant_0_evicts 0 : 5664 1 : 85 2 : 0 3 : 0 
Heartbeat_Variant_1_evicts 0 : 91 1 : 0 2 : 0 3 : 0 
Heartbeat_Variant_2_evicts 0 : 0 1 : 0 2 : 0 3 : 0 
Heartbeat_Variant_3_evicts 0 : 0 1 : 0 2 : 0 3 : 0 
Heartbeat CPU 0 instructions: 100000001 cycles: 50210975 heartbeat IPC: 1.38913 cumulative IPC: 1.38024 (Simulation time: 0 hr 17 min 50 sec) 
Finished CPU 0 instructions: 50000001 cycles: 36225679 cumulative IPC: 1.38024 (Simulation time: 0 hr 17 min 50 sec) 

ChampSim completed all CPUs

Region of Interest Statistics

CPU 0 cumulative IPC: 1.38024 instructions: 50000001 cycles: 36225679
 Fetch stage stalled: 46.7208  Sim cycles: 36225679 fetch stall cycle: 16924937
 Empty decode stage: 26.8188  Sim cycles: 36225679 fetch stall cycle: 9715276
ITLB TOTAL     ACCESS:    5841811  HIT:    5347901  MISS:     493910  HIT %:    91.5453  MISS %:    8.45474   MPKI: 9.8782
ITLB LOAD TRANSLATION INSTRUCTION	ACCESS:    5702398  HIT:    5208488  MISS:     493910  HIT %:    91.3386  MISS %:    8.66144  MPKI: 9.8782
ITLB TRANSLATION FROM L1D PREFETCHER INSTRUCTION	ACCESS:     139413  HIT:     139413  MISS:          0  HIT %:        100  MISS %:          0  MPKI: 0

ITLB AVERAGE MISS LATENCY: 9.05885 cycles
ITLB RQ	ACCESS:    7932537	FORWARD:          0	MERGED:    1607830	TO_CACHE:    6324707

DTLB TOTAL     ACCESS:    8965031  HIT:    8492391  MISS:     472640  HIT %:     94.728  MISS %:    5.27204   MPKI: 9.4528
DTLB LOAD TRANSLATION DATA	ACCESS:    8965031  HIT:    8492391  MISS:     472640  HIT %:     94.728  MISS %:    5.27204  MPKI: 9.4528

DTLB AVERAGE MISS LATENCY: 9.34626 cycles
DTLB RQ	ACCESS:   13356402	FORWARD:          0	MERGED:    4353204	TO_CACHE:    9003198

STLB TOTAL     ACCESS:    1215060  HIT:    1212870  MISS:       2190  HIT %:    99.8198  MISS %:   0.180238   MPKI: 0.0438
STLB LOAD TRANSLATION INSTRUCTION	ACCESS:     493910  HIT:     493638  MISS:        272  HIT %:    99.9449  MISS %:  0.0550708  MPKI: 0.00544
STLB LOAD TRANSLATION DATA	ACCESS:     472639  HIT:     470748  MISS:       1891  HIT %:    99.5999  MISS %:   0.400094  MPKI: 0.03782
STLB TRANSLATION FROM L1D PREFETCHER DATA	ACCESS:     248511  HIT:     248484  MISS:         27  HIT %:    99.9891  MISS %:  0.0108647  MPKI: 0.00054

STLB AVERAGE MISS LATENCY: 74.2977 cycles
STLB RQ	ACCESS:    1334356	FORWARD:          0	MERGED:     119252	TO_CACHE:    1215104

STLB Hit, L1D data hit: 0
STLB Hit, L2C data hit: 0
STLB Hit, LLC data hit: 0
STLB Hit, LLC data miss: 0
STLB STLB hints to L2: 0
L1D TOTAL     ACCESS:   13108532  HIT:   11995322  MISS:    1113210  HIT %:    91.5077  MISS %:    8.49226   MPKI: 22.2642
L1D LOAD DATA	ACCESS:    6573492  HIT:    5838955  MISS:     734537  HIT %:    88.8258  MISS %:    11.1742  MPKI: 14.6907
L1D RFO DATA	ACCESS:    6205756  HIT:    5920662  MISS:     285094  HIT %:     95.406  MISS %:    4.59403  MPKI: 5.70188
L1D PREFETCH DATA	ACCESS:     329284  HIT:     235705  MISS:      93579  HIT %:    71.5811  MISS %:    28.4189  MPKI: 1.87158

L1D PREFETCH  REQUESTED:     735988  ISSUED:     735988  USEFUL:      32600  USELESS:      68892
L1D USEFUL LOAD PREFETCHES:      32600 PREFETCH ISSUED TO LOWER LEVEL:     101583  ACCURACY: 32.092
 TIMELY PREFETCHES:      32600 LATE PREFETCHES: 7919 DROPPED PREFETCHES: 10
L1D AVERAGE MISS LATENCY: 232056 cycles
L1D RQ	ACCESS:   10685799	FORWARD:          0	MERGED:    3912319	TO_CACHE:    6607788
L1D WQ	ACCESS:    6947098	FORWARD:     166066	MERGED:     198484	TO_CACHE:    6748614
L1D PQ	ACCESS:     368181	FORWARD:          0	MERGED:          0	TO_CACHE:     367807

L1D UNIQUE REGIONS ACCESSED: 0
L1D REGIONS CONFLICTS: 0
L1D Cross Page Prefetch Requests: 6068
L1D Same Page Prefetch Requests: 744740
L1D ROI Sum of L1D PQ occupancy: 4678412
L1D PREFETCHES PUSHED FROM L2C: 0
L1I TOTAL     ACCESS:    7109190  HIT:    4345109  MISS:    2764081  HIT %:    61.1196  MISS %:    38.8804   MPKI: 55.2816
L1I LOAD INSTRUCTION	ACCESS:    6447564  HIT:    3683483  MISS:    2764081  HIT %:    57.1298  MISS %:    42.8702  MPKI: 55.2816
L1I PREFETCH INSTRUCTION	ACCESS:     661626  HIT:     661626  MISS:          0  HIT %:        100  MISS %:          0  MPKI: 0

L1I PREFETCH  REQUESTED:    1598533  ISSUED:    1598533  USEFUL:          0  USELESS:          0
L1I USEFUL LOAD PREFETCHES:          0 PREFETCH ISSUED TO LOWER LEVEL:          0  ACCURACY: -nan
 TIMELY PREFETCHES:          0 LATE PREFETCHES: 0 DROPPED PREFETCHES: 0
L1I AVERAGE MISS LATENCY: 17.8766 cycles
L1I RQ	ACCESS:    9567210	FORWARD:          0	MERGED:    2811227	TO_CACHE:    6755983
L1I PQ	ACCESS:    1598533	FORWARD:          0	MERGED:     421979	TO_CACHE:    1176554

L1BTB TOTAL     ACCESS:    5674916  HIT:    2046121  MISS:    3628795  HIT %:    36.0555  MISS %:    63.9445   MPKI: 72.5759
L1BTB BRANCH_DIRECT_JUMP	ACCESS:     549424 HIT:     144983 MISS:     404441 AVERAGE STALL: 53.9123 AVERAGE FETCH STALL: 14.2436 AVERAGE FETCH QUEUE STALL: 19.5437 AVERAGE DECODE STALL: 19.2307 AVERAGE EXECUTE STALL: 2.19239e+15
L1BTB BRANCH_INDIRECT	ACCESS:     183349 HIT:      66301 MISS:     117048 AVERAGE STALL: 112.792 AVERAGE FETCH STALL: 11.6553 AVERAGE FETCH QUEUE STALL: 19.5324 AVERAGE DECODE STALL: 12.5308 AVERAGE EXECUTE STALL: 68.1134
L1BTB BRANCH_CONDITIONAL	ACCESS:    2714161 HIT:    1420540 MISS:    1293621 AVERAGE STALL: 76.7357 AVERAGE FETCH STALL: 21.2063 AVERAGE FETCH QUEUE STALL: 34.946 AVERAGE DECODE STALL: 19.8582 AVERAGE EXECUTE STALL: 2.53668e+15
L1BTB BRANCH_DIRECT_CALL	ACCESS:     942884 HIT:     104284 MISS:     838600 AVERAGE STALL: 66.9221 AVERAGE FETCH STALL: 30.7843 AVERAGE FETCH QUEUE STALL: 21.4984 AVERAGE DECODE STALL: 13.9182 AVERAGE EXECUTE STALL: 6.44766e+15
L1BTB BRANCH_INDIRECT_CALL	ACCESS:     171110 HIT:      20865 MISS:     150245 AVERAGE STALL: 138.006 AVERAGE FETCH STALL: 12.8159 AVERAGE FETCH QUEUE STALL: 17.6837 AVERAGE DECODE STALL: 10.8957 AVERAGE EXECUTE STALL: 96.124
L1BTB BRANCH_RETURN	ACCESS:    1113988 HIT:     289148 MISS:     824840 AVERAGE STALL: 50.9006 AVERAGE FETCH STALL: 17.5474 AVERAGE FETCH QUEUE STALL: 6.29351 AVERAGE DECODE STALL: 6.48444 AVERAGE EXECUTE STALL: 4.0891e+14
L1BTB BRANCH_OTHER ACCESS:          0 HIT:          0 MISS:          0 AVERAGE STALL: -nan AVERAGE FETCH STALL: -nan AVERAGE FETCH QUEUE STALL: -nan AVERAGE DECODE STALL: -nan AVERAGE EXECUTE STALL: -nan
L1BTB TOTAL ROB OCCUPANCY AT BTB MISS: 2.92268

L2BTB TOTAL     ACCESS:    3603282  HIT:    3532158  MISS:      71124  HIT %:    98.0261  MISS %:    1.97387   MPKI: 1.42248
L2BTB BRANCH_DIRECT_JUMP	ACCESS:     400229 HIT:     396014 MISS:       4215 AVERAGE STALL: 53.9123 AVERAGE FETCH STALL: 14.2436 AVERAGE FETCH QUEUE STALL: 19.5437 AVERAGE DECODE STALL: 19.2307 AVERAGE EXECUTE STALL: 2.19239e+15
L2BTB BRANCH_INDIRECT	ACCESS:     106766 HIT:     104066 MISS:       2700 AVERAGE STALL: 112.792 AVERAGE FETCH STALL: 11.6553 AVERAGE FETCH QUEUE STALL: 19.5324 AVERAGE DECODE STALL: 12.5308 AVERAGE EXECUTE STALL: 68.1134
L2BTB BRANCH_CONDITIONAL	ACCESS:    1293620 HIT:    1286266 MISS:       7354 AVERAGE STALL: 76.7357 AVERAGE FETCH STALL: 21.2063 AVERAGE FETCH QUEUE STALL: 34.946 AVERAGE DECODE STALL: 19.8582 AVERAGE EXECUTE STALL: 2.53668e+15
L2BTB BRANCH_DIRECT_CALL	ACCESS:     838599 HIT:     835704 MISS:       2895 AVERAGE STALL: 66.9221 AVERAGE FETCH STALL: 30.7843 AVERAGE FETCH QUEUE STALL: 21.4984 AVERAGE DECODE STALL: 13.9182 AVERAGE EXECUTE STALL: 6.44766e+15
L2BTB BRANCH_INDIRECT_CALL	ACCESS:     140667 HIT:     130436 MISS:      10231 AVERAGE STALL: 138.006 AVERAGE FETCH STALL: 12.8159 AVERAGE FETCH QUEUE STALL: 17.6837 AVERAGE DECODE STALL: 10.8957 AVERAGE EXECUTE STALL: 96.124
L2BTB BRANCH_RETURN	ACCESS:     823401 HIT:     779672 MISS:      43729 AVERAGE STALL: 50.9006 AVERAGE FETCH STALL: 17.5474 AVERAGE FETCH QUEUE STALL: 6.29351 AVERAGE DECODE STALL: 6.48444 AVERAGE EXECUTE STALL: 4.0891e+14
L2BTB BRANCH_OTHER ACCESS:          0 HIT:          0 MISS:          0 AVERAGE STALL: -nan AVERAGE FETCH STALL: -nan AVERAGE FETCH QUEUE STALL: -nan AVERAGE DECODE STALL: -nan AVERAGE EXECUTE STALL: -nan
L2BTB TOTAL ROB OCCUPANCY AT BTB MISS: 149.117

L2C TOTAL     ACCESS:    4494918  HIT:    3931794  MISS:     563124  HIT %:     87.472  MISS %:     12.528   MPKI: 11.2625
L2C LOAD INSTRUCTION	ACCESS:    2764081  HIT:    2447878  MISS:     316203  HIT %:    88.5603  MISS %:    11.4397  MPKI: 6.32406
L2C LOAD TRANSLATION INSTRUCTION	ACCESS:        306  HIT:         74  MISS:        232  HIT %:     24.183  MISS %:     75.817  MPKI: 0.00464
L2C LOAD DATA	ACCESS:     726604  HIT:     638601  MISS:      88003  HIT %:    87.8885  MISS %:    12.1115  MPKI: 1.76006
L2C RFO DATA	ACCESS:     284985  HIT:     227931  MISS:      57054  HIT %:      79.98  MISS %:      20.02  MPKI: 1.14108
L2C PREFETCH DATA	ACCESS:     193031  HIT:     110688  MISS:      82343  HIT %:    57.3421  MISS %:    42.6579  MPKI: 1.64686
L2C WRITEBACK DATA	ACCESS:     523880  HIT:     506139  MISS:      17741  HIT %:    96.6135  MISS %:    3.38646  MPKI: 0.35482
L2C LOAD TRANSLATION DATA	ACCESS:       1981  HIT:        448  MISS:       1533  HIT %:    22.6148  MISS %:    77.3852  MPKI: 0.03066
L2C TRANSLATION FROM L1D PREFETCHER DATA	ACCESS:         50  HIT:         35  MISS:         15  HIT %:         70  MISS %:         30  MPKI: 0.0003

L2C PREFETCH  REQUESTED:     100917  ISSUED:     100917  USEFUL:       9990  USELESS:      72988
L2C USEFUL LOAD PREFETCHES:       9990 PREFETCH ISSUED TO LOWER LEVEL:      82872  ACCURACY: 12.0547
 TIMELY PREFETCHES:       9990 LATE PREFETCHES: 529 DROPPED PREFETCHES: 0
L2C AVERAGE MISS LATENCY: 37.2061 cycles
L2C RQ	ACCESS:    3778045	FORWARD:          0	MERGED:          0	TO_CACHE:    3778007
L2C WQ	ACCESS:     523880	FORWARD:         43	MERGED:          0	TO_CACHE:     523880
L2C PQ	ACCESS:     202500	FORWARD:          0	MERGED:       3863	TO_CACHE:     198632

L2C Dense regions hint from L2: 0
PSCL5 TOTAL     ACCESS:       4408  HIT:       2204  MISS:       2204  HIT %:         50  MISS %:         50   MPKI: 0.04408
PSCL5 LOAD TRANSLATION INSTRUCTION	ACCESS:       4308  HIT:       2154  MISS:       2154  HIT %:         50  MISS %:         50  MPKI: 0.04308
PSCL5 TRANSLATION FROM L1D PREFETCHER INSTRUCTION	ACCESS:        100  HIT:         50  MISS:         50  HIT %:         50  MISS %:         50  MPKI: 0.001


PSCL4 TOTAL     ACCESS:       4236  HIT:       2112  MISS:       2124  HIT %:    49.8584  MISS %:    50.1416   MPKI: 0.04248
PSCL4 LOAD TRANSLATION INSTRUCTION	ACCESS:       2156  HIT:       2062  MISS:         94  HIT %:    95.6401  MISS %:    4.35993  MPKI: 0.00188
PSCL4 TRANSLATION FROM L1D PREFETCHER INSTRUCTION	ACCESS:         50  HIT:         50  MISS:          0  HIT %:        100  MISS %:          0  MPKI: 0
PSCL4 LOAD TRANSLATION DATA	ACCESS:       1980  HIT:          0  MISS:       1980  HIT %:          0  MISS %:        100  MPKI: 0.0396
PSCL4 TRANSLATION FROM L1D PREFETCHER DATA	ACCESS:         50  HIT:          0  MISS:         50  HIT %:          0  MISS %:        100  MPKI: 0.001


PSCL3 TOTAL     ACCESS:       4304  HIT:       2146  MISS:       2158  HIT %:    49.8606  MISS %:    50.1394   MPKI: 0.04316
PSCL3 LOAD TRANSLATION INSTRUCTION	ACCESS:       2190  HIT:       2096  MISS:         94  HIT %:    95.7078  MISS %:    4.29224  MPKI: 0.00188
PSCL3 TRANSLATION FROM L1D PREFETCHER INSTRUCTION	ACCESS:         50  HIT:         50  MISS:          0  HIT %:        100  MISS %:          0  MPKI: 0
PSCL3 LOAD TRANSLATION DATA	ACCESS:       2014  HIT:          0  MISS:       2014  HIT %:          0  MISS %:        100  MPKI: 0.04028
PSCL3 TRANSLATION FROM L1D PREFETCHER DATA	ACCESS:         50  HIT:          0  MISS:         50  HIT %:          0  MISS %:        100  MPKI: 0.001


PSCL2 TOTAL     ACCESS:       4298  HIT:       2094  MISS:       2204  HIT %:    48.7203  MISS %:    51.2797   MPKI: 0.04408
PSCL2 LOAD TRANSLATION INSTRUCTION	ACCESS:       2314  HIT:       2044  MISS:        270  HIT %:    88.3319  MISS %:    11.6681  MPKI: 0.0054
PSCL2 TRANSLATION FROM L1D PREFETCHER INSTRUCTION	ACCESS:         50  HIT:         50  MISS:          0  HIT %:        100  MISS %:          0  MPKI: 0
PSCL2 LOAD TRANSLATION DATA	ACCESS:       1884  HIT:          0  MISS:       1884  HIT %:          0  MISS %:        100  MPKI: 0.03768
PSCL2 TRANSLATION FROM L1D PREFETCHER DATA	ACCESS:         50  HIT:          0  MISS:         50  HIT %:          0  MISS %:        100  MPKI: 0.001


LLC TOTAL     ACCESS:     627425  HIT:     598598  MISS:      28827  HIT %:    95.4055  MISS %:    4.59449   MPKI: 0.57654
LLC LOAD INSTRUCTION	ACCESS:     316202  HIT:     315265  MISS:        937  HIT %:    99.7037  MISS %:    0.29633  MPKI: 0.01874
LLC LOAD TRANSLATION INSTRUCTION	ACCESS:        232  HIT:        186  MISS:         46  HIT %:    80.1724  MISS %:    19.8276  MPKI: 0.00092
LLC LOAD DATA	ACCESS:      87483  HIT:      83882  MISS:       3601  HIT %:    95.8838  MISS %:    4.11623  MPKI: 0.07202
LLC RFO DATA	ACCESS:      57030  HIT:      43426  MISS:      13604  HIT %:    76.1459  MISS %:    23.8541  MPKI: 0.27208
LLC PREFETCH DATA	ACCESS:      82872  HIT:      72640  MISS:      10232  HIT %:    87.6532  MISS %:    12.3468  MPKI: 0.20464
LLC WRITEBACK DATA	ACCESS:      82058  HIT:      81738  MISS:        320  HIT %:      99.61  MISS %:   0.389968  MPKI: 0.0064
LLC LOAD TRANSLATION DATA	ACCESS:       1533  HIT:       1447  MISS:         86  HIT %:    94.3901  MISS %:    5.60992  MPKI: 0.00172
LLC TRANSLATION FROM L1D PREFETCHER DATA	ACCESS:         15  HIT:         14  MISS:          1  HIT %:    93.3333  MISS %:    6.66667  MPKI: 2e-05

LLC AVERAGE MISS LATENCY: 157.8 cycles
LLC RQ	ACCESS:     462511	FORWARD:          0	MERGED:          0	TO_CACHE:     462495
LLC WQ	ACCESS:      82058	FORWARD:         16	MERGED:          0	TO_CACHE:      82058
LLC PQ	ACCESS:      82872	FORWARD:          0	MERGED:          0	TO_CACHE:      82872

LLC Dense regions hint to LLC: 0

RAW hits: 1949726
Loads Generated: 12635525
Loads sent to L1D: 10685799
Stores Generated: 6947086
Stores sent to L1D: 6947098
Major fault: 0 Minor fault: 2601
Allocated PAGES: 2601

stream: 
stream:times selected: 1176478
stream:pref_filled: 122140
stream:pref_useful: 24067
stream:pref_late: 6736
stream:misses: 6834
stream:misses_by_poll: 0

CS: 
CS:times selected: 174919
CS:pref_filled: 58982
CS:pref_useful: 36111
CS:pref_late: 6693
CS:misses: 15536
CS:misses_by_poll: 1

CPLX: 
CPLX:times selected: 1000317
CPLX:pref_filled: 20160
CPLX:pref_useful: 4842
CPLX:pref_late: 2962
CPLX:misses: 90510
CPLX:misses_by_poll: 1

NL_L1: 
NL:times selected: 19774
NL:pref_filled: 741
NL:pref_useful: 329
NL:pref_late: 208
NL:misses: 1030
NL:misses_by_poll: 0

total selections: 2371488
total_filled: 93579
total_useful: 32600
total_late: 17834
total_polluted: 2
total_misses_after_warmup: 768839
conflicts: 5538469

test: 115634

DRAM Statistics
 CHANNEL 0
 RQ ROW_BUFFER_HIT:      10387  ROW_BUFFER_MISS:      18109
 DBUS_CONGESTED:         11
 WQ ROW_BUFFER_HIT:       1404  ROW_BUFFER_MISS:      12517  FULL:          0

 AVG_CONGESTED_CYCLE: 5

CPU 0 Branch Prediction Accuracy: 99.8092% MPKI: 0.34892 Average ROB Occupancy at Mispredict: 189.636
Branch types
NOT_BRANCH: 40857157 81.7143%
BRANCH_DIRECT_JUMP: 549424 1.09885%
BRANCH_INDIRECT: 183349 0.366698%
BRANCH_CONDITIONAL: 6181892 12.3638%
BRANCH_DIRECT_CALL: 942884 1.88577%
BRANCH_INDIRECT_CALL: 171110 0.34222%
BRANCH_RETURN: 1113988 2.22798%
BRANCH_OTHER: 0 0%

DRAM PAGES: 1048576
Allocated PAGES: 2601
Average_ROB_Occupancy: 244.02
Average_Decode_Occupancy: 37.1932
Average_FTQ_Occupancy: 14.7389
Indirect max targets: 14 Average targets: 1.1505
Branch_type:  BRANCH_DIRECT_JUMP:  Count Percentage: 3.24829 5.53099 5.12363 9.12238 1.74016 5.96783 0.891939 68.3748 
Branch_type:  BRANCH_INDIRECT:  Count Percentage: 11.7458 3.46491 2.55452 0 2.5452 9.67468 19.2228 50.7921 
Branch_type:  BRANCH_CONDITIONAL:  Count Percentage: 21.4515 2.58987 1.84246 8.41924 1.23162 5.06896 1.95747 57.4389 
Branch_type:  BRANCH_DIRECT_CALL:  Count Percentage: 0.257349 1.79076 1.44555 4.83602 2.15601 2.75191 0.751905 86.0105 
Branch_type:  BRANCH_INDIRECT_CALL:  Count Percentage: 9.53326 0.571582 2.98674 4.83994 0.000291475 2.01875 1.28307 78.7664 
Branch_type:  BRANCH_RETURN:  Count Percentage: 3.18859 1.30476 1.27108 9.31576 2.84213 6.55351 3.12936 72.3948 
Branch_type:  BRANCH_DIRECT_JUMP:  Total Count: 35588 60597 56134 99944 19065 65383 9772 749108 
Branch_type:  BRANCH_INDIRECT:  Total Count: 42886 12651 9327 0 9293 35324 70186 185451 
Branch_type:  BRANCH_CONDITIONAL:  Total Count: 2648851 319799 227508 1039615 152082 625919 241710 7092595 
Branch_type:  BRANCH_DIRECT_CALL:  Total Count: 4868 33874 27344 91478 40783 52055 14223 1626970 
Branch_type:  BRANCH_INDIRECT_CALL:  Total Count: 32707 1961 10247 16605 1 6926 4402 270234 
Branch_type:  BRANCH_RETURN:  Total Count: 71281 29168 28415 208254 63536 146504 69957 1618388 
Number of unique branch instructions: 10308
Upper 32 bits: 
aaaa
ffff
ffff0000
Unique upper 32 bits: 3
Unique upper 36 bits: 3
Unique upper 40 bits: 5
Unique upper 44 bits: 32
Unique upper 48 bits: 154
Variant_0 : 1381 0.337158
Variant_1 : 2685 0.655518
Variant_2 : 0 0
Variant_3 : 0 0
Offset_3 4268
Offset_4 260
Offset_5 469
Offset_6 531
Offset_7 612
Offset_8 540
Offset_9 491
Offset_10 399
Offset_11 338
Offset_12 297
Offset_13 225
Offset_14 232
Offset_15 201
Offset_16 230
Offset_17 162
Offset_18 128
Offset_19 252
Offset_20 144
Offset_21 236
Offset_22 404
Offset_23 245
Offset_24 346
Offset_25 88
Offset_47 84
Offset_64 21
decode_dispatch_called: 26140006 72.1588
Dispatch_width: 0 14134387 54.0719 39.0176
Dispatch_width: 1 991768 3.79406 2.73775
Dispatch_width: 2 833659 3.18921 2.30129
Dispatch_width: 3 477336 1.82607 1.31767
Dispatch_width: 4 6098442 23.3299 16.8346
Dispatch_width: 5 111556 0.426763 0.307947
Dispatch_width: 6 3492858 13.3621 9.64194
Empty_decode_cycles: 10085673 27.8412
ROB_full_cycles: 9737022 26.8788
Starvation_cycles_per_kilo_instr: 229.958
Starvation_cycles_per_kilo_instr_3: 167.858
Starvation_cycles_per_kilo_instr_0: 144.83
Branch_type_1  (3,1)  (4,9)  (5,37)  (6,73)  (7,118)  (8,138)  (9,129)  (10,102)  (11,76)  (12,51)  (13,8)  (14,2)  (15,3)  (16,4)  (18,1)  (19,4)  (20,2)  (21,1)  (22,3)  (23,2)  (24,10)  (25,12)  (64,3) 
Branch_type_2  (3,1)  (5,1)  (8,3)  (9,3)  (12,1)  (13,1)  (14,1)  (16,3)  (17,2)  (20,2)  (21,2)  (23,5)  (24,1)  (47,39) 
Branch_type_3  (3,4266)  (4,251)  (5,427)  (6,441)  (7,460)  (8,333)  (9,270)  (10,164)  (11,140)  (12,58)  (13,7)  (24,3)  (64,11) 
Branch_type_4  (6,4)  (7,8)  (8,30)  (9,54)  (10,63)  (11,63)  (12,105)  (13,96)  (14,102)  (15,96)  (16,104)  (17,73)  (18,58)  (19,124)  (20,74)  (21,124)  (22,215)  (23,138)  (24,202)  (25,72)  (64,4) 
Branch_type_5  (8,2)  (9,1)  (10,3)  (11,5)  (12,3)  (13,14)  (14,16)  (15,11)  (16,20)  (17,13)  (18,16)  (19,12)  (20,11)  (21,13)  (22,42)  (23,26)  (24,37) 
Branch_type_6  (5,4)  (6,13)  (7,26)  (8,34)  (9,34)  (10,67)  (11,54)  (12,79)  (13,99)  (14,111)  (15,91)  (16,99)  (17,74)  (18,53)  (19,112)  (20,55)  (21,96)  (22,144)  (23,74)  (24,93)  (25,4)  (47,45)  (64,3) 
Unique trigger count: 
Variant_0_evicts_0 : 0
Variant_0_evicts_1 : 0
Variant_0_evicts_2 : 0
Variant_0_evicts_3 : 0
Variant_1_evicts_0 : 0
Variant_1_evicts_1 : 0
Variant_1_evicts_2 : 0
Variant_1_evicts_3 : 0
Variant_2_evicts_0 : 0
Variant_2_evicts_1 : 0
Variant_2_evicts_2 : 0
Variant_2_evicts_3 : 0
Variant_3_evicts_0 : 0
Variant_3_evicts_1 : 0
Variant_3_evicts_2 : 0
Variant_3_evicts_3 : 0
BTB PER SET UNIQUE ADDR: 14 12 10 11 10 14 11 13 9 12 10 17 13 12 12 9 11 15 14 13 15 13 11 15 9 12 10 19 12 13 13 10 13 12 9 12 12 11 7 9 11 10 11 11 9 8 12 10 17 12 10 8 11 12 11 6 11 13 7 13 11 15 10 15 14 21 13 9 18 10 12 12 19 11 13 6 8 19 12 14 12 8 13 15 10 11 14 11 9 16 10 8 15 9 10 17 16 12 18 15 14 22 13 8 13 12 12 13 6 14 10 15 14 14 6 9 16 8 10 14 15 11 15 7 13 14 8 16 16 10 9 21 11 13 13 10 7 12 8 16 10 15 10 8 11 13 9 11 8 13 13 14 10 15 9 17 18 13 11 14 11 10 14 11 11 15 13 11 17 14 12 13 9 13 10 9 10 11 14 12 7 12 10 16 18 13 10 15 11 8 8 12 8 19 14 10 8 16 12 11 12 16 15 10 11 11 9 13 11 17 11 15 14 9 13 10 11 11 10 22 8 16 10 10 10 15 15 13 12 13 12 12 10 15 13 14 16 11 9 9 11 12 12 14 10 11 11 10 16 14 13 15 15 11 16 12 9 9 10 15 11 8 8 16 16 9 10 8 14 12 13 17 8 12 9 9 10 13 11 12 11 15 10 11 15 7 12 14 15 16 9 10 17 11 10 14 10 12 11 11 9 12 10 16 12 19 13 16 19 13 9 15 12 15 13 11 13 17 13 15 13 12 11 11 17 12 14 12 12 11 12 17 10 9 11 16 8 9 8 20 13 15 11 9 12 13 11 13 12 14 18 13 15 13 14 13 9 10 9 10 11 14 10 16 12 16 7 12 11 12 12 11 14 13 11 13 11 20 17 14 12 13 8 11 10 12 11 20 8 18 16 9 14 22 7 12 10 14 14 14 13 15 11 16 18 16 15 14 9 13 18 10 12 18 10 13 12 13 17 10 13 13 14 12 14 7 14 14 16 9 16 15 9 12 15 13 14 12 12 13 10 10 12 14 19 10 11 12 14 18 12 23 14 9 19 20 13 11 6 13 11 13 12 15 13 10 11 12 12 12 12 12 14 13 16 15 11 16 7 15 17 18 13 14 9 17 16 15 13 15 10 9 10 10 12 13 16 13 11 12 12 18 10 18 11 11 9 12 14 16 19 13 13 11 14 16 12 14 9 8 11 13 13 9 11 15 20 11 6 15 14 14 13 12 15 16 13 18 10 10 12 14 11 12 15 12 10 11 9 7 11 17 12 10 7 15 14 10 17 12 10 17 8 14 14 15 11 12 12 15 13 16 19 14 12 12 10 18 8 13 11 11 9 11 11 15 11 14 16 15 10 12 17 10 11 13 11 16 10 12 16 11 8 9 13 11 16 13 15 13 13 14 10 11 6 17 8 12 17 16 15 13 9 10 13 13 10 14 13 11 11 15 7 11 10 14 13 11 9 12 9 12 14 17 12 14 11 15 15 8 8 17 10 7 17 16 11 15 11 11 12 9 11 15 11 12 12 12 10 14 16 12 12 15 17 10 17 14 12 15 11 9 14 15 10 12 11 9 10 12 11 11 13 11 11 10 11 18 9 15 11 11 16 15 9 17 17 9 12 14 13 14 11 14 13 11 16 14 15 19 15 13 12 12 10 12 14 9 11 10 16 13 15 12 11 16 14 19 14 11 9 9 9 16 14 11 11 13 10 9 15 12 16 15 8 14 16 16 11 13 12 8 10 13 15 15 8 13 11 14 10 11 11 13 13 10 13 10 15 17 12 11 13 11 9 9 12 14 8 8 9 7 15 9 14 12 13 9 14 10 17 13 19 19 15 13 10 16 16 10 14 17 14 13 17 13 11 16 8 13 9 14 8 13 15 13 10 11 17 13 14 21 12 11 12 15 18 10 14 14 14 17 10 11 14 13 14 13 11 14 10 10 11 15 9 12 11 17 13 14 12 10 13 9 17 6 17 10 16 13 10 14 13 8 18 8 16 12 8 13 15 12 17 14 14 12 12 16 12 11 11 13 13 11 10 15 19 16 11 9 12 11 12 10 9 13 11 11 14 17 10 12 11 14 14 11 18 11 11 10 9 14 12 9 13 9 7 14 15 11 15 16 11 14 14 10 14 13 18 13 11 13 8 11 10 14 16 16 9 16 14 15 10 13 9 11 12 15 12 14 16 7 12 14 13 11 16 10 7 17 15 14 14 9 10 9 16 12 14 10 11 13 13 16 10 14 11 12 15 17 13 11 7 14 12 12 10 13 17 11 15 15 7 11 11 16 9 15 12 15 14 16 12 9 12 11 4 11 6 8 14 14 8 7 
BTB PER SET COUNT: 358 14 1944 16 11 34 1310 27 52 21 15 698 14527 376 15 9 381 23 94 112 70 18 514 91 15 15 15 32 12 19 439 14 18 23 11 508 14 12 8 13 14 15 14 16 10 13 37 18 1085 17 13 293 17 131 15 394 68 21 255 18 19 66 19 32 26 173 26 1432 37 17 684 246 33 16 19 6 10 775 17 21 14 18 532 129 15 53 21 118 1478 44 14 9 21 56 35 41 323 440 23 6304 19 1294 16 8 785 18 20 15 1350 15 17 31 554 22 8 735 23 14 1489 706 143 92 23 7 14 64 14 71 29 1124 12 275 18 16 15 11 150 23 13 24 15 23 12 10 15 22 12 17 14 71 16 273 1326 26 15 26 120 21 15 23 22 14 22 13 1476 21 22 18 27 368 13 15 23 25 19 691 16 19 37 16 9 258 189 24 32 62 15 26 25 146 11 14 12 44 17 17 11 1187 14 493 23 90 998 11 17 15 10 18 12 67 22 59 16 1302 20 149 15 33 569 37 32 24 417 23 18 25 24 19 19 22 18 17 22 24 18 614 30 19 14 12 19 19 17 786 24 560 14 10 20 20 20 23 20 20 19 25 12 57 14 36 13 12 10 132 20 27 18 12 437 19 20 25 12 14 571 9 12 16 13 217 25 23 499 838 23 10 15 25 19 18 15 16 27 530 14 20 12 21 15 386 12 18 22 21 16 89 15 383 345 458 433 24 12 27 1975 87 20 40 36 21 16 2644 13 14 1319 468 22 17 18 20 18 24 14 14 16 20 13 241 9 30 18 1808 17 14 123 15 19 20 16 39 190 33 21 21 27 16 12 13 10 31 14 21 15 21 17 1047 7 14 18 17 19 546 21 227 529 15 11 33 315 386 203 18 11 13 11 15 450 26 8 34 46 13 18 29 11 68 14 23 28 2020 15 21 14 19 34 26 21 510 17 18 30 11 31 214 14 24 19 5569 27 11 17 21 23 16 26 9 30 76 29 1430 30 21 12 13 27 23 16 23 14 20 15 16 26 21 120 17 1069 16 31 27 19 65 24 11 31 832 22 15 6 15 15 16 16 18 18 143 12 16 16 35 13 21 14 28 32 22 17 30 9 21 26 21 94 21 13 34 21 30 23 57 170 9 784 13 20 23 748 981 15 49 14 26 11 162 12 11 11 24 19 21 487 22 713 710 26 25 25 19 19 15 16 19 86 34 11 23 354 1618 8 1524 19 22 20 15 25 570 27 759 13 586 15 20 52 19 20 13 12 11 16 923 15 28 267 45 7 27 28 14 29 20 14 120 9 18 179 24 25 18 18 21 15 20 31 22 146 19 22 507 10 24 16 19 12 2954 14 32 736 16 24 17 12 17 629 15 20 23 2389 360 262 48 29 18 10 13 16 31 22 867 66 19 25 19 19 17 10 32 9 18 372 449 23 17 10 16 18 21 16 21 1475 16 17 20 10 14 10 19 17 789 10 21 14 16 18 22 614 22 254 26 231 10 11 29 14 13 36 171 12 352 490 11 20 11 14 28 20 33 24 1535 1747 25 22 16 541 68 44 1006 28 39 17 25 15 15 341 32 1975 19 17 10 13 26 12 15 34 18 104 18 122 3092 11 24 988 19 403 20 13 262 25 36 12 25 60 589 197 18 503 100 941 44 41 33 22 198 12 448 12 16 23 9 918 10 208 13374 21 131 50 26 574 36 17 22 16 13 508 33 544 16 246 16 16 11 36 16 676 768 12 16 20 1479 20 24 15 15 12 385 2724 21 11 22 24 138 12 12 19 21 24 10 16 912 59 625 797 14 22 20 15 13 16 14 9 10 11 7 19 14 562 18 25 13 43 649 30 64 27 236 240 65 12 29 38 12 24 5198 18 13 448 39 1212 31 84 37 10 1049 12 20 734 25 13 13 30 18 15 48 12 15 147 230 81 13 146 79 30 615 13 19 440 18 18 13 14 27 1102 33 13 23 26 17 17 28 24 18 999 342 21 10 43 7 25 13 21 24 29 18 15 13 24 8 31 67 11 21 19 17 177 23 381 1789 79 22 24 602 12 1264 24 18 10 90 28 26 15 12 12 19 19 16 13 18 12 15 124 35 277 16 13 22 25 52 891 15 22 19 17 511 18 19 30 12 9 25 20 20 51 23 410 16 21 220 18 58 86 18 17 732 19 16 11 14 25 29 13 19 188 1048 784 4114 9 17 16 46 18 25 27 8 22 20 21 13 1436 14 10 18 24 130 24 9 14 11 18 22 66 14 118 105 19 274 16 26 1983 107 20 156 51 1356 8 1268 1488 17 10 1484 35 14 26 50 12 13 13 203 10 21 14 565 1082 20 20 12 14 18 4 34 6 12 27 596 11 7 
To predecode: 0
Predecoding something: 0
Predecode request dropped: 0
sizeofblock_0 0
sizeofblock_1 61766
sizeofblock_2 87175
sizeofblock_3 0
sizeofblock_4 0
sizeofblock_5 0
sizeofblock_6 0
sizeofblock_7 0
sizeofblock_8 0
Variant_0 Correct: 1611819 Incorrect: 0 Accuracy: 1
Variant_1 Correct: 5741789 Incorrect: 0 Accuracy: 1
Variant_2 Correct: 0 Incorrect: 0 Accuracy: -nan
Variant_3 Correct: 0 Incorrect: 0 Accuracy: -nan
