
*** ChampSim Multicore Out-of-Order Simulator ***

Warmup Instructions: 50000000
Simulation Instructions: 50000000
Number of CPUs: 1
LLC sets: 2048
LLC ways: 16
Off-chip DRAM Size: 4096 MB Channels: 1 Width: 64-bit Data Rate: 6400 MT/s
CPU 0 runs ./micro_traces/srv15.trace.gz
.gz
ITLB has LRU replacement policy
DTLB has LRU replacement policy
STLB has LRU replacement policy
FDIP Prefetcher at L1I
L1I has LRU replacement policy
L1D has LRU replacement policy
Initialize SRRIP state for L2C
Initialize DRRIP state for LLC
Heartbeat_Variant_0 : 1377 0.336182 per_variant_size: 0 1377 0 0 0 0 0 0 0 
Heartbeat_Variant_1 : 1282 0.312988 per_variant_size: 0 605 677 0 0 0 0 0 0 
Heartbeat_Variant_2 : 1340 0.327148 per_variant_size: 0 515 380 234 211 0 0 0 0 
Heartbeat_Variant_3 : 0 0 per_variant_size: 0 0 0 0 0 0 0 0 0 
Heartbeat_Variant_0_evicts 0 : 6012 1 : 502 2 : 450 3 : 0 
Heartbeat_Variant_1_evicts 0 : 491 1 : 0 2 : 685 3 : 0 
Heartbeat_Variant_2_evicts 0 : 441 1 : 672 2 : 0 3 : 0 
Heartbeat_Variant_3_evicts 0 : 0 1 : 0 2 : 0 3 : 0 
Heartbeat CPU 0 instructions: 10000002 cycles: 2796802 heartbeat IPC: 3.57551 cumulative IPC: 3.57551 (Simulation time: 0 hr 2 min 19 sec) 
Heartbeat_Variant_0 : 1377 0.336182 per_variant_size: 0 1377 0 0 0 0 0 0 0 
Heartbeat_Variant_1 : 1291 0.315186 per_variant_size: 0 616 675 0 0 0 0 0 0 
Heartbeat_Variant_2 : 1337 0.326416 per_variant_size: 0 505 383 232 217 0 0 0 0 
Heartbeat_Variant_3 : 0 0 per_variant_size: 0 0 0 0 0 0 0 0 0 
Heartbeat_Variant_0_evicts 0 : 5511 1 : 17 2 : 16 3 : 0 
Heartbeat_Variant_1_evicts 0 : 19 1 : 0 2 : 210 3 : 0 
Heartbeat_Variant_2_evicts 0 : 17 1 : 205 2 : 0 3 : 0 
Heartbeat_Variant_3_evicts 0 : 0 1 : 0 2 : 0 3 : 0 
Heartbeat CPU 0 instructions: 20000000 cycles: 5593422 heartbeat IPC: 3.57574 cumulative IPC: 3.57563 (Simulation time: 0 hr 3 min 57 sec) 
Heartbeat_Variant_0 : 1388 0.338867 per_variant_size: 0 1388 0 0 0 0 0 0 0 
Heartbeat_Variant_1 : 1276 0.311523 per_variant_size: 0 568 708 0 0 0 0 0 0 
Heartbeat_Variant_2 : 1372 0.334961 per_variant_size: 0 527 394 228 223 0 0 0 0 
Heartbeat_Variant_3 : 0 0 per_variant_size: 0 0 0 0 0 0 0 0 0 
Heartbeat_Variant_0_evicts 0 : 5824 1 : 224 2 : 222 3 : 0 
Heartbeat_Variant_1_evicts 0 : 226 1 : 0 2 : 390 3 : 0 
Heartbeat_Variant_2_evicts 0 : 215 1 : 417 2 : 0 3 : 0 
Heartbeat_Variant_3_evicts 0 : 0 1 : 0 2 : 0 3 : 0 
Heartbeat CPU 0 instructions: 30000003 cycles: 8390062 heartbeat IPC: 3.57572 cumulative IPC: 3.57566 (Simulation time: 0 hr 5 min 34 sec) 
Heartbeat_Variant_0 : 1389 0.339111 per_variant_size: 0 1389 0 0 0 0 0 0 0 
Heartbeat_Variant_1 : 1280 0.3125 per_variant_size: 0 569 711 0 0 0 0 0 0 
Heartbeat_Variant_2 : 1369 0.334229 per_variant_size: 0 523 397 222 227 0 0 0 0 
Heartbeat_Variant_3 : 0 0 per_variant_size: 0 0 0 0 0 0 0 0 0 
Heartbeat_Variant_0_evicts 0 : 5531 1 : 47 2 : 46 3 : 0 
Heartbeat_Variant_1_evicts 0 : 49 1 : 0 2 : 234 3 : 0 
Heartbeat_Variant_2_evicts 0 : 43 1 : 233 2 : 0 3 : 0 
Heartbeat_Variant_3_evicts 0 : 0 1 : 0 2 : 0 3 : 0 
Heartbeat CPU 0 instructions: 40000002 cycles: 11185846 heartbeat IPC: 3.57681 cumulative IPC: 3.57595 (Simulation time: 0 hr 7 min 10 sec) 
Heartbeat_Variant_0 : 1398 0.341309 per_variant_size: 0 1398 0 0 0 0 0 0 0 
Heartbeat_Variant_1 : 1280 0.3125 per_variant_size: 0 556 724 0 0 0 0 0 0 
Heartbeat_Variant_2 : 1370 0.334473 per_variant_size: 0 516 396 229 229 0 0 0 0 
Heartbeat_Variant_3 : 0 0 per_variant_size: 0 0 0 0 0 0 0 0 0 
Heartbeat_Variant_0_evicts 0 : 5837 1 : 156 2 : 101 3 : 0 
Heartbeat_Variant_1_evicts 0 : 151 1 : 0 2 : 319 3 : 0 
Heartbeat_Variant_2_evicts 0 : 100 1 : 318 2 : 0 3 : 0 
Heartbeat_Variant_3_evicts 0 : 0 1 : 0 2 : 0 3 : 0 
Heartbeat CPU 0 instructions: 50000000 cycles: 13982221 heartbeat IPC: 3.57606 cumulative IPC: 3.57597 (Simulation time: 0 hr 8 min 48 sec) 

Warmup complete CPU 0 instructions: 50000004 cycles: 13982222 (Simulation time: 0 hr 8 min 48 sec) 

Cycle: 20000000 FTQ IN: 58198029 FTQ occupancy: 19.2318 DECODE IN: 58197906 DECODE occupancy: 50.1521 ROB IN: 58197846 ROB occupancy: 307.999 ROB OUT: 58197498
Heartbeat_Variant_0 : 1397 0.341064 per_variant_size: 0 1397 0 0 0 0 0 0 0 
Heartbeat_Variant_1 : 1277 0.311768 per_variant_size: 0 560 717 0 0 0 0 0 0 
Heartbeat_Variant_2 : 1375 0.335693 per_variant_size: 0 524 394 232 225 0 0 0 0 
Heartbeat_Variant_3 : 0 0 per_variant_size: 0 0 0 0 0 0 0 0 0 
Heartbeat_Variant_0_evicts 0 : 5541 1 : 16 2 : 18 3 : 0 
Heartbeat_Variant_1_evicts 0 : 18 1 : 0 2 : 225 3 : 0 
Heartbeat_Variant_2_evicts 0 : 17 1 : 230 2 : 0 3 : 0 
Heartbeat_Variant_3_evicts 0 : 0 1 : 0 2 : 0 3 : 0 
Heartbeat CPU 0 instructions: 60000002 cycles: 21313724 heartbeat IPC: 1.36398 cumulative IPC: 1.36398 (Simulation time: 0 hr 10 min 30 sec) 
Heartbeat_Variant_0 : 1399 0.341553 per_variant_size: 0 1399 0 0 0 0 0 0 0 
Heartbeat_Variant_1 : 1275 0.311279 per_variant_size: 0 558 717 0 0 0 0 0 0 
Heartbeat_Variant_2 : 1377 0.336182 per_variant_size: 0 528 387 250 212 0 0 0 0 
Heartbeat_Variant_3 : 0 0 per_variant_size: 0 0 0 0 0 0 0 0 0 
Heartbeat_Variant_0_evicts 0 : 5739 1 : 58 2 : 64 3 : 0 
Heartbeat_Variant_1_evicts 0 : 56 1 : 0 2 : 247 3 : 0 
Heartbeat_Variant_2_evicts 0 : 64 1 : 249 2 : 0 3 : 0 
Heartbeat_Variant_3_evicts 0 : 0 1 : 0 2 : 0 3 : 0 
Heartbeat CPU 0 instructions: 70000003 cycles: 28727552 heartbeat IPC: 1.34883 cumulative IPC: 1.35636 (Simulation time: 0 hr 12 min 14 sec) 
Cycle: 30000000 FTQ IN: 13528202 FTQ occupancy: 10.6841 DECODE IN: 13528275 DECODE occupancy: 27.4155 ROB IN: 13528275 ROB occupancy: 212.083 ROB OUT: 13528275
Heartbeat_Variant_0 : 1398 0.341309 per_variant_size: 0 1398 0 0 0 0 0 0 0 
Heartbeat_Variant_1 : 1280 0.3125 per_variant_size: 0 564 716 0 0 0 0 0 0 
Heartbeat_Variant_2 : 1373 0.335205 per_variant_size: 0 523 387 245 218 0 0 0 0 
Heartbeat_Variant_3 : 0 0 per_variant_size: 0 0 0 0 0 0 0 0 0 
Heartbeat_Variant_0_evicts 0 : 5677 1 : 43 2 : 58 3 : 0 
Heartbeat_Variant_1_evicts 0 : 54 1 : 0 2 : 243 3 : 0 
Heartbeat_Variant_2_evicts 0 : 48 1 : 249 2 : 0 3 : 0 
Heartbeat_Variant_3_evicts 0 : 0 1 : 0 2 : 0 3 : 0 
Heartbeat CPU 0 instructions: 80000001 cycles: 36054689 heartbeat IPC: 1.36479 cumulative IPC: 1.35916 (Simulation time: 0 hr 13 min 55 sec) 
Cycle: 40000000 FTQ IN: 13662242 FTQ occupancy: 10.6331 DECODE IN: 13662273 DECODE occupancy: 27.5689 ROB IN: 13662333 ROB occupancy: 214.399 ROB OUT: 13662591
Heartbeat_Variant_0 : 1400 0.341797 per_variant_size: 0 1400 0 0 0 0 0 0 0 
Heartbeat_Variant_1 : 1280 0.3125 per_variant_size: 0 567 713 0 0 0 0 0 0 
Heartbeat_Variant_2 : 1373 0.335205 per_variant_size: 0 524 386 248 215 0 0 0 0 
Heartbeat_Variant_3 : 0 0 per_variant_size: 0 0 0 0 0 0 0 0 0 
Heartbeat_Variant_0_evicts 0 : 5640 1 : 43 2 : 37 3 : 0 
Heartbeat_Variant_1_evicts 0 : 36 1 : 0 2 : 241 3 : 0 
Heartbeat_Variant_2_evicts 0 : 42 1 : 236 2 : 0 3 : 0 
Heartbeat_Variant_3_evicts 0 : 0 1 : 0 2 : 0 3 : 0 
Heartbeat CPU 0 instructions: 90000000 cycles: 43465769 heartbeat IPC: 1.34933 cumulative IPC: 1.35669 (Simulation time: 0 hr 15 min 38 sec) 
Cycle: 50000000 FTQ IN: 13486983 FTQ occupancy: 10.7054 DECODE IN: 13486980 DECODE occupancy: 27.5291 ROB IN: 13486980 ROB occupancy: 214.677 ROB OUT: 13486884
Heartbeat_Variant_0 : 1398 0.341309 per_variant_size: 0 1398 0 0 0 0 0 0 0 
Heartbeat_Variant_1 : 1284 0.313477 per_variant_size: 0 579 705 0 0 0 0 0 0 
Heartbeat_Variant_2 : 1372 0.334961 per_variant_size: 0 521 392 245 214 0 0 0 0 
Heartbeat_Variant_3 : 0 0 per_variant_size: 0 0 0 0 0 0 0 0 0 
Heartbeat_Variant_0_evicts 0 : 5562 1 : 51 2 : 66 3 : 0 
Heartbeat_Variant_1_evicts 0 : 54 1 : 0 2 : 243 3 : 0 
Heartbeat_Variant_2_evicts 0 : 65 1 : 242 2 : 0 3 : 0 
Heartbeat_Variant_3_evicts 0 : 0 1 : 0 2 : 0 3 : 0 
Heartbeat CPU 0 instructions: 100000002 cycles: 50818794 heartbeat IPC: 1.35998 cumulative IPC: 1.35735 (Simulation time: 0 hr 17 min 40 sec) 
Finished CPU 0 instructions: 50000002 cycles: 36836573 cumulative IPC: 1.35735 (Simulation time: 0 hr 17 min 40 sec) 

ChampSim completed all CPUs

Region of Interest Statistics

CPU 0 cumulative IPC: 1.35735 instructions: 50000002 cycles: 36836573
 Fetch stage stalled: 60.2722  Sim cycles: 36836573 fetch stall cycle: 22202200
 Empty decode stage: 48.4993  Sim cycles: 36836573 fetch stall cycle: 17865469
ITLB TOTAL     ACCESS:    5858673  HIT:    5364983  MISS:     493690  HIT %:    91.5733  MISS %:    8.42665   MPKI: 9.8738
ITLB LOAD TRANSLATION INSTRUCTION	ACCESS:    5733868  HIT:    5240178  MISS:     493690  HIT %:    91.3899  MISS %:    8.61007  MPKI: 9.8738
ITLB TRANSLATION FROM L1D PREFETCHER INSTRUCTION	ACCESS:     124805  HIT:     124805  MISS:          0  HIT %:        100  MISS %:          0  MPKI: 0

ITLB AVERAGE MISS LATENCY: 9.05449 cycles
ITLB RQ	ACCESS:    7992240	FORWARD:          0	MERGED:    1709242	TO_CACHE:    6282998

DTLB TOTAL     ACCESS:    9006492  HIT:    8533715  MISS:     472777  HIT %:    94.7507  MISS %:    5.24929   MPKI: 9.45554
DTLB LOAD TRANSLATION DATA	ACCESS:    9006492  HIT:    8533715  MISS:     472777  HIT %:    94.7507  MISS %:    5.24929  MPKI: 9.45554

DTLB AVERAGE MISS LATENCY: 9.30756 cycles
DTLB RQ	ACCESS:   13367142	FORWARD:          0	MERGED:    4324705	TO_CACHE:    9042437

STLB TOTAL     ACCESS:    1212982  HIT:    1210915  MISS:       2067  HIT %:    99.8296  MISS %:   0.170406   MPKI: 0.04134
STLB LOAD TRANSLATION INSTRUCTION	ACCESS:     493690  HIT:     493428  MISS:        262  HIT %:    99.9469  MISS %:  0.0530697  MPKI: 0.00524
STLB LOAD TRANSLATION DATA	ACCESS:     472775  HIT:     470995  MISS:       1780  HIT %:    99.6235  MISS %:     0.3765  MPKI: 0.0356
STLB TRANSLATION FROM L1D PREFETCHER DATA	ACCESS:     246517  HIT:     246492  MISS:         25  HIT %:    99.9899  MISS %:  0.0101413  MPKI: 0.0005

STLB AVERAGE MISS LATENCY: 68.0232 cycles
STLB RQ	ACCESS:    1332477	FORWARD:          0	MERGED:     119457	TO_CACHE:    1213020

STLB Hit, L1D data hit: 0
STLB Hit, L2C data hit: 0
STLB Hit, LLC data hit: 0
STLB Hit, LLC data miss: 0
STLB STLB hints to L2: 0
L1D TOTAL     ACCESS:   13109611  HIT:   11996997  MISS:    1112614  HIT %:     91.513  MISS %:    8.48701   MPKI: 22.2523
L1D LOAD DATA	ACCESS:    6581583  HIT:    5846693  MISS:     734890  HIT %:    88.8341  MISS %:    11.1659  MPKI: 14.6978
L1D RFO DATA	ACCESS:    6203637  HIT:    5918657  MISS:     284980  HIT %:    95.4062  MISS %:    4.59376  MPKI: 5.6996
L1D PREFETCH DATA	ACCESS:     324391  HIT:     231647  MISS:      92744  HIT %:    71.4098  MISS %:    28.5902  MPKI: 1.85488

L1D PREFETCH  REQUESTED:     732514  ISSUED:     732514  USEFUL:      33283  USELESS:      67809
L1D USEFUL LOAD PREFETCHES:      33283 PREFETCH ISSUED TO LOWER LEVEL:     101147  ACCURACY: 32.9056
 TIMELY PREFETCHES:      33283 LATE PREFETCHES: 8355 DROPPED PREFETCHES: 12
L1D AVERAGE MISS LATENCY: 246820 cycles
L1D RQ	ACCESS:   10702274	FORWARD:          0	MERGED:    3923730	TO_CACHE:    6616597
L1D WQ	ACCESS:    6943640	FORWARD:     162443	MERGED:     193095	TO_CACHE:    6750545
L1D PQ	ACCESS:     366505	FORWARD:          0	MERGED:          0	TO_CACHE:     366009

L1D UNIQUE REGIONS ACCESSED: 0
L1D REGIONS CONFLICTS: 0
L1D Cross Page Prefetch Requests: 6966
L1D Same Page Prefetch Requests: 744938
L1D ROI Sum of L1D PQ occupancy: 4649628
L1D PREFETCHES PUSHED FROM L2C: 0
L1I TOTAL     ACCESS:    7205680  HIT:    4444320  MISS:    2761360  HIT %:     61.678  MISS %:     38.322   MPKI: 55.2272
L1I LOAD INSTRUCTION	ACCESS:    6546472  HIT:    3785112  MISS:    2761360  HIT %:    57.8191  MISS %:    42.1809  MPKI: 55.2272
L1I PREFETCH INSTRUCTION	ACCESS:     659208  HIT:     659208  MISS:          0  HIT %:        100  MISS %:          0  MPKI: 0

L1I PREFETCH  REQUESTED:    1586813  ISSUED:    1586813  USEFUL:          0  USELESS:          0
L1I USEFUL LOAD PREFETCHES:          0 PREFETCH ISSUED TO LOWER LEVEL:          0  ACCURACY: -nan
 TIMELY PREFETCHES:          0 LATE PREFETCHES: 0 DROPPED PREFETCHES: 0
L1I AVERAGE MISS LATENCY: 17.3373 cycles
L1I RQ	ACCESS:    9471599	FORWARD:          0	MERGED:    2625586	TO_CACHE:    6846013
L1I PQ	ACCESS:    1586813	FORWARD:          0	MERGED:     440586	TO_CACHE:    1146227

L1BTB TOTAL     ACCESS:    5671201  HIT:    2043192  MISS:    3628009  HIT %:    36.0275  MISS %:    63.9725   MPKI: 72.5602
L1BTB BRANCH_DIRECT_JUMP	ACCESS:     548494  HIT:     144894  MISS:     403600	AVERAGE STALL: 48.6146
L1BTB BRANCH_INDIRECT	ACCESS:     182795  HIT:      65965  MISS:     116830	AVERAGE STALL: 87.7797
L1BTB BRANCH_CONDITIONAL	ACCESS:    2704704  HIT:    1412179  MISS:    1292525	AVERAGE STALL: 50.2131
L1BTB BRANCH_DIRECT_CALL	ACCESS:     945371  HIT:     106725  MISS:     838646	AVERAGE STALL: 63.8097
L1BTB BRANCH_INDIRECT_CALL	ACCESS:     172232  HIT:      21832  MISS:     150400	AVERAGE STALL: 122.037
L1BTB BRANCH_RETURN	ACCESS:    1117605  HIT:     291597  MISS:     826008	AVERAGE STALL: 43.0798
L1BTB BRANCH_OTHER ACCESS:          0  HIT:          0  MISS:          0	AVERAGE STALL: -nan
L1BTB TOTAL ROB OCCUPANCY AT BTB MISS: 2.29321

L2BTB TOTAL     ACCESS:    3602662  HIT:    3537655  MISS:      65007  HIT %:    98.1956  MISS %:    1.80442   MPKI: 1.30014
L2BTB BRANCH_DIRECT_JUMP	ACCESS:     399447  HIT:     394985  MISS:       4462	AVERAGE STALL: 48.6146
L2BTB BRANCH_INDIRECT	ACCESS:     106569  HIT:     103916  MISS:       2653	AVERAGE STALL: 87.7797
L2BTB BRANCH_CONDITIONAL	ACCESS:    1292525  HIT:    1288105  MISS:       4420	AVERAGE STALL: 50.2131
L2BTB BRANCH_DIRECT_CALL	ACCESS:     838646  HIT:     837463  MISS:       1183	AVERAGE STALL: 63.8097
L2BTB BRANCH_INDIRECT_CALL	ACCESS:     140869  HIT:     130579  MISS:      10290	AVERAGE STALL: 122.037
L2BTB BRANCH_RETURN	ACCESS:     824606  HIT:     782607  MISS:      41999	AVERAGE STALL: 43.0798
L2BTB BRANCH_OTHER ACCESS:          0  HIT:          0  MISS:          0	AVERAGE STALL: -nan
L2BTB TOTAL ROB OCCUPANCY AT BTB MISS: 127.983

L2C TOTAL     ACCESS:    4488374  HIT:    3953123  MISS:     535251  HIT %:    88.0747  MISS %:    11.9253   MPKI: 10.705
L2C LOAD INSTRUCTION	ACCESS:    2761360  HIT:    2485090  MISS:     276270  HIT %:    89.9951  MISS %:    10.0049  MPKI: 5.5254
L2C LOAD TRANSLATION INSTRUCTION	ACCESS:        293  HIT:         68  MISS:        225  HIT %:    23.2082  MISS %:    76.7918  MPKI: 0.0045
L2C LOAD DATA	ACCESS:     726517  HIT:     641065  MISS:      85452  HIT %:    88.2381  MISS %:    11.7619  MPKI: 1.70904
L2C RFO DATA	ACCESS:     284892  HIT:     215944  MISS:      68948  HIT %:    75.7985  MISS %:    24.2015  MPKI: 1.37896
L2C PREFETCH DATA	ACCESS:     193619  HIT:     114395  MISS:      79224  HIT %:    59.0825  MISS %:    40.9175  MPKI: 1.58448
L2C WRITEBACK DATA	ACCESS:     519791  HIT:     495893  MISS:      23898  HIT %:    95.4024  MISS %:    4.59762  MPKI: 0.47796
L2C LOAD TRANSLATION DATA	ACCESS:       1853  HIT:        636  MISS:       1217  HIT %:    34.3227  MISS %:    65.6773  MPKI: 0.02434
L2C TRANSLATION FROM L1D PREFETCHER DATA	ACCESS:         49  HIT:         32  MISS:         17  HIT %:    65.3061  MISS %:    34.6939  MPKI: 0.00034

L2C PREFETCH  REQUESTED:      99832  ISSUED:      99832  USEFUL:       9695  USELESS:      69977
L2C USEFUL LOAD PREFETCHES:       9695 PREFETCH ISSUED TO LOWER LEVEL:      79658  ACCURACY: 12.1708
 TIMELY PREFETCHES:       9695 LATE PREFETCHES: 434 DROPPED PREFETCHES: 0
L2C AVERAGE MISS LATENCY: 36.5801 cycles
L2C RQ	ACCESS:    3775023	FORWARD:          0	MERGED:          0	TO_CACHE:    3774965
L2C WQ	ACCESS:     519791	FORWARD:         58	MERGED:          0	TO_CACHE:     519791
L2C PQ	ACCESS:     200979	FORWARD:          0	MERGED:       3235	TO_CACHE:     197744

L2C Dense regions hint from L2: 0
PSCL5 TOTAL     ACCESS:       4166  HIT:       2083  MISS:       2083  HIT %:         50  MISS %:         50   MPKI: 0.04166
PSCL5 LOAD TRANSLATION INSTRUCTION	ACCESS:       4068  HIT:       2034  MISS:       2034  HIT %:         50  MISS %:         50  MPKI: 0.04068
PSCL5 TRANSLATION FROM L1D PREFETCHER INSTRUCTION	ACCESS:         98  HIT:         49  MISS:         49  HIT %:         50  MISS %:         50  MPKI: 0.00098


PSCL4 TOTAL     ACCESS:       3876  HIT:       1934  MISS:       1942  HIT %:    49.8968  MISS %:    50.1032   MPKI: 0.03884
PSCL4 LOAD TRANSLATION INSTRUCTION	ACCESS:       1905  HIT:       1886  MISS:         19  HIT %:    99.0026  MISS %:   0.997375  MPKI: 0.00038
PSCL4 TRANSLATION FROM L1D PREFETCHER INSTRUCTION	ACCESS:         48  HIT:         48  MISS:          0  HIT %:        100  MISS %:          0  MPKI: 0
PSCL4 LOAD TRANSLATION DATA	ACCESS:       1875  HIT:          0  MISS:       1875  HIT %:          0  MISS %:        100  MPKI: 0.0375
PSCL4 TRANSLATION FROM L1D PREFETCHER DATA	ACCESS:         48  HIT:          0  MISS:         48  HIT %:          0  MISS %:        100  MPKI: 0.00096


PSCL3 TOTAL     ACCESS:       3990  HIT:       1991  MISS:       1999  HIT %:    49.8997  MISS %:    50.1003   MPKI: 0.03998
PSCL3 LOAD TRANSLATION INSTRUCTION	ACCESS:       1962  HIT:       1943  MISS:         19  HIT %:    99.0316  MISS %:     0.9684  MPKI: 0.00038
PSCL3 TRANSLATION FROM L1D PREFETCHER INSTRUCTION	ACCESS:         48  HIT:         48  MISS:          0  HIT %:        100  MISS %:          0  MPKI: 0
PSCL3 LOAD TRANSLATION DATA	ACCESS:       1932  HIT:          0  MISS:       1932  HIT %:          0  MISS %:        100  MPKI: 0.03864
PSCL3 TRANSLATION FROM L1D PREFETCHER DATA	ACCESS:         48  HIT:          0  MISS:         48  HIT %:          0  MISS %:        100  MPKI: 0.00096


PSCL2 TOTAL     ACCESS:       4070  HIT:       1987  MISS:       2083  HIT %:    48.8206  MISS %:    51.1794   MPKI: 0.04166
PSCL2 LOAD TRANSLATION INSTRUCTION	ACCESS:       2200  HIT:       1938  MISS:        262  HIT %:    88.0909  MISS %:    11.9091  MPKI: 0.00524
PSCL2 TRANSLATION FROM L1D PREFETCHER INSTRUCTION	ACCESS:         49  HIT:         49  MISS:          0  HIT %:        100  MISS %:          0  MPKI: 0
PSCL2 LOAD TRANSLATION DATA	ACCESS:       1772  HIT:          0  MISS:       1772  HIT %:          0  MISS %:        100  MPKI: 0.03544
PSCL2 TRANSLATION FROM L1D PREFETCHER DATA	ACCESS:         49  HIT:          0  MISS:         49  HIT %:          0  MISS %:        100  MPKI: 0.00098


LLC TOTAL     ACCESS:     608528  HIT:     581486  MISS:      27042  HIT %:    95.5562  MISS %:    4.44384   MPKI: 0.54084
LLC LOAD INSTRUCTION	ACCESS:     276270  HIT:     275683  MISS:        587  HIT %:    99.7875  MISS %:   0.212473  MPKI: 0.01174
LLC LOAD TRANSLATION INSTRUCTION	ACCESS:        225  HIT:        193  MISS:         32  HIT %:    85.7778  MISS %:    14.2222  MPKI: 0.00064
LLC LOAD DATA	ACCESS:      85054  HIT:      81801  MISS:       3253  HIT %:    96.1754  MISS %:    3.82463  MPKI: 0.06506
LLC RFO DATA	ACCESS:      68907  HIT:      55700  MISS:      13207  HIT %:    80.8336  MISS %:    19.1664  MPKI: 0.26414
LLC PREFETCH DATA	ACCESS:      79658  HIT:      70046  MISS:       9612  HIT %:    87.9334  MISS %:    12.0666  MPKI: 0.19224
LLC WRITEBACK DATA	ACCESS:      97180  HIT:      96897  MISS:        283  HIT %:    99.7088  MISS %:   0.291212  MPKI: 0.00566
LLC LOAD TRANSLATION DATA	ACCESS:       1217  HIT:       1150  MISS:         67  HIT %:    94.4947  MISS %:    5.50534  MPKI: 0.00134
LLC TRANSLATION FROM L1D PREFETCHER DATA	ACCESS:         17  HIT:         16  MISS:          1  HIT %:    94.1176  MISS %:    5.88235  MPKI: 2e-05

LLC AVERAGE MISS LATENCY: 155.369 cycles
LLC RQ	ACCESS:     431695	FORWARD:          0	MERGED:          0	TO_CACHE:     431690
LLC WQ	ACCESS:      97180	FORWARD:          5	MERGED:          0	TO_CACHE:      97180
LLC PQ	ACCESS:      79658	FORWARD:          0	MERGED:          0	TO_CACHE:      79658

LLC Dense regions hint to LLC: 0

RAW hits: 1928652
Loads Generated: 12630925
Loads sent to L1D: 10702274
Stores Generated: 6943632
Stores sent to L1D: 6943640
Major fault: 0 Minor fault: 2629
Allocated PAGES: 2629

stream: 
stream:times selected: 1184377
stream:pref_filled: 121820
stream:pref_useful: 24178
stream:pref_late: 7188
stream:misses: 8118
stream:misses_by_poll: 0

CS: 
CS:times selected: 179953
CS:pref_filled: 59827
CS:pref_useful: 36383
CS:pref_late: 7175
CS:misses: 16376
CS:misses_by_poll: 16

CPLX: 
CPLX:times selected: 1003267
CPLX:pref_filled: 20011
CPLX:pref_useful: 4852
CPLX:pref_late: 3114
CPLX:misses: 93904
CPLX:misses_by_poll: 0

NL_L1: 
NL:times selected: 21038
NL:pref_filled: 698
NL:pref_useful: 363
NL:pref_late: 288
NL:misses: 1732
NL:misses_by_poll: 0

total selections: 2388635
total_filled: 92744
total_useful: 33283
total_late: 19301
total_polluted: 16
total_misses_after_warmup: 769910
conflicts: 5533449

test: 116027

DRAM Statistics
 CHANNEL 0
 RQ ROW_BUFFER_HIT:      10094  ROW_BUFFER_MISS:      16663
 DBUS_CONGESTED:         11
 WQ ROW_BUFFER_HIT:       1286  ROW_BUFFER_MISS:      11772  FULL:          0

 AVG_CONGESTED_CYCLE: 5

CPU 0 Branch Prediction Accuracy: 99.8242% MPKI: 0.3217 Average ROB Occupancy at Mispredict: 181.182
Branch types
NOT_BRANCH: 40851680 81.7034%
BRANCH_DIRECT_JUMP: 548494 1.09699%
BRANCH_INDIRECT: 182795 0.36559%
BRANCH_CONDITIONAL: 6181583 12.3632%
BRANCH_DIRECT_CALL: 945371 1.89074%
BRANCH_INDIRECT_CALL: 172232 0.344464%
BRANCH_RETURN: 1117605 2.23521%
BRANCH_OTHER: 0 0%

DRAM PAGES: 1048576
Allocated PAGES: 2629
Average_ROB_Occupancy: 214.942
Average_Decode_Occupancy: 27.4377
Average_FTQ_Occupancy: 10.641
Indirect max targets: 14 Average targets: 1.17516
Branch_type:  BRANCH_DIRECT_JUMP:  Count Percentage: 1.60033 7.78035 3.43175 8.08773 2.93618 5.9597 6.02651 64.1774 
Branch_type:  BRANCH_INDIRECT:  Count Percentage: 11.7438 5.58745 2.52736 0 1.33759 9.68975 17.6387 51.4754 
Branch_type:  BRANCH_CONDITIONAL:  Count Percentage: 20.6462 7.67925 1.58095 4.7251 1.897 4.75847 2.97874 55.7343 
Branch_type:  BRANCH_DIRECT_CALL:  Count Percentage: 0.257882 1.47839 1.27867 3.36448 3.36855 2.22198 0.72951 87.3005 
Branch_type:  BRANCH_INDIRECT_CALL:  Count Percentage: 9.51451 2.27185 2.98138 8.65563 1.4182 1.70759 1.27583 72.175 
Branch_type:  BRANCH_RETURN:  Count Percentage: 4.38529 5.10012 1.15677 5.64682 3.74976 6.11149 3.81125 70.0385 
Branch_type:  BRANCH_DIRECT_JUMP:  Total Count: 17535 85250 37602 88618 32172 65301 66033 703198 
Branch_type:  BRANCH_INDIRECT:  Total Count: 42898 20410 9232 0 4886 35395 64431 188031 
Branch_type:  BRANCH_CONDITIONAL:  Total Count: 2550751 948738 195320 583766 234366 587888 368011 6885732 
Branch_type:  BRANCH_DIRECT_CALL:  Total Count: 4873 27936 24162 63576 63653 41987 13785 1649652 
Branch_type:  BRANCH_INDIRECT_CALL:  Total Count: 32746 7819 10261 29790 4881 5877 4391 248404 
Branch_type:  BRANCH_RETURN:  Total Count: 97997 113971 25850 126188 83795 136572 85169 1565133 
Number of unique branch instructions: 10553
Upper 32 bits: 
aaaa
ffff
ffff0000
Unique upper 32 bits: 3
Unique upper 36 bits: 3
Unique upper 40 bits: 5
Unique upper 44 bits: 32
Unique upper 48 bits: 157
Variant_0 : 1398 0.341309
Variant_1 : 1284 0.313477
Variant_2 : 1372 0.334961
Variant_3 : 0 0
Offset_3 4373
Offset_4 252
Offset_5 472
Offset_6 529
Offset_7 619
Offset_8 568
Offset_9 504
Offset_10 409
Offset_11 337
Offset_12 303
Offset_13 238
Offset_14 240
Offset_15 194
Offset_16 222
Offset_17 165
Offset_18 144
Offset_19 251
Offset_20 139
Offset_21 235
Offset_22 405
Offset_23 241
Offset_24 346
Offset_25 117
Offset_47 94
Offset_64 2
decode_dispatch_called: 23654972 64.216
Dispatch_width: 0 12459893 52.6735 33.8248
Dispatch_width: 1 817343 3.45527 2.21884
Dispatch_width: 2 771389 3.261 2.09408
Dispatch_width: 3 472196 1.99618 1.28187
Dispatch_width: 4 4181686 17.6778 11.352
Dispatch_width: 5 218339 0.923015 0.592723
Dispatch_width: 6 4734126 20.0132 12.8517
Empty_decode_cycles: 13181601 35.784
ROB_full_cycles: 6570923 17.838
Starvation_cycles_per_kilo_instr: 255.315
Starvation_cycles_per_kilo_instr_3: 211.315
Starvation_cycles_per_kilo_instr_0: 190.706
Branch_type_1  (3,1)  (4,7)  (5,38)  (6,71)  (7,122)  (8,147)  (9,133)  (10,109)  (11,75)  (12,47)  (13,11)  (14,2)  (15,3)  (16,4)  (18,1)  (19,5)  (20,2)  (21,1)  (22,3)  (23,2)  (24,10)  (25,12) 
Branch_type_2  (3,1)  (4,1)  (5,1)  (8,4)  (9,4)  (10,1)  (12,1)  (13,1)  (14,1)  (16,3)  (17,2)  (20,2)  (21,2)  (23,5)  (24,1)  (47,43) 
Branch_type_3  (3,4371)  (4,244)  (5,429)  (6,442)  (7,469)  (8,354)  (9,277)  (10,164)  (11,128)  (12,54)  (13,10)  (64,2) 
Branch_type_4  (6,3)  (7,8)  (8,24)  (9,53)  (10,64)  (11,68)  (12,111)  (13,101)  (14,108)  (15,92)  (16,97)  (17,76)  (18,61)  (19,122)  (20,71)  (21,124)  (22,212)  (23,136)  (24,202)  (25,101) 
Branch_type_5  (8,3)  (9,1)  (10,4)  (11,5)  (12,3)  (13,14)  (14,16)  (15,11)  (16,22)  (17,11)  (18,23)  (19,14)  (20,11)  (21,13)  (22,43)  (23,26)  (24,37) 
Branch_type_6  (5,4)  (6,13)  (7,20)  (8,36)  (9,36)  (10,67)  (11,61)  (12,87)  (13,101)  (14,113)  (15,88)  (16,96)  (17,76)  (18,59)  (19,110)  (20,53)  (21,95)  (22,147)  (23,72)  (24,96)  (25,4)  (47,51) 
Unique trigger count: 
Variant_0_evicts_0 : 0
Variant_0_evicts_1 : 0
Variant_0_evicts_2 : 0
Variant_0_evicts_3 : 0
Variant_1_evicts_0 : 0
Variant_1_evicts_1 : 0
Variant_1_evicts_2 : 0
Variant_1_evicts_3 : 0
Variant_2_evicts_0 : 0
Variant_2_evicts_1 : 0
Variant_2_evicts_2 : 0
Variant_2_evicts_3 : 0
Variant_3_evicts_0 : 0
Variant_3_evicts_1 : 0
Variant_3_evicts_2 : 0
Variant_3_evicts_3 : 0
BTB PER SET UNIQUE ADDR: 9 13 12 23 8 15 11 16 13 8 11 20 11 11 12 8 9 12 7 17 12 11 14 12 9 14 16 9 9 13 16 12 14 8 8 15 11 11 7 14 13 12 11 12 8 12 14 8 15 13 14 8 17 13 9 7 15 13 12 16 11 16 11 16 15 15 10 12 14 16 14 11 14 9 15 10 9 11 9 20 18 7 10 17 13 13 9 10 11 23 7 7 11 9 7 11 7 8 16 17 15 14 14 10 12 11 7 13 9 9 6 14 15 13 6 6 8 11 13 13 13 11 16 10 15 13 8 14 17 11 11 15 7 11 14 12 14 10 12 19 11 13 12 15 10 16 19 8 8 13 16 16 12 12 8 18 11 14 19 12 12 13 13 13 13 11 11 10 11 8 13 13 10 11 14 5 8 12 13 14 9 10 12 16 13 18 9 10 14 9 10 12 9 10 16 12 11 11 9 15 15 16 12 8 14 13 12 18 11 10 9 17 12 9 14 9 11 12 9 15 11 15 10 13 12 10 17 12 7 15 9 7 12 15 10 8 16 13 12 8 12 13 18 17 9 15 13 11 12 10 14 15 17 11 15 13 13 12 12 9 14 9 6 14 13 11 9 6 6 15 8 15 9 4 9 9 12 13 10 12 8 16 10 9 10 11 13 15 15 13 14 8 18 11 7 15 10 13 14 12 12 10 9 18 17 15 15 9 13 10 13 19 9 15 13 7 15 17 9 16 6 16 11 12 16 12 9 10 14 8 15 12 10 8 12 17 10 16 8 18 13 10 9 12 15 13 12 12 13 9 9 11 8 12 9 12 10 11 8 11 11 16 10 14 8 18 10 12 13 13 9 5 12 12 9 13 10 15 12 13 13 10 8 12 10 14 17 16 13 13 11 13 13 13 12 10 9 13 13 11 10 13 10 9 17 11 12 16 15 11 17 8 11 16 13 13 9 14 14 17 7 17 11 14 14 11 14 10 13 12 16 8 14 14 12 16 17 6 13 8 13 11 9 13 15 7 12 11 13 13 17 15 11 14 14 18 18 16 10 17 13 13 12 17 21 15 13 16 14 13 12 18 15 12 12 13 12 19 8 15 14 15 14 16 9 15 18 16 11 14 12 17 11 8 8 10 15 16 9 20 12 15 13 15 8 10 8 15 14 10 8 18 11 10 15 14 10 16 8 10 10 10 12 10 16 15 10 7 8 18 12 9 16 11 12 15 13 18 10 12 12 13 14 14 17 14 8 12 10 12 15 14 10 11 10 15 12 8 13 12 13 17 12 13 14 16 12 12 13 16 11 13 12 17 11 16 14 14 11 11 11 12 10 12 12 15 10 12 19 19 9 13 10 9 8 8 8 16 14 11 12 9 14 8 9 15 20 10 12 13 14 12 9 13 5 12 12 11 15 17 18 9 6 7 9 13 13 18 12 12 11 12 18 12 10 14 10 13 9 18 9 16 12 16 11 11 11 20 16 14 11 17 12 5 20 13 16 13 14 13 12 9 9 17 9 10 11 9 12 10 11 16 15 17 18 14 11 11 13 14 13 19 13 13 12 13 8 16 13 14 9 19 18 7 7 13 6 14 12 16 6 12 16 18 8 18 14 8 11 7 10 12 10 14 11 9 19 13 11 13 12 14 12 12 15 11 11 10 11 10 12 11 13 7 6 18 13 15 22 9 10 9 10 11 15 17 17 15 11 10 13 8 13 12 16 13 17 8 10 13 9 8 7 13 11 19 11 18 9 14 9 19 12 10 10 12 15 11 15 16 7 16 14 11 15 10 8 13 9 6 9 9 14 10 15 14 12 8 14 14 24 10 14 15 15 15 14 11 13 13 11 11 12 16 8 13 18 12 9 11 18 20 13 13 12 13 12 14 10 10 15 14 17 11 12 13 12 11 11 9 18 17 10 11 8 15 13 20 11 7 12 9 8 12 12 20 16 13 12 10 14 14 12 8 12 11 15 9 17 14 16 19 19 14 14 4 10 10 8 10 9 11 12 15 10 11 13 11 13 13 15 11 9 10 14 18 16 12 7 5 13 9 14 10 7 13 6 12 11 17 9 11 11 11 8 14 15 9 11 12 16 14 13 13 8 6 10 11 15 7 15 15 17 8 13 20 12 13 18 18 11 18 11 12 16 10 18 12 14 18 10 14 11 14 11 16 10 11 17 12 15 11 10 10 11 11 12 15 9 16 9 15 13 9 14 17 18 11 17 16 11 15 9 12 8 13 18 15 13 13 15 15 14 16 15 10 7 13 14 11 12 20 10 12 14 12 7 11 15 12 12 11 11 7 12 11 8 9 6 10 13 16 14 7 
BTB PER SET COUNT: 10 23 1958 37 185 21 973 635 1484 8 13 872 20165 1479 17 9 993 2343 7 21 16 11 734 489 14 23 20 958 232 1425 21 12 30 14 9 32 14 22 8 2955 14 14 19 45 16 12 16 10 946 110 20 8 31 16 12 358 15 21 109 24 11 1356 319 25 19 23 11 451 16 24 28 981 18 9 22 17 13 109 14 33 19 9 15 22 22 16 13 10 16 34 9 991 18 29 7 13 962 11 25 27 24 256 16 13 2317 13 17 17 35 12 7 31 22 14 12 340 8 13 1350 20 17 13 27 14 22 94 11 21 20 498 16 17 8 14 25 21 17 13 15 27 15 22 12 17 24 211 411 8 10 205 34 22 1019 14 8 23 15 18 26 15 16 379 24 20 25 40 20 11 13 12 21 16 11 14 20 5 8 12 23 44 23 203 85 22 18 28 9 11 545 10 12 14 9 13 20 13 13 56 15 300 22 24 976 9 22 19 16 205 17 705 9 22 17 14670 18 3435 12 25 73 19 13 24 18 13 17 21 23 263 10 23 13 9 17 22 330 11 52 20 12 9 17 21 25 35 14 208 13 18 14 17 30 15 20 11 17 18 36 16 13 16 36 11 7 16 17 15 13 6 8 21 10 711 13 8 11 15 17 22 13 237 14 29 426 11 11 16 19 23 21 13 22 10 28 15 9 17 304 18 14 16 17 11 9 28 25 80 193 13 15 956 49 34 13 23 1508 10 18 30 9 25 9 1072 13 20 21 611 281 14 21 9 18 13 13 10 16 30 12 514 8 39 21 768 10 384 23 15 12 24 13 12 10 242 10 15 12 15 18 18 8 16 14 25 12 18 11 1502 10 27 14 21 11 6 12 18 407 190 13 20 20 1123 32 10 988 13 13 18 3181 24 14 84 12 14 16 21 15 11 15 23 15 14 12 16 23 13 27 15 24 21 24 16 1464 12 13 188 16 18 16 397 999 23 8 24 15 23 21 18 23 11 15 13 69 8 31 27 385 29 25 6 18 13 17 14 11 16 866 7 513 17 19 15 1260 90 13 19 16 53 32 17 11 22 53 285 15 28 25 28 14 20 18 19 17 23 22 19 18 18 14 154 10 24 27 508 16 23 10 23 38 27 14 205 12 25 46 8 9 10 959 23 11 33 13 20 13 37 12 13 20 24 19 10 9 23 195 1458 19 21 28 22 10 31 11 10 14 506 23 24 400 10 9 397 13 9 21 16 14 21 14 43 14 451 12 17 19 19 29 37 8 13 12 246 22 17 12 977 14 25 15 10 26 17 18 21 12 16 55 25 150 14 13 25 16 15 16 19 2458 22 17 41 14 18 12 16 10 4386 14 22 487 23 30 27 12 20 15 9 14 11 452 630 19 13 28 12 22 12 11 25 33 3471 16 17 16 1474 11 18 5 15 205 15 25 26 34 12 6 206 12 16 20 975 16 15 18 15 764 14 13 23 17 17 11 321 12 26 17 19 17 16 15 32 1986 16 12 19 18 5 24 23 31 20 20 149 371 11 12 17 12 16 22 752 1305 17 21 28 487 29 969 183 13 15 17 28 19 31 101 17 1099 21 8 25 25 17 10 20 26 7 141 23 7 36 15 24 6 20 1489 26 12 504 20 9 11 8 16 16 37 19 17 165 144 17 17 526 21 726 16 1528 1645 15 11 13 17 1167 15 12 25 8 7 28 988 32 28 15 49 11 10 41 18 21 516 17 16 17 1485 8 13 1967 45 16 22 10 11 22 12 11 7 96 2857 23 13 1128 10 20 14 28 22 10 12 16 29 13 18 28 339 17 1160 13 20 15 8 17 12 6 13 970 24 14 1407 19 14 10 21 182 124 14 374 212 30 20 22 22 18 16 13 7807 14 274 462 645 29 1488 12 11 30 28 15 17 617 20 12 22 12 17 24 15 20 13 416 23 12 15 982 11 24 20 10 14 8 20 23 39 14 12 82 316 13 21 1484 27 383 15 16 12 18 23 12 8 15 12 23 11 30 53 20 36 30 20 18 4 12 13 12 14 9 12 154 17 14 15 21 12 17 25 27 1404 873 31 19 27 24 20 13 5 26 16 22 987 7 19 6 16 21 382 15 138 15 14 9 3016 19 14 17 19 22 991 901 16 8 6 16 12 22 22 139 21 1104 18 107 29 20 14 55 27 14 356 16 16 25 12 22 20 21 23 149 984 296 3781 15 17 16 16 152 21 806 13 506 12 14 16 19 25 10 29 66 167 19 12 83 26 32 18 995 1124 16 21 11 17 11 15 34 38 19 17 28 27 16 751 24 12 10 40 32 14 18 1323 24 22 25 31 12 15 17 994 40 12 11 7 14 15 11 11 6 11 785 501 27 7 
To predecode: 0
Predecoding something: 0
Predecode request dropped: 0
sizeofblock_0 0
sizeofblock_1 37933
sizeofblock_2 33278
sizeofblock_3 45404
sizeofblock_4 24598
sizeofblock_5 0
sizeofblock_6 0
sizeofblock_7 0
sizeofblock_8 0
Variant_0 Correct: 1611507 Incorrect: 0 Accuracy: 1
Variant_1 Correct: 2086789 Incorrect: 0 Accuracy: 1
Variant_2 Correct: 3639110 Incorrect: 0 Accuracy: 1
Variant_3 Correct: 0 Incorrect: 0 Accuracy: -nan
