
*** ChampSim Multicore Out-of-Order Simulator ***

Warmup Instructions: 50000000
Simulation Instructions: 50000000
Number of CPUs: 1
LLC sets: 2048
LLC ways: 16
Off-chip DRAM Size: 4096 MB Channels: 1 Width: 64-bit Data Rate: 6400 MT/s
CPU 0 runs ./micro_traces/srv163.trace.gz
.gz
ITLB has LRU replacement policy
DTLB has LRU replacement policy
STLB has LRU replacement policy
FDIP Prefetcher at L1I
L1I has LRU replacement policy
L1D has LRU replacement policy
Initialize SRRIP state for L2C
Initialize DRRIP state for LLC
Heartbeat_Variant_0 : 1071 0.261475 per_variant_size: 0 1071 0 0 0 0 0 0 0 
Heartbeat_Variant_1 : 2294 0.560059 per_variant_size: 0 430 1864 0 0 0 0 0 0 
Heartbeat_Variant_2 : 0 0 per_variant_size: 0 0 0 0 0 0 0 0 0 
Heartbeat_Variant_3 : 0 0 per_variant_size: 0 0 0 0 0 0 0 0 0 
Heartbeat_Variant_0_evicts 0 : 21545 1 : 18504 2 : 0 3 : 0 
Heartbeat_Variant_1_evicts 0 : 18575 1 : 0 2 : 0 3 : 0 
Heartbeat_Variant_2_evicts 0 : 0 1 : 0 2 : 0 3 : 0 
Heartbeat_Variant_3_evicts 0 : 0 1 : 0 2 : 0 3 : 0 
Heartbeat CPU 0 instructions: 10000001 cycles: 2798038 heartbeat IPC: 3.57393 cumulative IPC: 3.57393 (Simulation time: 0 hr 3 min 47 sec) 
Heartbeat_Variant_0 : 1077 0.262939 per_variant_size: 0 1077 0 0 0 0 0 0 0 
Heartbeat_Variant_1 : 2355 0.574951 per_variant_size: 0 451 1904 0 0 0 0 0 0 
Heartbeat_Variant_2 : 0 0 per_variant_size: 0 0 0 0 0 0 0 0 0 
Heartbeat_Variant_3 : 0 0 per_variant_size: 0 0 0 0 0 0 0 0 0 
Heartbeat_Variant_0_evicts 0 : 21989 1 : 19241 2 : 0 3 : 0 
Heartbeat_Variant_1_evicts 0 : 19249 1 : 0 2 : 0 3 : 0 
Heartbeat_Variant_2_evicts 0 : 0 1 : 0 2 : 0 3 : 0 
Heartbeat_Variant_3_evicts 0 : 0 1 : 0 2 : 0 3 : 0 
Heartbeat CPU 0 instructions: 20000001 cycles: 5594693 heartbeat IPC: 3.5757 cumulative IPC: 3.57482 (Simulation time: 0 hr 5 min 51 sec) 
Heartbeat_Variant_0 : 1132 0.276367 per_variant_size: 0 1132 0 0 0 0 0 0 0 
Heartbeat_Variant_1 : 2469 0.602783 per_variant_size: 0 428 2041 0 0 0 0 0 0 
Heartbeat_Variant_2 : 0 0 per_variant_size: 0 0 0 0 0 0 0 0 0 
Heartbeat_Variant_3 : 0 0 per_variant_size: 0 0 0 0 0 0 0 0 0 
Heartbeat_Variant_0_evicts 0 : 21627 1 : 18675 2 : 0 3 : 0 
Heartbeat_Variant_1_evicts 0 : 18660 1 : 0 2 : 0 3 : 0 
Heartbeat_Variant_2_evicts 0 : 0 1 : 0 2 : 0 3 : 0 
Heartbeat_Variant_3_evicts 0 : 0 1 : 0 2 : 0 3 : 0 
Heartbeat CPU 0 instructions: 30000003 cycles: 8390415 heartbeat IPC: 3.57689 cumulative IPC: 3.57551 (Simulation time: 0 hr 7 min 48 sec) 
Heartbeat_Variant_0 : 1126 0.274902 per_variant_size: 0 1126 0 0 0 0 0 0 0 
Heartbeat_Variant_1 : 2480 0.605469 per_variant_size: 0 428 2052 0 0 0 0 0 0 
Heartbeat_Variant_2 : 0 0 per_variant_size: 0 0 0 0 0 0 0 0 0 
Heartbeat_Variant_3 : 0 0 per_variant_size: 0 0 0 0 0 0 0 0 0 
Heartbeat_Variant_0_evicts 0 : 21883 1 : 18582 2 : 0 3 : 0 
Heartbeat_Variant_1_evicts 0 : 18589 1 : 0 2 : 0 3 : 0 
Heartbeat_Variant_2_evicts 0 : 0 1 : 0 2 : 0 3 : 0 
Heartbeat_Variant_3_evicts 0 : 0 1 : 0 2 : 0 3 : 0 
Heartbeat CPU 0 instructions: 40000002 cycles: 11186651 heartbeat IPC: 3.57624 cumulative IPC: 3.57569 (Simulation time: 0 hr 10 min 4 sec) 
Heartbeat_Variant_0 : 1120 0.273438 per_variant_size: 0 1120 0 0 0 0 0 0 0 
Heartbeat_Variant_1 : 2499 0.610107 per_variant_size: 0 444 2055 0 0 0 0 0 0 
Heartbeat_Variant_2 : 0 0 per_variant_size: 0 0 0 0 0 0 0 0 0 
Heartbeat_Variant_3 : 0 0 per_variant_size: 0 0 0 0 0 0 0 0 0 
Heartbeat_Variant_0_evicts 0 : 22048 1 : 18900 2 : 0 3 : 0 
Heartbeat_Variant_1_evicts 0 : 18911 1 : 0 2 : 0 3 : 0 
Heartbeat_Variant_2_evicts 0 : 0 1 : 0 2 : 0 3 : 0 
Heartbeat_Variant_3_evicts 0 : 0 1 : 0 2 : 0 3 : 0 
Heartbeat CPU 0 instructions: 50000001 cycles: 13982814 heartbeat IPC: 3.57633 cumulative IPC: 3.57582 (Simulation time: 0 hr 12 min 11 sec) 

Warmup complete CPU 0 instructions: 50000001 cycles: 13982814 (Simulation time: 0 hr 12 min 11 sec) 

Cycle: 20000000 FTQ IN: 56945176 FTQ occupancy: 18.155 DECODE IN: 56945167 DECODE occupancy: 46.5674 ROB IN: 56945167 ROB occupancy: 282.02 ROB OUT: 56945056
Heartbeat_Variant_0 : 1128 0.275391 per_variant_size: 0 1128 0 0 0 0 0 0 0 
Heartbeat_Variant_1 : 2492 0.608398 per_variant_size: 0 438 2054 0 0 0 0 0 0 
Heartbeat_Variant_2 : 0 0 per_variant_size: 0 0 0 0 0 0 0 0 0 
Heartbeat_Variant_3 : 0 0 per_variant_size: 0 0 0 0 0 0 0 0 0 
Heartbeat_Variant_0_evicts 0 : 21853 1 : 18548 2 : 0 3 : 0 
Heartbeat_Variant_1_evicts 0 : 18540 1 : 0 2 : 0 3 : 0 
Heartbeat_Variant_2_evicts 0 : 0 1 : 0 2 : 0 3 : 0 
Heartbeat_Variant_3_evicts 0 : 0 1 : 0 2 : 0 3 : 0 
Heartbeat CPU 0 instructions: 60000002 cycles: 22658064 heartbeat IPC: 1.1527 cumulative IPC: 1.1527 (Simulation time: 0 hr 14 min 3 sec) 
Cycle: 30000000 FTQ IN: 11374681 FTQ occupancy: 7.00344 DECODE IN: 11374690 DECODE occupancy: 15.2834 ROB IN: 11374690 ROB occupancy: 126.145 ROB OUT: 11374628
Heartbeat_Variant_0 : 1119 0.273193 per_variant_size: 0 1119 0 0 0 0 0 0 0 
Heartbeat_Variant_1 : 2501 0.610596 per_variant_size: 0 459 2042 0 0 0 0 0 0 
Heartbeat_Variant_2 : 0 0 per_variant_size: 0 0 0 0 0 0 0 0 0 
Heartbeat_Variant_3 : 0 0 per_variant_size: 0 0 0 0 0 0 0 0 0 
Heartbeat_Variant_0_evicts 0 : 22128 1 : 19045 2 : 0 3 : 0 
Heartbeat_Variant_1_evicts 0 : 19054 1 : 0 2 : 0 3 : 0 
Heartbeat_Variant_2_evicts 0 : 0 1 : 0 2 : 0 3 : 0 
Heartbeat_Variant_3_evicts 0 : 0 1 : 0 2 : 0 3 : 0 
Heartbeat CPU 0 instructions: 70000001 cycles: 31467752 heartbeat IPC: 1.13511 cumulative IPC: 1.14384 (Simulation time: 0 hr 15 min 45 sec) 
Cycle: 40000000 FTQ IN: 11526220 FTQ occupancy: 6.99637 DECODE IN: 11526220 DECODE occupancy: 15.3751 ROB IN: 11526199 ROB occupancy: 126.953 ROB OUT: 11526020
Heartbeat_Variant_0 : 1142 0.278809 per_variant_size: 0 1142 0 0 0 0 0 0 0 
Heartbeat_Variant_1 : 2478 0.60498 per_variant_size: 0 434 2044 0 0 0 0 0 0 
Heartbeat_Variant_2 : 0 0 per_variant_size: 0 0 0 0 0 0 0 0 0 
Heartbeat_Variant_3 : 0 0 per_variant_size: 0 0 0 0 0 0 0 0 0 
Heartbeat_Variant_0_evicts 0 : 21831 1 : 18598 2 : 0 3 : 0 
Heartbeat_Variant_1_evicts 0 : 18575 1 : 0 2 : 0 3 : 0 
Heartbeat_Variant_2_evicts 0 : 0 1 : 0 2 : 0 3 : 0 
Heartbeat_Variant_3_evicts 0 : 0 1 : 0 2 : 0 3 : 0 
Heartbeat CPU 0 instructions: 80000003 cycles: 40133457 heartbeat IPC: 1.15397 cumulative IPC: 1.1472 (Simulation time: 0 hr 17 min 34 sec) 
Heartbeat_Variant_0 : 1143 0.279053 per_variant_size: 0 1143 0 0 0 0 0 0 0 
Heartbeat_Variant_1 : 2477 0.604736 per_variant_size: 0 424 2053 0 0 0 0 0 0 
Heartbeat_Variant_2 : 0 0 per_variant_size: 0 0 0 0 0 0 0 0 0 
Heartbeat_Variant_3 : 0 0 per_variant_size: 0 0 0 0 0 0 0 0 0 
Heartbeat_Variant_0_evicts 0 : 21464 1 : 17950 2 : 0 3 : 0 
Heartbeat_Variant_1_evicts 0 : 17949 1 : 0 2 : 0 3 : 0 
Heartbeat_Variant_2_evicts 0 : 0 1 : 0 2 : 0 3 : 0 
Heartbeat_Variant_3_evicts 0 : 0 1 : 0 2 : 0 3 : 0 
Heartbeat CPU 0 instructions: 90000002 cycles: 48845340 heartbeat IPC: 1.14786 cumulative IPC: 1.14736 (Simulation time: 0 hr 19 min 35 sec) 
Cycle: 50000000 FTQ IN: 11461112 FTQ occupancy: 7.17245 DECODE IN: 11461088 DECODE occupancy: 15.7642 ROB IN: 11461109 ROB occupancy: 129.467 ROB OUT: 11461438
Heartbeat_Variant_0 : 1129 0.275635 per_variant_size: 0 1129 0 0 0 0 0 0 0 
Heartbeat_Variant_1 : 2495 0.609131 per_variant_size: 0 447 2048 0 0 0 0 0 0 
Heartbeat_Variant_2 : 0 0 per_variant_size: 0 0 0 0 0 0 0 0 0 
Heartbeat_Variant_3 : 0 0 per_variant_size: 0 0 0 0 0 0 0 0 0 
Heartbeat_Variant_0_evicts 0 : 21975 1 : 18825 2 : 0 3 : 0 
Heartbeat_Variant_1_evicts 0 : 18840 1 : 0 2 : 0 3 : 0 
Heartbeat_Variant_2_evicts 0 : 0 1 : 0 2 : 0 3 : 0 
Heartbeat_Variant_3_evicts 0 : 0 1 : 0 2 : 0 3 : 0 
Heartbeat CPU 0 instructions: 100000003 cycles: 57552332 heartbeat IPC: 1.1485 cumulative IPC: 1.14759 (Simulation time: 0 hr 21 min 28 sec) 
Finished CPU 0 instructions: 50000002 cycles: 43569518 cumulative IPC: 1.14759 (Simulation time: 0 hr 21 min 28 sec) 

ChampSim completed all CPUs

Region of Interest Statistics

CPU 0 cumulative IPC: 1.14759 instructions: 50000002 cycles: 43569518
 Fetch stage stalled: 69.9285  Sim cycles: 43569518 fetch stall cycle: 30467500
 Empty decode stage: 58.4541  Sim cycles: 43569518 fetch stall cycle: 25468172
ITLB TOTAL     ACCESS:    5626940  HIT:    5131199  MISS:     495741  HIT %:    91.1899  MISS %:    8.81013   MPKI: 9.91482
ITLB LOAD TRANSLATION INSTRUCTION	ACCESS:    5524055  HIT:    5028314  MISS:     495741  HIT %:    91.0258  MISS %:    8.97422  MPKI: 9.91482
ITLB TRANSLATION FROM L1D PREFETCHER INSTRUCTION	ACCESS:     102885  HIT:     102885  MISS:          0  HIT %:        100  MISS %:          0  MPKI: 0

ITLB AVERAGE MISS LATENCY: 9.03956 cycles
ITLB RQ	ACCESS:    7474145	FORWARD:          0	MERGED:    1349835	TO_CACHE:    6124310

DTLB TOTAL     ACCESS:    9281346  HIT:    8805781  MISS:     475565  HIT %:    94.8761  MISS %:    5.12388   MPKI: 9.5113
DTLB LOAD TRANSLATION DATA	ACCESS:    9281346  HIT:    8805781  MISS:     475565  HIT %:    94.8761  MISS %:    5.12388  MPKI: 9.5113

DTLB AVERAGE MISS LATENCY: 9.2973 cycles
DTLB RQ	ACCESS:   13567649	FORWARD:          0	MERGED:    4252289	TO_CACHE:    9315360

STLB TOTAL     ACCESS:    1215750  HIT:    1213860  MISS:       1890  HIT %:    99.8445  MISS %:    0.15546   MPKI: 0.0378
STLB LOAD TRANSLATION INSTRUCTION	ACCESS:     495741  HIT:     495523  MISS:        218  HIT %:     99.956  MISS %:  0.0439746  MPKI: 0.00436
STLB LOAD TRANSLATION DATA	ACCESS:     475355  HIT:     473705  MISS:       1650  HIT %:    99.6529  MISS %:   0.347109  MPKI: 0.033
STLB TRANSLATION FROM L1D PREFETCHER DATA	ACCESS:     244654  HIT:     244632  MISS:         22  HIT %:     99.991  MISS %: 0.00899229  MPKI: 0.00044

STLB AVERAGE MISS LATENCY: 71.6598 cycles
STLB RQ	ACCESS:    1336259	FORWARD:          0	MERGED:     120466	TO_CACHE:    1215793

STLB Hit, L1D data hit: 0
STLB Hit, L2C data hit: 0
STLB Hit, LLC data hit: 0
STLB Hit, LLC data miss: 0
STLB STLB hints to L2: 0
L1D TOTAL     ACCESS:   13328614  HIT:   12212408  MISS:    1116206  HIT %:    91.6255  MISS %:    8.37451   MPKI: 22.3241
L1D LOAD DATA	ACCESS:    6765108  HIT:    6028823  MISS:     736285  HIT %:    89.1164  MISS %:    10.8836  MPKI: 14.7257
L1D RFO DATA	ACCESS:    6238913  HIT:    5953220  MISS:     285693  HIT %:    95.4208  MISS %:    4.57921  MPKI: 5.71386
L1D PREFETCH DATA	ACCESS:     324593  HIT:     230365  MISS:      94228  HIT %:    70.9704  MISS %:    29.0296  MPKI: 1.88456

L1D PREFETCH  REQUESTED:     730173  ISSUED:     730173  USEFUL:      33272  USELESS:      68046
L1D USEFUL LOAD PREFETCHES:      33272 PREFETCH ISSUED TO LOWER LEVEL:     101364  ACCURACY: 32.8243
 TIMELY PREFETCHES:      33272 LATE PREFETCHES: 7088 DROPPED PREFETCHES: 11
L1D AVERAGE MISS LATENCY: 231894 cycles
L1D RQ	ACCESS:   10852949	FORWARD:          0	MERGED:    3892398	TO_CACHE:    6795156
L1D WQ	ACCESS:    6949899	FORWARD:     165662	MERGED:     177406	TO_CACHE:    6772493
L1D PQ	ACCESS:     365220	FORWARD:          0	MERGED:          0	TO_CACHE:     364953

L1D UNIQUE REGIONS ACCESSED: 0
L1D REGIONS CONFLICTS: 0
L1D Cross Page Prefetch Requests: 6987
L1D Same Page Prefetch Requests: 741746
L1D ROI Sum of L1D PQ occupancy: 4625817
L1D PREFETCHES PUSHED FROM L2C: 0
L1I TOTAL     ACCESS:    6955024  HIT:    4184201  MISS:    2770823  HIT %:    60.1608  MISS %:    39.8392   MPKI: 55.4165
L1I LOAD INSTRUCTION	ACCESS:    6463083  HIT:    3692260  MISS:    2770823  HIT %:    57.1285  MISS %:    42.8715  MPKI: 55.4165
L1I PREFETCH INSTRUCTION	ACCESS:     491941  HIT:     491941  MISS:          0  HIT %:        100  MISS %:          0  MPKI: 0

L1I PREFETCH  REQUESTED:    1102563  ISSUED:    1102563  USEFUL:          0  USELESS:          0
L1I USEFUL LOAD PREFETCHES:          0 PREFETCH ISSUED TO LOWER LEVEL:          0  ACCURACY: -nan
 TIMELY PREFETCHES:          0 LATE PREFETCHES: 0 DROPPED PREFETCHES: 0
L1I AVERAGE MISS LATENCY: 16.9504 cycles
L1I RQ	ACCESS:    9461723	FORWARD:          0	MERGED:    2778426	TO_CACHE:    6683297
L1I PQ	ACCESS:    1102563	FORWARD:          0	MERGED:     311715	TO_CACHE:     790848

L1BTB TOTAL     ACCESS:    5671458  HIT:    2033275  MISS:    3638183  HIT %:     35.851  MISS %:     64.149   MPKI: 72.7637
L1BTB BRANCH_DIRECT_JUMP	ACCESS:     547550 HIT:     143678 MISS:     403872 AVERAGE STALL: 37.1131 AVERAGE FETCH STALL: 19.1121 AVERAGE FETCH QUEUE STALL: 8.86376 AVERAGE DECODE STALL: 8.32395 AVERAGE EXECUTE STALL: 3.94026e+14
L1BTB BRANCH_INDIRECT	ACCESS:     182353 HIT:      65534 MISS:     116819 AVERAGE STALL: 90.9505 AVERAGE FETCH STALL: 14.7749 AVERAGE FETCH QUEUE STALL: 7.55307 AVERAGE DECODE STALL: 7.18393 AVERAGE EXECUTE STALL: 60.4983
L1BTB BRANCH_CONDITIONAL	ACCESS:    2697932 HIT:    1402927 MISS:    1295005 AVERAGE STALL: 36.3738 AVERAGE FETCH STALL: 22.4129 AVERAGE FETCH QUEUE STALL: 6.21241 AVERAGE DECODE STALL: 6.98791 AVERAGE EXECUTE STALL: 1.66755e+14
L1BTB BRANCH_DIRECT_CALL	ACCESS:     949025 HIT:     106980 MISS:     842045 AVERAGE STALL: 38.4329 AVERAGE FETCH STALL: 21.3835 AVERAGE FETCH QUEUE STALL: 8.37888 AVERAGE DECODE STALL: 7.90674 AVERAGE EXECUTE STALL: 1.07745e+14
L1BTB BRANCH_INDIRECT_CALL	ACCESS:     172785 HIT:      21966 MISS:     150819 AVERAGE STALL: 115.406 AVERAGE FETCH STALL: 18.2799 AVERAGE FETCH QUEUE STALL: 6.13524 AVERAGE DECODE STALL: 6.90514 AVERAGE EXECUTE STALL: 83.5559
L1BTB BRANCH_RETURN	ACCESS:    1121813 HIT:     292190 MISS:     829623 AVERAGE STALL: 36.4561 AVERAGE FETCH STALL: 17.7936 AVERAGE FETCH QUEUE STALL: 5.85262 AVERAGE DECODE STALL: 6.18304 AVERAGE EXECUTE STALL: 1.88105e+14
L1BTB BRANCH_OTHER ACCESS:          0 HIT:          0 MISS:          0 AVERAGE STALL: -nan AVERAGE FETCH STALL: -nan AVERAGE FETCH QUEUE STALL: -nan AVERAGE DECODE STALL: -nan AVERAGE EXECUTE STALL: -nan
L1BTB TOTAL ROB OCCUPANCY AT BTB MISS: 13.7493

L2BTB TOTAL     ACCESS:    3612914  HIT:    3149372  MISS:     463542  HIT %:    87.1699  MISS %:    12.8301   MPKI: 9.27084
L2BTB BRANCH_DIRECT_JUMP	ACCESS:     399772 HIT:     357050 MISS:      42722 AVERAGE STALL: 37.1131 AVERAGE FETCH STALL: 19.1121 AVERAGE FETCH QUEUE STALL: 8.86376 AVERAGE DECODE STALL: 8.32395 AVERAGE EXECUTE STALL: 3.94026e+14
L2BTB BRANCH_INDIRECT	ACCESS:     106537 HIT:      97419 MISS:       9118 AVERAGE STALL: 90.9505 AVERAGE FETCH STALL: 14.7749 AVERAGE FETCH QUEUE STALL: 7.55307 AVERAGE DECODE STALL: 7.18393 AVERAGE EXECUTE STALL: 60.4983
L2BTB BRANCH_CONDITIONAL	ACCESS:    1295005 HIT:    1183999 MISS:     111006 AVERAGE STALL: 36.3738 AVERAGE FETCH STALL: 22.4129 AVERAGE FETCH QUEUE STALL: 6.21241 AVERAGE DECODE STALL: 6.98791 AVERAGE EXECUTE STALL: 1.66755e+14
L2BTB BRANCH_DIRECT_CALL	ACCESS:     842045 HIT:     670821 MISS:     171224 AVERAGE STALL: 38.4329 AVERAGE FETCH STALL: 21.3835 AVERAGE FETCH QUEUE STALL: 8.37888 AVERAGE DECODE STALL: 7.90674 AVERAGE EXECUTE STALL: 1.07745e+14
L2BTB BRANCH_INDIRECT_CALL	ACCESS:     141346 HIT:     108546 MISS:      32800 AVERAGE STALL: 115.406 AVERAGE FETCH STALL: 18.2799 AVERAGE FETCH QUEUE STALL: 6.13524 AVERAGE DECODE STALL: 6.90514 AVERAGE EXECUTE STALL: 83.5559
L2BTB BRANCH_RETURN	ACCESS:     828209 HIT:     731537 MISS:      96672 AVERAGE STALL: 36.4561 AVERAGE FETCH STALL: 17.7936 AVERAGE FETCH QUEUE STALL: 5.85262 AVERAGE DECODE STALL: 6.18304 AVERAGE EXECUTE STALL: 1.88105e+14
L2BTB BRANCH_OTHER ACCESS:          0 HIT:          0 MISS:          0 AVERAGE STALL: -nan AVERAGE FETCH STALL: -nan AVERAGE FETCH QUEUE STALL: -nan AVERAGE DECODE STALL: -nan AVERAGE EXECUTE STALL: -nan
L2BTB TOTAL ROB OCCUPANCY AT BTB MISS: 107.914

L2C TOTAL     ACCESS:    4487259  HIT:    4054415  MISS:     432844  HIT %:    90.3539  MISS %:    9.64607   MPKI: 8.65688
L2C LOAD INSTRUCTION	ACCESS:    2770822  HIT:    2536441  MISS:     234381  HIT %:    91.5411  MISS %:     8.4589  MPKI: 4.68762
L2C LOAD TRANSLATION INSTRUCTION	ACCESS:        241  HIT:         62  MISS:        179  HIT %:    25.7261  MISS %:    74.2739  MPKI: 0.00358
L2C LOAD DATA	ACCESS:     729176  HIT:     664130  MISS:      65046  HIT %:    91.0795  MISS %:    8.92048  MPKI: 1.30092
L2C RFO DATA	ACCESS:     285628  HIT:     233108  MISS:      52520  HIT %:    81.6124  MISS %:    18.3876  MPKI: 1.0504
L2C PREFETCH DATA	ACCESS:     177933  HIT:     111529  MISS:      66404  HIT %:    62.6803  MISS %:    37.3197  MPKI: 1.32808
L2C WRITEBACK DATA	ACCESS:     521709  HIT:     508714  MISS:      12995  HIT %:    97.5091  MISS %:    2.49085  MPKI: 0.2599
L2C LOAD TRANSLATION DATA	ACCESS:       1698  HIT:        399  MISS:       1299  HIT %:    23.4982  MISS %:    76.5018  MPKI: 0.02598
L2C TRANSLATION FROM L1D PREFETCHER DATA	ACCESS:         52  HIT:         32  MISS:         20  HIT %:    61.5385  MISS %:    38.4615  MPKI: 0.0004

L2C PREFETCH  REQUESTED:      83838  ISSUED:      83838  USEFUL:       7045  USELESS:      59681
L2C USEFUL LOAD PREFETCHES:       7045 PREFETCH ISSUED TO LOWER LEVEL:      66726  ACCURACY: 10.5581
 TIMELY PREFETCHES:       7045 LATE PREFETCHES: 322 DROPPED PREFETCHES: 0
L2C AVERAGE MISS LATENCY: 38.8924 cycles
L2C RQ	ACCESS:    3787655	FORWARD:          0	MERGED:          0	TO_CACHE:    3787617
L2C WQ	ACCESS:     521709	FORWARD:         38	MERGED:          0	TO_CACHE:     521709
L2C PQ	ACCESS:     185202	FORWARD:          0	MERGED:       3924	TO_CACHE:     181278

L2C Dense regions hint from L2: 0
PSCL5 TOTAL     ACCESS:       3810  HIT:       1905  MISS:       1905  HIT %:         50  MISS %:         50   MPKI: 0.0381
PSCL5 LOAD TRANSLATION INSTRUCTION	ACCESS:       3712  HIT:       1856  MISS:       1856  HIT %:         50  MISS %:         50  MPKI: 0.03712
PSCL5 TRANSLATION FROM L1D PREFETCHER INSTRUCTION	ACCESS:         98  HIT:         49  MISS:         49  HIT %:         50  MISS %:         50  MPKI: 0.00098


PSCL4 TOTAL     ACCESS:       3723  HIT:       1859  MISS:       1864  HIT %:    49.9328  MISS %:    50.0672   MPKI: 0.03728
PSCL4 LOAD TRANSLATION INSTRUCTION	ACCESS:       1816  HIT:       1811  MISS:          5  HIT %:    99.7247  MISS %:    0.27533  MPKI: 0.0001
PSCL4 TRANSLATION FROM L1D PREFETCHER INSTRUCTION	ACCESS:         48  HIT:         48  MISS:          0  HIT %:        100  MISS %:          0  MPKI: 0
PSCL4 LOAD TRANSLATION DATA	ACCESS:       1811  HIT:          0  MISS:       1811  HIT %:          0  MISS %:        100  MPKI: 0.03622
PSCL4 TRANSLATION FROM L1D PREFETCHER DATA	ACCESS:         48  HIT:          0  MISS:         48  HIT %:          0  MISS %:        100  MPKI: 0.00096


PSCL3 TOTAL     ACCESS:       3779  HIT:       1887  MISS:       1892  HIT %:    49.9338  MISS %:    50.0662   MPKI: 0.03784
PSCL3 LOAD TRANSLATION INSTRUCTION	ACCESS:       1844  HIT:       1839  MISS:          5  HIT %:    99.7289  MISS %:    0.27115  MPKI: 0.0001
PSCL3 TRANSLATION FROM L1D PREFETCHER INSTRUCTION	ACCESS:         48  HIT:         48  MISS:          0  HIT %:        100  MISS %:          0  MPKI: 0
PSCL3 LOAD TRANSLATION DATA	ACCESS:       1839  HIT:          0  MISS:       1839  HIT %:          0  MISS %:        100  MPKI: 0.03678
PSCL3 TRANSLATION FROM L1D PREFETCHER DATA	ACCESS:         48  HIT:          0  MISS:         48  HIT %:          0  MISS %:        100  MPKI: 0.00096


PSCL2 TOTAL     ACCESS:       3734  HIT:       1829  MISS:       1905  HIT %:    48.9823  MISS %:    51.0177   MPKI: 0.0381
PSCL2 LOAD TRANSLATION INSTRUCTION	ACCESS:       2000  HIT:       1781  MISS:        219  HIT %:      89.05  MISS %:      10.95  MPKI: 0.00438
PSCL2 TRANSLATION FROM L1D PREFETCHER INSTRUCTION	ACCESS:         48  HIT:         48  MISS:          0  HIT %:        100  MISS %:          0  MPKI: 0
PSCL2 LOAD TRANSLATION DATA	ACCESS:       1638  HIT:          0  MISS:       1638  HIT %:          0  MISS %:        100  MPKI: 0.03276
PSCL2 TRANSLATION FROM L1D PREFETCHER DATA	ACCESS:         48  HIT:          0  MISS:         48  HIT %:          0  MISS %:        100  MPKI: 0.00096


LLC TOTAL     ACCESS:     492383  HIT:     465003  MISS:      27380  HIT %:    94.4393  MISS %:    5.56071   MPKI: 0.5476
LLC LOAD INSTRUCTION	ACCESS:     234381  HIT:     233712  MISS:        669  HIT %:    99.7146  MISS %:   0.285433  MPKI: 0.01338
LLC LOAD TRANSLATION INSTRUCTION	ACCESS:        179  HIT:        148  MISS:         31  HIT %:    82.6816  MISS %:    17.3184  MPKI: 0.00062
LLC LOAD DATA	ACCESS:      64730  HIT:      61349  MISS:       3381  HIT %:    94.7768  MISS %:    5.22323  MPKI: 0.06762
LLC RFO DATA	ACCESS:      52511  HIT:      39517  MISS:      12994  HIT %:    75.2547  MISS %:    24.7453  MPKI: 0.25988
LLC PREFETCH DATA	ACCESS:      66726  HIT:      56801  MISS:       9925  HIT %:    85.1257  MISS %:    14.8743  MPKI: 0.1985
LLC WRITEBACK DATA	ACCESS:      72537  HIT:      72225  MISS:        312  HIT %:    99.5699  MISS %:   0.430125  MPKI: 0.00624
LLC LOAD TRANSLATION DATA	ACCESS:       1299  HIT:       1233  MISS:         66  HIT %:    94.9192  MISS %:    5.08083  MPKI: 0.00132
LLC TRANSLATION FROM L1D PREFETCHER DATA	ACCESS:         20  HIT:         18  MISS:          2  HIT %:         90  MISS %:         10  MPKI: 4e-05

LLC AVERAGE MISS LATENCY: 153.624 cycles
LLC RQ	ACCESS:     353123	FORWARD:          0	MERGED:          0	TO_CACHE:     353120
LLC WQ	ACCESS:      72537	FORWARD:          3	MERGED:          0	TO_CACHE:      72537
LLC PQ	ACCESS:      66726	FORWARD:          0	MERGED:          0	TO_CACHE:      66726

LLC Dense regions hint to LLC: 0

RAW hits: 1777323
Loads Generated: 12630272
Loads sent to L1D: 10852949
Stores Generated: 6949891
Stores sent to L1D: 6949899
Major fault: 0 Minor fault: 2589
Allocated PAGES: 2589

stream: 
stream:times selected: 1172879
stream:pref_filled: 121601
stream:pref_useful: 23903
stream:pref_late: 6659
stream:misses: 7958
stream:misses_by_poll: 0

CS: 
CS:times selected: 174641
CS:pref_filled: 60132
CS:pref_useful: 37038
CS:pref_late: 6492
CS:misses: 15573
CS:misses_by_poll: 3

CPLX: 
CPLX:times selected: 997181
CPLX:pref_filled: 19664
CPLX:pref_useful: 4573
CPLX:pref_late: 3120
CPLX:misses: 93511
CPLX:misses_by_poll: 0

NL_L1: 
NL:times selected: 20690
NL:pref_filled: 733
NL:pref_useful: 320
NL:pref_late: 274
NL:misses: 1807
NL:misses_by_poll: 0

total selections: 2365391
total_filled: 94228
total_useful: 33272
total_late: 17665
total_polluted: 3
total_misses_after_warmup: 766331
conflicts: 5630797

test: 114641

DRAM Statistics
 CHANNEL 0
 RQ ROW_BUFFER_HIT:      10225  ROW_BUFFER_MISS:      16831
 DBUS_CONGESTED:         10
 WQ ROW_BUFFER_HIT:       1271  ROW_BUFFER_MISS:      11548  FULL:          0

 AVG_CONGESTED_CYCLE: 5

CPU 0 Branch Prediction Accuracy: 99.8272% MPKI: 0.31622 Average ROB Occupancy at Mispredict: 141.489
Branch types
NOT_BRANCH: 40847935 81.6959%
BRANCH_DIRECT_JUMP: 547550 1.0951%
BRANCH_INDIRECT: 182353 0.364706%
BRANCH_CONDITIONAL: 6178077 12.3562%
BRANCH_DIRECT_CALL: 949025 1.89805%
BRANCH_INDIRECT_CALL: 172785 0.34557%
BRANCH_RETURN: 1121813 2.24363%
BRANCH_OTHER: 0 0%

DRAM PAGES: 1048576
Allocated PAGES: 2589
Average_ROB_Occupancy: 128.47
Average_Decode_Occupancy: 15.421
Average_FTQ_Occupancy: 7.02339
Indirect max targets: 14 Average targets: 1.17778
Branch_type:  BRANCH_DIRECT_JUMP:  Count Percentage: 4.12616 5.68841 3.63391 2.28158 8.16701 6.32443 1.45656 68.3219 
Branch_type:  BRANCH_INDIRECT:  Count Percentage: 11.7649 3.39008 2.49566 13.3009 3.3547 2.81794 0.939129 61.9367 
Branch_type:  BRANCH_CONDITIONAL:  Count Percentage: 25.784 2.25495 2.06737 3.01979 3.25032 4.63142 3.73058 55.2615 
Branch_type:  BRANCH_DIRECT_CALL:  Count Percentage: 0.386717 1.80401 0.716854 1.46601 5.2319 2.60505 1.0282 86.7613 
Branch_type:  BRANCH_INDIRECT_CALL:  Count Percentage: 9.53175 0 2.98761 0.000869923 1.36056 1.70998 0.992872 83.4164 
Branch_type:  BRANCH_RETURN:  Count Percentage: 7.49508 2.02348 2.23353 3.08556 3.44563 5.11457 3.61051 72.9916 
Branch_type:  BRANCH_DIRECT_JUMP:  Total Count: 45172 62275 39783 24978 89410 69238 15946 747968 
Branch_type:  BRANCH_INDIRECT:  Total Count: 42894 12360 9099 48494 12231 10274 3424 225817 
Branch_type:  BRANCH_CONDITIONAL:  Total Count: 3184467 278498 255331 372960 401432 572005 460747 6825091 
Branch_type:  BRANCH_DIRECT_CALL:  Total Count: 7327 34180 13582 27776 99127 49357 19481 1643837 
Branch_type:  BRANCH_INDIRECT_CALL:  Total Count: 32871 0 10303 3 4692 5897 3424 287668 
Branch_type:  BRANCH_RETURN:  Total Count: 167920 45334 50040 69129 77196 114587 80890 1635306 
Number of unique branch instructions: 10811
Upper 32 bits: 
aaaa
ffff
ffff0000
Unique upper 32 bits: 3
Unique upper 36 bits: 3
Unique upper 40 bits: 5
Unique upper 44 bits: 32
Unique upper 48 bits: 158
Variant_0 : 1129 0.275635
Variant_1 : 2495 0.609131
Variant_2 : 0 0
Variant_3 : 0 0
Offset_3 4470
Offset_4 255
Offset_5 484
Offset_6 541
Offset_7 643
Offset_8 577
Offset_9 523
Offset_10 426
Offset_11 360
Offset_12 327
Offset_13 240
Offset_14 247
Offset_15 194
Offset_16 233
Offset_17 169
Offset_18 149
Offset_19 257
Offset_20 143
Offset_21 235
Offset_22 413
Offset_23 241
Offset_24 351
Offset_25 117
Offset_47 94
Offset_64 2
decode_dispatch_called: 20004791 45.9146
Dispatch_width: 0 9949914 49.7377 22.8369
Dispatch_width: 1 552144 2.76006 1.26727
Dispatch_width: 2 648541 3.24193 1.48852
Dispatch_width: 3 415408 2.07654 0.953437
Dispatch_width: 4 1709367 8.54479 3.92331
Dispatch_width: 5 309726 1.54826 0.710878
Dispatch_width: 6 6419691 32.0908 14.7344
Empty_decode_cycles: 23564727 54.0854
ROB_full_cycles: 2518254 5.77985
Starvation_cycles_per_kilo_instr: 346.316
Starvation_cycles_per_kilo_instr_3: 326.125
Starvation_cycles_per_kilo_instr_0: 309.964
Branch_type_1  (3,1)  (4,9)  (5,39)  (6,74)  (7,126)  (8,148)  (9,136)  (10,110)  (11,78)  (12,55)  (13,11)  (14,2)  (15,3)  (16,4)  (18,1)  (19,5)  (20,2)  (21,1)  (22,3)  (23,2)  (24,10)  (25,12) 
Branch_type_2  (3,1)  (4,1)  (5,1)  (8,4)  (9,4)  (10,1)  (12,1)  (13,1)  (14,1)  (16,3)  (17,2)  (20,2)  (21,2)  (23,5)  (24,1)  (47,43) 
Branch_type_3  (3,4468)  (4,245)  (5,440)  (6,451)  (7,487)  (8,360)  (9,288)  (10,172)  (11,146)  (12,62)  (13,10)  (64,2) 
Branch_type_4  (6,3)  (7,8)  (8,25)  (9,56)  (10,68)  (11,70)  (12,117)  (13,102)  (14,112)  (15,92)  (16,102)  (17,79)  (18,65)  (19,125)  (20,73)  (21,124)  (22,219)  (23,136)  (24,206)  (25,101) 
Branch_type_5  (8,3)  (9,1)  (10,4)  (11,5)  (12,3)  (13,14)  (14,16)  (15,11)  (16,22)  (17,11)  (18,23)  (19,14)  (20,11)  (21,13)  (22,43)  (23,26)  (24,38) 
Branch_type_6  (5,4)  (6,13)  (7,22)  (8,37)  (9,38)  (10,71)  (11,61)  (12,89)  (13,102)  (14,116)  (15,88)  (16,102)  (17,77)  (18,60)  (19,113)  (20,55)  (21,95)  (22,148)  (23,72)  (24,96)  (25,4)  (47,51) 
Unique trigger count: 
Variant_0_evicts_0 : 0
Variant_0_evicts_1 : 0
Variant_0_evicts_2 : 0
Variant_0_evicts_3 : 0
Variant_1_evicts_0 : 0
Variant_1_evicts_1 : 0
Variant_1_evicts_2 : 0
Variant_1_evicts_3 : 0
Variant_2_evicts_0 : 0
Variant_2_evicts_1 : 0
Variant_2_evicts_2 : 0
Variant_2_evicts_3 : 0
Variant_3_evicts_0 : 0
Variant_3_evicts_1 : 0
Variant_3_evicts_2 : 0
Variant_3_evicts_3 : 0
BTB PER SET UNIQUE ADDR: 6 7 6 5 3 4 7 9 10 2 5 2 8 5 4 4 6 4 8 9 5 8 8 8 8 11 1 7 6 6 10 10 6 5 8 4 4 7 7 3 8 5 7 10 9 9 6 12 11 6 5 3 13 2 2 7 5 5 9 8 4 12 5 8 6 9 9 9 6 7 6 2 6 5 6 7 6 15 6 5 9 6 7 6 7 8 7 8 8 10 10 9 9 6 8 5 10 8 5 6 8 7 9 9 7 8 7 8 7 5 7 7 4 8 6 11 3 8 6 2 8 9 4 3 6 4 4 7 11 9 11 3 11 6 9 6 5 3 6 8 8 8 7 6 5 11 5 8 12 7 7 14 6 10 5 9 8 9 6 11 10 8 11 5 12 8 3 4 13 7 6 4 7 7 4 3 6 8 10 5 6 8 10 8 9 12 6 6 6 8 6 8 6 7 6 10 12 4 11 6 4 6 9 4 8 4 5 8 7 2 3 6 9 9 7 6 4 9 8 6 6 4 6 7 6 8 14 7 3 11 14 9 4 4 7 9 11 5 4 5 5 3 10 8 17 11 2 7 6 7 9 10 6 7 5 13 4 8 11 6 8 5 7 4 9 16 7 5 7 5 7 7 4 8 10 8 7 3 4 8 9 5 10 5 9 9 7 7 8 4 5 7 4 10 7 4 6 10 6 6 6 6 5 4 6 5 6 4 13 9 7 5 8 4 6 5 10 14 7 6 7 11 5 8 5 6 6 10 3 3 9 2 6 7 10 5 7 8 8 1 6 6 2 9 7 7 3 8 10 6 5 13 11 6 8 7 7 2 8 5 7 10 6 8 11 8 4 4 4 4 8 4 6 5 8 4 11 7 6 10 9 7 6 12 6 4 8 5 8 4 9 5 8 4 7 4 5 6 2 9 7 5 8 7 5 6 9 6 5 3 5 4 12 7 2 6 10 4 2 7 2 6 7 7 10 9 4 2 4 8 4 4 16 5 8 10 6 6 7 4 5 6 10 4 7 9 6 7 5 4 6 3 5 3 9 3 6 8 10 6 5 4 7 12 5 5 12 3 6 7 2 6 10 7 4 3 10 5 3 3 5 2 3 4 3 7 8 3 7 2 13 5 5 8 1 13 4 7 6 4 11 3 5 3 2 5 5 3 5 6 8 4 8 11 3 4 2 10 6 9 7 5 8 6 11 9 6 10 9 8 8 6 6 8 5 8 7 1 6 4 5 8 11 4 9 5 10 14 14 11 7 9 7 8 2 6 9 3 7 4 11 5 9 5 5 6 10 9 11 7 8 4 11 12 7 7 7 12 3 9 13 5 2 6 5 3 3 14 8 6 8 9 4 7 5 5 10 5 6 5 13 5 10 11 9 5 5 9 9 5 8 8 8 7 8 5 7 5 5 7 9 7 11 4 5 11 8 8 4 6 8 7 7 7 7 8 6 7 6 4 11 8 4 6 3 3 7 8 8 8 7 5 11 3 5 4 11 5 6 8 12 3 6 11 8 8 7 6 6 11 7 8 6 7 11 10 8 6 8 6 9 12 9 6 8 8 7 9 8 6 3 8 3 5 5 7 10 7 7 9 3 12 6 5 7 12 3 4 5 5 7 8 6 5 5 7 12 6 1 8 5 3 5 4 4 3 3 9 2 11 8 11 8 2 7 8 10 3 6 4 5 8 5 10 4 5 6 4 7 7 6 3 4 7 2 5 5 10 9 4 5 6 6 7 7 6 14 6 6 3 9 6 0 5 7 5 6 10 4 3 8 6 4 6 11 9 9 8 3 9 3 9 6 7 6 13 12 5 6 4 13 4 9 4 7 7 7 9 5 7 3 4 6 5 5 6 1 5 5 10 7 4 9 4 5 6 6 4 7 6 7 3 7 4 10 5 4 5 6 5 5 5 7 6 5 8 9 6 7 4 8 8 6 9 6 11 7 5 8 6 8 7 4 4 14 7 6 8 10 10 4 7 6 10 7 2 2 6 7 4 5 7 6 7 10 5 7 5 5 7 9 3 5 8 6 3 9 13 5 3 12 9 5 6 10 7 7 11 6 9 10 7 5 4 3 10 6 7 8 6 9 7 10 6 9 8 7 5 5 12 6 4 11 10 6 8 10 10 3 9 8 9 7 4 6 8 9 7 9 6 9 5 13 7 5 6 9 13 6 10 6 6 11 5 3 9 10 9 10 5 3 5 3 9 12 6 8 5 4 7 13 6 4 5 5 7 4 5 9 8 8 7 7 11 5 11 6 11 5 6 5 5 6 4 8 6 7 6 7 6 9 4 9 6 11 5 9 5 3 8 11 6 15 5 
BTB PER SET COUNT: 7 7 6 5 4 4 7 1934 5428 3 5 2 1444 5 4 6 6 4 30 3175 5 9 9 967 4943 2801 1 7 1838 6 4230 1104 1446 5 12 4 2949 7 15 3 28 5 13 2675 2533 16 6 4314 3916 6 5 3 10350 2 2 1442 6 5 980 2674 5 2895 6 20 6 1260 362 31 6 755 755 2 6 5 6 7 485 6852 7 5 955 6 1005 6 487 20 8 105 8048 2114 1721 539 2882 6 12 6 2363 13 7 6 26 16 20 3040 10 34 12 1921 1924 5 1921 9 4 1219 6 4597 4 8 6 2 8 27 6 3 489 4 4 14 7153 15 1965 3 8923 6 2920 7 5 3 8 1955 16 25 8 6 5 913 5 8 1989 2398 7 6981 6 10063 5 899 12 1924 7 1614 4700 57 3938 5 990 2355 3 4 9816 9 7 4 16 127 4 3 6 490 2151 5 6 10 5400 12 27 6901 8 7 2982 26 6 2483 6 9 6 42 1076 4 40 6 5 6 11 5 11 4 5 3615 11 2 3 6 78 19 10 6 4 195 20 6 6 4 6 727 6 1902 5465 3237 3 6527 8275 986 4 4 22 2418 2878 6 4 5 6 4 6338 13 8847 4897 3 7 6 8 18 4028 6 15 5 2793 4 8 2813 8 2397 5 7 4 2219 6992 999 5 1930 7 1691 13 4 1916 991 758 8 3 4 2405 13 5 1265 5 2934 2879 8 508 28 4 5 7 482 2417 2874 5 8 3918 6 6 6 8 5 5 6 6 6 4 4269 1590 17 5 2038 4 6 5 973 3910 1919 8 8 1478 7 11 5 6 6 1107 3 3 2195 2 6 8 5514 6 1445 11 42 1 6 6 3 2349 964 991 3 10 252 8 5 1093 737 998 8 14 11 2 2266 44 15 763 8 1794 1072 460 4 4 4 4 8 8 8 5 23 4 6310 7 6 2059 2404 2395 6 6616 9 4 43 5 11 5 1522 6 2398 6 8 5 1476 13 4 24 11 5 1443 8 764 6 2958 8 5 2866 5 4 1509 7 1472 6 153 4 2 1471 2 6 7 24 980 15 6 2 4 735 151 4 6595 5 1809 2130 7 6 13 4 5 6 1393 4 13 35 8 1958 5 4 6 3 5 3 1526 3 6 17 593 6 963 4 17 784 28 5 3205 3 6 7 2 20 1935 488 141 3 25713 5 3 3 5 2 3 482 5 158 1738 365 7 2 1117 5 5 1238 1 4521 4 27 6 4 2816 16 5 3 2 5 5 3 5 6 20 4 8 34 4 4 2 11264 6 1214 10 1476 10 780 199 1923 8 979 1800 31 9 7 6 24 5 611 7 1 12 4 5 1921 64 4 47 6 78 2208 3057 7679 7 4015 9 15 2 6 1487 3 7 5 5429 5 1928 5 5 6 985 18 2293 49 3491 4 2450 5371 1441 1444 8 5352 3 4753 10148 48 2 1440 1480 3 3 6338 23 6 14 2403 4 1001 1988 5 15 5 6 5 1982 9 4781 1031 9 2879 5 2920 9 6 2879 18 18 8 8 5 2596 5 5 8 21 905 4361 4 1481 990 29 1445 9 1439 1446 1478 9 10 8 10 7 7 725 4 7376 995 4 6 3 3 15 9 1012 9 7 5 8369 3 5 4 1765 5 1920 2879 12645 3 6 6566 8 1448 2966 965 24 1938 967 9 7 9 6595 2994 489 6 2224 6 17 6748 23 963 17667 1111 38 4354 1538 8 3 1222 3 5 5 10 6853 7 8 74 3 2665 6 5 190 4129 3 1476 6 1476 156 8 8 5 962 7 1894 1003 1 1922 5 3 5 4 5 3 3 986 2 6027 1802 3915 1000 2 10 9 22 3 7 4 6 1014 5 8380 4 5 966 4 7 1684 7 3 4 499 2 5 5 4524 6438 996 5 6 999 20 3029 6 9366 6 8 3 68 6 0 165 7 1477 8 2322 4 3 2399 8 4 6 1923 1801 977 19 650 971 3 1733 7 8 400 6454 3083 5 7 4 4815 4 1796 5 1934 2475 7 26 5 13 3 6 6 522 7 6 2 5 7 2359 10 4 519 392 6 9 998 4 1441 72 761 3 816 4 7919 6 6 5 6 5 312 5 7 1478 5 23 987 6 8 4 3357 1508 8 19 9 9867 31 5 1447 12 19 8 4 4 8969 1007 6 1930 4074 1138 4 8 6 1480 7 2 2 6 9 5 5 11 7 7 2988 9 3353 5 5 8 15 3 6 26 6 3 37 4056 8 3 5053 1792 99 64 801 9 7 3455 6 989 2046 7 7 4 3 731 6 966 4792 1918 46 11 1934 6 999 1514 14 5 5 1170 7 486 3878 2008 6 968 4846 2845 3 3358 22 770 11 996 8 1444 23 246 15 7 3873 5 7194 7 5 6 1966 8296 14 3357 6 486 7339 5 5 1030 39 575 45 5 3 5 3 464 2452 6 1015 5 4 7 2662 6 483 7 5 10 4 5 35 10 3451 12 2399 2963 5 1941 7 5296 5 7 5 5 9 4 14 6 1920 6 7 6 2898 4 7447 366 3144 6 976 6 4 13 1565 8 3549 5 
To predecode: 0
Predecoding something: 0
Predecode request dropped: 0
sizeofblock_0 0
sizeofblock_1 228515
sizeofblock_2 355029
sizeofblock_3 0
sizeofblock_4 0
sizeofblock_5 0
sizeofblock_6 0
sizeofblock_7 0
sizeofblock_8 0
Variant_0 Correct: 0 Incorrect: 0 Accuracy: -nan
Variant_1 Correct: 0 Incorrect: 0 Accuracy: -nan
Variant_2 Correct: 0 Incorrect: 0 Accuracy: -nan
Variant_3 Correct: 0 Incorrect: 0 Accuracy: -nan
