
*** ChampSim Multicore Out-of-Order Simulator ***

Warmup Instructions: 50000000
Simulation Instructions: 50000000
Number of CPUs: 1
LLC sets: 2048
LLC ways: 16
Off-chip DRAM Size: 4096 MB Channels: 1 Width: 64-bit Data Rate: 6400 MT/s
CPU 0 runs ./micro_traces/srv173.trace.gz
.gz
ITLB has LRU replacement policy
DTLB has LRU replacement policy
STLB has LRU replacement policy
FDIP Prefetcher at L1I
L1I has LRU replacement policy
L1D has LRU replacement policy
Initialize SRRIP state for L2C
Initialize DRRIP state for LLC
Heartbeat CPU 0 instructions: 10000001 cycles: 2799316 heartbeat IPC: 3.5723 cumulative IPC: 3.5723 (Simulation time: 0 hr 1 min 41 sec) 
Heartbeat CPU 0 instructions: 20000001 cycles: 5598301 heartbeat IPC: 3.57272 cumulative IPC: 3.57251 (Simulation time: 0 hr 3 min 15 sec) 
Heartbeat CPU 0 instructions: 30000002 cycles: 8395560 heartbeat IPC: 3.57493 cumulative IPC: 3.57332 (Simulation time: 0 hr 4 min 56 sec) 
Heartbeat CPU 0 instructions: 40000002 cycles: 11194088 heartbeat IPC: 3.57331 cumulative IPC: 3.57331 (Simulation time: 0 hr 6 min 38 sec) 
Heartbeat CPU 0 instructions: 50000002 cycles: 13991632 heartbeat IPC: 3.57456 cumulative IPC: 3.57356 (Simulation time: 0 hr 8 min 16 sec) 

Warmup complete CPU 0 instructions: 50000002 cycles: 13991632 (Simulation time: 0 hr 8 min 16 sec) 

Cycle: 20000000 FTQ IN: 54949516 FTQ occupancy: 15.4625 DECODE IN: 54949516 DECODE occupancy: 9.35502 ROB IN: 54949516 ROB occupancy: 257.723 ROB OUT: 54949498
Heartbeat CPU 0 instructions: 60000001 cycles: 26065475 heartbeat IPC: 0.828237 cumulative IPC: 0.828237 (Simulation time: 0 hr 9 min 56 sec) 
Cycle: 30000000 FTQ IN: 8214771 FTQ occupancy: 13.5305 DECODE IN: 8214758 DECODE occupancy: 4.43563 ROB IN: 8214746 ROB occupancy: 49.3709 ROB OUT: 8214711
Heartbeat CPU 0 instructions: 70000000 cycles: 38324690 heartbeat IPC: 0.815713 cumulative IPC: 0.821927 (Simulation time: 0 hr 11 min 31 sec) 
Cycle: 40000000 FTQ IN: 8220386 FTQ occupancy: 13.4662 DECODE IN: 8220386 DECODE occupancy: 4.39967 ROB IN: 8220389 ROB occupancy: 47.8209 ROB OUT: 8220439
Cycle: 50000000 FTQ IN: 8287512 FTQ occupancy: 13.4935 DECODE IN: 8287521 DECODE occupancy: 4.42632 ROB IN: 8287530 ROB occupancy: 48.3527 ROB OUT: 8287521
Heartbeat CPU 0 instructions: 80000003 cycles: 50391014 heartbeat IPC: 0.828753 cumulative IPC: 0.82419 (Simulation time: 0 hr 12 min 59 sec) 
Cycle: 60000000 FTQ IN: 8188194 FTQ occupancy: 13.5327 DECODE IN: 8188180 DECODE occupancy: 4.43223 ROB IN: 8188168 ROB occupancy: 50.1421 ROB OUT: 8188127
Heartbeat CPU 0 instructions: 90000000 cycles: 62575467 heartbeat IPC: 0.820718 cumulative IPC: 0.823319 (Simulation time: 0 hr 14 min 42 sec) 
Cycle: 70000000 FTQ IN: 8303683 FTQ occupancy: 13.467 DECODE IN: 8303684 DECODE occupancy: 4.42811 ROB IN: 8303684 ROB occupancy: 48.8268 ROB OUT: 8303707
Heartbeat CPU 0 instructions: 100000003 cycles: 74623128 heartbeat IPC: 0.830037 cumulative IPC: 0.824654 (Simulation time: 0 hr 16 min 44 sec) 
Finished CPU 0 instructions: 50000001 cycles: 60631496 cumulative IPC: 0.824654 (Simulation time: 0 hr 16 min 44 sec) 

ChampSim completed all CPUs

Region of Interest Statistics

CPU 0 cumulative IPC: 0.824654 instructions: 50000001 cycles: 60631496
 Fetch stage stalled: 35.7514  Sim cycles: 60631496 fetch stall cycle: 21676619
 Empty decode stage: 68.0864  Sim cycles: 60631496 fetch stall cycle: 41281789
ITLB TOTAL     ACCESS:    7209049  HIT:    6711700  MISS:     497349  HIT %:     93.101  MISS %:    6.89895   MPKI: 9.94698
ITLB LOAD TRANSLATION INSTRUCTION	ACCESS:    7209049  HIT:    6711700  MISS:     497349  HIT %:     93.101  MISS %:    6.89895  MPKI: 9.94698

ITLB AVERAGE MISS LATENCY: 9.05854 cycles
ITLB RQ	ACCESS:    8295492	FORWARD:          0	MERGED:     880517	TO_CACHE:    7414975

DTLB TOTAL     ACCESS:   10421040  HIT:    9947632  MISS:     473408  HIT %:    95.4572  MISS %:    4.54281   MPKI: 9.46816
DTLB LOAD TRANSLATION DATA	ACCESS:   10421040  HIT:    9947632  MISS:     473408  HIT %:    95.4572  MISS %:    4.54281  MPKI: 9.46816

DTLB AVERAGE MISS LATENCY: 9.31058 cycles
DTLB RQ	ACCESS:   14528504	FORWARD:          0	MERGED:    4079065	TO_CACHE:   10449439

STLB TOTAL     ACCESS:    1224406  HIT:    1222152  MISS:       2254  HIT %:    99.8159  MISS %:   0.184089   MPKI: 0.04508
STLB LOAD TRANSLATION INSTRUCTION	ACCESS:     497349  HIT:     496970  MISS:        379  HIT %:    99.9238  MISS %:   0.076204  MPKI: 0.00758
STLB LOAD TRANSLATION DATA	ACCESS:     473397  HIT:     471542  MISS:       1855  HIT %:    99.6082  MISS %:   0.391849  MPKI: 0.0371
STLB TRANSLATION FROM L1D PREFETCHER DATA	ACCESS:     253660  HIT:     253640  MISS:         20  HIT %:    99.9921  MISS %: 0.00788457  MPKI: 0.0004

STLB AVERAGE MISS LATENCY: 69.3807 cycles
STLB RQ	ACCESS:    1336153	FORWARD:          0	MERGED:     111699	TO_CACHE:    1224454

STLB Hit, L1D data hit: 0
STLB Hit, L2C data hit: 0
STLB Hit, LLC data hit: 0
STLB Hit, LLC data miss: 0
STLB STLB hints to L2: 0
L1D TOTAL     ACCESS:   14320771  HIT:   13204053  MISS:    1116718  HIT %:    92.2021  MISS %:    7.79789   MPKI: 22.3344
L1D LOAD DATA	ACCESS:    7658236  HIT:    6921322  MISS:     736914  HIT %:    90.3775  MISS %:     9.6225  MPKI: 14.7383
L1D RFO DATA	ACCESS:    6334510  HIT:    6046731  MISS:     287779  HIT %:     95.457  MISS %:    4.54303  MPKI: 5.75558
L1D PREFETCH DATA	ACCESS:     328025  HIT:     236000  MISS:      92025  HIT %:    71.9457  MISS %:    28.0543  MPKI: 1.8405

L1D PREFETCH  REQUESTED:     730861  ISSUED:     730861  USEFUL:      33981  USELESS:      66239
L1D USEFUL LOAD PREFETCHES:      33981 PREFETCH ISSUED TO LOWER LEVEL:     100316  ACCURACY: 33.874
 TIMELY PREFETCHES:      33981 LATE PREFETCHES: 8192 DROPPED PREFETCHES: 9
L1D AVERAGE MISS LATENCY: 326530 cycles
L1D RQ	ACCESS:   11453871	FORWARD:          0	MERGED:    3606858	TO_CACHE:    7690060
L1D WQ	ACCESS:    6957886	FORWARD:     157024	MERGED:     119442	TO_CACHE:    6838444
L1D PQ	ACCESS:     365466	FORWARD:          0	MERGED:          0	TO_CACHE:     365395

L1D UNIQUE REGIONS ACCESSED: 0
L1D REGIONS CONFLICTS: 0
L1D Cross Page Prefetch Requests: 5783
L1D Same Page Prefetch Requests: 737964
L1D ROI Sum of L1D PQ occupancy: 4649220
L1D PREFETCHES PUSHED FROM L2C: 0
L1I TOTAL     ACCESS:    7889746  HIT:    5113429  MISS:    2776317  HIT %:    64.8111  MISS %:    35.1889   MPKI: 55.5263
L1I LOAD INSTRUCTION	ACCESS:    7889746  HIT:    5113429  MISS:    2776317  HIT %:    64.8111  MISS %:    35.1889  MPKI: 55.5263

L1I AVERAGE MISS LATENCY: 16.9831 cycles
L1I RQ	ACCESS:   15502004	FORWARD:          0	MERGED:    7206512	TO_CACHE:    8295492

L1BTB TOTAL     ACCESS:    5673750  HIT:    2032614  MISS:    3641136  HIT %:    35.8249  MISS %:    64.1751   MPKI: 72.8227
L1BTB BRANCH_DIRECT_JUMP	ACCESS:     548578 HIT:     144035 MISS:     404543 AVERAGE STALL: 25.9108 AVERAGE FETCH STALL: 17.3656 AVERAGE FETCH QUEUE STALL: 2.65143 AVERAGE DECODE STALL: 4.89379 AVERAGE EXECUTE STALL: 3.51173e+14
L1BTB BRANCH_INDIRECT	ACCESS:     183033 HIT:      65892 MISS:     117141 AVERAGE STALL: 52.1491 AVERAGE FETCH STALL: 12.2054 AVERAGE FETCH QUEUE STALL: 3.29005 AVERAGE DECODE STALL: 4.08006 AVERAGE EXECUTE STALL: 31.5737
L1BTB BRANCH_CONDITIONAL	ACCESS:    2703463 HIT:    1406972 MISS:    1296491 AVERAGE STALL: 26.7034 AVERAGE FETCH STALL: 17.9476 AVERAGE FETCH QUEUE STALL: 3.42487 AVERAGE DECODE STALL: 4.32959 AVERAGE EXECUTE STALL: 1.30116e+14
L1BTB BRANCH_DIRECT_CALL	ACCESS:     947459 HIT:     105091 MISS:     842368 AVERAGE STALL: 27.1948 AVERAGE FETCH STALL: 17.9575 AVERAGE FETCH QUEUE STALL: 3.48677 AVERAGE DECODE STALL: 4.75051 AVERAGE EXECUTE STALL: 1.59223e+14
L1BTB BRANCH_INDIRECT_CALL	ACCESS:     171879 HIT:      20863 MISS:     151016 AVERAGE STALL: 70.6204 AVERAGE FETCH STALL: 13.7849 AVERAGE FETCH QUEUE STALL: 3.33358 AVERAGE DECODE STALL: 4.70928 AVERAGE EXECUTE STALL: 47.7926
L1BTB BRANCH_RETURN	ACCESS:    1119338 HIT:     289761 MISS:     829577 AVERAGE STALL: 29.2639 AVERAGE FETCH STALL: 16.1212 AVERAGE FETCH QUEUE STALL: 3.31754 AVERAGE DECODE STALL: 4.50344 AVERAGE EXECUTE STALL: 1.81354e+14
L1BTB BRANCH_OTHER ACCESS:          0 HIT:          0 MISS:          0 AVERAGE STALL: -nan AVERAGE FETCH STALL: -nan AVERAGE FETCH QUEUE STALL: -nan AVERAGE DECODE STALL: -nan AVERAGE EXECUTE STALL: -nan
L1BTB TOTAL ROB OCCUPANCY AT BTB MISS: 4.57144

L2BTB TOTAL     ACCESS:    3615752  HIT:    3182041  MISS:     433711  HIT %:     88.005  MISS %:     11.995   MPKI: 8.67422
L2BTB BRANCH_DIRECT_JUMP	ACCESS:     400423 HIT:     351986 MISS:      48437 AVERAGE STALL: 25.9108 AVERAGE FETCH STALL: 17.3656 AVERAGE FETCH QUEUE STALL: 2.65143 AVERAGE DECODE STALL: 4.89379 AVERAGE EXECUTE STALL: 3.51173e+14
L2BTB BRANCH_INDIRECT	ACCESS:     106815 HIT:     101777 MISS:       5038 AVERAGE STALL: 52.1491 AVERAGE FETCH STALL: 12.2054 AVERAGE FETCH QUEUE STALL: 3.29005 AVERAGE DECODE STALL: 4.08006 AVERAGE EXECUTE STALL: 31.5737
L2BTB BRANCH_CONDITIONAL	ACCESS:    1296491 HIT:    1153886 MISS:     142605 AVERAGE STALL: 26.7034 AVERAGE FETCH STALL: 17.9476 AVERAGE FETCH QUEUE STALL: 3.42487 AVERAGE DECODE STALL: 4.32959 AVERAGE EXECUTE STALL: 1.30116e+14
L2BTB BRANCH_DIRECT_CALL	ACCESS:     842368 HIT:     726453 MISS:     115915 AVERAGE STALL: 27.1948 AVERAGE FETCH STALL: 17.9575 AVERAGE FETCH QUEUE STALL: 3.48677 AVERAGE DECODE STALL: 4.75051 AVERAGE EXECUTE STALL: 1.59223e+14
L2BTB BRANCH_INDIRECT_CALL	ACCESS:     141501 HIT:     120122 MISS:      21379 AVERAGE STALL: 70.6204 AVERAGE FETCH STALL: 13.7849 AVERAGE FETCH QUEUE STALL: 3.33358 AVERAGE DECODE STALL: 4.70928 AVERAGE EXECUTE STALL: 47.7926
L2BTB BRANCH_RETURN	ACCESS:     828154 HIT:     727817 MISS:     100337 AVERAGE STALL: 29.2639 AVERAGE FETCH STALL: 16.1212 AVERAGE FETCH QUEUE STALL: 3.31754 AVERAGE DECODE STALL: 4.50344 AVERAGE EXECUTE STALL: 1.81354e+14
L2BTB BRANCH_OTHER ACCESS:          0 HIT:          0 MISS:          0 AVERAGE STALL: -nan AVERAGE FETCH STALL: -nan AVERAGE FETCH QUEUE STALL: -nan AVERAGE DECODE STALL: -nan AVERAGE EXECUTE STALL: -nan
L2BTB TOTAL ROB OCCUPANCY AT BTB MISS: 38.3786

L2C TOTAL     ACCESS:    4505976  HIT:    4029059  MISS:     476917  HIT %:    89.4159  MISS %:    10.5841   MPKI: 9.53834
L2C LOAD INSTRUCTION	ACCESS:    2776317  HIT:    2518485  MISS:     257832  HIT %:    90.7132  MISS %:    9.28684  MPKI: 5.15664
L2C LOAD TRANSLATION INSTRUCTION	ACCESS:        423  HIT:        125  MISS:        298  HIT %:    29.5508  MISS %:    70.4492  MPKI: 0.00596
L2C LOAD DATA	ACCESS:     728713  HIT:     650716  MISS:      77997  HIT %:    89.2966  MISS %:    10.7034  MPKI: 1.55994
L2C RFO DATA	ACCESS:     287669  HIT:     236593  MISS:      51076  HIT %:    82.2449  MISS %:    17.7551  MPKI: 1.02152
L2C PREFETCH DATA	ACCESS:     184472  HIT:     110832  MISS:      73640  HIT %:    60.0807  MISS %:    39.9193  MPKI: 1.4728
L2C WRITEBACK DATA	ACCESS:     526404  HIT:     511721  MISS:      14683  HIT %:    97.2107  MISS %:     2.7893  MPKI: 0.29366
L2C LOAD TRANSLATION DATA	ACCESS:       1938  HIT:        559  MISS:       1379  HIT %:    28.8442  MISS %:    71.1558  MPKI: 0.02758
L2C TRANSLATION FROM L1D PREFETCHER DATA	ACCESS:         40  HIT:         28  MISS:         12  HIT %:         70  MISS %:         30  MPKI: 0.00024

L2C PREFETCH  REQUESTED:      93249  ISSUED:      93249  USEFUL:       8683  USELESS:      66465
L2C USEFUL LOAD PREFETCHES:       8683 PREFETCH ISSUED TO LOWER LEVEL:      75044  ACCURACY: 11.5705
 TIMELY PREFETCHES:       8683 LATE PREFETCHES: 1404 DROPPED PREFETCHES: 0
L2C AVERAGE MISS LATENCY: 38.068 cycles
L2C RQ	ACCESS:    3795121	FORWARD:          0	MERGED:          0	TO_CACHE:    3795101
L2C WQ	ACCESS:     526404	FORWARD:         21	MERGED:          0	TO_CACHE:     526404
L2C PQ	ACCESS:     193565	FORWARD:          0	MERGED:       3942	TO_CACHE:     189622

L2C Dense regions hint from L2: 0
PSCL5 TOTAL     ACCESS:       4528  HIT:       2264  MISS:       2264  HIT %:         50  MISS %:         50   MPKI: 0.04528
PSCL5 LOAD TRANSLATION INSTRUCTION	ACCESS:       4448  HIT:       2224  MISS:       2224  HIT %:         50  MISS %:         50  MPKI: 0.04448
PSCL5 TRANSLATION FROM L1D PREFETCHER INSTRUCTION	ACCESS:         80  HIT:         40  MISS:         40  HIT %:         50  MISS %:         50  MPKI: 0.0008


PSCL4 TOTAL     ACCESS:       3548  HIT:       1770  MISS:       1778  HIT %:    49.8873  MISS %:    50.1127   MPKI: 0.03556
PSCL4 LOAD TRANSLATION INSTRUCTION	ACCESS:       2067  HIT:       1744  MISS:        323  HIT %:    84.3735  MISS %:    15.6265  MPKI: 0.00646
PSCL4 TRANSLATION FROM L1D PREFETCHER INSTRUCTION	ACCESS:         26  HIT:         26  MISS:          0  HIT %:        100  MISS %:          0  MPKI: 0
PSCL4 LOAD TRANSLATION DATA	ACCESS:       1429  HIT:          0  MISS:       1429  HIT %:          0  MISS %:        100  MPKI: 0.02858
PSCL4 TRANSLATION FROM L1D PREFETCHER DATA	ACCESS:         26  HIT:          0  MISS:         26  HIT %:          0  MISS %:        100  MPKI: 0.00052


PSCL3 TOTAL     ACCESS:       4215  HIT:       2099  MISS:       2116  HIT %:    49.7983  MISS %:    50.2017   MPKI: 0.04232
PSCL3 LOAD TRANSLATION INSTRUCTION	ACCESS:       3004  HIT:       2071  MISS:        933  HIT %:    68.9414  MISS %:    31.0586  MPKI: 0.01866
PSCL3 TRANSLATION FROM L1D PREFETCHER INSTRUCTION	ACCESS:         40  HIT:         28  MISS:         12  HIT %:         70  MISS %:         30  MPKI: 0.00024
PSCL3 LOAD TRANSLATION DATA	ACCESS:       1155  HIT:          0  MISS:       1155  HIT %:          0  MISS %:        100  MPKI: 0.0231
PSCL3 TRANSLATION FROM L1D PREFETCHER DATA	ACCESS:         16  HIT:          0  MISS:         16  HIT %:          0  MISS %:        100  MPKI: 0.00032


PSCL2 TOTAL     ACCESS:       4412  HIT:       2148  MISS:       2264  HIT %:    48.6854  MISS %:    51.3146   MPKI: 0.04528
PSCL2 LOAD TRANSLATION INSTRUCTION	ACCESS:       2487  HIT:       2108  MISS:        379  HIT %:    84.7608  MISS %:    15.2392  MPKI: 0.00758
PSCL2 TRANSLATION FROM L1D PREFETCHER INSTRUCTION	ACCESS:         40  HIT:         40  MISS:          0  HIT %:        100  MISS %:          0  MPKI: 0
PSCL2 LOAD TRANSLATION DATA	ACCESS:       1845  HIT:          0  MISS:       1845  HIT %:          0  MISS %:        100  MPKI: 0.0369
PSCL2 TRANSLATION FROM L1D PREFETCHER DATA	ACCESS:         40  HIT:          0  MISS:         40  HIT %:          0  MISS %:        100  MPKI: 0.0008


LLC TOTAL     ACCESS:     535555  HIT:     507768  MISS:      27787  HIT %:    94.8116  MISS %:    5.18845   MPKI: 0.55574
LLC LOAD INSTRUCTION	ACCESS:     257832  HIT:     256852  MISS:        980  HIT %:    99.6199  MISS %:   0.380092  MPKI: 0.0196
LLC LOAD TRANSLATION INSTRUCTION	ACCESS:        298  HIT:        265  MISS:         33  HIT %:    88.9262  MISS %:    11.0738  MPKI: 0.00066
LLC LOAD DATA	ACCESS:      76618  HIT:      73143  MISS:       3475  HIT %:    95.4645  MISS %:    4.53549  MPKI: 0.0695
LLC RFO DATA	ACCESS:      51049  HIT:      37885  MISS:      13164  HIT %:     74.213  MISS %:     25.787  MPKI: 0.26328
LLC PREFETCH DATA	ACCESS:      75044  HIT:      65327  MISS:       9717  HIT %:    87.0516  MISS %:    12.9484  MPKI: 0.19434
LLC WRITEBACK DATA	ACCESS:      73323  HIT:      72990  MISS:        333  HIT %:    99.5458  MISS %:   0.454155  MPKI: 0.00666
LLC LOAD TRANSLATION DATA	ACCESS:       1379  HIT:       1296  MISS:         83  HIT %:    93.9811  MISS %:    6.01885  MPKI: 0.00166
LLC TRANSLATION FROM L1D PREFETCHER DATA	ACCESS:         12  HIT:         10  MISS:          2  HIT %:    83.3333  MISS %:    16.6667  MPKI: 4e-05

LLC AVERAGE MISS LATENCY: 152.882 cycles
LLC RQ	ACCESS:     387190	FORWARD:          0	MERGED:          0	TO_CACHE:     387188
LLC WQ	ACCESS:      73323	FORWARD:          2	MERGED:          0	TO_CACHE:      73323
LLC PQ	ACCESS:      75044	FORWARD:          0	MERGED:          0	TO_CACHE:      75044

LLC Dense regions hint to LLC: 0

RAW hits: 1185293
Loads Generated: 12639164
Loads sent to L1D: 11453871
Stores Generated: 6957855
Stores sent to L1D: 6957886
Major fault: 0 Minor fault: 2551
Allocated PAGES: 2551

stream: 
stream:times selected: 1165349
stream:pref_filled: 118750
stream:pref_useful: 24163
stream:pref_late: 6787
stream:misses: 5858
stream:misses_by_poll: 0

CS: 
CS:times selected: 175076
CS:pref_filled: 57953
CS:pref_useful: 33609
CS:pref_late: 7491
CS:misses: 16770
CS:misses_by_poll: 2

CPLX: 
CPLX:times selected: 989062
CPLX:pref_filled: 20345
CPLX:pref_useful: 4482
CPLX:pref_late: 3455
CPLX:misses: 88084
CPLX:misses_by_poll: 0

NL_L1: 
NL:times selected: 18231
NL:pref_filled: 438
NL:pref_useful: 214
NL:pref_late: 191
NL:misses: 729
NL:misses_by_poll: 0

total selections: 2347718
total_filled: 92025
total_useful: 33981
total_late: 19345
total_polluted: 2
total_misses_after_warmup: 768741
conflicts: 6050784

test: 111935

DRAM Statistics
 CHANNEL 0
 RQ ROW_BUFFER_HIT:      10230  ROW_BUFFER_MISS:      17212
 DBUS_CONGESTED:         15
 WQ ROW_BUFFER_HIT:       1265  ROW_BUFFER_MISS:      11765  FULL:          0

 AVG_CONGESTED_CYCLE: 5

CPU 0 Branch Prediction Accuracy: 99.8156% MPKI: 0.33736 Average ROB Occupancy at Mispredict: 69.4086
Branch types
NOT_BRANCH: 40852141 81.7043%
BRANCH_DIRECT_JUMP: 548578 1.09716%
BRANCH_INDIRECT: 183033 0.366066%
BRANCH_CONDITIONAL: 6177360 12.3547%
BRANCH_DIRECT_CALL: 947459 1.89492%
BRANCH_INDIRECT_CALL: 171879 0.343758%
BRANCH_RETURN: 1119338 2.23868%
BRANCH_OTHER: 0 0%

DRAM PAGES: 1048576
Allocated PAGES: 2551
Average_ROB_Occupancy: 49.4878
Average_Decode_Occupancy: 4.42005
Average_FTQ_Occupancy: 13.487
Indirect max targets: 14 Average targets: 1.16722
Branch_type:  BRANCH_DIRECT_JUMP:  Count Percentage: 3.77654 5.38057 4.32716 7.55674 3.1034 6.02625 1.21563 68.6137 
Branch_type:  BRANCH_INDIRECT:  Count Percentage: 6.07027 3.42292 8.1471 9.67635 3.35129 2.81849 0.937947 65.5756 
Branch_type:  BRANCH_CONDITIONAL:  Count Percentage: 21.5961 3.13403 1.63861 6.79326 3.09943 3.63091 1.3509 58.7568 
Branch_type:  BRANCH_DIRECT_CALL:  Count Percentage: 0.387647 1.80701 0.723545 3.57638 3.37181 2.80784 2.1756 85.1502 
Branch_type:  BRANCH_INDIRECT_CALL:  Count Percentage: 9.58753 0 3.00874 0.00378092 0 2.24732 0.997871 84.1548 
Branch_type:  BRANCH_RETURN:  Count Percentage: 3.94705 5.42806 1.0226 4.37494 3.68365 3.79994 2.17476 75.569 
Branch_type:  BRANCH_DIRECT_JUMP:  Total Count: 41393 58974 47428 82826 34015 66051 13324 752044 
Branch_type:  BRANCH_INDIRECT:  Total Count: 22205 12521 29802 35396 12259 10310 3431 239875 
Branch_type:  BRANCH_CONDITIONAL:  Total Count: 2666596 386977 202329 838803 382704 448330 166804 7255037 
Branch_type:  BRANCH_DIRECT_CALL:  Total Count: 7341 34220 13702 67727 63853 53173 41200 1612516 
Branch_type:  BRANCH_INDIRECT_CALL:  Total Count: 32965 0 10345 13 0 7727 3431 289351 
Branch_type:  BRANCH_RETURN:  Total Count: 88351 121502 22890 97929 82455 85058 48680 1691541 
Number of unique branch instructions: 10428
Upper 32 bits: 
aaaa
ffff
ffff0000
Unique upper 32 bits: 3
Unique upper 36 bits: 3
Unique upper 40 bits: 5
Unique upper 44 bits: 32
Unique upper 48 bits: 155
Offset_3 4320
Offset_4 261
Offset_5 479
Offset_6 528
Offset_7 627
Offset_8 530
Offset_9 493
Offset_10 406
Offset_11 338
Offset_12 307
Offset_13 224
Offset_14 246
Offset_15 190
Offset_16 231
Offset_17 158
Offset_18 129
Offset_19 249
Offset_20 143
Offset_21 249
Offset_22 413
Offset_23 242
Offset_24 345
Offset_25 100
Offset_47 87
Offset_64 1
decode_dispatch_called: 29717170 49.0128
Dispatch_width: 0 17607589 59.2506 29.0403
Dispatch_width: 1 2147644 7.22695 3.54213
Dispatch_width: 2 1260139 4.24044 2.07836
Dispatch_width: 3 1126107 3.78942 1.8573
Dispatch_width: 4 1150197 3.87048 1.89703
Dispatch_width: 5 1200195 4.03873 1.97949
Dispatch_width: 6 5225299 17.5834 8.61813
Empty_decode_cycles: 30914326 50.9872
ROB_full_cycles: 464008 0.765292
Starvation_cycles_per_kilo_instr: 549.422
Starvation_cycles_per_kilo_instr_3: 525.918
Starvation_cycles_per_kilo_instr_0: 480.579
Branch_type_1  (3,1)  (4,9)  (5,38)  (6,73)  (7,124)  (8,133)  (9,128)  (10,104)  (11,74)  (12,51)  (13,9)  (14,2)  (15,3)  (16,4)  (18,1)  (19,4)  (20,2)  (21,1)  (22,3)  (23,2)  (24,10)  (25,13) 
Branch_type_2  (3,1)  (4,1)  (5,1)  (8,3)  (9,3)  (12,1)  (13,1)  (14,1)  (16,3)  (17,2)  (20,2)  (21,2)  (23,5)  (24,1)  (47,40) 
Branch_type_3  (3,4318)  (4,251)  (5,436)  (6,439)  (7,474)  (8,331)  (9,270)  (10,164)  (11,138)  (12,58)  (13,8)  (64,1) 
Branch_type_4  (6,3)  (7,8)  (8,24)  (9,54)  (10,65)  (11,63)  (12,109)  (13,96)  (14,111)  (15,90)  (16,103)  (17,74)  (18,60)  (19,123)  (20,74)  (21,135)  (22,221)  (23,137)  (24,200)  (25,83) 
Branch_type_5  (8,2)  (9,1)  (10,4)  (11,6)  (12,3)  (13,14)  (14,16)  (15,11)  (16,20)  (17,11)  (18,16)  (19,12)  (20,11)  (21,13)  (22,42)  (23,26)  (24,37) 
Branch_type_6  (5,4)  (6,13)  (7,21)  (8,37)  (9,37)  (10,69)  (11,57)  (12,85)  (13,96)  (14,116)  (15,86)  (16,101)  (17,71)  (18,52)  (19,110)  (20,54)  (21,98)  (22,147)  (23,72)  (24,97)  (25,4)  (47,47) 
aaaaab1fc620: 2ac9e77e 2aca25ac 2aca717c 2aca8eff 2acaf6bc 2acaf9aa 2acaf9f1 2acb1abc 2acb1b7f 2acd4e22 2acdb712 2acf2c20 2acf5f9e 2ad0ef44 2ad3f15c 2ad414e6 2ad60e42 2ad8609c 2ad99830 2ada35cc 2ada4676 2ada6612 2adf183e 2adf30e5 2adf5602 2adf785c 2ae11572 2aeb2dcf 2aee101b 2aee1ae1 2b156a8c 2b156b61 2b156bea 2b167f35 2b177656 2b17feec 2b1a3e5a 
aaaaab1fcb00: 2acf2d72 2acf3277 2acf32fe 2acf3734 2acf604c 2acfa5b7 2ad397b5 2ad3b800 2ae8af7d 2ae8aff0 2ae9aaba 2aea9fc6 2aeaa358 2aee910b 2aee91cf 2af6fe87 2af70dfe 2b16850c 2b178094 2b17ec8f 
aaaaab1fcb10: 2acf2d95 2acf32a8 2acf331b 2acf3758 2acf6052 2acfa5f4 2ad397c3 2ad3b81c 2ae8af88 2ae8affe 2ae9aacf 2aeaa017 2aeaa36d 2aee9114 2aee91d8 2af6fe8c 2af70e22 2b168526 2b1780a3 2b17ecac 
aaaaac68f310: 2ac9ec8c 2ac9fb44 2ac9fbd2 2aca29c5 2aca59ab 2acac04c 2acaf6e0 2acaf6ec 2acaf6f9 2acaf700 2acaf708 2acf2d90 2acf3361 2acf338f 2acf3396 2ad3cfbd 2ad3cfc4 2ad3d000 2ad3f35f 2ad3f39d 2ad3f3da 2ad41585 2ad4955d 2ad49571 2ad4f3f2 2ad4f400 2ad5f240 2ad5f37c 2ad5f86a 2ad5f86f 2ad5f880 2ad5fc0d 2ad5fc14 2ad5fc21 2ad5fe1b 2ad873bb 2ad873e3 2ad8a6b2 2ad9086e 2ad93096 2ad9bbb2 2ada152c 2ada1554 2ada3332 2ada5522 2adf3130 2adf313c 2adf3a3f 2adf3bd9 2adf5788 2adf7a8d 2ae07f6b 2ae0857a 2ae0857e 2ae08630 2ae08634 2ae08637 2ae08642 2ae0866f 2ae086e4 2ae086ec 2ae08717 2ae0871b 2aee0170 2aee1d38 2aee75f4 2aee7662 2aee85ca 2aee85e4 2aee8eef 2af70b84 2af74e8f 2b17d843 
aaaaac690ef0: 2aca298e 2aca598b 2acb111b 2acb175f 2acb1772 2acbfaf4 2acbfb00 2acf374f 2acf6d43 2acfa5c8 2ad3baf1 2ad3d4ac 2ad3d4b8 2ad3f1cf 2ad486b2 2ad5a59b 2ad5fc64 2ad5fcf9 2ad6121c 2ad906e9 2ad907bf 2ad9bada 2ada16ce 2ada1ad5 2ada43df 2ada64c0 2ada72ee 2adeb71a 2adf3bcb 2adf7a38 2adf7c6a 2adf8872 2adf8880 2adf9959 2adf9abe 2ae07f78 2ae08503 2ae08754 2ae12e80 2aea3bea 2aecb509 2aee00b0 2aee2bdd 2aee5467 2aee5601 2aee8f20 2af703fd 2af7048b 2af74e74 2dfba627 
Unique trigger count: 
1 9927
2 558
3 92
4 32
5 12
6 7
7 9
8 1
9 2
10 2
11 2
12 1
13 3
14 1
16 2
19 3
20 2
37 1
50 1
73 1
BTB PER SET UNIQUE ADDR: 4 4 3 3 1 0 3 2 4 0 2 0 5 4 1 3 3 2 5 5 3 4 3 3 4 5 1 4 3 2 6 6 4 4 5 2 1 6 5 3 4 4 3 7 6 3 4 3 6 3 3 2 4 2 0 4 4 3 3 3 1 4 2 3 1 4 6 2 3 5 5 1 1 4 2 3 3 7 2 3 2 2 1 4 3 3 2 5 3 4 6 5 4 6 3 0 3 5 2 3 5 3 3 3 4 2 1 2 4 2 2 3 3 7 2 6 2 5 4 1 5 4 2 0 1 2 3 1 6 6 5 2 4 3 5 3 2 1 4 3 5 3 3 2 3 4 2 5 4 4 3 9 4 5 3 1 3 4 3 2 5 5 4 4 6 4 2 2 9 1 4 2 4 2 1 2 3 6 5 2 3 4 6 3 5 6 4 1 2 3 6 3 3 4 5 4 3 3 3 6 3 2 4 1 3 3 2 5 3 1 4 4 5 4 3 2 3 5 4 0 1 2 2 4 3 2 3 3 0 4 8 4 3 3 3 3 3 2 1 3 1 0 7 4 10 8 1 1 4 3 3 2 1 4 3 7 3 5 4 3 4 4 4 2 3 7 3 1 4 2 3 2 3 3 3 2 1 1 3 3 4 2 5 2 5 5 3 3 1 1 0 3 1 5 1 1 4 3 2 2 3 3 1 2 3 2 4 2 6 5 3 1 3 2 5 2 6 6 2 1 3 7 3 5 2 2 1 6 1 0 4 1 2 5 5 1 3 4 5 0 4 0 1 4 4 3 1 3 4 3 3 7 5 3 5 3 2 0 4 1 2 5 2 4 7 5 1 1 2 1 3 2 2 4 4 4 3 3 3 4 5 3 1 5 3 2 5 2 5 2 5 4 4 2 3 1 5 0 1 3 5 2 3 2 3 4 3 2 1 1 1 2 4 4 2 3 7 3 1 3 1 1 3 4 4 5 2 0 2 4 1 2 8 4 5 5 4 3 3 0 3 4 5 3 5 6 2 3 3 2 5 3 2 3 5 1 1 4 7 3 3 3 5 6 1 3 6 2 2 3 0 4 5 2 2 1 4 5 3 1 2 1 2 2 0 5 3 0 6 1 5 2 3 4 0 5 4 3 3 1 5 1 1 1 1 2 4 2 3 3 3 2 4 7 2 2 2 6 4 5 3 4 4 3 6 7 0 6 6 3 6 3 3 6 3 4 1 2 4 1 2 5 7 3 5 2 8 3 6 9 4 6 4 6 1 3 3 1 3 4 7 3 5 2 2 1 4 3 3 8 3 3 4 7 2 2 3 3 1 5 5 2 2 0 1 0 0 9 4 2 5 6 2 1 2 3 5 2 3 1 5 2 4 7 2 4 4 4 2 2 5 2 2 3 2 3 2 0 3 1 5 4 7 2 2 3 2 5 2 3 5 4 3 3 5 3 2 3 2 3 9 1 4 4 0 0 4 4 3 5 3 2 5 2 3 1 5 3 2 3 6 3 5 4 6 4 5 4 1 4 5 4 5 4 5 7 3 4 4 3 4 2 6 2 5 3 5 4 5 3 1 6 2 2 2 3 6 4 5 5 0 6 0 3 3 2 3 1 3 1 3 4 3 1 2 1 7 2 0 3 2 0 1 1 1 1 1 4 2 4 6 5 2 1 2 5 5 3 2 2 1 4 2 4 2 2 4 3 4 3 0 2 1 4 2 2 2 6 5 1 4 3 1 5 5 4 9 2 2 3 3 3 0 3 3 3 5 2 2 3 5 4 0 3 8 6 3 5 0 3 2 4 2 1 4 6 7 2 3 2 6 3 5 3 4 4 3 5 2 3 1 3 4 0 4 3 1 2 0 4 4 2 4 2 2 2 2 3 4 4 3 1 3 2 5 2 2 2 5 2 2 1 3 3 1 4 7 4 6 2 6 2 5 4 4 5 3 2 5 4 3 6 2 1 9 3 3 4 5 4 1 4 3 6 4 0 2 3 5 4 3 6 4 5 6 3 2 2 3 4 4 2 3 4 3 1 6 3 1 1 5 2 1 3 4 5 4 5 3 5 5 4 0 3 1 6 0 2 6 2 6 5 5 3 4 1 3 2 5 9 4 4 9 7 6 4 6 4 1 5 4 2 0 4 4 5 5 5 3 3 6 0 5 4 3 4 6 6 4 2 3 3 4 5 2 6 9 4 6 4 3 3 0 5 6 1 7 5 1 3 7 5 4 4 2 2 2 4 4 3 5 4 2 7 4 5 4 5 3 5 1 3 4 2 2 5 4 3 4 3 5 3 4 3 5 2 5 3 2 4 5 2 10 5 3 3 3 2 2 3 4 7 6 2 3 2 3 2 3 1 3 2 4 4 2 4 5 5 4 6 0 3 3 4 4 4 2 1 2 2 3 1 1 1 4 1 3 3 3 5 2 8 5 3 2 1 10 1 2 4 1 2 6 5 3 8 3 5 5 5 2 5 2 2 1 1 5 0 4 4 3 7 4 1 7 4 6 2 3 4 5 3 5 7 4 4 6 1 5 4 7 4 3 3 4 3 6 6 3 6 5 6 4 4 5 3 1 2 4 5 1 3 2 1 3 4 2 2 5 2 2 5 4 2 5 1 7 3 3 2 3 1 3 5 3 4 3 4 2 6 2 3 6 3 4 3 3 6 2 8 4 5 3 8 6 1 6 1 5 2 1 2 4 4 3 1 3 4 2 1 2 2 4 3 3 3 3 4 2 5 2 5 4 5 0 5 3 2 2 6 9 0 7 1 1 4 6 2 5 1 3 3 4 1 1 2 4 5 3 4 1 4 4 6 6 1 5 4 3 7 10 4 2 6 6 5 1 1 3 5 6 3 2 2 4 3 4 4 5 3 0 4 2 3 6 8 5 3 3 5 1 3 6 2 4 1 3 2 6 9 4 3 3 3 4 4 2 5 6 6 5 3 1 5 4 2 4 3 4 4 4 4 7 3 5 4 4 5 5 3 1 7 4 4 3 3 3 2 3 2 2 2 5 4 3 2 5 1 1 3 3 8 5 2 3 4 3 4 3 3 4 3 2 0 3 2 3 2 4 3 4 4 2 1 2 6 2 4 2 5 2 4 5 1 1 4 5 3 3 4 5 2 3 4 4 5 4 4 4 3 3 2 2 3 5 3 4 1 3 0 8 4 3 6 4 4 5 7 3 2 3 3 2 2 4 1 4 2 4 3 0 5 1 5 2 2 3 4 3 2 4 2 3 2 3 1 5 2 0 3 5 1 1 3 2 4 2 3 7 3 1 2 3 3 2 2 7 2 3 6 3 3 3 4 2 2 3 0 2 2 2 3 2 2 2 0 4 0 4 2 4 4 3 3 2 2 2 4 4 2 7 1 3 5 2 2 4 5 2 2 5 0 1 3 3 1 1 2 3 3 5 3 1 1 7 3 1 4 1 7 1 4 3 3 6 2 3 2 1 3 3 1 2 3 5 2 3 3 1 2 0 5 1 3 3 0 3 2 5 3 4 3 3 4 2 3 2 2 2 3 4 0 2 3 2 3 3 1 3 3 2 11 6 2 2 3 4 2 1 3 5 2 3 0 3 2 3 2 3 4 5 6 7 0 4 2 6 4 4 5 3 8 2 5 8 3 0 6 3 3 3 5 3 3 2 1 2 4 3 2 3 4 2 4 5 3 5 6 6 2 1 5 6 3 3 4 5 4 6 2 5 5 2 6 3 3 4 2 3 7 5 3 2 3 4 3 3 4 2 4 3 2 3 1 3 7 0 2 3 3 4 4 5 4 4 4 6 1 3 3 6 2 4 5 6 1 1 7 2 4 2 3 4 6 2 3 2 3 7 3 5 3 5 3 4 10 4 4 3 5 2 5 4 3 2 3 1 2 2 3 4 3 4 3 3 6 6 3 4 10 0 3 2 4 4 4 3 4 3 6 2 4 1 5 2 3 4 3 3 1 2 5 0 7 2 5 5 1 4 3 2 0 4 2 3 5 3 6 2 4 2 1 4 4 6 1 3 3 0 3 2 5 6 3 2 3 5 2 3 2 6 3 4 1 5 3 0 2 4 1 1 8 2 0 4 2 4 3 2 3 6 3 3 6 1 5 3 5 2 5 5 2 4 2 7 1 4 0 3 3 5 4 3 3 2 2 2 3 0 3 0 3 5 6 2 2 5 3 3 3 4 1 3 2 4 2 4 2 5 3 2 3 1 2 3 3 3 2 3 4 2 1 1 2 2 5 1 4 1 5 4 2 3 1 4 1 2 3 5 2 3 4 4 5 3 3 3 5 4 2 1 3 3 0 2 2 2 2 4 3 5 2 3 3 4 2 2 4 3 2 3 8 3 2 7 6 3 2 4 1 2 6 3 4 4 2 4 1 1 2 5 3 2 4 3 2 5 4 5 8 4 2 0 4 1 0 2 3 0 4 4 6 1 3 4 6 4 0 3 2 4 2 5 1 3 2 8 3 1 2 3 6 2 7 3 4 6 0 1 3 2 4 2 1 0 2 3 4 5 5 1 0 3 5 5 1 1 1 3 5 2 1 5 4 3 3 5 4 0 6 2 6 2 1 2 2 1 2 4 1 3 1 3 2 3 1 5 2 5 2 4 2 1 3 5 4 4 0 
BTB PER SET COUNT: 4 4 3 3 1 0 3 2 5 0 2 0 2402 4 1 3 3 2 5 1483 3 6 3 3 4 15 1 4 1479 2 2882 25 4 4 10 2 2958 737 736 3 5 4 3 2170 5510 3 4 3 1568 3 3 2 4 2 0 4 5 3 4 3 1 4 2 4 1 373 507 2 3 990 736 1 1 4 2 3 484 749 2 3 2 2 1 4 3 4 2 11 3 5 2447 523 4 4023 3 0 3 7 2 3 7 3 5 3 4 3 1 2 5 2 2 3 3 1931 2 1799 2 8 4 1 6 5 2 0 1 2 3 2 2005 11 1922 2 4 3 964 3 2 1 5 3 107 3 3 2 3 4 2 4500 4 4 3 6909 4 2403 3 1 3 4 3 2 5 977 4 5 13 1997 2 2 8417 1 4 2 4 2 1 2 3 12 1001 2 3 4 6863 3 8 11 5 1 2 3 46 3 5 4 7 11 3 4 5 10 4 2 4 1 6 3 2 1485 3 1 5 5 15 4 3 2 3 37 4 0 1 2 2 4 3 2 3 25 0 4 5852 4 3 4 3 3 3 2 1 3 1 0 2405 4 9370 1966 1 1 4 3 3 2 1 4 3 2006 5 7 4 3 5 4 4 2 1480 1527 3 1 4 2 3 2 4 3 3 2 1 1 3 3 5 2 1922 2 737 2403 3 3 1 1 0 3 1 15 1 1 5 3 3 2 3 3 1 2 3 2 7 2 1926 979 3 1 3 2 980 4 2404 1238 2 1 3 2175 3 6 2 2 1 139 1 0 964 1 2 17 1526 1 963 4 24 0 4 0 1 964 964 3 1 3 4 5 3 109 8 3 54 3 2 0 5 1 2 11 2 4 2817 2206 1 1 2 1 5 2 2 4 5 4 3 3 3 5 24 3 1 490 5 2 14 2 7 2 19 5 4 2 3 1 3242 0 1 3 8 2 3 2 3 4 1479 2 1 997 1 2 5 6 998 3 149 3 1 89 1 1 3 5 4 9 4 0 3 4 138 4 2661 4 975 2400 4 3 3 0 3 4 1223 3 8 994 2 3 3 2 8 3 3 3 1923 1 1 4 1467 3 3 3 8 1932 1 3 7 2 2 4 0 4 42 481 2 1 4 980 3 1 2 1 2 481 0 7 3 0 29 1 5 2 5 4 0 22 4 3 3 2 1923 12 1 1 1 2 4 2 3 3 3 3 4 35 3 2 2 2404 4 488 3 1480 4 3 18 1446 0 1925 4985 3 10 3 4 21 3 485 2 2 9 1 2 1443 195 6 15 2 84 3 981 9293 5 1458 6 2882 1 3 6 1 3 5 6899 3 1924 2 3 1 4 3 3 2932 3 3 5 5468 2 2 3 3 1 23 9 42 3 0 2 0 0 3848 5 2 1922 2885 3 1 998 3 6 2 3 1 6 2 4 1469 2 4 4 4 3 2 2403 2 2 3 2 4 1039 0 3 1 13 485 3363 2 2 3 2 13 2 3 1922 1480 3 8 963 3 2 3 2 3 2900 1 4 4 0 0 5 4 4 6 4 2 8 2 3 1 9 3 2 3 7804 3 24 4 1926 5 2975 965 1 4 738 4 7 4 1443 2953 3 4 6 3 4 2 8 962 1443 4 25 1480 6 3 2 974 2 2 2 3 1928 4 16 45 0 2407 0 3 3 962 3 1 3 1 3 5 5 1 962 1 2462 2 0 3 2 0 1 1 1 1 1 4 3 4 1448 9 998 1 2 6 9 3 3 2 1 4 2 4 2 2 485 3 4 963 0 2 1 5 2 2 2 2882 8 1 4 3 1 24 6 4 5958 2 5 3 3 3 0 130 4 5 3024 3 2 3 6 5 0 3 3031 4986 4 5 0 3 2 33 2 1 6 1453 1946 2 4 2 13 3 8 5 1925 4 4 20 2 5 1 3 4 0 4 4 2 2 0 4 5 2 4 2 2 2 2 3 4 78 3 1 3 2 1924 4 2 2 1443 2 2 1 4 1483 1 9 1926 4 13 4 2403 2 1926 5 4 12 3 2 8 4 3 4942 2 2 6509 999 6 5 1443 4 1 6 3 2596 4 0 3 4 24 4 3 4984 6 6 102 3 2 2 3 5 6 2 3 4 3 1 653 3 1 2 1732 3 1 41 7 2584 4 980 3 7 47 4 0 3 1 1447 0 3 968 2 60 12 1443 3 6 1 3 2 1923 140 5 486 5458 4014 1446 4 2039 4 1 26 5 2 0 1000 6 2400 44 1442 3 3 770 0 347 5 3 4 1354 1926 4 2 3 484 4 4980 4 24 1112 4 1928 5 3 3 0 375 26 1 7416 18 1 3 1933 18 485 4 2 5 2 6 4 4 1639 4 2 3363 4 8 4 1921 3 25 1 3 4 2 2 21 5 5 4 3 1936 3 2476 372 1694 3 22 4 3 6 1733 2 5214 24 3 3 3 2 3 3 4 2886 1928 2 3 2 4 2 3 3 4 2 5 4 2 4 13 1922 4 1455 0 3 3 4 1480 376 2 1 2 4 3 1 1 1 6 1 3 4 3 9 2 3840 1442 3 2 1 11336 1 2 4 1 2 1924 122 5 5462 3 24 7 2403 2 29 3 2 2 1 27 0 4 4 3 1938 4 1 2010 4 2405 2 484 4 10 3 2403 1810 4 5 2404 1 10 5 4975 5 3 3 4 3 1447 1914 4 2404 1443 2278 4 4 12 4 1 3 4 1922 1 4 2 1 4 6 5 2 497 3 2 21 4 2 10 1 5766 3 3 2 3 1 3 10 4 4 4 4 2 27 2 3 1692 3 4 3 3 1924 2 5931 4 1442 3 2533 7418 1 5460 1 20 2 1 2 485 4 3 1 3 139 3 1 2 483 4 3 3 3 3 4 2 1442 2 8 4 16 0 1923 3 2 2 47 7437 0 43 1 1 4 9 4 23 1 3 965 6 1 1 2 4 23 3 4 1 4 5 7381 16 1 8 4 4 2906 10303 2012 3 7417 24 1921 1 1 3 1923 2403 4 2 3 4 3 4 4 16 3 0 4 2 3 3486 8018 4019 4 3 379 1 3 24 2 4 1 3 2 2882 6670 1000 4 3 3 6 5 2 1923 1928 2403 8 3 1 21 4 2 7 3 4 4 4 4 1938 3 1921 4 484 1923 2401 6 1 2945 4 4 3 3 3 4 3 2 2 2 16 4 3 2 977 1 1 3 3 2892 11 2 3 4 3 4 3 3 7 3 2 0 4 2 3 2 4 3 8 5 2 1 2 990 6 4 2 7 2 4 348 1 1 4 9 999 3 4 2406 2 3 40 5 11 7 4 4 3 4 2 2 3 1923 3 4 1 4 0 5893 5 3 2882 4 4 2401 6948 3 2 6 3 2 2 5 1 4 4 5 6 0 4056 1 12 3 2 4 5 3 2 1480 2 3 1368 3 1 546 3 0 3 5 1 2 1370 2 6 2 3 1931 4 1 2 3 4 2 2 2886 3 3 86 4 3 3 8 2 2 3 0 5 2 3 1001 2 2 2 0 5 0 4 2 4 4 3 3 962 2 10 4 32 2 2410 1 3 6 2 2 7 14 114 2 21650 0 1 3 3 1 1 2 4 3 1967 382 1 1 1343 3 1 4 1 2412 1 4 4 3 1900 3 3 2 1 3 3 1 2 3 8 2 3 4 1 2 0 4018 1 3 4 0 3 453 1919 3 4 3 4 4 2 7 2 2 2 3 4 0 2 3 2 3 14 1 3 3 2 3615 2882 2 3 3 4 2 1 3 1732 2 3 0 3 2 3 2 3 4 2402 19 5939 0 4 2 2166 4 4 27 3 3365 2 8 8553 3 0 2882 1479 3 4 7 3 3 2 1 2 1000 4 2 3 4 3 4 1727 5 1921 6 983 2881 1 1237 6898 4 3 7 9 4 3543 2 1607 1922 2 1927 3 277 374 2 1479 1462 11 131 3 3 4 3 4 4 2 4 5 2 3 1 3 2521 0 2 3 3 6 5 501 5 4 4 3988 1 3 4 1446 2 1445 1443 2882 1 1 6467 2 964 2 4 4 1927 483 3 2 3 2884 3 486 3 4655 3 4 8902 5 5 14773 2880 2 1924 1480 5 2 3 1 2 2 3 4 3 4 4 3 11 10 3 174 3367 0 1479 2 1480 157 5 3 4 5 2291 3 740 1 2402 2 3 4 3 3 1 2 3030 0 5462 2 1237 2404 1 5 3 2 0 4 2 4 1919 3 4946 2 5 3 1 5 4 7379 1 3 538 0 3 2 8 1926 999 3 3 1959 2 3 2 2167 3 4 1 24 3 0 2 4 1477 1 3792 2 0 4 4 4 3 4 3 2349 3 456 2402 1 2400 3 1923 245 1923 61 2 4 2 4089 3 155 0 5 1480 9 4 3 4 2 4 2 520 0 3 0 3 9 3301 2 2 747 395 3 6 1000 1 3 2 4 2 4 2 122 3 2 3 1 2 153 3 3 2 3 4 2 1 1 2 2 1447 1 4 1 4018 4 2 3 6 4 1 2 3 12 2 3 965 4 963 3 3 3 6 7 2 1 3 5 0 2 4 2 2 4 11 2402 2 3 3 4 2 2 4 3 2 3 3257 4 2 3125 2405 102 2 6 1 2 29 3 4 5 2 4 3 1 2 9 963 2 4 3 2 7 6 6 2513 4 3 0 4 2 0 2 3 0 5 1480 981 1 3 4 2379 4 0 4 2 6 3 8 1 7 2 3790 4 1 3 3 2409 6 3363 3 4 5221 0 1 3 2 4 2 1 0 2 3 4 19 8 2 0 4 7 1442 1 1 1 3 2403 2 1 20 4 3 6 1922 4 0 2407 2 1926 2 1 2 2 1 2 4 1 3 1 3 2 4 1 20 3 232 2 5 2 2 3 1502 4 4 0 
