
*** ChampSim Multicore Out-of-Order Simulator ***

Warmup Instructions: 50000000
Simulation Instructions: 50000000
Number of CPUs: 1
LLC sets: 2048
LLC ways: 16
Off-chip DRAM Size: 4096 MB Channels: 1 Width: 64-bit Data Rate: 6400 MT/s
CPU 0 runs ./micro_traces/srv106.trace.gz
.gz
ITLB has LRU replacement policy
DTLB has LRU replacement policy
STLB has LRU replacement policy
FDIP Prefetcher at L1I
L1I has LRU replacement policy
L1D has LRU replacement policy
Initialize SRRIP state for L2C
Initialize DRRIP state for LLC
Heartbeat_Variant_0 : 1209 0.295166 per_variant_size: 0 1209 0 0 0 0 0 0 0 
Heartbeat_Variant_1 : 1174 0.286621 per_variant_size: 0 494 680 0 0 0 0 0 0 
Heartbeat_Variant_2 : 1008 0.246094 per_variant_size: 0 269 292 237 210 0 0 0 0 
Heartbeat_Variant_3 : 0 0 per_variant_size: 0 0 0 0 0 0 0 0 0 
Heartbeat_Variant_0_evicts 0 : 18143 1 : 7297 2 : 7020 3 : 0 
Heartbeat_Variant_1_evicts 0 : 7197 1 : 0 2 : 4569 3 : 0 
Heartbeat_Variant_2_evicts 0 : 7039 1 : 4334 2 : 0 3 : 0 
Heartbeat_Variant_3_evicts 0 : 0 1 : 0 2 : 0 3 : 0 
Heartbeat CPU 0 instructions: 10000000 cycles: 2797518 heartbeat IPC: 3.5746 cumulative IPC: 3.5746 (Simulation time: 0 hr 2 min 15 sec) 
Heartbeat_Variant_0 : 1215 0.296631 per_variant_size: 0 1215 0 0 0 0 0 0 0 
Heartbeat_Variant_1 : 1225 0.299072 per_variant_size: 0 495 730 0 0 0 0 0 0 
Heartbeat_Variant_2 : 1019 0.248779 per_variant_size: 0 254 283 258 224 0 0 0 0 
Heartbeat_Variant_3 : 0 0 per_variant_size: 0 0 0 0 0 0 0 0 0 
Heartbeat_Variant_0_evicts 0 : 18681 1 : 7485 2 : 7261 3 : 0 
Heartbeat_Variant_1_evicts 0 : 7427 1 : 0 2 : 4563 3 : 0 
Heartbeat_Variant_2_evicts 0 : 7326 1 : 4488 2 : 0 3 : 0 
Heartbeat_Variant_3_evicts 0 : 0 1 : 0 2 : 0 3 : 0 
Heartbeat CPU 0 instructions: 20000003 cycles: 5593470 heartbeat IPC: 3.5766 cumulative IPC: 3.5756 (Simulation time: 0 hr 4 min 12 sec) 
Heartbeat_Variant_0 : 1222 0.29834 per_variant_size: 0 1222 0 0 0 0 0 0 0 
Heartbeat_Variant_1 : 1217 0.297119 per_variant_size: 0 481 736 0 0 0 0 0 0 
Heartbeat_Variant_2 : 1022 0.249512 per_variant_size: 0 255 287 254 226 0 0 0 0 
Heartbeat_Variant_3 : 0 0 per_variant_size: 0 0 0 0 0 0 0 0 0 
Heartbeat_Variant_0_evicts 0 : 18463 1 : 7149 2 : 7221 3 : 0 
Heartbeat_Variant_1_evicts 0 : 7193 1 : 0 2 : 4496 3 : 0 
Heartbeat_Variant_2_evicts 0 : 7170 1 : 4549 2 : 0 3 : 0 
Heartbeat_Variant_3_evicts 0 : 0 1 : 0 2 : 0 3 : 0 
Heartbeat CPU 0 instructions: 30000001 cycles: 8390002 heartbeat IPC: 3.57586 cumulative IPC: 3.57568 (Simulation time: 0 hr 6 min 2 sec) 
Heartbeat_Variant_0 : 1215 0.296631 per_variant_size: 0 1215 0 0 0 0 0 0 0 
Heartbeat_Variant_1 : 1223 0.298584 per_variant_size: 0 484 739 0 0 0 0 0 0 
Heartbeat_Variant_2 : 1025 0.250244 per_variant_size: 0 256 285 261 223 0 0 0 0 
Heartbeat_Variant_3 : 0 0 per_variant_size: 0 0 0 0 0 0 0 0 0 
Heartbeat_Variant_0_evicts 0 : 18457 1 : 7164 2 : 7197 3 : 0 
Heartbeat_Variant_1_evicts 0 : 7271 1 : 0 2 : 4393 3 : 0 
Heartbeat_Variant_2_evicts 0 : 7097 1 : 4496 2 : 0 3 : 0 
Heartbeat_Variant_3_evicts 0 : 0 1 : 0 2 : 0 3 : 0 
Heartbeat CPU 0 instructions: 40000001 cycles: 11185651 heartbeat IPC: 3.57699 cumulative IPC: 3.57601 (Simulation time: 0 hr 7 min 57 sec) 
Heartbeat_Variant_0 : 1214 0.296387 per_variant_size: 0 1214 0 0 0 0 0 0 0 
Heartbeat_Variant_1 : 1228 0.299805 per_variant_size: 0 482 746 0 0 0 0 0 0 
Heartbeat_Variant_2 : 1030 0.251465 per_variant_size: 0 249 287 261 233 0 0 0 0 
Heartbeat_Variant_3 : 0 0 per_variant_size: 0 0 0 0 0 0 0 0 0 
Heartbeat_Variant_0_evicts 0 : 18405 1 : 6988 2 : 7181 3 : 0 
Heartbeat_Variant_1_evicts 0 : 7135 1 : 0 2 : 4366 3 : 0 
Heartbeat_Variant_2_evicts 0 : 7038 1 : 4511 2 : 0 3 : 0 
Heartbeat_Variant_3_evicts 0 : 0 1 : 0 2 : 0 3 : 0 
Heartbeat CPU 0 instructions: 50000003 cycles: 13981643 heartbeat IPC: 3.57655 cumulative IPC: 3.57612 (Simulation time: 0 hr 10 min 1 sec) 

Warmup complete CPU 0 instructions: 50000003 cycles: 13981643 (Simulation time: 0 hr 10 min 1 sec) 

Cycle: 20000000 FTQ IN: 56767680 FTQ occupancy: 18.0376 DECODE IN: 56767670 DECODE occupancy: 46.1269 ROB IN: 56767637 ROB occupancy: 278.382 ROB OUT: 56767339
Heartbeat_Variant_0 : 1212 0.295898 per_variant_size: 0 1212 0 0 0 0 0 0 0 
Heartbeat_Variant_1 : 1233 0.301025 per_variant_size: 0 496 737 0 0 0 0 0 0 
Heartbeat_Variant_2 : 1027 0.250732 per_variant_size: 0 257 280 268 222 0 0 0 0 
Heartbeat_Variant_3 : 0 0 per_variant_size: 0 0 0 0 0 0 0 0 0 
Heartbeat_Variant_0_evicts 0 : 18382 1 : 7146 2 : 7230 3 : 0 
Heartbeat_Variant_1_evicts 0 : 7248 1 : 0 2 : 4461 3 : 0 
Heartbeat_Variant_2_evicts 0 : 7130 1 : 4558 2 : 0 3 : 0 
Heartbeat_Variant_3_evicts 0 : 0 1 : 0 2 : 0 3 : 0 
Heartbeat CPU 0 instructions: 60000001 cycles: 22880341 heartbeat IPC: 1.12376 cumulative IPC: 1.12376 (Simulation time: 0 hr 11 min 43 sec) 
Cycle: 30000000 FTQ IN: 11035964 FTQ occupancy: 6.66943 DECODE IN: 11035960 DECODE occupancy: 14.0239 ROB IN: 11035993 ROB occupancy: 115.382 ROB OUT: 11036062
Heartbeat_Variant_0 : 1228 0.299805 per_variant_size: 0 1228 0 0 0 0 0 0 0 
Heartbeat_Variant_1 : 1226 0.299316 per_variant_size: 0 491 735 0 0 0 0 0 0 
Heartbeat_Variant_2 : 1018 0.248535 per_variant_size: 0 246 286 266 220 0 0 0 0 
Heartbeat_Variant_3 : 0 0 per_variant_size: 0 0 0 0 0 0 0 0 0 
Heartbeat_Variant_0_evicts 0 : 18590 1 : 7217 2 : 7396 3 : 0 
Heartbeat_Variant_1_evicts 0 : 7291 1 : 0 2 : 4572 3 : 0 
Heartbeat_Variant_2_evicts 0 : 7306 1 : 4653 2 : 0 3 : 0 
Heartbeat_Variant_3_evicts 0 : 0 1 : 0 2 : 0 3 : 0 
Heartbeat CPU 0 instructions: 70000000 cycles: 31958962 heartbeat IPC: 1.10149 cumulative IPC: 1.11251 (Simulation time: 0 hr 13 min 24 sec) 
Cycle: 40000000 FTQ IN: 11201572 FTQ occupancy: 6.56372 DECODE IN: 11201576 DECODE occupancy: 13.8643 ROB IN: 11201537 ROB occupancy: 115.787 ROB OUT: 11201485
Heartbeat_Variant_0 : 1226 0.299316 per_variant_size: 0 1226 0 0 0 0 0 0 0 
Heartbeat_Variant_1 : 1227 0.299561 per_variant_size: 0 485 742 0 0 0 0 0 0 
Heartbeat_Variant_2 : 1019 0.248779 per_variant_size: 0 248 286 267 218 0 0 0 0 
Heartbeat_Variant_3 : 0 0 per_variant_size: 0 0 0 0 0 0 0 0 0 
Heartbeat_Variant_0_evicts 0 : 18541 1 : 7092 2 : 7364 3 : 0 
Heartbeat_Variant_1_evicts 0 : 7188 1 : 0 2 : 4485 3 : 0 
Heartbeat_Variant_2_evicts 0 : 7270 1 : 4580 2 : 0 3 : 0 
Heartbeat_Variant_3_evicts 0 : 0 1 : 0 2 : 0 3 : 0 
Heartbeat CPU 0 instructions: 80000000 cycles: 40898029 heartbeat IPC: 1.11869 cumulative IPC: 1.11456 (Simulation time: 0 hr 15 min 14 sec) 
Heartbeat_Variant_0 : 1226 0.299316 per_variant_size: 0 1226 0 0 0 0 0 0 0 
Heartbeat_Variant_1 : 1220 0.297852 per_variant_size: 0 487 733 0 0 0 0 0 0 
Heartbeat_Variant_2 : 1026 0.250488 per_variant_size: 0 254 285 261 226 0 0 0 0 
Heartbeat_Variant_3 : 0 0 per_variant_size: 0 0 0 0 0 0 0 0 0 
Heartbeat_Variant_0_evicts 0 : 18613 1 : 7184 2 : 7443 3 : 0 
Heartbeat_Variant_1_evicts 0 : 7315 1 : 0 2 : 4445 3 : 0 
Heartbeat_Variant_2_evicts 0 : 7312 1 : 4583 2 : 0 3 : 0 
Heartbeat_Variant_3_evicts 0 : 0 1 : 0 2 : 0 3 : 0 
Heartbeat CPU 0 instructions: 90000001 cycles: 49938218 heartbeat IPC: 1.10617 cumulative IPC: 1.11245 (Simulation time: 0 hr 17 min 5 sec) 
Cycle: 50000000 FTQ IN: 11064735 FTQ occupancy: 6.73238 DECODE IN: 11064742 DECODE occupancy: 14.1847 ROB IN: 11064781 ROB occupancy: 116.067 ROB OUT: 11065024
Heartbeat_Variant_0 : 1213 0.296143 per_variant_size: 0 1213 0 0 0 0 0 0 0 
Heartbeat_Variant_1 : 1238 0.302246 per_variant_size: 0 508 730 0 0 0 0 0 0 
Heartbeat_Variant_2 : 1022 0.249512 per_variant_size: 0 248 292 261 221 0 0 0 0 
Heartbeat_Variant_3 : 0 0 per_variant_size: 0 0 0 0 0 0 0 0 0 
Heartbeat_Variant_0_evicts 0 : 18562 1 : 7162 2 : 7377 3 : 0 
Heartbeat_Variant_1_evicts 0 : 7279 1 : 0 2 : 4433 3 : 0 
Heartbeat_Variant_2_evicts 0 : 7273 1 : 4532 2 : 0 3 : 0 
Heartbeat_Variant_3_evicts 0 : 0 1 : 0 2 : 0 3 : 0 
Heartbeat CPU 0 instructions: 100000000 cycles: 58867023 heartbeat IPC: 1.11997 cumulative IPC: 1.11395 (Simulation time: 0 hr 18 min 46 sec) 
Finished CPU 0 instructions: 50000001 cycles: 44885381 cumulative IPC: 1.11395 (Simulation time: 0 hr 18 min 46 sec) 

ChampSim completed all CPUs

Region of Interest Statistics

CPU 0 cumulative IPC: 1.11395 instructions: 50000001 cycles: 44885381
 Fetch stage stalled: 71.3164  Sim cycles: 44885381 fetch stall cycle: 32010620
 Empty decode stage: 63.9156  Sim cycles: 44885381 fetch stall cycle: 28688782
ITLB TOTAL     ACCESS:    5784381  HIT:    5290905  MISS:     493476  HIT %:    91.4688  MISS %:    8.53118   MPKI: 9.86952
ITLB LOAD TRANSLATION INSTRUCTION	ACCESS:    5684487  HIT:    5191011  MISS:     493476  HIT %:    91.3189  MISS %:     8.6811  MPKI: 9.86952
ITLB TRANSLATION FROM L1D PREFETCHER INSTRUCTION	ACCESS:      99894  HIT:      99894  MISS:          0  HIT %:        100  MISS %:          0  MPKI: 0

ITLB AVERAGE MISS LATENCY: 9.03498 cycles
ITLB RQ	ACCESS:    7605203	FORWARD:          0	MERGED:    1389607	TO_CACHE:    6215596

DTLB TOTAL     ACCESS:    9346930  HIT:    8872699  MISS:     474231  HIT %:    94.9263  MISS %:    5.07366   MPKI: 9.48462
DTLB LOAD TRANSLATION DATA	ACCESS:    9346930  HIT:    8872699  MISS:     474231  HIT %:    94.9263  MISS %:    5.07366  MPKI: 9.48462

DTLB AVERAGE MISS LATENCY: 9.29016 cycles
DTLB RQ	ACCESS:   13623338	FORWARD:          0	MERGED:    4243330	TO_CACHE:    9380008

STLB TOTAL     ACCESS:    1216653  HIT:    1214767  MISS:       1886  HIT %:     99.845  MISS %:   0.155015   MPKI: 0.03772
STLB LOAD TRANSLATION INSTRUCTION	ACCESS:     493476  HIT:     493249  MISS:        227  HIT %:     99.954  MISS %:  0.0460002  MPKI: 0.00454
STLB LOAD TRANSLATION DATA	ACCESS:     474005  HIT:     472367  MISS:       1638  HIT %:    99.6544  MISS %:   0.345566  MPKI: 0.03276
STLB TRANSLATION FROM L1D PREFETCHER DATA	ACCESS:     249172  HIT:     249151  MISS:         21  HIT %:    99.9916  MISS %: 0.00842791  MPKI: 0.00042

STLB AVERAGE MISS LATENCY: 68.7932 cycles
STLB RQ	ACCESS:    1336240	FORWARD:          0	MERGED:     119552	TO_CACHE:    1216688

STLB Hit, L1D data hit: 0
STLB Hit, L2C data hit: 0
STLB Hit, LLC data hit: 0
STLB Hit, LLC data miss: 0
STLB STLB hints to L2: 0
L1D TOTAL     ACCESS:   13389192  HIT:   12276055  MISS:    1113137  HIT %:    91.6863  MISS %:     8.3137   MPKI: 22.2627
L1D LOAD DATA	ACCESS:    6820250  HIT:    6085073  MISS:     735177  HIT %:    89.2207  MISS %:    10.7793  MPKI: 14.7035
L1D RFO DATA	ACCESS:    6241999  HIT:    5956292  MISS:     285707  HIT %:    95.4228  MISS %:    4.57717  MPKI: 5.71414
L1D PREFETCH DATA	ACCESS:     326943  HIT:     234690  MISS:      92253  HIT %:    71.7832  MISS %:    28.2168  MPKI: 1.84506

L1D PREFETCH  REQUESTED:     737332  ISSUED:     737332  USEFUL:      33321  USELESS:      67364
L1D USEFUL LOAD PREFETCHES:      33321 PREFETCH ISSUED TO LOWER LEVEL:     100735  ACCURACY: 33.0779
 TIMELY PREFETCHES:      33321 LATE PREFETCHES: 8437 DROPPED PREFETCHES: 4
L1D AVERAGE MISS LATENCY: 275759 cycles
L1D RQ	ACCESS:   10898468	FORWARD:          0	MERGED:    3883609	TO_CACHE:    6852404
L1D WQ	ACCESS:    6941900	FORWARD:     162721	MERGED:     170966	TO_CACHE:    6770934
L1D PQ	ACCESS:     368799	FORWARD:          0	MERGED:          0	TO_CACHE:     368533

L1D UNIQUE REGIONS ACCESSED: 0
L1D REGIONS CONFLICTS: 0
L1D Cross Page Prefetch Requests: 6934
L1D Same Page Prefetch Requests: 747647
L1D ROI Sum of L1D PQ occupancy: 4678007
L1D PREFETCHES PUSHED FROM L2C: 0
L1I TOTAL     ACCESS:    7091082  HIT:    4330086  MISS:    2760996  HIT %:    61.0638  MISS %:    38.9362   MPKI: 55.2199
L1I LOAD INSTRUCTION	ACCESS:    6582979  HIT:    3821983  MISS:    2760996  HIT %:    58.0586  MISS %:    41.9414  MPKI: 55.2199
L1I PREFETCH INSTRUCTION	ACCESS:     508103  HIT:     508103  MISS:          0  HIT %:        100  MISS %:          0  MPKI: 0

L1I PREFETCH  REQUESTED:    1080370  ISSUED:    1080370  USEFUL:          0  USELESS:          0
L1I USEFUL LOAD PREFETCHES:          0 PREFETCH ISSUED TO LOWER LEVEL:          0  ACCURACY: -nan
 TIMELY PREFETCHES:          0 LATE PREFETCHES: 0 DROPPED PREFETCHES: 0
L1I AVERAGE MISS LATENCY: 17.1898 cycles
L1I RQ	ACCESS:    9453388	FORWARD:          0	MERGED:    2620878	TO_CACHE:    6832510
L1I PQ	ACCESS:    1080370	FORWARD:          0	MERGED:     307677	TO_CACHE:     772693

L1BTB TOTAL     ACCESS:    5671473  HIT:    2044564  MISS:    3626909  HIT %:      36.05  MISS %:      63.95   MPKI: 72.5382
L1BTB BRANCH_DIRECT_JUMP	ACCESS:     548143  HIT:     144816  MISS:     403327	AVERAGE STALL: 36.1865
L1BTB BRANCH_INDIRECT	ACCESS:     182829  HIT:      66053  MISS:     116776	AVERAGE STALL: 80.6441
L1BTB BRANCH_CONDITIONAL	ACCESS:    2706600  HIT:    1414422  MISS:    1292178	AVERAGE STALL: 36.3693
L1BTB BRANCH_DIRECT_CALL	ACCESS:     944783  HIT:     106338  MISS:     838445	AVERAGE STALL: 36.8468
L1BTB BRANCH_INDIRECT_CALL	ACCESS:     172168  HIT:      21814  MISS:     150354	AVERAGE STALL: 106.377
L1BTB BRANCH_RETURN	ACCESS:    1116950  HIT:     291121  MISS:     825829	AVERAGE STALL: 37.3456
L1BTB BRANCH_OTHER ACCESS:          0  HIT:          0  MISS:          0	AVERAGE STALL: -nan
L1BTB TOTAL ROB OCCUPANCY AT BTB MISS: 12.675

L2BTB TOTAL     ACCESS:    3601542  HIT:    3133816  MISS:     467726  HIT %:    87.0132  MISS %:    12.9868   MPKI: 9.35452
L2BTB BRANCH_DIRECT_JUMP	ACCESS:     399166  HIT:     355906  MISS:      43260	AVERAGE STALL: 36.1865
L2BTB BRANCH_INDIRECT	ACCESS:     106508  HIT:      99457  MISS:       7051	AVERAGE STALL: 80.6441
L2BTB BRANCH_CONDITIONAL	ACCESS:    1292178  HIT:    1138766  MISS:     153412	AVERAGE STALL: 36.3693
L2BTB BRANCH_DIRECT_CALL	ACCESS:     838445  HIT:     697598  MISS:     140847	AVERAGE STALL: 36.8468
L2BTB BRANCH_INDIRECT_CALL	ACCESS:     140815  HIT:     112183  MISS:      28632	AVERAGE STALL: 106.377
L2BTB BRANCH_RETURN	ACCESS:     824430  HIT:     729906  MISS:      94524	AVERAGE STALL: 37.3456
L2BTB BRANCH_OTHER ACCESS:          0  HIT:          0  MISS:          0	AVERAGE STALL: -nan
L2BTB TOTAL ROB OCCUPANCY AT BTB MISS: 98.2866

L2C TOTAL     ACCESS:    4481511  HIT:    3977821  MISS:     503690  HIT %:    88.7607  MISS %:    11.2393   MPKI: 10.0738
L2C LOAD INSTRUCTION	ACCESS:    2760995  HIT:    2499232  MISS:     261763  HIT %:    90.5193  MISS %:    9.48075  MPKI: 5.23526
L2C LOAD TRANSLATION INSTRUCTION	ACCESS:        259  HIT:         75  MISS:        184  HIT %:    28.9575  MISS %:    71.0425  MPKI: 0.00368
L2C LOAD DATA	ACCESS:     726711  HIT:     640810  MISS:      85901  HIT %:    88.1795  MISS %:    11.8205  MPKI: 1.71802
L2C RFO DATA	ACCESS:     285642  HIT:     228308  MISS:      57334  HIT %:     79.928  MISS %:     20.072  MPKI: 1.14668
L2C PREFETCH DATA	ACCESS:     185870  HIT:     106848  MISS:      79022  HIT %:    57.4853  MISS %:    42.5147  MPKI: 1.58044
L2C WRITEBACK DATA	ACCESS:     520290  HIT:     502081  MISS:      18209  HIT %:    96.5002  MISS %:    3.49978  MPKI: 0.36418
L2C LOAD TRANSLATION DATA	ACCESS:       1704  HIT:        440  MISS:       1264  HIT %:    25.8216  MISS %:    74.1784  MPKI: 0.02528
L2C TRANSLATION FROM L1D PREFETCHER DATA	ACCESS:         40  HIT:         27  MISS:         13  HIT %:       67.5  MISS %:       32.5  MPKI: 0.00026

L2C PREFETCH  REQUESTED:      94026  ISSUED:      94026  USEFUL:       8907  USELESS:      70830
L2C USEFUL LOAD PREFETCHES:       8907 PREFETCH ISSUED TO LOWER LEVEL:      79653  ACCURACY: 11.1823
 TIMELY PREFETCHES:       8907 LATE PREFETCHES: 631 DROPPED PREFETCHES: 0
L2C AVERAGE MISS LATENCY: 37.0382 cycles
L2C RQ	ACCESS:    3775400	FORWARD:          0	MERGED:          0	TO_CACHE:    3775351
L2C WQ	ACCESS:     520290	FORWARD:         49	MERGED:          0	TO_CACHE:     520290
L2C PQ	ACCESS:     194761	FORWARD:          0	MERGED:       4205	TO_CACHE:     190556

L2C Dense regions hint from L2: 0
PSCL5 TOTAL     ACCESS:       3794  HIT:       1897  MISS:       1897  HIT %:         50  MISS %:         50   MPKI: 0.03794
PSCL5 LOAD TRANSLATION INSTRUCTION	ACCESS:       3714  HIT:       1857  MISS:       1857  HIT %:         50  MISS %:         50  MPKI: 0.03714
PSCL5 TRANSLATION FROM L1D PREFETCHER INSTRUCTION	ACCESS:         80  HIT:         40  MISS:         40  HIT %:         50  MISS %:         50  MPKI: 0.0008


PSCL4 TOTAL     ACCESS:       3687  HIT:       1839  MISS:       1848  HIT %:    49.8779  MISS %:    50.1221   MPKI: 0.03696
PSCL4 LOAD TRANSLATION INSTRUCTION	ACCESS:       3294  HIT:       1809  MISS:       1485  HIT %:     54.918  MISS %:     45.082  MPKI: 0.0297
PSCL4 TRANSLATION FROM L1D PREFETCHER INSTRUCTION	ACCESS:         60  HIT:         30  MISS:         30  HIT %:         50  MISS %:         50  MPKI: 0.0006
PSCL4 LOAD TRANSLATION DATA	ACCESS:        333  HIT:          0  MISS:        333  HIT %:          0  MISS %:        100  MPKI: 0.00666


PSCL3 TOTAL     ACCESS:       3711  HIT:       1851  MISS:       1860  HIT %:    49.8787  MISS %:    50.1213   MPKI: 0.0372
PSCL3 LOAD TRANSLATION INSTRUCTION	ACCESS:       3306  HIT:       1821  MISS:       1485  HIT %:    55.0817  MISS %:    44.9183  MPKI: 0.0297
PSCL3 TRANSLATION FROM L1D PREFETCHER INSTRUCTION	ACCESS:         60  HIT:         30  MISS:         30  HIT %:         50  MISS %:         50  MPKI: 0.0006
PSCL3 LOAD TRANSLATION DATA	ACCESS:        345  HIT:          0  MISS:        345  HIT %:          0  MISS %:        100  MPKI: 0.0069


PSCL2 TOTAL     ACCESS:       3706  HIT:       1809  MISS:       1897  HIT %:    48.8127  MISS %:    51.1873   MPKI: 0.03794
PSCL2 LOAD TRANSLATION INSTRUCTION	ACCESS:       1999  HIT:       1769  MISS:        230  HIT %:    88.4942  MISS %:    11.5058  MPKI: 0.0046
PSCL2 TRANSLATION FROM L1D PREFETCHER INSTRUCTION	ACCESS:         40  HIT:         40  MISS:          0  HIT %:        100  MISS %:          0  MPKI: 0
PSCL2 LOAD TRANSLATION DATA	ACCESS:       1627  HIT:          0  MISS:       1627  HIT %:          0  MISS %:        100  MPKI: 0.03254
PSCL2 TRANSLATION FROM L1D PREFETCHER DATA	ACCESS:         40  HIT:          0  MISS:         40  HIT %:          0  MISS %:        100  MPKI: 0.0008


LLC TOTAL     ACCESS:     568967  HIT:     542662  MISS:      26305  HIT %:    95.3767  MISS %:    4.62329   MPKI: 0.5261
LLC LOAD INSTRUCTION	ACCESS:     261763  HIT:     261059  MISS:        704  HIT %:    99.7311  MISS %:   0.268946  MPKI: 0.01408
LLC LOAD TRANSLATION INSTRUCTION	ACCESS:        184  HIT:        166  MISS:         18  HIT %:    90.2174  MISS %:    9.78261  MPKI: 0.00036
LLC LOAD DATA	ACCESS:      85339  HIT:      82274  MISS:       3065  HIT %:    96.4084  MISS %:    3.59156  MPKI: 0.0613
LLC RFO DATA	ACCESS:      57264  HIT:      44183  MISS:      13081  HIT %:    77.1567  MISS %:    22.8433  MPKI: 0.26162
LLC PREFETCH DATA	ACCESS:      79652  HIT:      70539  MISS:       9113  HIT %:     88.559  MISS %:     11.441  MPKI: 0.18226
LLC WRITEBACK DATA	ACCESS:      83488  HIT:      83229  MISS:        259  HIT %:    99.6898  MISS %:   0.310224  MPKI: 0.00518
LLC LOAD TRANSLATION DATA	ACCESS:       1264  HIT:       1199  MISS:         65  HIT %:    94.8576  MISS %:    5.14241  MPKI: 0.0013
LLC TRANSLATION FROM L1D PREFETCHER DATA	ACCESS:         13  HIT:         13  MISS:          0  HIT %:        100  MISS %:          0  MPKI: 0

LLC AVERAGE MISS LATENCY: 154.524 cycles
LLC RQ	ACCESS:     405828	FORWARD:          0	MERGED:          0	TO_CACHE:     405827
LLC WQ	ACCESS:      83488	FORWARD:          2	MERGED:          0	TO_CACHE:      83488
LLC PQ	ACCESS:      79653	FORWARD:          0	MERGED:          0	TO_CACHE:      79652

LLC Dense regions hint to LLC: 0

RAW hits: 1731520
Loads Generated: 12629988
Loads sent to L1D: 10898468
Stores Generated: 6941893
Stores sent to L1D: 6941900
Major fault: 0 Minor fault: 2625
Allocated PAGES: 2625

stream: 
stream:times selected: 1185491
stream:pref_filled: 119602
stream:pref_useful: 23122
stream:pref_late: 6928
stream:misses: 7982
stream:misses_by_poll: 0

CS: 
CS:times selected: 178512
CS:pref_filled: 59422
CS:pref_useful: 36353
CS:pref_late: 7396
CS:misses: 16302
CS:misses_by_poll: 1

CPLX: 
CPLX:times selected: 1005887
CPLX:pref_filled: 19138
CPLX:pref_useful: 4575
CPLX:pref_late: 3138
CPLX:misses: 94042
CPLX:misses_by_poll: 0

NL_L1: 
NL:times selected: 21020
NL:pref_filled: 765
NL:pref_useful: 378
NL:pref_late: 268
NL:misses: 1770
NL:misses_by_poll: 0

total selections: 2390910
total_filled: 92253
total_useful: 33321
total_late: 19149
total_polluted: 1
total_misses_after_warmup: 767332
conflicts: 5642607

test: 116539

DRAM Statistics
 CHANNEL 0
 RQ ROW_BUFFER_HIT:       9653  ROW_BUFFER_MISS:      16385
 DBUS_CONGESTED:          7
 WQ ROW_BUFFER_HIT:       1349  ROW_BUFFER_MISS:      11412  FULL:          0

 AVG_CONGESTED_CYCLE: 4

CPU 0 Branch Prediction Accuracy: 99.831% MPKI: 0.30916 Average ROB Occupancy at Mispredict: 136.559
Branch types
NOT_BRANCH: 40853083 81.7062%
BRANCH_DIRECT_JUMP: 548143 1.09629%
BRANCH_INDIRECT: 182829 0.365658%
BRANCH_CONDITIONAL: 6181866 12.3637%
BRANCH_DIRECT_CALL: 944783 1.88957%
BRANCH_INDIRECT_CALL: 172168 0.344336%
BRANCH_RETURN: 1116950 2.2339%
BRANCH_OTHER: 0 0%

DRAM PAGES: 1048576
Allocated PAGES: 2625
Average_ROB_Occupancy: 116.722
Average_Decode_Occupancy: 13.9596
Average_FTQ_Occupancy: 6.61795
Indirect max targets: 14 Average targets: 1.17778
Branch_type:  BRANCH_DIRECT_JUMP:  Count Percentage: 2.90034 4.15039 4.87237 3.14877 8.35219 6.01524 7.41584 63.1449 
Branch_type:  BRANCH_INDIRECT:  Count Percentage: 11.7663 0.802757 2.54238 0 13.0165 2.80814 17.3601 51.7038 
Branch_type:  BRANCH_CONDITIONAL:  Count Percentage: 21.5852 1.74859 1.84009 2.45349 4.81923 4.78056 5.32326 57.4496 
Branch_type:  BRANCH_DIRECT_CALL:  Count Percentage: 0.388131 1.76778 1.14628 1.60448 5.68251 3.35113 4.30212 81.7576 
Branch_type:  BRANCH_INDIRECT_CALL:  Count Percentage: 9.51419 0 2.98247 6.39017 1.40651 2.02503 2.84237 74.8393 
Branch_type:  BRANCH_RETURN:  Count Percentage: 4.83542 1.87972 1.48876 3.31183 7.18435 5.97034 6.49409 68.8355 
Branch_type:  BRANCH_DIRECT_JUMP:  Total Count: 31768 45460 53368 34489 91483 65886 81227 691637 
Branch_type:  BRANCH_INDIRECT:  Total Count: 42990 2933 9289 0 47558 10260 63428 188908 
Branch_type:  BRANCH_CONDITIONAL:  Total Count: 2666886 216041 227346 303133 595425 590647 657698 7098002 
Branch_type:  BRANCH_DIRECT_CALL:  Total Count: 7328 33376 21642 30293 107287 63270 81225 1543600 
Branch_type:  BRANCH_INDIRECT_CALL:  Total Count: 32733 0 10261 21985 4839 6967 9779 257480 
Branch_type:  BRANCH_RETURN:  Total Count: 107972 41973 33243 73951 160422 133314 145009 1537054 
Number of unique branch instructions: 10774
Upper 32 bits: 
aaaa
ffff
ffff0000
Unique upper 32 bits: 3
Unique upper 36 bits: 3
Unique upper 40 bits: 5
Unique upper 44 bits: 32
Unique upper 48 bits: 158
Variant_0 : 1213 0.296143
Variant_1 : 1238 0.302246
Variant_2 : 1022 0.249512
Variant_3 : 0 0
Offset_3 4459
Offset_4 256
Offset_5 480
Offset_6 537
Offset_7 639
Offset_8 572
Offset_9 521
Offset_10 425
Offset_11 354
Offset_12 327
Offset_13 238
Offset_14 245
Offset_15 194
Offset_16 230
Offset_17 167
Offset_18 149
Offset_19 256
Offset_20 143
Offset_21 235
Offset_22 411
Offset_23 241
Offset_24 351
Offset_25 117
Offset_47 94
decode_dispatch_called: 20505983 45.6852
Dispatch_width: 0 10489909 51.1554 23.3704
Dispatch_width: 1 561213 2.73683 1.25032
Dispatch_width: 2 648264 3.16134 1.44427
Dispatch_width: 3 453239 2.21028 1.00977
Dispatch_width: 4 1492597 7.27884 3.32535
Dispatch_width: 5 352469 1.71886 0.785265
Dispatch_width: 6 6508292 31.7385 14.4998
Empty_decode_cycles: 24379398 54.3148
ROB_full_cycles: 2010284 4.47871
Starvation_cycles_per_kilo_instr: 363.668
Starvation_cycles_per_kilo_instr_3: 345.217
Starvation_cycles_per_kilo_instr_0: 328.59
Branch_type_1  (3,1)  (4,9)  (5,39)  (6,72)  (7,125)  (8,146)  (9,136)  (10,111)  (11,79)  (12,55)  (13,11)  (14,2)  (15,3)  (16,4)  (18,1)  (19,5)  (20,2)  (21,1)  (22,3)  (23,2)  (24,10)  (25,12) 
Branch_type_2  (3,1)  (4,1)  (5,1)  (8,4)  (9,4)  (10,1)  (12,1)  (13,1)  (14,1)  (16,3)  (17,2)  (20,2)  (21,2)  (23,5)  (24,1)  (47,43) 
Branch_type_3  (3,4457)  (4,246)  (5,436)  (6,449)  (7,485)  (8,357)  (9,287)  (10,171)  (11,140)  (12,62)  (13,10) 
Branch_type_4  (6,3)  (7,8)  (8,24)  (9,56)  (10,67)  (11,69)  (12,117)  (13,101)  (14,111)  (15,92)  (16,101)  (17,78)  (18,65)  (19,124)  (20,73)  (21,124)  (22,216)  (23,136)  (24,206)  (25,101) 
Branch_type_5  (8,3)  (9,1)  (10,4)  (11,5)  (12,3)  (13,14)  (14,16)  (15,11)  (16,22)  (17,11)  (18,23)  (19,14)  (20,11)  (21,13)  (22,43)  (23,26)  (24,38) 
Branch_type_6  (5,4)  (6,13)  (7,21)  (8,38)  (9,37)  (10,71)  (11,61)  (12,89)  (13,101)  (14,115)  (15,88)  (16,100)  (17,76)  (18,60)  (19,113)  (20,55)  (21,95)  (22,149)  (23,72)  (24,96)  (25,4)  (47,51) 
Unique trigger count: 
Variant_0_evicts_0 : 0
Variant_0_evicts_1 : 0
Variant_0_evicts_2 : 0
Variant_0_evicts_3 : 0
Variant_1_evicts_0 : 0
Variant_1_evicts_1 : 0
Variant_1_evicts_2 : 0
Variant_1_evicts_3 : 0
Variant_2_evicts_0 : 0
Variant_2_evicts_1 : 0
Variant_2_evicts_2 : 0
Variant_2_evicts_3 : 0
Variant_3_evicts_0 : 0
Variant_3_evicts_1 : 0
Variant_3_evicts_2 : 0
Variant_3_evicts_3 : 0
BTB PER SET UNIQUE ADDR: 6 7 6 5 3 4 6 9 10 2 5 2 8 5 3 4 6 4 8 9 5 8 8 8 8 11 1 7 6 6 10 9 6 5 7 4 4 5 6 3 8 5 7 10 9 9 6 12 11 6 5 3 12 2 2 7 5 5 9 8 4 11 5 7 6 9 9 9 6 6 6 2 6 5 6 7 6 15 6 5 8 6 7 6 6 7 7 8 8 10 10 9 9 6 8 5 10 8 5 6 7 7 9 9 7 7 7 8 7 5 7 7 4 8 5 11 3 8 6 2 8 9 4 3 6 4 4 7 11 8 11 3 11 6 9 6 5 3 6 8 7 8 7 6 5 11 5 8 12 8 6 14 6 10 6 9 8 9 6 11 11 8 10 5 12 8 3 4 12 6 6 4 7 7 4 3 6 7 10 5 6 8 10 8 9 12 6 6 6 8 6 7 6 7 6 10 12 4 11 6 4 6 9 4 8 4 5 8 7 2 3 6 9 9 7 6 4 9 8 6 6 4 6 7 6 8 14 7 3 11 13 9 4 5 7 9 11 5 4 5 5 3 10 8 17 11 1 7 6 7 9 10 6 7 5 12 4 8 11 6 8 5 7 4 9 16 7 5 7 5 7 7 4 8 8 8 7 3 3 8 9 5 9 5 9 8 7 7 7 4 5 7 4 10 7 4 5 10 6 6 6 6 5 4 6 4 6 4 12 9 7 4 8 4 6 5 9 14 7 5 7 11 5 8 5 6 6 10 3 1 9 2 5 6 9 4 7 8 8 1 6 6 2 9 7 7 3 6 10 6 5 13 10 6 8 7 7 2 8 5 7 10 6 8 11 8 4 4 4 4 8 4 6 5 8 4 11 7 6 9 9 7 6 12 6 4 8 5 8 4 9 5 8 4 7 4 5 5 2 9 6 5 8 7 5 6 9 6 5 3 5 4 12 7 2 6 10 4 2 7 2 6 7 7 10 9 4 1 4 8 4 4 16 5 8 10 6 6 7 4 4 6 10 4 7 9 6 7 5 4 6 3 5 3 9 3 6 8 10 6 5 4 7 11 5 5 12 3 5 7 2 6 10 7 4 3 10 5 3 3 5 2 3 4 3 7 8 3 7 2 13 5 4 8 1 13 4 7 6 4 11 3 5 3 2 5 5 3 5 6 8 4 8 11 3 4 2 10 6 9 7 4 8 6 10 9 6 8 9 8 8 6 6 8 5 7 7 1 6 4 5 8 11 4 8 5 10 13 13 11 7 9 7 8 2 6 9 3 7 4 10 5 9 5 5 6 10 9 11 7 7 4 11 11 6 7 6 11 3 9 13 5 2 6 5 3 3 15 7 6 8 9 3 7 5 5 10 5 6 5 13 5 11 11 9 5 4 9 7 5 8 8 8 7 7 5 7 5 5 7 9 6 10 4 5 11 8 8 4 6 8 7 7 7 6 8 6 6 6 4 11 8 4 6 3 3 7 8 8 8 6 5 11 3 5 4 11 5 6 8 12 3 6 11 8 8 7 6 6 11 7 8 6 8 11 10 8 6 8 5 9 11 8 5 8 8 7 9 8 6 3 8 3 5 5 7 10 7 7 9 3 12 6 5 7 12 3 4 5 5 7 8 6 5 5 7 11 6 1 7 5 3 5 4 4 3 3 9 2 11 7 11 7 2 7 8 10 3 6 4 5 8 5 10 4 5 6 4 7 7 6 3 4 7 2 5 5 10 9 4 5 6 6 7 7 6 14 6 6 4 7 6 0 5 7 4 5 10 4 3 9 6 4 6 9 9 9 8 2 9 3 9 5 7 6 12 12 5 6 4 13 4 9 4 7 7 7 8 4 6 3 4 6 5 5 6 1 5 5 10 7 4 9 4 5 6 6 4 7 6 7 3 7 4 10 6 4 5 6 4 5 4 7 6 5 8 9 6 6 4 8 8 6 9 6 11 8 5 8 6 8 7 4 4 14 7 6 8 10 10 4 7 6 10 7 2 2 6 7 4 5 6 6 6 9 5 7 5 5 7 8 3 5 8 6 3 9 13 5 3 12 9 5 6 9 7 7 11 6 9 10 7 5 4 3 10 6 7 8 6 9 6 10 5 9 8 6 5 5 13 6 4 11 9 6 8 10 10 3 9 7 9 6 4 6 7 8 6 9 6 9 4 13 7 5 6 9 13 6 9 6 6 11 5 3 9 10 9 10 5 3 5 2 9 12 6 8 5 4 7 13 6 4 5 5 7 4 5 9 8 8 7 7 11 5 11 6 11 5 6 5 5 6 4 8 6 7 6 7 6 9 4 8 6 11 5 9 5 3 8 11 6 14 5 
BTB PER SET COUNT: 6 1470 6 5 3 4 6 1972 7335 2 8 1955 1474 9 3 6 1227 4 31 3425 5 8 13 1354 5871 1476 1 7 1471 6 3917 381 2901 7 7 6 2936 5 10 3 31 5 11 2231 4897 14 6 5384 2929 6 5 3 12343 2 2 1470 5 5 23 117 4 2972 6 7 7 621 2084 32 6 6 1233 2 10 5 980 12 494 7201 993 5 1100 1468 1450 745 858 1116 7 19 3908 2631 1408 516 1964 6 10 6 990 9 5 6 8 16 13 966 9 9 1469 3411 2446 5 1965 11 4 17 5 7100 3 10 6 2 8 30 4 3 1726 5 4 12 3431 1959 1494 3 3436 6 3433 6 6 4 6 10 7 22 7 6 5 1963 5 8 18 2449 6 5944 10 9285 6 16 10 1965 980 989 4918 18 1962 982 35 2936 3 4 4410 982 6 4 15 147 5 3 6 495 1973 5 6 16 1000 9 18 8811 8 6 2937 8 9 10 6 1476 1468 37 1971 4 33 6 4 10 16 8 14 4 5 2864 7 2 3 7 266 4893 7 6 4 19 35 6 6 4 9 7 7 8 6473 2012 3 2947 8205 9 4 5 20 3913 3433 5 4 5 6 3 5867 11 4265 18 1 7 6 10 10 3782 9 8 6 4288 4 10 1477 8 2383 5 7 7 2647 8557 983 5 2450 5 1959 14 4 8 14 751 8 3 3 2451 13 980 20 5 3437 1473 7 993 9 4 5 2452 980 3930 2932 983 5 4056 6 6 6 7 5 4 7 5 8 4 4647 9 21 4 994 4 6 6 23 2467 1510 6 9 19 5 14 33 11 6 34 4 1 3540 2 5 6 1962 4 2448 10 8 1 8 6 2 2771 987 1078 3 6 480 8 5 1063 10 1958 8 15 9 2 5140 39 11 2441 21 2946 2352 8 6 4 6 7 13 6 9 7 70 4 7579 7 6 872 3428 2931 10 7961 7 4 48 5 10 4 2447 6 3911 4 1473 6 1472 6 3 21 13 9 1472 8 736 6 2940 9 5 2319 6 4 2479 11 978 6 209 4 4 1512 2 983 11 29 26 14 6 1 4 9 142 6 5661 5 1807 37 9 6 1959 4 4 10 32 4 8 1008 7 988 6 4 6 5 6 3 249 3 10 10 585 6 981 4 24 3904 25 5 3660 3 6 8 2 17 4756 1473 330 3 24939 5 3 3 7 2 3 492 3 7 1504 392 7 2 2203 5 4 16 1 7457 4 8 6 4 79 14 5 3 2 5 6 3 5 11 23 4 9 23 3 4 2 9775 6 985 8 1470 9 432 21 1960 10 8 18 11 18 8 6 15 5 990 11 1 11 4 8 1471 29 6 1964 5 20 829 2970 8266 12 1029 9 13 2 10 1718 3 7 4 5994 1958 2450 5 5 6 46 13 34 986 988 4 1484 4890 1468 2452 6 3924 3 4902 9270 357 2 982 1471 3 3 7338 8 7 13 17 5 1964 981 5 11 5 7 6 34 9 7092 757 2940 2933 4 986 7 5 1975 12 16 7 11 5 1964 7 6 7 14 1737 1847 4 1470 1275 13 2454 6 2753 496 1472 8 12 6 19 8 6 10 4 7838 31 4 8 3 5 17 9 1002 16 7 5 10268 3 8 5 15 6 1474 3909 8102 3 15 7257 10 1474 2968 988 24 61 1963 14 8 984 6351 3485 501 7 2431 6 2941 7556 10 985 21013 995 30 4890 1473 7 5 2237 3 5 5 7 8449 11 15 49 3 2942 6 5 175 2952 4 2447 6 1470 51 8 15 980 982 11 1506 737 1 7 5 3 6 4 1957 3 979 1753 2 9538 1961 1949 1961 2 8 12 3162 3 19 4 8 13 5 10014 4 5 496 4 13 984 8 4 7 808 2 5 5 10 6355 1958 5 8 985 756 3922 6 6184 6 6 4 9 23 0 172 25 1470 8 3353 4 3 2449 20 4 3428 1498 93 11 19 404 987 4 1836 5 7 231 4405 1144 5 6 4 2811 7 393 981 1984 2937 9 11 5 11 3 5 8 494 6 7 1 5 9 4016 13 4 3678 380 1468 10 1958 4 2445 99 1690 3 500 5 8052 982 980 6 6 4 391 4 11 2437 5 20 3721 9 8 5 3422 1742 12 15 12 11714 11 5 1963 20 24 2449 4 4 7174 987 6 984 2940 1649 4 10 6 1156 7 2 2 6 11 4 5 6 10 8 20 5 1471 5 5 996 8 3 5 1602 6 3 45 3198 7 3 5216 2609 146 57 2660 7 7 3447 6 10 1121 10 8 4 3 12 8 985 3395 2270 13 8 3920 5 34 269 9 5 5 2956 6 492 3507 1475 6 8 3472 1891 5 3428 7 912 9 982 7 7 11 251 9 7 3589 4 8311 11 5 6 1518 11247 11 2936 6 499 8312 5 4 1019 52 9 22 5 3 5 2 3305 5856 10 990 5 8 7 1494 6 492 5 5 13 4 5 11 11 1472 986 7 3772 5 1490 7 5633 14 9 6 6 10 4 19 6 1469 10 10 7 6850 4 7217 369 3098 6 2212 6 3 8 3481 6 4252 5 
To predecode: 0
Predecoding something: 0
Predecode request dropped: 0
sizeofblock_0 0
sizeofblock_1 270388
sizeofblock_2 188584
sizeofblock_3 138498
sizeofblock_4 68075
sizeofblock_5 0
sizeofblock_6 0
sizeofblock_7 0
sizeofblock_8 0
Variant_0 Correct: 0 Incorrect: 0 Accuracy: -nan
Variant_1 Correct: 0 Incorrect: 0 Accuracy: -nan
Variant_2 Correct: 0 Incorrect: 0 Accuracy: -nan
Variant_3 Correct: 0 Incorrect: 0 Accuracy: -nan
