
*** ChampSim Multicore Out-of-Order Simulator ***

Warmup Instructions: 50000000
Simulation Instructions: 50000000
Number of CPUs: 1
LLC sets: 2048
LLC ways: 16
Off-chip DRAM Size: 4096 MB Channels: 1 Width: 64-bit Data Rate: 6400 MT/s
CPU 0 runs ./micro_traces/srv274.trace.gz
.gz
ITLB has LRU replacement policy
DTLB has LRU replacement policy
STLB has LRU replacement policy
FDIP Prefetcher at L1I
L1I has LRU replacement policy
L1D has LRU replacement policy
Initialize SRRIP state for L2C
Initialize DRRIP state for LLC
Heartbeat_Variant_0 : 1296 0.316406 per_variant_size: 0 1296 0 0 0 0 0 0 0 
Heartbeat_Variant_1 : 2477 0.604736 per_variant_size: 0 591 1886 0 0 0 0 0 0 
Heartbeat_Variant_2 : 0 0 per_variant_size: 0 0 0 0 0 0 0 0 0 
Heartbeat_Variant_3 : 0 0 per_variant_size: 0 0 0 0 0 0 0 0 0 
Heartbeat_Variant_0_evicts 0 : 5730 1 : 347 2 : 0 3 : 0 
Heartbeat_Variant_1_evicts 0 : 303 1 : 0 2 : 0 3 : 0 
Heartbeat_Variant_2_evicts 0 : 0 1 : 0 2 : 0 3 : 0 
Heartbeat_Variant_3_evicts 0 : 0 1 : 0 2 : 0 3 : 0 
Heartbeat CPU 0 instructions: 10000001 cycles: 2796915 heartbeat IPC: 3.57537 cumulative IPC: 3.57537 (Simulation time: 0 hr 1 min 38 sec) 
Heartbeat_Variant_0 : 1320 0.322266 per_variant_size: 0 1320 0 0 0 0 0 0 0 
Heartbeat_Variant_1 : 2536 0.619141 per_variant_size: 0 538 1998 0 0 0 0 0 0 
Heartbeat_Variant_2 : 0 0 per_variant_size: 0 0 0 0 0 0 0 0 0 
Heartbeat_Variant_3 : 0 0 per_variant_size: 0 0 0 0 0 0 0 0 0 
Heartbeat_Variant_0_evicts 0 : 5655 1 : 161 2 : 0 3 : 0 
Heartbeat_Variant_1_evicts 0 : 158 1 : 0 2 : 0 3 : 0 
Heartbeat_Variant_2_evicts 0 : 0 1 : 0 2 : 0 3 : 0 
Heartbeat_Variant_3_evicts 0 : 0 1 : 0 2 : 0 3 : 0 
Heartbeat CPU 0 instructions: 20000000 cycles: 5592873 heartbeat IPC: 3.57659 cumulative IPC: 3.57598 (Simulation time: 0 hr 3 min 14 sec) 
Heartbeat_Variant_0 : 1345 0.328369 per_variant_size: 0 1345 0 0 0 0 0 0 0 
Heartbeat_Variant_1 : 2579 0.629639 per_variant_size: 0 481 2098 0 0 0 0 0 0 
Heartbeat_Variant_2 : 0 0 per_variant_size: 0 0 0 0 0 0 0 0 0 
Heartbeat_Variant_3 : 0 0 per_variant_size: 0 0 0 0 0 0 0 0 0 
Heartbeat_Variant_0_evicts 0 : 5654 1 : 186 2 : 0 3 : 0 
Heartbeat_Variant_1_evicts 0 : 180 1 : 0 2 : 0 3 : 0 
Heartbeat_Variant_2_evicts 0 : 0 1 : 0 2 : 0 3 : 0 
Heartbeat_Variant_3_evicts 0 : 0 1 : 0 2 : 0 3 : 0 
Heartbeat CPU 0 instructions: 30000002 cycles: 8389897 heartbeat IPC: 3.57523 cumulative IPC: 3.57573 (Simulation time: 0 hr 4 min 52 sec) 
Heartbeat_Variant_0 : 1356 0.331055 per_variant_size: 0 1356 0 0 0 0 0 0 0 
Heartbeat_Variant_1 : 2589 0.63208 per_variant_size: 0 484 2105 0 0 0 0 0 0 
Heartbeat_Variant_2 : 0 0 per_variant_size: 0 0 0 0 0 0 0 0 0 
Heartbeat_Variant_3 : 0 0 per_variant_size: 0 0 0 0 0 0 0 0 0 
Heartbeat_Variant_0_evicts 0 : 5545 1 : 82 2 : 0 3 : 0 
Heartbeat_Variant_1_evicts 0 : 77 1 : 0 2 : 0 3 : 0 
Heartbeat_Variant_2_evicts 0 : 0 1 : 0 2 : 0 3 : 0 
Heartbeat_Variant_3_evicts 0 : 0 1 : 0 2 : 0 3 : 0 
Heartbeat CPU 0 instructions: 40000002 cycles: 11186604 heartbeat IPC: 3.57563 cumulative IPC: 3.57571 (Simulation time: 0 hr 6 min 30 sec) 
Heartbeat_Variant_0 : 1357 0.331299 per_variant_size: 0 1357 0 0 0 0 0 0 0 
Heartbeat_Variant_1 : 2609 0.636963 per_variant_size: 0 505 2104 0 0 0 0 0 0 
Heartbeat_Variant_2 : 0 0 per_variant_size: 0 0 0 0 0 0 0 0 0 
Heartbeat_Variant_3 : 0 0 per_variant_size: 0 0 0 0 0 0 0 0 0 
Heartbeat_Variant_0_evicts 0 : 5668 1 : 118 2 : 0 3 : 0 
Heartbeat_Variant_1_evicts 0 : 123 1 : 0 2 : 0 3 : 0 
Heartbeat_Variant_2_evicts 0 : 0 1 : 0 2 : 0 3 : 0 
Heartbeat_Variant_3_evicts 0 : 0 1 : 0 2 : 0 3 : 0 
Heartbeat CPU 0 instructions: 50000000 cycles: 13983587 heartbeat IPC: 3.57528 cumulative IPC: 3.57562 (Simulation time: 0 hr 8 min 5 sec) 

Warmup complete CPU 0 instructions: 50000004 cycles: 13983588 (Simulation time: 0 hr 8 min 5 sec) 

Cycle: 20000000 FTQ IN: 57875209 FTQ occupancy: 18.5668 DECODE IN: 57875203 DECODE occupancy: 47.9462 ROB IN: 57875192 ROB occupancy: 294.689 ROB OUT: 57874887
Heartbeat_Variant_0 : 1359 0.331787 per_variant_size: 0 1359 0 0 0 0 0 0 0 
Heartbeat_Variant_1 : 2611 0.637451 per_variant_size: 0 519 2092 0 0 0 0 0 0 
Heartbeat_Variant_2 : 0 0 per_variant_size: 0 0 0 0 0 0 0 0 0 
Heartbeat_Variant_3 : 0 0 per_variant_size: 0 0 0 0 0 0 0 0 0 
Heartbeat_Variant_0_evicts 0 : 5433 1 : 26 2 : 0 3 : 0 
Heartbeat_Variant_1_evicts 0 : 24 1 : 0 2 : 0 3 : 0 
Heartbeat_Variant_2_evicts 0 : 0 1 : 0 2 : 0 3 : 0 
Heartbeat_Variant_3_evicts 0 : 0 1 : 0 2 : 0 3 : 0 
Heartbeat CPU 0 instructions: 60000003 cycles: 21650930 heartbeat IPC: 1.30423 cumulative IPC: 1.30423 (Simulation time: 0 hr 9 min 36 sec) 
Heartbeat_Variant_0 : 1357 0.331299 per_variant_size: 0 1357 0 0 0 0 0 0 0 
Heartbeat_Variant_1 : 2627 0.641357 per_variant_size: 0 523 2104 0 0 0 0 0 0 
Heartbeat_Variant_2 : 0 0 per_variant_size: 0 0 0 0 0 0 0 0 0 
Heartbeat_Variant_3 : 0 0 per_variant_size: 0 0 0 0 0 0 0 0 0 
Heartbeat_Variant_0_evicts 0 : 5618 1 : 69 2 : 0 3 : 0 
Heartbeat_Variant_1_evicts 0 : 72 1 : 0 2 : 0 3 : 0 
Heartbeat_Variant_2_evicts 0 : 0 1 : 0 2 : 0 3 : 0 
Heartbeat_Variant_3_evicts 0 : 0 1 : 0 2 : 0 3 : 0 
Heartbeat CPU 0 instructions: 70000000 cycles: 29330400 heartbeat IPC: 1.30217 cumulative IPC: 1.3032 (Simulation time: 0 hr 11 min 6 sec) 
Cycle: 30000000 FTQ IN: 13013107 FTQ occupancy: 8.62052 DECODE IN: 13013045 DECODE occupancy: 20.5648 ROB IN: 13013056 ROB occupancy: 171.967 ROB OUT: 13013215
Heartbeat_Variant_0 : 1371 0.334717 per_variant_size: 0 1371 0 0 0 0 0 0 0 
Heartbeat_Variant_1 : 2626 0.641113 per_variant_size: 0 504 2122 0 0 0 0 0 0 
Heartbeat_Variant_2 : 0 0 per_variant_size: 0 0 0 0 0 0 0 0 0 
Heartbeat_Variant_3 : 0 0 per_variant_size: 0 0 0 0 0 0 0 0 0 
Heartbeat_Variant_0_evicts 0 : 5791 1 : 121 2 : 0 3 : 0 
Heartbeat_Variant_1_evicts 0 : 112 1 : 0 2 : 0 3 : 0 
Heartbeat_Variant_2_evicts 0 : 0 1 : 0 2 : 0 3 : 0 
Heartbeat_Variant_3_evicts 0 : 0 1 : 0 2 : 0 3 : 0 
Heartbeat CPU 0 instructions: 80000003 cycles: 37002030 heartbeat IPC: 1.3035 cumulative IPC: 1.3033 (Simulation time: 0 hr 12 min 37 sec) 
Cycle: 40000000 FTQ IN: 13001247 FTQ occupancy: 8.68429 DECODE IN: 13001252 DECODE occupancy: 20.5962 ROB IN: 13001240 ROB occupancy: 170.331 ROB OUT: 13001052
Heartbeat_Variant_0 : 1373 0.335205 per_variant_size: 0 1373 0 0 0 0 0 0 0 
Heartbeat_Variant_1 : 2684 0.655273 per_variant_size: 0 445 2239 0 0 0 0 0 0 
Heartbeat_Variant_2 : 0 0 per_variant_size: 0 0 0 0 0 0 0 0 0 
Heartbeat_Variant_3 : 0 0 per_variant_size: 0 0 0 0 0 0 0 0 0 
Heartbeat_Variant_0_evicts 0 : 6023 1 : 797 2 : 0 3 : 0 
Heartbeat_Variant_1_evicts 0 : 807 1 : 0 2 : 0 3 : 0 
Heartbeat_Variant_2_evicts 0 : 0 1 : 0 2 : 0 3 : 0 
Heartbeat_Variant_3_evicts 0 : 0 1 : 0 2 : 0 3 : 0 
Heartbeat CPU 0 instructions: 90000003 cycles: 44894223 heartbeat IPC: 1.26707 cumulative IPC: 1.29405 (Simulation time: 0 hr 14 min 10 sec) 
Cycle: 50000000 FTQ IN: 12800754 FTQ occupancy: 8.1857 DECODE IN: 12800792 DECODE occupancy: 19.2878 ROB IN: 12800744 ROB occupancy: 165.076 ROB OUT: 12801077
Heartbeat_Variant_0 : 1375 0.335693 per_variant_size: 0 1375 0 0 0 0 0 0 0 
Heartbeat_Variant_1 : 2685 0.655518 per_variant_size: 0 444 2241 0 0 0 0 0 0 
Heartbeat_Variant_2 : 0 0 per_variant_size: 0 0 0 0 0 0 0 0 0 
Heartbeat_Variant_3 : 0 0 per_variant_size: 0 0 0 0 0 0 0 0 0 
Heartbeat_Variant_0_evicts 0 : 5703 1 : 265 2 : 0 3 : 0 
Heartbeat_Variant_1_evicts 0 : 263 1 : 0 2 : 0 3 : 0 
Heartbeat_Variant_2_evicts 0 : 0 1 : 0 2 : 0 3 : 0 
Heartbeat_Variant_3_evicts 0 : 0 1 : 0 2 : 0 3 : 0 
Heartbeat CPU 0 instructions: 100000003 cycles: 52524357 heartbeat IPC: 1.31059 cumulative IPC: 1.29733 (Simulation time: 0 hr 15 min 40 sec) 
Finished CPU 0 instructions: 50000003 cycles: 38540770 cumulative IPC: 1.29733 (Simulation time: 0 hr 15 min 40 sec) 

ChampSim completed all CPUs

Region of Interest Statistics

CPU 0 cumulative IPC: 1.29733 instructions: 50000003 cycles: 38540770
 Fetch stage stalled: 65.0136  Sim cycles: 38540770 fetch stall cycle: 25056738
 Empty decode stage: 63.1846  Sim cycles: 38540770 fetch stall cycle: 24351845
ITLB TOTAL     ACCESS:    5876371  HIT:    5380072  MISS:     496299  HIT %:    91.5543  MISS %:    8.44567   MPKI: 9.92598
ITLB LOAD TRANSLATION INSTRUCTION	ACCESS:    5764182  HIT:    5267883  MISS:     496299  HIT %:    91.3899  MISS %:    8.61005  MPKI: 9.92598
ITLB TRANSLATION FROM L1D PREFETCHER INSTRUCTION	ACCESS:     112189  HIT:     112189  MISS:          0  HIT %:        100  MISS %:          0  MPKI: 0

ITLB AVERAGE MISS LATENCY: 9.05975 cycles
ITLB RQ	ACCESS:    7998277	FORWARD:          0	MERGED:    1712353	TO_CACHE:    6285924

DTLB TOTAL     ACCESS:    9130301  HIT:    8656701  MISS:     473600  HIT %:    94.8129  MISS %:    5.18712   MPKI: 9.472
DTLB LOAD TRANSLATION DATA	ACCESS:    9130301  HIT:    8656701  MISS:     473600  HIT %:    94.8129  MISS %:    5.18712  MPKI: 9.472

DTLB AVERAGE MISS LATENCY: 9.33527 cycles
DTLB RQ	ACCESS:   13470187	FORWARD:          0	MERGED:    4303975	TO_CACHE:    9166212

STLB TOTAL     ACCESS:    1216341  HIT:    1214280  MISS:       2061  HIT %:    99.8306  MISS %:   0.169443   MPKI: 0.04122
STLB LOAD TRANSLATION INSTRUCTION	ACCESS:     496299  HIT:     496048  MISS:        251  HIT %:    99.9494  MISS %:  0.0505744  MPKI: 0.00502
STLB LOAD TRANSLATION DATA	ACCESS:     473357  HIT:     471561  MISS:       1796  HIT %:    99.6206  MISS %:   0.379418  MPKI: 0.03592
STLB TRANSLATION FROM L1D PREFETCHER DATA	ACCESS:     246685  HIT:     246671  MISS:         14  HIT %:    99.9943  MISS %: 0.00567525  MPKI: 0.00028

STLB AVERAGE MISS LATENCY: 76.5764 cycles
STLB RQ	ACCESS:    1335637	FORWARD:          0	MERGED:     119262	TO_CACHE:    1216375

STLB Hit, L1D data hit: 0
STLB Hit, L2C data hit: 0
STLB Hit, LLC data hit: 0
STLB Hit, LLC data miss: 0
STLB STLB hints to L2: 0
L1D TOTAL     ACCESS:   13224514  HIT:   12102425  MISS:    1122089  HIT %:    91.5151  MISS %:    8.48492   MPKI: 22.4418
L1D LOAD DATA	ACCESS:    6670763  HIT:    5929827  MISS:     740936  HIT %:    88.8928  MISS %:    11.1072  MPKI: 14.8187
L1D RFO DATA	ACCESS:    6228483  HIT:    5941895  MISS:     286588  HIT %:    95.3988  MISS %:    4.60125  MPKI: 5.73176
L1D PREFETCH DATA	ACCESS:     325268  HIT:     230703  MISS:      94565  HIT %:    70.9271  MISS %:    29.0729  MPKI: 1.8913

L1D PREFETCH  REQUESTED:     731796  ISSUED:     731796  USEFUL:      33986  USELESS:      68643
L1D USEFUL LOAD PREFETCHES:      33986 PREFETCH ISSUED TO LOWER LEVEL:     102684  ACCURACY: 33.0977
 TIMELY PREFETCHES:      33986 LATE PREFETCHES: 8062 DROPPED PREFETCHES: 3
L1D AVERAGE MISS LATENCY: 236338 cycles
L1D RQ	ACCESS:   10764834	FORWARD:          0	MERGED:    3896118	TO_CACHE:    6705522
L1D WQ	ACCESS:    6952233	FORWARD:     163514	MERGED:     187568	TO_CACHE:    6764665
L1D PQ	ACCESS:     366058	FORWARD:          0	MERGED:          0	TO_CACHE:     365738

L1D UNIQUE REGIONS ACCESSED: 0
L1D REGIONS CONFLICTS: 0
L1D Cross Page Prefetch Requests: 5298
L1D Same Page Prefetch Requests: 744282
L1D ROI Sum of L1D PQ occupancy: 4654959
L1D PREFETCHES PUSHED FROM L2C: 0
L1I TOTAL     ACCESS:    7261558  HIT:    4489055  MISS:    2772503  HIT %:    61.8194  MISS %:    38.1806   MPKI: 55.4501
L1I LOAD INSTRUCTION	ACCESS:    6618960  HIT:    3846457  MISS:    2772503  HIT %:    58.1127  MISS %:    41.8873  MPKI: 55.4501
L1I PREFETCH INSTRUCTION	ACCESS:     642598  HIT:     642598  MISS:          0  HIT %:        100  MISS %:          0  MPKI: 0

L1I PREFETCH  REQUESTED:    1525862  ISSUED:    1525862  USEFUL:          0  USELESS:          0
L1I USEFUL LOAD PREFETCHES:          0 PREFETCH ISSUED TO LOWER LEVEL:          0  ACCURACY: -nan
 TIMELY PREFETCHES:          0 LATE PREFETCHES: 0 DROPPED PREFETCHES: 0
L1I AVERAGE MISS LATENCY: 17.0129 cycles
L1I RQ	ACCESS:    9443830	FORWARD:          0	MERGED:    2550461	TO_CACHE:    6893369
L1I PQ	ACCESS:    1525862	FORWARD:          0	MERGED:     420954	TO_CACHE:    1104908

L1BTB TOTAL     ACCESS:    5671175  HIT:    2033351  MISS:    3637824  HIT %:    35.8541  MISS %:    64.1459   MPKI: 72.7565
L1BTB BRANCH_DIRECT_JUMP	ACCESS:     548828 HIT:     144099 MISS:     404729 AVERAGE STALL: 35.4926 AVERAGE FETCH STALL: 15.6041 AVERAGE FETCH QUEUE STALL: 7.76027 AVERAGE DECODE STALL: 11.203 AVERAGE EXECUTE STALL: 2.1903e+15
L1BTB BRANCH_INDIRECT	ACCESS:     182711 HIT:      65740 MISS:     116971 AVERAGE STALL: 78.6435 AVERAGE FETCH STALL: 10.7686 AVERAGE FETCH QUEUE STALL: 6.61504 AVERAGE DECODE STALL: 7.36283 AVERAGE EXECUTE STALL: 52.9343
L1BTB BRANCH_CONDITIONAL	ACCESS:    2703689 HIT:    1407466 MISS:    1296223 AVERAGE STALL: 41.9957 AVERAGE FETCH STALL: 27.5504 AVERAGE FETCH QUEUE STALL: 6.6974 AVERAGE DECODE STALL: 7.16541 AVERAGE EXECUTE STALL: 2.61693e+15
L1BTB BRANCH_DIRECT_CALL	ACCESS:     946159 HIT:     105327 MISS:     840832 AVERAGE STALL: 48.94 AVERAGE FETCH STALL: 28.4194 AVERAGE FETCH QUEUE STALL: 11.6841 AVERAGE DECODE STALL: 8.11524 AVERAGE EXECUTE STALL: 6.79188e+15
L1BTB BRANCH_INDIRECT_CALL	ACCESS:     171813 HIT:      21108 MISS:     150705 AVERAGE STALL: 103.569 AVERAGE FETCH STALL: 13.1814 AVERAGE FETCH QUEUE STALL: 4.83899 AVERAGE DECODE STALL: 7.15822 AVERAGE EXECUTE STALL: 77.891
L1BTB BRANCH_RETURN	ACCESS:    1117975 HIT:     289611 MISS:     828364 AVERAGE STALL: 38.7573 AVERAGE FETCH STALL: 16.466 AVERAGE FETCH QUEUE STALL: 3.48362 AVERAGE DECODE STALL: 5.12462 AVERAGE EXECUTE STALL: 4.12577e+14
L1BTB BRANCH_OTHER ACCESS:          0 HIT:          0 MISS:          0 AVERAGE STALL: -nan AVERAGE FETCH STALL: -nan AVERAGE FETCH QUEUE STALL: -nan AVERAGE DECODE STALL: -nan AVERAGE EXECUTE STALL: -nan
L1BTB TOTAL ROB OCCUPANCY AT BTB MISS: 1.92859

L2BTB TOTAL     ACCESS:    3612482  HIT:    3541492  MISS:      70990  HIT %:    98.0349  MISS %:    1.96513   MPKI: 1.4198
L2BTB BRANCH_DIRECT_JUMP	ACCESS:     400616 HIT:     396267 MISS:       4349 AVERAGE STALL: 35.4926 AVERAGE FETCH STALL: 15.6041 AVERAGE FETCH QUEUE STALL: 7.76027 AVERAGE DECODE STALL: 11.203 AVERAGE EXECUTE STALL: 2.1903e+15
L2BTB BRANCH_INDIRECT	ACCESS:     106640 HIT:     103955 MISS:       2685 AVERAGE STALL: 78.6435 AVERAGE FETCH STALL: 10.7686 AVERAGE FETCH QUEUE STALL: 6.61504 AVERAGE DECODE STALL: 7.36283 AVERAGE EXECUTE STALL: 52.9343
L2BTB BRANCH_CONDITIONAL	ACCESS:    1296223 HIT:    1289034 MISS:       7189 AVERAGE STALL: 41.9957 AVERAGE FETCH STALL: 27.5504 AVERAGE FETCH QUEUE STALL: 6.6974 AVERAGE DECODE STALL: 7.16541 AVERAGE EXECUTE STALL: 2.61693e+15
L2BTB BRANCH_DIRECT_CALL	ACCESS:     840832 HIT:     838043 MISS:       2789 AVERAGE STALL: 48.94 AVERAGE FETCH STALL: 28.4194 AVERAGE FETCH QUEUE STALL: 11.6841 AVERAGE DECODE STALL: 8.11524 AVERAGE EXECUTE STALL: 6.79188e+15
L2BTB BRANCH_INDIRECT_CALL	ACCESS:     141223 HIT:     130582 MISS:      10641 AVERAGE STALL: 103.569 AVERAGE FETCH STALL: 13.1814 AVERAGE FETCH QUEUE STALL: 4.83899 AVERAGE DECODE STALL: 7.15822 AVERAGE EXECUTE STALL: 77.891
L2BTB BRANCH_RETURN	ACCESS:     826948 HIT:     783611 MISS:      43337 AVERAGE STALL: 38.7573 AVERAGE FETCH STALL: 16.466 AVERAGE FETCH QUEUE STALL: 3.48362 AVERAGE DECODE STALL: 5.12462 AVERAGE EXECUTE STALL: 4.12577e+14
L2BTB BRANCH_OTHER ACCESS:          0 HIT:          0 MISS:          0 AVERAGE STALL: -nan AVERAGE FETCH STALL: -nan AVERAGE FETCH QUEUE STALL: -nan AVERAGE DECODE STALL: -nan AVERAGE EXECUTE STALL: -nan
L2BTB TOTAL ROB OCCUPANCY AT BTB MISS: 98.8288

L2C TOTAL     ACCESS:    4498581  HIT:    4054520  MISS:     444061  HIT %:    90.1289  MISS %:    9.87113   MPKI: 8.88122
L2C LOAD INSTRUCTION	ACCESS:    2772503  HIT:    2526393  MISS:     246110  HIT %:    91.1232  MISS %:    8.87682  MPKI: 4.9222
L2C LOAD TRANSLATION INSTRUCTION	ACCESS:        285  HIT:         82  MISS:        203  HIT %:    28.7719  MISS %:    71.2281  MPKI: 0.00406
L2C LOAD DATA	ACCESS:     732860  HIT:     661803  MISS:      71057  HIT %:    90.3042  MISS %:    9.69585  MPKI: 1.42114
L2C RFO DATA	ACCESS:     286504  HIT:     241169  MISS:      45335  HIT %:    84.1765  MISS %:    15.8235  MPKI: 0.9067
L2C PREFETCH DATA	ACCESS:     181131  HIT:     112082  MISS:      69049  HIT %:     61.879  MISS %:     38.121  MPKI: 1.38098
L2C WRITEBACK DATA	ACCESS:     523400  HIT:     512503  MISS:      10897  HIT %:     97.918  MISS %:    2.08196  MPKI: 0.21794
L2C LOAD TRANSLATION DATA	ACCESS:       1869  HIT:        472  MISS:       1397  HIT %:    25.2541  MISS %:    74.7459  MPKI: 0.02794
L2C TRANSLATION FROM L1D PREFETCHER DATA	ACCESS:         29  HIT:         16  MISS:         13  HIT %:    55.1724  MISS %:    44.8276  MPKI: 0.00026

L2C PREFETCH  REQUESTED:      86381  ISSUED:      86381  USEFUL:       7766  USELESS:      61709
L2C USEFUL LOAD PREFETCHES:       7766 PREFETCH ISSUED TO LOWER LEVEL:      69405  ACCURACY: 11.1894
 TIMELY PREFETCHES:       7766 LATE PREFETCHES: 356 DROPPED PREFETCHES: 0
L2C AVERAGE MISS LATENCY: 39.4206 cycles
L2C RQ	ACCESS:    3794091	FORWARD:          0	MERGED:          0	TO_CACHE:    3794050
L2C WQ	ACCESS:     523400	FORWARD:         41	MERGED:          0	TO_CACHE:     523400
L2C PQ	ACCESS:     189065	FORWARD:          0	MERGED:       3911	TO_CACHE:     185154

L2C Dense regions hint from L2: 0
PSCL5 TOTAL     ACCESS:       4134  HIT:       2067  MISS:       2067  HIT %:         50  MISS %:         50   MPKI: 0.04134
PSCL5 LOAD TRANSLATION INSTRUCTION	ACCESS:       4076  HIT:       2038  MISS:       2038  HIT %:         50  MISS %:         50  MPKI: 0.04076
PSCL5 TRANSLATION FROM L1D PREFETCHER INSTRUCTION	ACCESS:         58  HIT:         29  MISS:         29  HIT %:         50  MISS %:         50  MPKI: 0.00058


PSCL4 TOTAL     ACCESS:       3937  HIT:       1963  MISS:       1974  HIT %:    49.8603  MISS %:    50.1397   MPKI: 0.03948
PSCL4 LOAD TRANSLATION INSTRUCTION	ACCESS:       3168  HIT:       1937  MISS:       1231  HIT %:    61.1427  MISS %:    38.8573  MPKI: 0.02462
PSCL4 TRANSLATION FROM L1D PREFETCHER INSTRUCTION	ACCESS:         44  HIT:         26  MISS:         18  HIT %:    59.0909  MISS %:    40.9091  MPKI: 0.00036
PSCL4 LOAD TRANSLATION DATA	ACCESS:        717  HIT:          0  MISS:        717  HIT %:          0  MISS %:        100  MPKI: 0.01434
PSCL4 TRANSLATION FROM L1D PREFETCHER DATA	ACCESS:          8  HIT:          0  MISS:          8  HIT %:          0  MISS %:        100  MPKI: 0.00016


PSCL3 TOTAL     ACCESS:       4029  HIT:       2009  MISS:       2020  HIT %:    49.8635  MISS %:    50.1365   MPKI: 0.0404
PSCL3 LOAD TRANSLATION INSTRUCTION	ACCESS:       3214  HIT:       1983  MISS:       1231  HIT %:    61.6988  MISS %:    38.3012  MPKI: 0.02462
PSCL3 TRANSLATION FROM L1D PREFETCHER INSTRUCTION	ACCESS:         44  HIT:         26  MISS:         18  HIT %:    59.0909  MISS %:    40.9091  MPKI: 0.00036
PSCL3 LOAD TRANSLATION DATA	ACCESS:        763  HIT:          0  MISS:        763  HIT %:          0  MISS %:        100  MPKI: 0.01526
PSCL3 TRANSLATION FROM L1D PREFETCHER DATA	ACCESS:          8  HIT:          0  MISS:          8  HIT %:          0  MISS %:        100  MPKI: 0.00016


PSCL2 TOTAL     ACCESS:       4037  HIT:       1970  MISS:       2067  HIT %:    48.7986  MISS %:    51.2014   MPKI: 0.04134
PSCL2 LOAD TRANSLATION INSTRUCTION	ACCESS:       2201  HIT:       1941  MISS:        260  HIT %:    88.1872  MISS %:    11.8128  MPKI: 0.0052
PSCL2 TRANSLATION FROM L1D PREFETCHER INSTRUCTION	ACCESS:         29  HIT:         29  MISS:          0  HIT %:        100  MISS %:          0  MPKI: 0
PSCL2 LOAD TRANSLATION DATA	ACCESS:       1778  HIT:          0  MISS:       1778  HIT %:          0  MISS %:        100  MPKI: 0.03556
PSCL2 TRANSLATION FROM L1D PREFETCHER DATA	ACCESS:         29  HIT:          0  MISS:         29  HIT %:          0  MISS %:        100  MPKI: 0.00058


LLC TOTAL     ACCESS:     498133  HIT:     469271  MISS:      28862  HIT %:     94.206  MISS %:    5.79403   MPKI: 0.57724
LLC LOAD INSTRUCTION	ACCESS:     246110  HIT:     244926  MISS:       1184  HIT %:    99.5189  MISS %:   0.481086  MPKI: 0.02368
LLC LOAD TRANSLATION INSTRUCTION	ACCESS:        203  HIT:        166  MISS:         37  HIT %:    81.7734  MISS %:    18.2266  MPKI: 0.00074
LLC LOAD DATA	ACCESS:      70730  HIT:      67012  MISS:       3718  HIT %:    94.7434  MISS %:    5.25661  MPKI: 0.07436
LLC RFO DATA	ACCESS:      45303  HIT:      31826  MISS:      13477  HIT %:    70.2514  MISS %:    29.7486  MPKI: 0.26954
LLC PREFETCH DATA	ACCESS:      69405  HIT:      59438  MISS:       9967  HIT %:    85.6394  MISS %:    14.3606  MPKI: 0.19934
LLC WRITEBACK DATA	ACCESS:      64972  HIT:      64592  MISS:        380  HIT %:    99.4151  MISS %:   0.584867  MPKI: 0.0076
LLC LOAD TRANSLATION DATA	ACCESS:       1397  HIT:       1300  MISS:         97  HIT %:    93.0565  MISS %:    6.94345  MPKI: 0.00194
LLC TRANSLATION FROM L1D PREFETCHER DATA	ACCESS:         13  HIT:         11  MISS:          2  HIT %:    84.6154  MISS %:    15.3846  MPKI: 4e-05

LLC AVERAGE MISS LATENCY: 154.701 cycles
LLC RQ	ACCESS:     363759	FORWARD:          0	MERGED:          0	TO_CACHE:     363756
LLC WQ	ACCESS:      64972	FORWARD:          3	MERGED:          0	TO_CACHE:      64972
LLC PQ	ACCESS:      69405	FORWARD:          0	MERGED:          0	TO_CACHE:      69405

LLC Dense regions hint to LLC: 0

RAW hits: 1870798
Loads Generated: 12635631
Loads sent to L1D: 10764834
Stores Generated: 6952200
Stores sent to L1D: 6952233
Major fault: 0 Minor fault: 2578
Allocated PAGES: 2578

stream: 
stream:times selected: 1179505
stream:pref_filled: 121085
stream:pref_useful: 23710
stream:pref_late: 6767
stream:misses: 8103
stream:misses_by_poll: 0

CS: 
CS:times selected: 176723
CS:pref_filled: 59453
CS:pref_useful: 36152
CS:pref_late: 6797
CS:misses: 15823
CS:misses_by_poll: 1

CPLX: 
CPLX:times selected: 1001636
CPLX:pref_filled: 19980
CPLX:pref_useful: 4854
CPLX:pref_late: 3203
CPLX:misses: 95300
CPLX:misses_by_poll: 0

NL_L1: 
NL:times selected: 13988
NL:pref_filled: 458
NL:pref_useful: 172
NL:pref_late: 347
NL:misses: 1099
NL:misses_by_poll: 0

total selections: 2371852
total_filled: 94565
total_useful: 33986
total_late: 18808
total_polluted: 1
total_misses_after_warmup: 775696
conflicts: 5580541

test: 115265

DRAM Statistics
 CHANNEL 0
 RQ ROW_BUFFER_HIT:      10527  ROW_BUFFER_MISS:      17949
 DBUS_CONGESTED:          5
 WQ ROW_BUFFER_HIT:       1433  ROW_BUFFER_MISS:      12158  FULL:          0

 AVG_CONGESTED_CYCLE: 5

CPU 0 Branch Prediction Accuracy: 99.8094% MPKI: 0.34876 Average ROB Occupancy at Mispredict: 144.366
Branch types
NOT_BRANCH: 40849659 81.6993%
BRANCH_DIRECT_JUMP: 548828 1.09766%
BRANCH_INDIRECT: 182711 0.365422%
BRANCH_CONDITIONAL: 6182644 12.3653%
BRANCH_DIRECT_CALL: 946159 1.89232%
BRANCH_INDIRECT_CALL: 171813 0.343626%
BRANCH_RETURN: 1117975 2.23595%
BRANCH_OTHER: 0 0%

DRAM PAGES: 1048576
Allocated PAGES: 2578
Average_ROB_Occupancy: 170.33
Average_Decode_Occupancy: 20.0846
Average_FTQ_Occupancy: 8.45201
Indirect max targets: 14 Average targets: 1.17516
Branch_type:  BRANCH_DIRECT_JUMP:  Count Percentage: 3.61336 6.01026 4.17053 7.78644 8.05938 6.00497 2.46473 61.8903 
Branch_type:  BRANCH_INDIRECT:  Count Percentage: 11.7685 3.44172 2.49436 17.3859 11.0485 2.81143 0.93696 50.1127 
Branch_type:  BRANCH_CONDITIONAL:  Count Percentage: 20.8605 10.3502 1.99622 5.99532 3.18714 4.26678 0.736651 52.6072 
Branch_type:  BRANCH_DIRECT_CALL:  Count Percentage: 0.904741 1.28407 0.73179 3.50292 3.20986 2.61246 0.725284 87.0289 
Branch_type:  BRANCH_INDIRECT_CALL:  Count Percentage: 9.57553 0 3.00236 0.000873627 0.907116 1.71842 0.997391 83.7983 
Branch_type:  BRANCH_RETURN:  Count Percentage: 3.54844 7.45717 1.02289 5.82572 5.09197 4.16783 1.85056 71.0354 
Branch_type:  BRANCH_DIRECT_JUMP:  Total Count: 39637 65930 45749 85414 88408 65872 27037 678911 
Branch_type:  BRANCH_INDIRECT:  Total Count: 43019 12581 9118 63553 40387 10277 3425 183184 
Branch_type:  BRANCH_CONDITIONAL:  Total Count: 2578301 1279255 246727 741005 393921 527362 91048 6502101 
Branch_type:  BRANCH_DIRECT_CALL:  Total Count: 17106 24278 13836 66230 60689 49394 13713 1645461 
Branch_type:  BRANCH_INDIRECT_CALL:  Total Count: 32882 0 10310 3 3115 5901 3425 287760 
Branch_type:  BRANCH_RETURN:  Total Count: 79306 166664 22861 130202 113803 93149 41359 1587607 
Number of unique branch instructions: 10547
Upper 32 bits: 
aaaa
ffff
ffff0000
Unique upper 32 bits: 3
Unique upper 36 bits: 3
Unique upper 40 bits: 5
Unique upper 44 bits: 32
Unique upper 48 bits: 157
Variant_0 : 1375 0.335693
Variant_1 : 2685 0.655518
Variant_2 : 0 0
Variant_3 : 0 0
Offset_3 4367
Offset_4 251
Offset_5 472
Offset_6 531
Offset_7 621
Offset_8 567
Offset_9 501
Offset_10 409
Offset_11 335
Offset_12 303
Offset_13 238
Offset_14 240
Offset_15 194
Offset_16 223
Offset_17 165
Offset_18 144
Offset_19 251
Offset_20 139
Offset_21 235
Offset_22 406
Offset_23 241
Offset_24 346
Offset_25 117
Offset_47 94
decode_dispatch_called: 21791143 56.5405
Dispatch_width: 0 11256446 51.6561 29.2066
Dispatch_width: 1 680064 3.12083 1.76453
Dispatch_width: 2 700996 3.21688 1.81884
Dispatch_width: 3 470178 2.15766 1.21995
Dispatch_width: 4 2649087 12.1567 6.87347
Dispatch_width: 5 295243 1.35488 0.766054
Dispatch_width: 6 5739129 26.337 14.8911
Empty_decode_cycles: 16749627 43.4595
ROB_full_cycles: 4015002 10.4175
Starvation_cycles_per_kilo_instr: 287.866
Starvation_cycles_per_kilo_instr_3: 258.423
Starvation_cycles_per_kilo_instr_0: 239.911
Branch_type_1  (3,1)  (4,7)  (5,38)  (6,72)  (7,123)  (8,147)  (9,133)  (10,109)  (11,74)  (12,47)  (13,11)  (14,2)  (15,3)  (16,4)  (18,1)  (19,5)  (20,2)  (21,1)  (22,3)  (23,2)  (24,10)  (25,12) 
Branch_type_2  (3,1)  (4,1)  (5,1)  (8,4)  (9,4)  (10,1)  (12,1)  (13,1)  (14,1)  (16,3)  (17,2)  (20,2)  (21,2)  (23,5)  (24,1)  (47,43) 
Branch_type_3  (3,4365)  (4,243)  (5,429)  (6,443)  (7,470)  (8,354)  (9,274)  (10,164)  (11,127)  (12,54)  (13,10) 
Branch_type_4  (6,3)  (7,8)  (8,24)  (9,53)  (10,64)  (11,68)  (12,111)  (13,101)  (14,108)  (15,92)  (16,97)  (17,76)  (18,61)  (19,122)  (20,71)  (21,124)  (22,213)  (23,136)  (24,202)  (25,101) 
Branch_type_5  (8,3)  (9,1)  (10,4)  (11,5)  (12,3)  (13,14)  (14,16)  (15,11)  (16,22)  (17,11)  (18,23)  (19,14)  (20,11)  (21,13)  (22,43)  (23,26)  (24,37) 
Branch_type_6  (5,4)  (6,13)  (7,20)  (8,35)  (9,36)  (10,67)  (11,61)  (12,87)  (13,101)  (14,113)  (15,88)  (16,97)  (17,76)  (18,59)  (19,110)  (20,53)  (21,95)  (22,147)  (23,72)  (24,96)  (25,4)  (47,51) 
Unique trigger count: 
Variant_0_evicts_0 : 0
Variant_0_evicts_1 : 0
Variant_0_evicts_2 : 0
Variant_0_evicts_3 : 0
Variant_1_evicts_0 : 0
Variant_1_evicts_1 : 0
Variant_1_evicts_2 : 0
Variant_1_evicts_3 : 0
Variant_2_evicts_0 : 0
Variant_2_evicts_1 : 0
Variant_2_evicts_2 : 0
Variant_2_evicts_3 : 0
Variant_3_evicts_0 : 0
Variant_3_evicts_1 : 0
Variant_3_evicts_2 : 0
Variant_3_evicts_3 : 0
BTB PER SET UNIQUE ADDR: 11 12 9 14 13 12 7 10 11 11 7 15 12 11 15 9 13 11 12 13 11 15 16 14 9 20 11 10 13 15 11 15 12 9 8 12 10 12 9 6 11 13 13 11 12 7 17 14 8 14 13 12 13 13 11 7 12 12 12 13 10 15 11 12 9 15 7 11 17 11 11 10 15 9 11 9 10 14 12 13 12 7 8 13 12 10 14 14 8 14 10 8 9 14 6 17 10 10 14 13 14 11 11 13 12 11 9 14 9 9 9 16 11 11 10 11 11 14 12 11 15 13 9 11 12 11 8 13 16 13 10 14 11 13 9 12 9 16 13 17 9 12 13 12 10 13 16 11 4 9 11 9 8 13 14 9 10 10 12 19 8 9 14 14 16 15 12 8 15 10 10 12 12 12 11 10 15 8 12 9 9 10 14 16 19 13 6 14 10 11 15 13 7 10 11 8 11 10 11 12 12 16 9 14 8 6 13 12 12 16 8 12 9 13 11 14 10 9 9 16 5 13 8 11 5 11 13 13 10 12 14 6 9 15 12 12 7 11 10 7 12 12 13 14 13 12 9 6 12 10 13 15 10 10 8 13 11 10 11 12 12 9 4 12 11 8 8 7 9 11 10 10 13 5 8 10 11 11 11 14 12 13 13 13 10 8 10 19 22 14 10 8 13 11 8 15 11 8 13 14 9 14 8 13 13 13 11 13 16 9 10 16 9 14 12 13 15 9 13 20 7 10 12 11 10 17 7 10 12 8 11 17 7 13 10 14 8 9 8 15 10 14 10 12 13 11 13 8 12 9 10 11 11 12 13 12 7 12 12 9 10 15 9 17 10 14 8 13 16 12 11 9 6 11 9 20 10 9 12 12 12 8 10 10 7 11 14 14 13 14 17 12 9 16 9 11 12 12 12 13 10 13 11 13 15 13 15 15 12 9 14 7 12 13 10 12 12 13 15 16 14 17 8 16 15 13 10 8 11 11 14 13 14 13 16 15 14 10 13 13 12 11 10 10 19 9 10 10 12 10 15 19 8 12 14 14 13 11 12 10 9 11 13 11 18 10 12 17 12 15 15 11 15 16 14 12 8 12 7 16 14 13 15 9 10 11 15 13 13 10 12 15 14 11 11 11 13 11 11 11 12 17 11 14 15 9 7 11 8 11 10 16 12 12 12 18 9 11 8 11 12 11 14 11 12 13 17 7 7 9 14 14 12 11 13 13 8 15 13 13 11 10 12 13 14 13 10 15 7 10 13 12 9 11 10 12 11 13 10 16 14 13 8 12 11 22 10 17 17 15 14 16 13 20 8 13 14 11 10 13 11 11 10 13 12 13 14 11 14 12 9 9 11 10 11 11 10 9 15 9 10 9 9 10 12 17 16 12 6 15 14 15 14 11 4 14 12 13 10 15 16 9 7 12 12 16 10 18 12 15 7 10 10 10 14 12 13 12 10 14 14 14 11 12 12 12 11 13 16 11 11 15 13 12 10 8 11 13 12 9 13 8 16 15 11 14 10 10 11 11 14 11 10 14 18 8 15 13 13 16 11 15 12 15 16 14 11 11 12 13 10 11 11 8 10 6 11 21 8 13 8 13 14 22 7 12 12 11 8 8 5 15 10 14 9 9 16 10 9 12 16 9 14 13 9 12 11 10 11 13 14 8 11 9 10 15 12 13 11 10 13 10 9 14 12 14 11 14 16 9 11 13 11 13 12 11 12 14 8 11 7 9 9 9 14 18 11 11 11 15 12 17 12 10 12 11 13 13 12 14 6 10 11 9 13 9 11 14 9 11 10 8 15 10 10 15 9 10 15 12 16 13 21 15 14 12 14 15 13 13 12 14 14 12 15 12 12 16 7 16 10 14 9 15 14 15 9 13 14 18 13 13 10 8 9 15 10 11 11 10 10 9 8 12 10 13 12 15 12 10 12 12 10 11 16 9 9 11 18 11 10 7 9 9 10 8 11 9 13 10 12 15 14 10 10 10 14 13 9 13 14 7 10 18 14 19 15 11 14 9 13 7 10 15 12 16 18 11 10 12 8 12 10 10 8 11 11 17 13 17 11 10 12 17 14 8 18 11 13 10 14 12 10 8 13 11 8 9 8 7 10 15 12 9 11 15 10 15 12 17 7 14 11 6 10 9 13 13 11 10 10 7 12 11 13 9 12 12 19 10 13 9 12 11 10 9 12 14 11 12 8 12 10 12 11 11 16 11 13 16 13 18 11 13 13 18 11 12 11 10 19 11 14 15 13 9 8 11 20 10 15 19 12 12 18 15 10 15 11 16 13 14 10 10 13 9 11 10 8 14 9 20 10 10 
BTB PER SET COUNT: 13 19 1942 20 65 14 8 14 1133 11 12 113 20609 14 21 10 2380 17 15 16 17 302 718 58 17 28 11 12 20 71 12 26 18 9 9 169 12 12 11 6 20 27 28 1441 836 7 29 22 8 359 17 105 19 22 13 380 12 16 18 18 13 23 19 18 17 21 7 2941 39 18 11 14 21 9 14 10 16 19 14 14 951 9 15 25 14 70 23 21 1131 23 494 655 424 547 6 21 348 1010 21 955 17 15 14 492 3886 12 20 21 503 2494 11 26 49 14 10 1449 11 15 35 1248 29 50 17 19 15 212 8 27 27 866 13 19 13 26 13 19 150 23 18 20 12 18 18 14 12 341 1243 15 5 117 19 281 1028 25 20 12 256 13 17 37 9 11 25 16 111 20 14 10 22 1812 18 16 21 16 14 418 23 9 255 872 12 50 31 24 25 634 8 18 25 1007 32 23 12 13 14 162 17 62 15 278 17 27 998 17 13 6 23 74 15 1640 11 19 11 14 11 22 13 10 2947 25 7 16 10 15 8 28 17 16 378 16 17 7 11 16 18 20 11 14 193 8 14 15 14 21 27 978 10 8 17 15 17 20 11 10 11 14 15 17 15 16 17 12 4 376 13 8 11 8 1883 14 13 380 877 5 137 10 12 15 15 338 32 20 297 786 12 8 15 27 40 15 14 10 19 28 11 22 71 8 16 699 10 21 8 23 13 17 13 17 22 77 11 30 19 16 2202 158 20 13 20 37 7 3258 14 14 13 33 268 13 21 9 16 27 7 20 10 24 9 21 10 22 15 21 14 19 534 13 17 13 13 10 35 153 14 13 13 17 9 17 114 11 19 26 11 20 11 18 11 18 24 13 14 296 7 501 1001 26 10 11 16 1296 17 10 10 10 8 13 1348 19 20 1453 29 19 10 18 9 57 16 19 13 1099 13 22 1484 18 26 18 25 305 15 10 767 9 15 14 12 14 13 21 17 19 25 21 13 23 19 17 57 9 14 14 31 15 22 23 83 16 23 35 15 15 20 13 43 15 124 212 662 11 12 11 486 34 8 18 19 60 21 14 13 13 36 12 22 15 23 20 7965 25 15 23 23 17 20 24 20 15 16 29 13 20 22 15 23 15 636 12 18 17 16 273 15 22 5577 15 20 18 1620 1001 11 16 16 18 16 115 32 11 7 14 9 17 13 54 166 16 12 21 9 12 11 15 13 15 22 526 22 875 20 7 8 13 24 22 128 14 14 17 200 283 21 16 15 10 22 17 19 18 13 20 11 1606 16 15 993 37 12 17 13 20 12 22 23 21 8 15 13 39 22 23 34 19 70 26 17 26 1484 16 16 19 12 18 16 12 15 482 16 20 20 15 21 18 15 14 16 15 25 18 95 383 203 9 12 11 11 14 19 22 22 1879 7 18 23 71 215 13 4 17 340 15 16 112 19 18 7 17 12 29 13 33 668 24 13 11 123 12 17 18 21 543 18 30 28 17 15 18 15 17 491 18 20 11 14 22 13 14 17 144 17 41 15 9 102 9 18 25 40 21 11 968 1754 16 16 15 857 20 889 9 19 17 24 24 16 20 17 24 31 21 13 15 14 21 10 13 13 10 1885 8 19 3194 8 17 759 30 241 37 8 21 14 16 38 11 65 979 987 15 13 10 89 13 10 18 23 1002 17 979 9 17 13 16 18 2292 21 5264 44 9 14 1782 23 17 16 11 54 11 250 29 17 26 378 14 25 15 362 16 1090 783 1496 15 15 219 8 22 7 15 9 322 62 20 11 16 11 238 15 30 19 10 16 12 16 919 17 30 1445 14 15 12 18 10 15 23 9 26 22 147 22 10 868 23 11 17 19 123 22 22 31 68 18 21 15 26 18 45 18 1992 18 50 19 17 16 2255 10 273 13 557 13 21 20 36 13 17 23 306 16 54 15 10 11 1866 11 931 346 88 10 1513 13 12 11 17 495 24 18 2040 153 719 13 13 197 13 424 16 28 15 14 1107 9 11 14 10 15 11 14 13 548 51 28 11 10 13 16 15 2842 17 20 12 103 136 17 314 16 12 16 192 15 8 16 294 14 23 29 17 14 15 11 15 27 973 11 11 16 30 22 49 17 844 16 25 25 9 73 304 18 16 22 981 247 1476 18 18 10 12 10 25 16 21 297 13 11 27 11 67 21 24 7 74 12 7 12 549 23 14 14 15 17 40 292 446 14 12 167 18 59 19 109 11 18 13 13 10 14 17 13 17 11 393 11 16 370 12 22 15 20 1208 904 1464 14 155 26 274 16 513 14 12 31 11 20 18 23 12 13 1487 30 190 29 23 15 20 28 23 21 21 18 22 93 442 14 12 18 11 13 12 10 17 466 550 11 13 
To predecode: 0
Predecoding something: 0
Predecode request dropped: 0
sizeofblock_0 0
sizeofblock_1 54481
sizeofblock_2 87963
sizeofblock_3 0
sizeofblock_4 0
sizeofblock_5 0
sizeofblock_6 0
sizeofblock_7 0
sizeofblock_8 0
Variant_0 Correct: 1615630 Incorrect: 0 Accuracy: 1
Variant_1 Correct: 5745821 Incorrect: 0 Accuracy: 1
Variant_2 Correct: 0 Incorrect: 0 Accuracy: -nan
Variant_3 Correct: 0 Incorrect: 0 Accuracy: -nan
