
*** ChampSim Multicore Out-of-Order Simulator ***

Warmup Instructions: 50000000
Simulation Instructions: 50000000
Number of CPUs: 1
LLC sets: 2048
LLC ways: 16
Off-chip DRAM Size: 4096 MB Channels: 1 Width: 64-bit Data Rate: 6400 MT/s
CPU 0 runs ./micro_traces/srv250.trace.gz
.gz
ITLB has LRU replacement policy
DTLB has LRU replacement policy
STLB has LRU replacement policy
FDIP Prefetcher at L1I
L1I has LRU replacement policy
L1D has LRU replacement policy
Initialize SRRIP state for L2C
Initialize DRRIP state for LLC
Heartbeat_Variant_0 : 1468 0.238932 per_variant_size: 0 1468 0 0 0 0 0 0 0 
Heartbeat_Variant_1 : 3088 0.502604 per_variant_size: 0 1006 2082 0 0 0 0 0 0 
Heartbeat_Variant_2 : 0 0 per_variant_size: 0 0 0 0 0 0 0 0 0 
Heartbeat_Variant_3 : 0 0 per_variant_size: 0 0 0 0 0 0 0 0 0 
Heartbeat_Variant_0_evicts 0 : 5532 1 : 55 2 : 0 3 : 0 
Heartbeat_Variant_1_evicts 0 : 44 1 : 0 2 : 0 3 : 0 
Heartbeat_Variant_2_evicts 0 : 0 1 : 0 2 : 0 3 : 0 
Heartbeat_Variant_3_evicts 0 : 0 1 : 0 2 : 0 3 : 0 
Heartbeat CPU 0 instructions: 10000003 cycles: 2796663 heartbeat IPC: 3.57569 cumulative IPC: 3.57569 (Simulation time: 0 hr 1 min 54 sec) 
Heartbeat_Variant_0 : 1468 0.238932 per_variant_size: 0 1468 0 0 0 0 0 0 0 
Heartbeat_Variant_1 : 3095 0.503743 per_variant_size: 0 1001 2094 0 0 0 0 0 0 
Heartbeat_Variant_2 : 0 0 per_variant_size: 0 0 0 0 0 0 0 0 0 
Heartbeat_Variant_3 : 0 0 per_variant_size: 0 0 0 0 0 0 0 0 0 
Heartbeat_Variant_0_evicts 0 : 5517 1 : 0 2 : 0 3 : 0 
Heartbeat_Variant_1_evicts 0 : 1 1 : 0 2 : 0 3 : 0 
Heartbeat_Variant_2_evicts 0 : 0 1 : 0 2 : 0 3 : 0 
Heartbeat_Variant_3_evicts 0 : 0 1 : 0 2 : 0 3 : 0 
Heartbeat CPU 0 instructions: 20000000 cycles: 5592115 heartbeat IPC: 3.57724 cumulative IPC: 3.57646 (Simulation time: 0 hr 3 min 34 sec) 
Heartbeat_Variant_0 : 1468 0.238932 per_variant_size: 0 1468 0 0 0 0 0 0 0 
Heartbeat_Variant_1 : 3121 0.507975 per_variant_size: 0 1005 2116 0 0 0 0 0 0 
Heartbeat_Variant_2 : 0 0 per_variant_size: 0 0 0 0 0 0 0 0 0 
Heartbeat_Variant_3 : 0 0 per_variant_size: 0 0 0 0 0 0 0 0 0 
Heartbeat_Variant_0_evicts 0 : 5631 1 : 1 2 : 0 3 : 0 
Heartbeat_Variant_1_evicts 0 : 4 1 : 0 2 : 0 3 : 0 
Heartbeat_Variant_2_evicts 0 : 0 1 : 0 2 : 0 3 : 0 
Heartbeat_Variant_3_evicts 0 : 0 1 : 0 2 : 0 3 : 0 
Heartbeat CPU 0 instructions: 30000000 cycles: 8389756 heartbeat IPC: 3.57444 cumulative IPC: 3.57579 (Simulation time: 0 hr 5 min 14 sec) 
Heartbeat_Variant_0 : 1495 0.243327 per_variant_size: 0 1495 0 0 0 0 0 0 0 
Heartbeat_Variant_1 : 3175 0.516764 per_variant_size: 0 1003 2172 0 0 0 0 0 0 
Heartbeat_Variant_2 : 0 0 per_variant_size: 0 0 0 0 0 0 0 0 0 
Heartbeat_Variant_3 : 0 0 per_variant_size: 0 0 0 0 0 0 0 0 0 
Heartbeat_Variant_0_evicts 0 : 5644 1 : 10 2 : 0 3 : 0 
Heartbeat_Variant_1_evicts 0 : 8 1 : 0 2 : 0 3 : 0 
Heartbeat_Variant_2_evicts 0 : 0 1 : 0 2 : 0 3 : 0 
Heartbeat_Variant_3_evicts 0 : 0 1 : 0 2 : 0 3 : 0 
Heartbeat CPU 0 instructions: 40000001 cycles: 11186769 heartbeat IPC: 3.57524 cumulative IPC: 3.57565 (Simulation time: 0 hr 6 min 54 sec) 
Heartbeat_Variant_0 : 1494 0.243164 per_variant_size: 0 1494 0 0 0 0 0 0 0 
Heartbeat_Variant_1 : 3178 0.517253 per_variant_size: 0 1005 2173 0 0 0 0 0 0 
Heartbeat_Variant_2 : 0 0 per_variant_size: 0 0 0 0 0 0 0 0 0 
Heartbeat_Variant_3 : 0 0 per_variant_size: 0 0 0 0 0 0 0 0 0 
Heartbeat_Variant_0_evicts 0 : 5523 1 : 0 2 : 0 3 : 0 
Heartbeat_Variant_1_evicts 0 : 2 1 : 0 2 : 0 3 : 0 
Heartbeat_Variant_2_evicts 0 : 0 1 : 0 2 : 0 3 : 0 
Heartbeat_Variant_3_evicts 0 : 0 1 : 0 2 : 0 3 : 0 
Heartbeat CPU 0 instructions: 50000000 cycles: 13983279 heartbeat IPC: 3.57589 cumulative IPC: 3.5757 (Simulation time: 0 hr 8 min 34 sec) 

Warmup complete CPU 0 instructions: 50000004 cycles: 13983280 (Simulation time: 0 hr 8 min 34 sec) 

Cycle: 20000000 FTQ IN: 58394865 FTQ occupancy: 20.5738 DECODE IN: 58394774 DECODE occupancy: 53.4749 ROB IN: 58394714 ROB occupancy: 319.791 ROB OUT: 58394362
Heartbeat_Variant_0 : 1510 0.245768 per_variant_size: 0 1510 0 0 0 0 0 0 0 
Heartbeat_Variant_1 : 3208 0.522135 per_variant_size: 0 1018 2190 0 0 0 0 0 0 
Heartbeat_Variant_2 : 0 0 per_variant_size: 0 0 0 0 0 0 0 0 0 
Heartbeat_Variant_3 : 0 0 per_variant_size: 0 0 0 0 0 0 0 0 0 
Heartbeat_Variant_0_evicts 0 : 5610 1 : 11 2 : 0 3 : 0 
Heartbeat_Variant_1_evicts 0 : 7 1 : 0 2 : 0 3 : 0 
Heartbeat_Variant_2_evicts 0 : 0 1 : 0 2 : 0 3 : 0 
Heartbeat_Variant_3_evicts 0 : 0 1 : 0 2 : 0 3 : 0 
Heartbeat CPU 0 instructions: 60000001 cycles: 21142824 heartbeat IPC: 1.39674 cumulative IPC: 1.39674 (Simulation time: 0 hr 10 min 34 sec) 
Heartbeat_Variant_0 : 1510 0.245768 per_variant_size: 0 1510 0 0 0 0 0 0 0 
Heartbeat_Variant_1 : 3208 0.522135 per_variant_size: 0 1017 2191 0 0 0 0 0 0 
Heartbeat_Variant_2 : 0 0 per_variant_size: 0 0 0 0 0 0 0 0 0 
Heartbeat_Variant_3 : 0 0 per_variant_size: 0 0 0 0 0 0 0 0 0 
Heartbeat_Variant_0_evicts 0 : 5749 1 : 0 2 : 0 3 : 0 
Heartbeat_Variant_1_evicts 0 : 0 1 : 0 2 : 0 3 : 0 
Heartbeat_Variant_2_evicts 0 : 0 1 : 0 2 : 0 3 : 0 
Heartbeat_Variant_3_evicts 0 : 0 1 : 0 2 : 0 3 : 0 
Heartbeat CPU 0 instructions: 70000003 cycles: 28362797 heartbeat IPC: 1.38505 cumulative IPC: 1.39087 (Simulation time: 0 hr 12 min 32 sec) 
Cycle: 30000000 FTQ IN: 13888542 FTQ occupancy: 15.0878 DECODE IN: 13888542 DECODE occupancy: 38.3863 ROB IN: 13888542 ROB occupancy: 252.891 ROB OUT: 13888542
Heartbeat_Variant_0 : 1510 0.245768 per_variant_size: 0 1510 0 0 0 0 0 0 0 
Heartbeat_Variant_1 : 3208 0.522135 per_variant_size: 0 1016 2192 0 0 0 0 0 0 
Heartbeat_Variant_2 : 0 0 per_variant_size: 0 0 0 0 0 0 0 0 0 
Heartbeat_Variant_3 : 0 0 per_variant_size: 0 0 0 0 0 0 0 0 0 
Heartbeat_Variant_0_evicts 0 : 5558 1 : 0 2 : 0 3 : 0 
Heartbeat_Variant_1_evicts 0 : 0 1 : 0 2 : 0 3 : 0 
Heartbeat_Variant_2_evicts 0 : 0 1 : 0 2 : 0 3 : 0 
Heartbeat_Variant_3_evicts 0 : 0 1 : 0 2 : 0 3 : 0 
Heartbeat CPU 0 instructions: 80000000 cycles: 35531064 heartbeat IPC: 1.39504 cumulative IPC: 1.39225 (Simulation time: 0 hr 14 min 31 sec) 
Cycle: 40000000 FTQ IN: 13941017 FTQ occupancy: 15.0704 DECODE IN: 13941004 DECODE occupancy: 38.5856 ROB IN: 13941019 ROB occupancy: 253.454 ROB OUT: 13941124
Heartbeat_Variant_0 : 1524 0.248047 per_variant_size: 0 1524 0 0 0 0 0 0 0 
Heartbeat_Variant_1 : 3223 0.524577 per_variant_size: 0 1015 2208 0 0 0 0 0 0 
Heartbeat_Variant_2 : 0 0 per_variant_size: 0 0 0 0 0 0 0 0 0 
Heartbeat_Variant_3 : 0 0 per_variant_size: 0 0 0 0 0 0 0 0 0 
Heartbeat_Variant_0_evicts 0 : 5584 1 : 4 2 : 0 3 : 0 
Heartbeat_Variant_1_evicts 0 : 3 1 : 0 2 : 0 3 : 0 
Heartbeat_Variant_2_evicts 0 : 0 1 : 0 2 : 0 3 : 0 
Heartbeat_Variant_3_evicts 0 : 0 1 : 0 2 : 0 3 : 0 
Heartbeat CPU 0 instructions: 90000003 cycles: 42711270 heartbeat IPC: 1.39272 cumulative IPC: 1.39237 (Simulation time: 0 hr 16 min 33 sec) 
*** Reached end of trace for Core: 0 Repeating trace: ./micro_traces/srv250.trace.gz
Heartbeat_Variant_0 : 1524 0.248047 per_variant_size: 0 1524 0 0 0 0 0 0 0 
Heartbeat_Variant_1 : 3223 0.524577 per_variant_size: 0 1014 2209 0 0 0 0 0 0 
Heartbeat_Variant_2 : 0 0 per_variant_size: 0 0 0 0 0 0 0 0 0 
Heartbeat_Variant_3 : 0 0 per_variant_size: 0 0 0 0 0 0 0 0 0 
Heartbeat_Variant_0_evicts 0 : 5553 1 : 0 2 : 0 3 : 0 
Heartbeat_Variant_1_evicts 0 : 0 1 : 0 2 : 0 3 : 0 
Heartbeat_Variant_2_evicts 0 : 0 1 : 0 2 : 0 3 : 0 
Heartbeat_Variant_3_evicts 0 : 0 1 : 0 2 : 0 3 : 0 
Heartbeat CPU 0 instructions: 100000000 cycles: 49938282 heartbeat IPC: 1.3837 cumulative IPC: 1.39063 (Simulation time: 0 hr 18 min 29 sec) 
Finished CPU 0 instructions: 50000002 cycles: 35955005 cumulative IPC: 1.39063 (Simulation time: 0 hr 18 min 29 sec) 

ChampSim completed all CPUs

Region of Interest Statistics

CPU 0 cumulative IPC: 1.39063 instructions: 50000002 cycles: 35955005
 Fetch stage stalled: 45.3817  Sim cycles: 35955005 fetch stall cycle: 16316990
 Empty decode stage: 25.2607  Sim cycles: 35955005 fetch stall cycle: 9082474
ITLB TOTAL     ACCESS:    5837009  HIT:    5345016  MISS:     491993  HIT %:    91.5711  MISS %:    8.42885   MPKI: 9.83986
ITLB LOAD TRANSLATION INSTRUCTION	ACCESS:    5699199  HIT:    5207206  MISS:     491993  HIT %:    91.3673  MISS %:    8.63267  MPKI: 9.83986
ITLB TRANSLATION FROM L1D PREFETCHER INSTRUCTION	ACCESS:     137810  HIT:     137810  MISS:          0  HIT %:        100  MISS %:          0  MPKI: 0

ITLB AVERAGE MISS LATENCY: 9.04818 cycles
ITLB RQ	ACCESS:    7935604	FORWARD:          0	MERGED:    1620257	TO_CACHE:    6315347

DTLB TOTAL     ACCESS:    8946681  HIT:    8476437  MISS:     470244  HIT %:    94.7439  MISS %:    5.25607   MPKI: 9.40488
DTLB LOAD TRANSLATION DATA	ACCESS:    8946681  HIT:    8476437  MISS:     470244  HIT %:    94.7439  MISS %:    5.25607  MPKI: 9.40488

DTLB AVERAGE MISS LATENCY: 9.32126 cycles
DTLB RQ	ACCESS:   13313974	FORWARD:          0	MERGED:    4331190	TO_CACHE:    8982784

STLB TOTAL     ACCESS:    1210795  HIT:    1208738  MISS:       2057  HIT %:    99.8301  MISS %:   0.169888   MPKI: 0.04114
STLB LOAD TRANSLATION INSTRUCTION	ACCESS:     491993  HIT:     491771  MISS:        222  HIT %:    99.9549  MISS %:  0.0451226  MPKI: 0.00444
STLB LOAD TRANSLATION DATA	ACCESS:     470244  HIT:     468437  MISS:       1807  HIT %:    99.6157  MISS %:   0.384269  MPKI: 0.03614
STLB TRANSLATION FROM L1D PREFETCHER DATA	ACCESS:     248558  HIT:     248530  MISS:         28  HIT %:    99.9887  MISS %:   0.011265  MPKI: 0.00056

STLB AVERAGE MISS LATENCY: 70.4939 cycles
STLB RQ	ACCESS:    1332660	FORWARD:          0	MERGED:     121820	TO_CACHE:    1210840

STLB Hit, L1D data hit: 0
STLB Hit, L2C data hit: 0
STLB Hit, LLC data hit: 0
STLB Hit, LLC data miss: 0
STLB STLB hints to L2: 0
L1D TOTAL     ACCESS:   13067207  HIT:   11958705  MISS:    1108502  HIT %:    91.5169  MISS %:    8.48308   MPKI: 22.17
L1D LOAD DATA	ACCESS:    6537615  HIT:    5805835  MISS:     731780  HIT %:    88.8066  MISS %:    11.1934  MPKI: 14.6356
L1D RFO DATA	ACCESS:    6200795  HIT:    5917152  MISS:     283643  HIT %:    95.4257  MISS %:     4.5743  MPKI: 5.67286
L1D PREFETCH DATA	ACCESS:     328797  HIT:     235718  MISS:      93079  HIT %:     71.691  MISS %:     28.309  MPKI: 1.86158

L1D PREFETCH  REQUESTED:     741255  ISSUED:     741255  USEFUL:      33228  USELESS:      68772
L1D USEFUL LOAD PREFETCHES:      33228 PREFETCH ISSUED TO LOWER LEVEL:     102010  ACCURACY: 32.5733
 TIMELY PREFETCHES:      33228 LATE PREFETCHES: 8917 DROPPED PREFETCHES: 11
L1D AVERAGE MISS LATENCY: 262622 cycles
L1D RQ	ACCESS:   10688310	FORWARD:          0	MERGED:    3951170	TO_CACHE:    6571360
L1D WQ	ACCESS:    6939794	FORWARD:     166191	MERGED:     197180	TO_CACHE:    6742614
L1D PQ	ACCESS:     370833	FORWARD:          0	MERGED:          0	TO_CACHE:     370422

L1D UNIQUE REGIONS ACCESSED: 0
L1D REGIONS CONFLICTS: 0
L1D Cross Page Prefetch Requests: 6992
L1D Same Page Prefetch Requests: 749279
L1D ROI Sum of L1D PQ occupancy: 4703313
L1D PREFETCHES PUSHED FROM L2C: 0
L1I TOTAL     ACCESS:    7116455  HIT:    4363376  MISS:    2753079  HIT %:    61.3139  MISS %:    38.6861   MPKI: 55.0616
L1I LOAD INSTRUCTION	ACCESS:    6441993  HIT:    3688914  MISS:    2753079  HIT %:    57.2636  MISS %:    42.7364  MPKI: 55.0616
L1I PREFETCH INSTRUCTION	ACCESS:     674462  HIT:     674462  MISS:          0  HIT %:        100  MISS %:          0  MPKI: 0

L1I PREFETCH  REQUESTED:    1615898  ISSUED:    1615898  USEFUL:          0  USELESS:          0
L1I USEFUL LOAD PREFETCHES:          0 PREFETCH ISSUED TO LOWER LEVEL:          0  ACCURACY: -nan
 TIMELY PREFETCHES:          0 LATE PREFETCHES: 0 DROPPED PREFETCHES: 0
L1I AVERAGE MISS LATENCY: 17.4854 cycles
L1I RQ	ACCESS:    9561376	FORWARD:          0	MERGED:    2816295	TO_CACHE:    6745081
L1I PQ	ACCESS:    1615898	FORWARD:          0	MERGED:     425375	TO_CACHE:    1190523

L1BTB TOTAL     ACCESS:    5671599  HIT:    2051291  MISS:    3620308  HIT %:    36.1678  MISS %:    63.8322   MPKI: 72.4062
L1BTB BRANCH_DIRECT_JUMP	ACCESS:     548246 HIT:     145575 MISS:     402671 AVERAGE STALL: 57.3693 AVERAGE FETCH STALL: 14.5476 AVERAGE FETCH QUEUE STALL: 20.2843 AVERAGE DECODE STALL: 21.6334 AVERAGE EXECUTE STALL: 2.35892e+15
L1BTB BRANCH_INDIRECT	ACCESS:     182975 HIT:      66128 MISS:     116847 AVERAGE STALL: 112.342 AVERAGE FETCH STALL: 10.7152 AVERAGE FETCH QUEUE STALL: 21.8843 AVERAGE DECODE STALL: 13.5305 AVERAGE EXECUTE STALL: 65.2507
L1BTB BRANCH_CONDITIONAL	ACCESS:    2709326 HIT:    1419496 MISS:    1289830 AVERAGE STALL: 74.4328 AVERAGE FETCH STALL: 21.5486 AVERAGE FETCH QUEUE STALL: 33.4497 AVERAGE DECODE STALL: 18.8482 AVERAGE EXECUTE STALL: 3.53454e+15
L1BTB BRANCH_DIRECT_CALL	ACCESS:     943746 HIT:     106505 MISS:     837241 AVERAGE STALL: 178.084 AVERAGE FETCH STALL: 44.727 AVERAGE FETCH QUEUE STALL: 104.219 AVERAGE DECODE STALL: 28.1357 AVERAGE EXECUTE STALL: 2.78231e+16
L1BTB BRANCH_INDIRECT_CALL	ACCESS:     171781 HIT:      21714 MISS:     150067 AVERAGE STALL: 139.116 AVERAGE FETCH STALL: 12.1691 AVERAGE FETCH QUEUE STALL: 16.8993 AVERAGE DECODE STALL: 12.2237 AVERAGE EXECUTE STALL: 97.3371
L1BTB BRANCH_RETURN	ACCESS:    1115525 HIT:     291873 MISS:     823652 AVERAGE STALL: 49.5482 AVERAGE FETCH STALL: 16.7128 AVERAGE FETCH QUEUE STALL: 5.63882 AVERAGE DECODE STALL: 6.11359 AVERAGE EXECUTE STALL: 4.3564e+14
L1BTB BRANCH_OTHER ACCESS:          0 HIT:          0 MISS:          0 AVERAGE STALL: -nan AVERAGE FETCH STALL: -nan AVERAGE FETCH QUEUE STALL: -nan AVERAGE DECODE STALL: -nan AVERAGE EXECUTE STALL: -nan
L1BTB TOTAL ROB OCCUPANCY AT BTB MISS: 2.55749

L2BTB TOTAL     ACCESS:    3594887  HIT:    3531685  MISS:      63202  HIT %:    98.2419  MISS %:    1.75811   MPKI: 1.26404
L2BTB BRANCH_DIRECT_JUMP	ACCESS:     398472 HIT:     394846 MISS:       3626 AVERAGE STALL: 57.3693 AVERAGE FETCH STALL: 14.5476 AVERAGE FETCH QUEUE STALL: 20.2843 AVERAGE DECODE STALL: 21.6334 AVERAGE EXECUTE STALL: 2.35892e+15
L2BTB BRANCH_INDIRECT	ACCESS:     106609 HIT:     104016 MISS:       2593 AVERAGE STALL: 112.342 AVERAGE FETCH STALL: 10.7152 AVERAGE FETCH QUEUE STALL: 21.8843 AVERAGE DECODE STALL: 13.5305 AVERAGE EXECUTE STALL: 65.2507
L2BTB BRANCH_CONDITIONAL	ACCESS:    1289830 HIT:    1284584 MISS:       5246 AVERAGE STALL: 74.4328 AVERAGE FETCH STALL: 21.5486 AVERAGE FETCH QUEUE STALL: 33.4497 AVERAGE DECODE STALL: 18.8482 AVERAGE EXECUTE STALL: 3.53454e+15
L2BTB BRANCH_DIRECT_CALL	ACCESS:     837241 HIT:     836567 MISS:        674 AVERAGE STALL: 178.084 AVERAGE FETCH STALL: 44.727 AVERAGE FETCH QUEUE STALL: 104.219 AVERAGE DECODE STALL: 28.1357 AVERAGE EXECUTE STALL: 2.78231e+16
L2BTB BRANCH_INDIRECT_CALL	ACCESS:     140488 HIT:     130392 MISS:      10096 AVERAGE STALL: 139.116 AVERAGE FETCH STALL: 12.1691 AVERAGE FETCH QUEUE STALL: 16.8993 AVERAGE DECODE STALL: 12.2237 AVERAGE EXECUTE STALL: 97.3371
L2BTB BRANCH_RETURN	ACCESS:     822247 HIT:     781280 MISS:      40967 AVERAGE STALL: 49.5482 AVERAGE FETCH STALL: 16.7128 AVERAGE FETCH QUEUE STALL: 5.63882 AVERAGE DECODE STALL: 6.11359 AVERAGE EXECUTE STALL: 4.3564e+14
L2BTB BRANCH_OTHER ACCESS:          0 HIT:          0 MISS:          0 AVERAGE STALL: -nan AVERAGE FETCH STALL: -nan AVERAGE FETCH QUEUE STALL: -nan AVERAGE DECODE STALL: -nan AVERAGE EXECUTE STALL: -nan
L2BTB TOTAL ROB OCCUPANCY AT BTB MISS: 146.497

L2C TOTAL     ACCESS:    4470448  HIT:    3969640  MISS:     500808  HIT %:    88.7974  MISS %:    11.2026   MPKI: 10.0162
L2C LOAD INSTRUCTION	ACCESS:    2753080  HIT:    2473027  MISS:     280053  HIT %:    89.8276  MISS %:    10.1724  MPKI: 5.60106
L2C LOAD TRANSLATION INSTRUCTION	ACCESS:        254  HIT:         59  MISS:        195  HIT %:    23.2283  MISS %:    76.7717  MPKI: 0.0039
L2C LOAD DATA	ACCESS:     722852  HIT:     638929  MISS:      83923  HIT %:      88.39  MISS %:      11.61  MPKI: 1.67846
L2C RFO DATA	ACCESS:     283589  HIT:     236588  MISS:      47001  HIT %:    83.4264  MISS %:    16.5736  MPKI: 0.94002
L2C PREFETCH DATA	ACCESS:     191205  HIT:     116261  MISS:      74944  HIT %:    60.8044  MISS %:    39.1956  MPKI: 1.49888
L2C WRITEBACK DATA	ACCESS:     517540  HIT:     504233  MISS:      13307  HIT %:    97.4288  MISS %:     2.5712  MPKI: 0.26614
L2C LOAD TRANSLATION DATA	ACCESS:       1871  HIT:        507  MISS:       1364  HIT %:    27.0978  MISS %:    72.9022  MPKI: 0.02728
L2C TRANSLATION FROM L1D PREFETCHER DATA	ACCESS:         57  HIT:         36  MISS:         21  HIT %:    63.1579  MISS %:    36.8421  MPKI: 0.00042

L2C PREFETCH  REQUESTED:      97316  ISSUED:      97316  USEFUL:       8477  USELESS:      66829
L2C USEFUL LOAD PREFETCHES:       8477 PREFETCH ISSUED TO LOWER LEVEL:      75448  ACCURACY: 11.2356
 TIMELY PREFETCHES:       8477 LATE PREFETCHES: 504 DROPPED PREFETCHES: 0
L2C AVERAGE MISS LATENCY: 38.07 cycles
L2C RQ	ACCESS:    3761757	FORWARD:          0	MERGED:          0	TO_CACHE:    3761706
L2C WQ	ACCESS:     517540	FORWARD:         51	MERGED:          0	TO_CACHE:     517540
L2C PQ	ACCESS:     199326	FORWARD:          0	MERGED:       3648	TO_CACHE:     195678

L2C Dense regions hint from L2: 0
PSCL5 TOTAL     ACCESS:       4146  HIT:       2073  MISS:       2073  HIT %:         50  MISS %:         50   MPKI: 0.04146
PSCL5 LOAD TRANSLATION INSTRUCTION	ACCESS:       4032  HIT:       2016  MISS:       2016  HIT %:         50  MISS %:         50  MPKI: 0.04032
PSCL5 TRANSLATION FROM L1D PREFETCHER INSTRUCTION	ACCESS:        114  HIT:         57  MISS:         57  HIT %:         50  MISS %:         50  MPKI: 0.00114


PSCL4 TOTAL     ACCESS:       3544  HIT:       1770  MISS:       1774  HIT %:    49.9436  MISS %:    50.0564   MPKI: 0.03548
PSCL4 LOAD TRANSLATION INSTRUCTION	ACCESS:       1907  HIT:       1718  MISS:        189  HIT %:    90.0891  MISS %:    9.91085  MPKI: 0.00378
PSCL4 TRANSLATION FROM L1D PREFETCHER INSTRUCTION	ACCESS:         52  HIT:         52  MISS:          0  HIT %:        100  MISS %:          0  MPKI: 0
PSCL4 LOAD TRANSLATION DATA	ACCESS:       1533  HIT:          0  MISS:       1533  HIT %:          0  MISS %:        100  MPKI: 0.03066
PSCL4 TRANSLATION FROM L1D PREFETCHER DATA	ACCESS:         52  HIT:          0  MISS:         52  HIT %:          0  MISS %:        100  MPKI: 0.00104


PSCL3 TOTAL     ACCESS:       4102  HIT:       2047  MISS:       2055  HIT %:    49.9025  MISS %:    50.0975   MPKI: 0.0411
PSCL3 LOAD TRANSLATION INSTRUCTION	ACCESS:       2330  HIT:       1997  MISS:        333  HIT %:    85.7082  MISS %:    14.2918  MPKI: 0.00666
PSCL3 TRANSLATION FROM L1D PREFETCHER INSTRUCTION	ACCESS:         55  HIT:         50  MISS:          5  HIT %:    90.9091  MISS %:    9.09091  MPKI: 0.0001
PSCL3 LOAD TRANSLATION DATA	ACCESS:       1672  HIT:          0  MISS:       1672  HIT %:          0  MISS %:        100  MPKI: 0.03344
PSCL3 TRANSLATION FROM L1D PREFETCHER DATA	ACCESS:         45  HIT:          0  MISS:         45  HIT %:          0  MISS %:        100  MPKI: 0.0009


PSCL2 TOTAL     ACCESS:       4045  HIT:       1973  MISS:       2072  HIT %:    48.7763  MISS %:    51.2237   MPKI: 0.04144
PSCL2 LOAD TRANSLATION INSTRUCTION	ACCESS:       2138  HIT:       1916  MISS:        222  HIT %:    89.6165  MISS %:    10.3835  MPKI: 0.00444
PSCL2 TRANSLATION FROM L1D PREFETCHER INSTRUCTION	ACCESS:         57  HIT:         57  MISS:          0  HIT %:        100  MISS %:          0  MPKI: 0
PSCL2 LOAD TRANSLATION DATA	ACCESS:       1793  HIT:          0  MISS:       1793  HIT %:          0  MISS %:        100  MPKI: 0.03586
PSCL2 TRANSLATION FROM L1D PREFETCHER DATA	ACCESS:         57  HIT:          0  MISS:         57  HIT %:          0  MISS %:        100  MPKI: 0.00114


LLC TOTAL     ACCESS:     559346  HIT:     531178  MISS:      28168  HIT %:    94.9641  MISS %:    5.03588   MPKI: 0.56336
LLC LOAD INSTRUCTION	ACCESS:     280053  HIT:     279214  MISS:        839  HIT %:    99.7004  MISS %:   0.299586  MPKI: 0.01678
LLC LOAD TRANSLATION INSTRUCTION	ACCESS:        195  HIT:        182  MISS:         13  HIT %:    93.3333  MISS %:    6.66667  MPKI: 0.00026
LLC LOAD DATA	ACCESS:      83435  HIT:      79843  MISS:       3592  HIT %:    95.6949  MISS %:    4.30515  MPKI: 0.07184
LLC RFO DATA	ACCESS:      46975  HIT:      33560  MISS:      13415  HIT %:    71.4423  MISS %:    28.5577  MPKI: 0.2683
LLC PREFETCH DATA	ACCESS:      75448  HIT:      65526  MISS:       9922  HIT %:    86.8492  MISS %:    13.1508  MPKI: 0.19844
LLC WRITEBACK DATA	ACCESS:      71855  HIT:      71540  MISS:        315  HIT %:    99.5616  MISS %:   0.438383  MPKI: 0.0063
LLC LOAD TRANSLATION DATA	ACCESS:       1364  HIT:       1294  MISS:         70  HIT %:     94.868  MISS %:    5.13196  MPKI: 0.0014
LLC TRANSLATION FROM L1D PREFETCHER DATA	ACCESS:         21  HIT:         19  MISS:          2  HIT %:    90.4762  MISS %:    9.52381  MPKI: 4e-05

LLC AVERAGE MISS LATENCY: 156.275 cycles
LLC RQ	ACCESS:     412053	FORWARD:          0	MERGED:          0	TO_CACHE:     412043
LLC WQ	ACCESS:      71855	FORWARD:         10	MERGED:          0	TO_CACHE:      71855
LLC PQ	ACCESS:      75448	FORWARD:          0	MERGED:          0	TO_CACHE:      75448

LLC Dense regions hint to LLC: 0

RAW hits: 1942282
Loads Generated: 12630592
Loads sent to L1D: 10688310
Stores Generated: 6939769
Stores sent to L1D: 6939794
Major fault: 0 Minor fault: 2613
Allocated PAGES: 2613

stream: 
stream:times selected: 1184367
stream:pref_filled: 122427
stream:pref_useful: 23808
stream:pref_late: 6824
stream:misses: 7887
stream:misses_by_poll: 0

CS: 
CS:times selected: 176106
CS:pref_filled: 58005
CS:pref_useful: 34632
CS:pref_late: 8110
CS:misses: 17248
CS:misses_by_poll: 7

CPLX: 
CPLX:times selected: 1007039
CPLX:pref_filled: 19527
CPLX:pref_useful: 4601
CPLX:pref_late: 3172
CPLX:misses: 93303
CPLX:misses_by_poll: 1

NL_L1: 
NL:times selected: 20485
NL:pref_filled: 826
NL:pref_useful: 398
NL:pref_late: 268
NL:misses: 1683
NL:misses_by_poll: 0

total selections: 2387997
total_filled: 93079
total_useful: 33228
total_late: 19600
total_polluted: 8
total_misses_after_warmup: 765524
conflicts: 5509771

test: 119110

DRAM Statistics
 CHANNEL 0
 RQ ROW_BUFFER_HIT:      10062  ROW_BUFFER_MISS:      17784
 DBUS_CONGESTED:          8
 WQ ROW_BUFFER_HIT:       1363  ROW_BUFFER_MISS:      12267  FULL:          0

 AVG_CONGESTED_CYCLE: 6

CPU 0 Branch Prediction Accuracy: 99.8243% MPKI: 0.3214 Average ROB Occupancy at Mispredict: 192.297
Branch types
NOT_BRANCH: 40855724 81.7114%
BRANCH_DIRECT_JUMP: 548246 1.09649%
BRANCH_INDIRECT: 182975 0.36595%
BRANCH_CONDITIONAL: 6181939 12.3639%
BRANCH_DIRECT_CALL: 943746 1.88749%
BRANCH_INDIRECT_CALL: 171781 0.343562%
BRANCH_RETURN: 1115525 2.23105%
BRANCH_OTHER: 0 0%

DRAM PAGES: 1048576
Allocated PAGES: 2613
Average_ROB_Occupancy: 254.504
Average_Decode_Occupancy: 38.4555
Average_FTQ_Occupancy: 15.0738
Indirect max targets: 14 Average targets: 1.17778
Branch_type:  BRANCH_DIRECT_JUMP:  Count Percentage: 3.31247 6.93429 3.73605 7.44143 3.32625 6.33073 1.19324 67.7255 
Branch_type:  BRANCH_INDIRECT:  Count Percentage: 6.11677 3.44544 8.16253 9.69241 3.34259 2.80619 0.935213 65.4989 
Branch_type:  BRANCH_CONDITIONAL:  Count Percentage: 21.1449 3.93639 1.46678 7.22073 2.64884 3.57188 0.455765 59.5547 
Branch_type:  BRANCH_DIRECT_CALL:  Count Percentage: 0.879082 1.26219 0.746206 3.7252 3.22426 2.61336 0.618255 86.9314 
Branch_type:  BRANCH_INDIRECT_CALL:  Count Percentage: 9.51868 0 2.98318 0.00087338 1.32288 1.70746 0.995362 83.4716 
Branch_type:  BRANCH_RETURN:  Count Percentage: 4.70806 4.78787 1.03125 3.67371 4.23131 3.48931 0.375075 77.7034 
Branch_type:  BRANCH_DIRECT_JUMP:  Total Count: 36277 75942 40916 81496 36428 69332 13068 741707 
Branch_type:  BRANCH_INDIRECT:  Total Count: 22362 12596 29841 35434 12220 10259 3419 239454 
Branch_type:  BRANCH_CONDITIONAL:  Total Count: 2612468 486343 181221 892125 327266 441308 56310 7358012 
Branch_type:  BRANCH_DIRECT_CALL:  Total Count: 16599 23833 14090 70340 60881 49346 11674 1641456 
Branch_type:  BRANCH_INDIRECT_CALL:  Total Count: 32696 0 10247 3 4544 5865 3419 286719 
Branch_type:  BRANCH_RETURN:  Total Count: 105113 106895 23024 82020 94469 77903 8374 1734822 
Number of unique branch instructions: 10884
Upper 32 bits: 
aaaa
ffff
ffff0000
Unique upper 32 bits: 3
Unique upper 36 bits: 3
Unique upper 40 bits: 5
Unique upper 44 bits: 32
Unique upper 48 bits: 158
Variant_0 : 1524 0.248047
Variant_1 : 3223 0.524577
Variant_2 : 0 0
Variant_3 : 0 0
Offset_3 4498
Offset_4 263
Offset_5 490
Offset_6 552
Offset_7 644
Offset_8 590
Offset_9 528
Offset_10 432
Offset_11 354
Offset_12 327
Offset_13 240
Offset_14 247
Offset_15 203
Offset_16 233
Offset_17 173
Offset_18 155
Offset_19 267
Offset_20 145
Offset_21 235
Offset_22 416
Offset_23 241
Offset_24 347
Offset_25 117
Offset_47 92
Offset_64 1
decode_dispatch_called: 26564414 73.8824
Dispatch_width: 0 14259092 53.6774 39.6582
Dispatch_width: 1 1070698 4.03057 2.97788
Dispatch_width: 2 876064 3.29789 2.43656
Dispatch_width: 3 512449 1.92908 1.42525
Dispatch_width: 4 6665431 25.0916 18.5383
Dispatch_width: 5 105975 0.398936 0.294743
Dispatch_width: 6 3074705 11.5745 8.55154
Empty_decode_cycles: 9390591 26.1176
ROB_full_cycles: 10637048 29.5843
Starvation_cycles_per_kilo_instr: 222.433
Starvation_cycles_per_kilo_instr_3: 154.718
Starvation_cycles_per_kilo_instr_0: 130.126
Branch_type_1  (3,1)  (4,9)  (5,39)  (6,76)  (7,126)  (8,152)  (9,139)  (10,110)  (11,78)  (12,55)  (13,11)  (14,2)  (15,3)  (16,4)  (18,1)  (19,5)  (20,2)  (21,1)  (22,3)  (23,2)  (24,10)  (25,12) 
Branch_type_2  (3,1)  (4,1)  (5,1)  (8,4)  (9,4)  (10,1)  (12,1)  (13,1)  (14,1)  (16,3)  (17,2)  (20,2)  (21,2)  (23,5)  (24,1)  (47,41) 
Branch_type_3  (3,4496)  (4,253)  (5,446)  (6,459)  (7,486)  (8,365)  (9,288)  (10,176)  (11,140)  (12,62)  (13,10)  (64,1) 
Branch_type_4  (6,4)  (7,8)  (8,26)  (9,58)  (10,69)  (11,70)  (12,117)  (13,102)  (14,112)  (15,97)  (16,104)  (17,80)  (18,68)  (19,129)  (20,74)  (21,124)  (22,220)  (23,136)  (24,202)  (25,101) 
Branch_type_5  (8,3)  (9,1)  (10,4)  (11,5)  (12,3)  (13,14)  (14,16)  (15,11)  (16,22)  (17,13)  (18,23)  (19,14)  (20,11)  (21,13)  (22,43)  (23,26)  (24,38) 
Branch_type_6  (5,4)  (6,13)  (7,24)  (8,40)  (9,38)  (10,72)  (11,61)  (12,89)  (13,102)  (14,116)  (15,92)  (16,100)  (17,78)  (18,63)  (19,119)  (20,56)  (21,95)  (22,150)  (23,72)  (24,96)  (25,4)  (47,51) 
Unique trigger count: 
Variant_0_evicts_0 : 0
Variant_0_evicts_1 : 0
Variant_0_evicts_2 : 0
Variant_0_evicts_3 : 0
Variant_1_evicts_0 : 0
Variant_1_evicts_1 : 0
Variant_1_evicts_2 : 0
Variant_1_evicts_3 : 0
Variant_2_evicts_0 : 0
Variant_2_evicts_1 : 0
Variant_2_evicts_2 : 0
Variant_2_evicts_3 : 0
Variant_3_evicts_0 : 0
Variant_3_evicts_1 : 0
Variant_3_evicts_2 : 0
Variant_3_evicts_3 : 0
BTB PER SET UNIQUE ADDR: 7 3 5 6 6 5 4 6 5 6 8 5 4 6 3 6 6 5 5 5 3 6 4 5 7 4 3 6 6 7 8 8 7 7 4 5 5 3 4 5 5 4 4 6 3 3 6 4 7 6 7 7 5 5 6 5 5 6 6 6 7 4 6 4 4 6 5 5 6 5 5 7 5 5 5 6 6 4 5 5 6 8 6 6 6 4 6 4 6 5 4 7 3 8 4 4 7 6 7 5 3 6 6 8 5 6 5 3 5 8 7 3 7 4 6 7 4 5 5 5 6 6 5 4 7 6 8 5 8 6 3 6 7 5 6 6 8 3 4 6 5 5 5 6 4 6 6 4 6 6 6 6 6 7 7 3 5 6 5 8 7 3 5 6 5 5 6 6 4 8 6 4 6 8 5 6 4 8 4 5 5 4 6 7 8 5 5 5 5 6 6 7 5 7 5 7 8 5 4 5 5 5 4 6 6 7 7 5 6 4 7 7 7 8 4 4 7 6 7 5 5 6 6 5 7 7 5 6 7 5 6 5 4 9 7 7 6 5 5 6 6 9 7 6 7 7 6 8 6 7 6 6 5 5 4 6 5 5 7 6 6 5 6 3 3 6 7 5 3 5 5 6 7 6 4 7 7 4 4 7 7 4 3 8 3 8 4 7 5 6 6 7 6 4 6 5 5 5 8 7 4 4 5 6 8 5 6 7 7 6 6 4 7 4 3 6 6 6 7 4 7 7 8 2 7 7 6 6 6 6 5 5 3 4 4 6 4 5 7 4 7 7 7 6 4 6 6 5 5 5 6 5 5 6 6 6 3 8 7 5 4 6 5 6 3 6 5 5 6 8 7 6 4 5 4 6 8 5 4 7 6 4 5 8 4 5 4 6 6 5 5 7 5 6 5 4 7 6 3 5 6 5 4 6 6 5 6 6 7 7 5 4 4 5 4 5 6 6 6 5 7 4 5 6 8 7 7 4 6 7 5 5 6 4 5 4 6 4 5 8 4 3 3 5 4 5 4 5 6 7 5 6 5 6 5 6 7 5 6 6 6 7 6 6 6 8 8 5 6 5 6 7 7 4 4 7 4 5 5 4 7 5 3 6 5 4 8 7 7 5 6 6 3 7 5 5 5 4 5 7 7 6 6 6 7 5 3 7 5 7 2 6 4 5 0 4 7 3 5 7 3 4 4 4 3 3 1 7 3 4 4 5 6 4 4 5 3 5 5 5 6 5 7 5 4 7 7 6 6 2 4 6 4 5 3 5 5 1 5 4 3 3 3 6 4 3 4 3 4 2 5 3 2 4 3 7 5 3 5 5 4 5 5 4 5 4 3 3 5 6 6 3 6 4 4 5 6 7 4 3 5 2 1 3 4 1 5 3 5 4 4 5 4 5 2 4 6 5 4 5 6 3 7 3 3 6 1 7 3 6 3 5 5 4 5 3 5 6 4 5 7 4 1 2 3 6 4 4 5 3 7 4 4 6 3 8 4 2 4 2 3 3 6 6 4 3 5 5 5 5 4 4 4 5 4 4 4 5 4 8 4 4 3 6 6 2 2 6 5 3 6 4 4 3 4 5 4 3 5 6 5 5 4 3 4 7 5 3 6 6 7 3 4 4 5 3 4 4 3 3 5 6 3 3 6 6 5 2 2 6 3 5 7 4 4 3 4 7 2 4 3 7 6 6 4 2 6 1 6 4 4 8 5 4 4 5 3 4 2 4 7 5 5 5 4 6 6 6 3 6 5 2 4 6 5 4 7 3 3 5 6 4 5 4 6 6 5 3 5 5 6 5 5 6 5 2 6 2 4 2 5 5 4 2 6 4 4 4 4 4 6 2 1 4 3 2 6 5 7 5 5 5 4 5 4 2 4 2 5 5 6 5 2 4 4 4 4 6 3 5 3 6 3 6 5 5 6 4 3 3 4 5 6 4 4 4 5 3 1 3 3 3 5 5 6 2 3 3 5 5 7 4 6 5 4 6 4 5 3 4 6 6 3 7 5 5 7 4 4 1 5 3 3 3 2 5 3 4 5 3 3 3 5 5 4 2 4 4 4 6 6 3 3 6 4 4 4 3 8 5 5 5 4 4 5 4 4 3 4 3 3 4 4 5 7 3 5 6 2 6 4 5 4 5 2 4 5 3 7 3 4 5 5 4 5 5 4 4 5 3 4 3 5 4 6 3 6 3 4 6 4 6 5 7 3 6 3 4 5 4 4 3 4 6 4 5 4 2 6 4 5 3 3 4 7 7 4 5 3 2 6 4 7 5 2 5 3 4 3 3 5 4 6 5 5 6 4 2 4 3 2 5 5 6 4 4 5 7 6 3 6 5 3 4 4 7 5 6 3 3 3 3 4 5 6 5 4 5 2 5 4 3 5 4 4 4 6 5 3 3 5 6 5 4 2 4 6 4 5 3 5 6 3 4 4 4 5 7 2 1 5 4 3 5 6 4 4 2 3 3 3 5 3 7 5 4 5 4 4 3 5 5 4 7 4 4 2 5 4 3 4 4 7 2 5 6 5 5 4 6 3 4 4 4 5 6 2 5 4 3 3 6 4 1 3 4 6 2 3 5 6 6 6 2 3 6 2 5 3 6 6 5 3 2 3 3 5 3 3 2 4 5 4 3 4 3 6 4 6 5 7 5 5 5 5 4 6 4 4 5 3 2 5 5 4 3 5 2 7 3 7 3 5 3 5 4 5 5 6 3 3 4 2 3 5 3 5 3 6 5 3 6 6 4 6 5 7 3 5 4 4 1 2 5 4 5 2 7 5 2 5 3 5 4 6 4 4 5 3 3 3 4 3 5 5 3 9 5 4 5 4 4 4 5 3 5 5 6 3 6 4 6 4 7 3 5 5 6 5 4 4 3 4 4 3 5 5 6 4 4 5 6 7 6 6 6 5 6 5 3 3 6 5 5 5 7 4 5 4 6 5 2 4 5 5 6 3 4 6 7 5 6 6 3 4 3 5 7 2 2 5 3 6 4 7 2 4 4 6 4 1 3 5 5 4 3 3 3 4 6 7 4 3 5 7 6 4 2 4 3 5 5 3 6 6 4 4 2 5 4 5 5 6 5 3 5 5 6 5 8 3 4 2 6 5 6 4 4 4 6 5 3 5 4 5 3 4 4 3 3 2 3 3 5 1 6 2 5 6 2 4 4 5 3 4 5 5 4 2 4 3 4 4 5 6 3 4 3 3 3 2 4 4 6 6 3 5 6 3 6 3 1 5 5 3 4 3 5 5 4 4 5 4 3 3 3 3 3 4 2 8 4 4 3 3 6 5 2 5 5 6 4 5 4 6 5 5 6 5 3 4 3 5 3 5 2 3 4 7 7 7 5 5 5 4 2 5 5 6 5 3 5 4 6 4 6 4 3 5 1 5 2 4 5 5 4 4 5 5 1 4 5 3 4 2 5 8 4 3 4 5 3 3 7 4 4 3 5 5 5 3 4 5 3 5 3 
BTB PER SET COUNT: 7 3 1471 1947 6 5 5 6 5 7 8 5 4 6 3 6 6 7 5 5 3 6 4 5 500 4 6 8 8 7 3426 8 7 7 4 5 11 3 4 6 5 4 4 8 3 3 580 4 7 6 8 7 497 5 6 5 5 6 6 1470 318 5 6 4 4 6 6 5 6 6 5 8 5 73 5 310 7 4 976 5 6 8 1825 6 7 4 6 4 6 989 4 7 3 8 4 4 7 7 7 5 3 6 8 9 29 6 5 4 5 2936 7 3 505 4 6 802 4 6 6 1469 9 6 1381 8 8 6 11 5 8 7 4 8 8 5 6 6 11 3 4 6 996 5 5 6 4 6 7 4 8 1006 6 484 6 7 7 974 5 6 5 8 7 3 5 6 5 5 6 6 4 1132 405 4 7 8 6 6 4 8 6 5 5 4 6 9 10 7 7 5 7 8 484 410 5 8 5 7 8 5 4 5 5 5 4 6 6 7 8 5 6 4 8 8 7 384 4 5 7 498 7 5 5 6 6 6 8 8 6 990 8 5 9 5 4 9 12 17 6 5 6 6 6 11 7 499 7 7 7841 165 1470 7 137 6 5 8 4 6 7 6 8 6 6 8 6 3 3 7 8 5 3 5 25 6 7 6 4 9 98 6 6 7 7 93 113 9 3 8 4 7 5 7 6 7 6 4 7 5 6 636 9 9 4 4 1473 7 128 6 7 7 7 6 1482 5 7 4 3 7 7 6 7 5 7 7 1609 3 8 8 6 8 6 7 5 5 20498 6 5 7 4 6 8 6 7 978 7 9 5 6 6 5 5 8 7 5 5 6 668 6 4 1484 9 148 4 521 1471 7 3 6 137 5 6 10 7 6 1469 5 4 6 8 8 4 9 6 376 5 8 4 5 4 6 8 5 5 931 5 6 5 4 1353 6 3 5 6 5 4 6 6 5 6 6 7 8 7 4 4 5 4 5 6 28 24 7 8 4 5 498 9 7 7 4 8 7 5 989 7 4 5 988 6 4 2955 10 4 3 497 5 686 6 4 31 9 9 5 341 5 6 5 7 8 7 6 1066 990 991 16 8 12 8 8 6 912 5 6 63 7 4 4 7 4 5 5 4 7 5 4 1470 8 10 994 1471 7 5 977 7 3 7 6 5 1481 4 5 7 10 96 6 6 1351 5 3 7 6 379 2 8 4 1973 0 4 7 495 5 7 3 4 4 4 3 4 1 9 3 4 1468 5 7 4 4 7 3 5 5 5 8 5 7 5 4 1471 7 6 6 2 4 6 988 6 3 5 5 1 5 4 4 3 3 6 4 3 5 3 4 2 5 3 2 4 3 7 6 4 5 5 7 5 69 4 7 4 3 3 5 967 6 3 6 988 4 5 1470 7 4 3 5 2 985 3 5 1 6 3 5 4 4 5 980 5 2 4 9 7 14645 5 6 3 9 4 3 7 1 7 3 6 987 5 5 4 5 3 5 7 4 6 8 4 1 3 3 7 4 4 5 3 7 431 5 11 5 8 4 2 4 2 3 4 6 7 5 3 5 5 5 7 4 4 4 6 4 4 5 5 4 8 976 4 3 7 6 2 2 1472 5 3 6 4 4 3 4 5 4 3 5 9 5 5 4 3 5 9 5 3 7 7 8 3 4 4 5 495 4 4 3 3 5 6 4 3 6 6 6 2 2 490 3 5 7 4 4 3 4 9 2 1468 3 7 6 6 4 2 6 1 6 4 4 8 5 4 988 5 3 4 64 4 9 5 5 7 4 6 6 2934 3 9 5 2 6 6 6 4 1472 3 3 5 7 4 5 5 6 6 5 3 245 5 7 6 8 6 8 2 7 2 4 2 6 5 4 2 8 4 5 4 4 6 6 2 1 4 3 2 6 5 11 5 5 5 4 5 4 4 4 2 5 497 6 5 2 4 5 4 4 6 3 6 3 977 3 6 5 5 977 4 6 3 4 5 7 5 4 6 5 3 1 3 3 3 6 6 498 2 3 3 5 5 7 4 6 7 4 7 4 5 3 4 6 7 3 8 6 6 7 4 4 1 1469 3 3 3 2 5 375 7 5 3 3 5 5 6 4 2 4 4 81 990 7 3 3 8 4 4 4 3 9 6 1482 976 4 4 5 5 4 3 4 3 5 4 4 5 7 3 5 977 2 6 4 5 4 5 2 5 5 3 9 3 4 7 7 4 2453 6 4 5 1973 3 4 3 5 4 6 3 6 3 6 6 4 6 6 11 4 9 4 4 5 4 4 3 4 6 4 7 4 1016 7 4 7 3 3 4 8 9 4 1469 3 2 6 4 7 5 2 5 3 4 3 3 5 12 7 6 5 8 5 2 7 3 2 5 5 6 5 4 7 484 9 3 6 5 3 4 5 991 5 7 3 3 3 495 37 5 7 6 4 5 2 9 4 3 5 4 4 4 6 201 3 3 6 6 5 4 2 7 7 4 5 3 5 416 3 4 4 4 5 7 2 2 7 4 3 911 6 4 11 110 3 3 3 7 3 7 5 5 18 5 93 3 7 6 4 2443 351 386 3 5 4 4 376 4 7 2 5 6 112 43 4 6 3 4 4 4 5 6 2 5 5 3 3 7 4 1 3 5 6 2 3 5 6 7 7 2 3 9 2 989 3 8 6 5 3 2 3 3 5 3 3 2 4 5 4 3 7 4 6 4 8 6 8 7 5 5 5 4 6 6 7 5 3 2 5 5 4 3 5 2 7 4 7 3 7 3 1960 6 5 5 156 3 3 7 2 5 5 3 5 3 6 5 1467 6 7 1470 550 7 8 3 5 4 381 1 5 5 4 5 2 8 6 2 5 3 6 4 7 4 4 5 3 3 3 12 3 9 5 3 1474 5 5 5 4 496 4 5 4 5 7 6 3 6 4 6 6 7 974 5 5 10 5 4 4 3 4 4 3 5 7 6 4 4 5 7 7 1287 6 6 5 7 5 4 3 7 5 5 5 9 5 8 4 6 6 2 4 5 5 16 3 4 6 9 5 6 6 3 4 3 5 8 2 3 5 3 6 988 7 2 4 1469 6 5 1 5 5 6 4 3 3 3 4 379 7 4 3 5 842 8 5 2 4 4 5 5 3 6 6 4 7 2 5 4 5 6 6 6 4 5 5 6 5 9 3 4 2 6 933 6 4 6 4 498 7 3 5 5 7 3 5 4 3 3 2 3 3 5 1 6 2 5 9 2 4 7 6 3 5 5 5 4 4 37 3 7 4 5 7 3 4 3 3 3 2 4 4 6 6 3 9 7 5 2440 39 1 6 2721 3 4 3 5 6 4 4 5 7 3 3 3 3 3 4 2 8 161 4 5 3 7 5 2 5 5 7 4 5 4 6 7 5 7 5 3 4 3 6 3 5 2 3 4 9 767 8 5 977 5 4 2 5 5 6 6 3 5 4 6 4 6 4 3 6 1 7 2 4 7 5 4 4 5 5 1 4 5 4 4 2 6 9 4 3 4 7 3 4 1535 4 4 3 5 976 6 4 4 40 3 5 3 
To predecode: 0
Predecoding something: 0
Predecode request dropped: 0
sizeofblock_0 0
sizeofblock_1 41930
sizeofblock_2 90151
sizeofblock_3 0
sizeofblock_4 0
sizeofblock_5 0
sizeofblock_6 0
sizeofblock_7 0
sizeofblock_8 0
Variant_0 Correct: 1613009 Incorrect: 0 Accuracy: 1
Variant_1 Correct: 5729121 Incorrect: 0 Accuracy: 1
Variant_2 Correct: 0 Incorrect: 0 Accuracy: -nan
Variant_3 Correct: 0 Incorrect: 0 Accuracy: -nan
