
*** ChampSim Multicore Out-of-Order Simulator ***

Warmup Instructions: 50000000
Simulation Instructions: 50000000
Number of CPUs: 1
LLC sets: 2048
LLC ways: 16
Off-chip DRAM Size: 4096 MB Channels: 1 Width: 64-bit Data Rate: 6400 MT/s
CPU 0 runs ./micro_traces/srv282.trace.gz
.gz
ITLB has LRU replacement policy
DTLB has LRU replacement policy
STLB has LRU replacement policy
FDIP Prefetcher at L1I
L1I has LRU replacement policy
L1D has LRU replacement policy
Initialize SRRIP state for L2C
Initialize DRRIP state for LLC
Heartbeat CPU 0 instructions: 10000000 cycles: 2798579 heartbeat IPC: 3.57324 cumulative IPC: 3.57324 (Simulation time: 0 hr 1 min 38 sec) 
Heartbeat CPU 0 instructions: 20000000 cycles: 5595679 heartbeat IPC: 3.57513 cumulative IPC: 3.57419 (Simulation time: 0 hr 3 min 11 sec) 
Heartbeat CPU 0 instructions: 30000002 cycles: 8393400 heartbeat IPC: 3.57434 cumulative IPC: 3.57424 (Simulation time: 0 hr 4 min 45 sec) 
Heartbeat CPU 0 instructions: 40000002 cycles: 11191003 heartbeat IPC: 3.57449 cumulative IPC: 3.5743 (Simulation time: 0 hr 6 min 18 sec) 
Heartbeat CPU 0 instructions: 50000001 cycles: 13988465 heartbeat IPC: 3.57467 cumulative IPC: 3.57437 (Simulation time: 0 hr 7 min 53 sec) 

Warmup complete CPU 0 instructions: 50000001 cycles: 13988465 (Simulation time: 0 hr 7 min 53 sec) 

Cycle: 20000000 FTQ IN: 57024851 FTQ occupancy: 18.2844 DECODE IN: 57024837 DECODE occupancy: 46.7427 ROB IN: 57024837 ROB occupancy: 282.942 ROB OUT: 57024727
Heartbeat CPU 0 instructions: 60000000 cycles: 22657034 heartbeat IPC: 1.15359 cumulative IPC: 1.15359 (Simulation time: 0 hr 9 min 14 sec) 
Cycle: 30000000 FTQ IN: 11531057 FTQ occupancy: 7.50809 DECODE IN: 11531071 DECODE occupancy: 16.1447 ROB IN: 11531071 ROB occupancy: 130.661 ROB OUT: 11531117
Heartbeat CPU 0 instructions: 70000003 cycles: 31219793 heartbeat IPC: 1.16785 cumulative IPC: 1.16068 (Simulation time: 0 hr 10 min 36 sec) 
Heartbeat CPU 0 instructions: 80000003 cycles: 39885400 heartbeat IPC: 1.15399 cumulative IPC: 1.15844 (Simulation time: 0 hr 12 min 0 sec) 
Cycle: 40000000 FTQ IN: 11577105 FTQ occupancy: 7.5326 DECODE IN: 11577103 DECODE occupancy: 16.1835 ROB IN: 11577103 ROB occupancy: 130.883 ROB OUT: 11577083
Heartbeat CPU 0 instructions: 90000002 cycles: 48431885 heartbeat IPC: 1.17007 cumulative IPC: 1.16132 (Simulation time: 0 hr 13 min 22 sec) 
Cycle: 50000000 FTQ IN: 11698454 FTQ occupancy: 7.43358 DECODE IN: 11698456 DECODE occupancy: 16.0816 ROB IN: 11698456 ROB occupancy: 131.465 ROB OUT: 11698300
Heartbeat CPU 0 instructions: 100000001 cycles: 56984079 heartbeat IPC: 1.16929 cumulative IPC: 1.16291 (Simulation time: 0 hr 14 min 45 sec) 
Finished CPU 0 instructions: 50000000 cycles: 42995614 cumulative IPC: 1.16291 (Simulation time: 0 hr 14 min 45 sec) 

ChampSim completed all CPUs

Region of Interest Statistics

CPU 0 cumulative IPC: 1.16291 instructions: 50000000 cycles: 42995614
 Fetch stage stalled: 68.9103  Sim cycles: 42995614 fetch stall cycle: 29628425
 Empty decode stage: 56.6795  Sim cycles: 42995614 fetch stall cycle: 24369693
ITLB TOTAL     ACCESS:    5611584  HIT:    5112784  MISS:     498800  HIT %:    91.1112  MISS %:    8.88876   MPKI: 9.976
ITLB LOAD TRANSLATION INSTRUCTION	ACCESS:    5500567  HIT:    5001767  MISS:     498800  HIT %:    90.9318  MISS %:    9.06816  MPKI: 9.976
ITLB TRANSLATION FROM L1D PREFETCHER INSTRUCTION	ACCESS:     111017  HIT:     111017  MISS:          0  HIT %:        100  MISS %:          0  MPKI: 0

ITLB AVERAGE MISS LATENCY: 9.05472 cycles
ITLB RQ	ACCESS:    7503170	FORWARD:          0	MERGED:    1394070	TO_CACHE:    6109100

DTLB TOTAL     ACCESS:    9272605  HIT:    8800547  MISS:     472058  HIT %:    94.9091  MISS %:    5.09089   MPKI: 9.44116
DTLB LOAD TRANSLATION DATA	ACCESS:    9272605  HIT:    8800547  MISS:     472058  HIT %:    94.9091  MISS %:    5.09089  MPKI: 9.44116

DTLB AVERAGE MISS LATENCY: 9.3011 cycles
DTLB RQ	ACCESS:   13600766	FORWARD:          0	MERGED:    4292658	TO_CACHE:    9308108

STLB TOTAL     ACCESS:    1213143  HIT:    1210905  MISS:       2238  HIT %:    99.8155  MISS %:   0.184479   MPKI: 0.04476
STLB LOAD TRANSLATION INSTRUCTION	ACCESS:     498800  HIT:     498394  MISS:        406  HIT %:    99.9186  MISS %:  0.0813953  MPKI: 0.00812
STLB LOAD TRANSLATION DATA	ACCESS:     471909  HIT:     470086  MISS:       1823  HIT %:    99.6137  MISS %:   0.386303  MPKI: 0.03646
STLB TRANSLATION FROM L1D PREFETCHER DATA	ACCESS:     242434  HIT:     242425  MISS:          9  HIT %:    99.9963  MISS %: 0.00371235  MPKI: 0.00018

STLB AVERAGE MISS LATENCY: 65.832 cycles
STLB RQ	ACCESS:    1315898	FORWARD:          0	MERGED:     102720	TO_CACHE:    1213178

STLB Hit, L1D data hit: 0
STLB Hit, L2C data hit: 0
STLB Hit, LLC data hit: 0
STLB Hit, LLC data miss: 0
STLB STLB hints to L2: 0
L1D TOTAL     ACCESS:   13367334  HIT:   12274226  MISS:    1093108  HIT %:    91.8225  MISS %:    8.17746   MPKI: 21.8622
L1D LOAD DATA	ACCESS:    6769606  HIT:    6047248  MISS:     722358  HIT %:    89.3294  MISS %:    10.6706  MPKI: 14.4472
L1D RFO DATA	ACCESS:    6278527  HIT:    5995379  MISS:     283148  HIT %:    95.4902  MISS %:    4.50978  MPKI: 5.66296
L1D PREFETCH DATA	ACCESS:     319201  HIT:     231599  MISS:      87602  HIT %:    72.5559  MISS %:    27.4441  MPKI: 1.75204

L1D PREFETCH  REQUESTED:     690324  ISSUED:     690324  USEFUL:      25732  USELESS:      66815
L1D USEFUL LOAD PREFETCHES:      25732 PREFETCH ISSUED TO LOWER LEVEL:      92526  ACCURACY: 27.8106
 TIMELY PREFETCHES:      25732 LATE PREFETCHES: 4888 DROPPED PREFETCHES: 6
L1D AVERAGE MISS LATENCY: 154438 cycles
L1D RQ	ACCESS:   10850531	FORWARD:          0	MERGED:    3881851	TO_CACHE:    6801592
L1D WQ	ACCESS:    6978255	FORWARD:     167334	MERGED:     179081	TO_CACHE:    6799174
L1D PQ	ACCESS:     345285	FORWARD:          0	MERGED:          0	TO_CACHE:     345039

L1D UNIQUE REGIONS ACCESSED: 0
L1D REGIONS CONFLICTS: 0
L1D Cross Page Prefetch Requests: 4593
L1D Same Page Prefetch Requests: 707103
L1D ROI Sum of L1D PQ occupancy: 4386167
L1D PREFETCHES PUSHED FROM L2C: 0
L1I TOTAL     ACCESS:    6929167  HIT:    4141808  MISS:    2787359  HIT %:    59.7735  MISS %:    40.2265   MPKI: 55.7472
L1I LOAD INSTRUCTION	ACCESS:    6420334  HIT:    3632975  MISS:    2787359  HIT %:    56.5855  MISS %:    43.4145  MPKI: 55.7472
L1I PREFETCH INSTRUCTION	ACCESS:     508833  HIT:     508833  MISS:          0  HIT %:        100  MISS %:          0  MPKI: 0

L1I PREFETCH  REQUESTED:    1172990  ISSUED:    1172990  USEFUL:          0  USELESS:          0
L1I USEFUL LOAD PREFETCHES:          0 PREFETCH ISSUED TO LOWER LEVEL:          0  ACCURACY: -nan
 TIMELY PREFETCHES:          0 LATE PREFETCHES: 0 DROPPED PREFETCHES: 0
L1I AVERAGE MISS LATENCY: 17.3898 cycles
L1I RQ	ACCESS:    9460156	FORWARD:          0	MERGED:    2801829	TO_CACHE:    6658327
L1I PQ	ACCESS:    1172990	FORWARD:          0	MERGED:     328147	TO_CACHE:     844843

L1BTB TOTAL     ACCESS:    5667884  HIT:    2012174  MISS:    3655710  HIT %:    35.5013  MISS %:    64.4987   MPKI: 73.1142
L1BTB BRANCH_DIRECT_JUMP	ACCESS:     550528  HIT:     144156  MISS:     406372	AVERAGE STALL: 36.9081
L1BTB BRANCH_INDIRECT	ACCESS:     183196  HIT:      65839  MISS:     117357	AVERAGE STALL: 105.897
L1BTB BRANCH_CONDITIONAL	ACCESS:    2687813  HIT:    1386088  MISS:    1301725	AVERAGE STALL: 40.0796
L1BTB BRANCH_DIRECT_CALL	ACCESS:     950546  HIT:     104945  MISS:     845601	AVERAGE STALL: 40.7918
L1BTB BRANCH_INDIRECT_CALL	ACCESS:     172626  HIT:      21039  MISS:     151587	AVERAGE STALL: 115.652
L1BTB BRANCH_RETURN	ACCESS:    1123175  HIT:     290107  MISS:     833068	AVERAGE STALL: 38.3408
L1BTB BRANCH_OTHER ACCESS:          0  HIT:          0  MISS:          0	AVERAGE STALL: -nan
L1BTB TOTAL ROB OCCUPANCY AT BTB MISS: 11.8035

L2BTB1 TOTAL     ACCESS:    3630301  HIT:    3223351  MISS:     406950  HIT %:    88.7902  MISS %:    11.2098   MPKI: 8.139
L2BTB1 BRANCH_DIRECT_JUMP	ACCESS:     402264  HIT:     365773  MISS:      36491	AVERAGE STALL: 36.9081
L2BTB1 BRANCH_INDIRECT	ACCESS:     106994  HIT:      84527  MISS:      22467	AVERAGE STALL: 105.897
L2BTB1 BRANCH_CONDITIONAL	ACCESS:    1301725  HIT:    1192457  MISS:     109268	AVERAGE STALL: 40.0796
L2BTB1 BRANCH_DIRECT_CALL	ACCESS:     845601  HIT:     731323  MISS:     114278	AVERAGE STALL: 40.7918
L2BTB1 BRANCH_INDIRECT_CALL	ACCESS:     142071  HIT:     117758  MISS:      24313	AVERAGE STALL: 115.652
L2BTB1 BRANCH_RETURN	ACCESS:     831646  HIT:     731513  MISS:     100133	AVERAGE STALL: 38.3408
L2BTB1 BRANCH_OTHER ACCESS:          0  HIT:          0  MISS:          0	AVERAGE STALL: -nan
L2BTB1 TOTAL ROB OCCUPANCY AT BTB MISS: 106.033

L2C TOTAL     ACCESS:    4490199  HIT:    4020563  MISS:     469636  HIT %:    89.5409  MISS %:    10.4591   MPKI: 9.39272
L2C LOAD INSTRUCTION	ACCESS:    2787359  HIT:    2512232  MISS:     275127  HIT %:    90.1295  MISS %:    9.87053  MPKI: 5.50254
L2C LOAD TRANSLATION INSTRUCTION	ACCESS:        437  HIT:        106  MISS:        331  HIT %:    24.2563  MISS %:    75.7437  MPKI: 0.00662
L2C LOAD DATA	ACCESS:     717380  HIT:     646256  MISS:      71124  HIT %:    90.0856  MISS %:    9.91441  MPKI: 1.42248
L2C RFO DATA	ACCESS:     283087  HIT:     241995  MISS:      41092  HIT %:    85.4843  MISS %:    14.5157  MPKI: 0.82184
L2C PREFETCH DATA	ACCESS:     177626  HIT:     108664  MISS:      68962  HIT %:    61.1757  MISS %:    38.8243  MPKI: 1.37924
L2C WRITEBACK DATA	ACCESS:     522399  HIT:     510731  MISS:      11668  HIT %:    97.7665  MISS %:    2.23354  MPKI: 0.23336
L2C LOAD TRANSLATION DATA	ACCESS:       1891  HIT:        566  MISS:       1325  HIT %:    29.9313  MISS %:    70.0687  MPKI: 0.0265
L2C TRANSLATION FROM L1D PREFETCHER DATA	ACCESS:         20  HIT:         13  MISS:          7  HIT %:         65  MISS %:         35  MPKI: 0.00014

L2C PREFETCH  REQUESTED:      91457  ISSUED:      91457  USEFUL:       8126  USELESS:      61272
L2C USEFUL LOAD PREFETCHES:       8126 PREFETCH ISSUED TO LOWER LEVEL:      69371  ACCURACY: 11.7138
 TIMELY PREFETCHES:       8126 LATE PREFETCHES: 409 DROPPED PREFETCHES: 0
L2C AVERAGE MISS LATENCY: 38.1868 cycles
L2C RQ	ACCESS:    3790289	FORWARD:          0	MERGED:          0	TO_CACHE:    3790174
L2C WQ	ACCESS:     522399	FORWARD:        115	MERGED:          0	TO_CACHE:     522399
L2C PQ	ACCESS:     183983	FORWARD:          0	MERGED:       3026	TO_CACHE:     180957

L2C Dense regions hint from L2: 0
PSCL5 TOTAL     ACCESS:       4490  HIT:       2245  MISS:       2245  HIT %:         50  MISS %:         50   MPKI: 0.0449
PSCL5 LOAD TRANSLATION INSTRUCTION	ACCESS:       4450  HIT:       2225  MISS:       2225  HIT %:         50  MISS %:         50  MPKI: 0.0445
PSCL5 TRANSLATION FROM L1D PREFETCHER INSTRUCTION	ACCESS:         40  HIT:         20  MISS:         20  HIT %:         50  MISS %:         50  MPKI: 0.0004


PSCL4 TOTAL     ACCESS:       3062  HIT:       1529  MISS:       1533  HIT %:    49.9347  MISS %:    50.0653   MPKI: 0.03066
PSCL4 LOAD TRANSLATION INSTRUCTION	ACCESS:       2801  HIT:       1517  MISS:       1284  HIT %:    54.1592  MISS %:    45.8408  MPKI: 0.02568
PSCL4 TRANSLATION FROM L1D PREFETCHER INSTRUCTION	ACCESS:         24  HIT:         12  MISS:         12  HIT %:         50  MISS %:         50  MPKI: 0.00024
PSCL4 LOAD TRANSLATION DATA	ACCESS:        237  HIT:          0  MISS:        237  HIT %:          0  MISS %:        100  MPKI: 0.00474


PSCL3 TOTAL     ACCESS:       4336  HIT:       2160  MISS:       2176  HIT %:    49.8155  MISS %:    50.1845   MPKI: 0.04352
PSCL3 LOAD TRANSLATION INSTRUCTION	ACCESS:       3402  HIT:       2144  MISS:       1258  HIT %:    63.0218  MISS %:    36.9782  MPKI: 0.02516
PSCL3 TRANSLATION FROM L1D PREFETCHER INSTRUCTION	ACCESS:         28  HIT:         16  MISS:         12  HIT %:    57.1429  MISS %:    42.8571  MPKI: 0.00024
PSCL3 LOAD TRANSLATION DATA	ACCESS:        902  HIT:          0  MISS:        902  HIT %:          0  MISS %:        100  MPKI: 0.01804
PSCL3 TRANSLATION FROM L1D PREFETCHER DATA	ACCESS:          4  HIT:          0  MISS:          4  HIT %:          0  MISS %:        100  MPKI: 8e-05


PSCL2 TOTAL     ACCESS:       4407  HIT:       2162  MISS:       2245  HIT %:    49.0583  MISS %:    50.9417   MPKI: 0.0449
PSCL2 LOAD TRANSLATION INSTRUCTION	ACCESS:       2549  HIT:       2142  MISS:        407  HIT %:     84.033  MISS %:     15.967  MPKI: 0.00814
PSCL2 TRANSLATION FROM L1D PREFETCHER INSTRUCTION	ACCESS:         20  HIT:         20  MISS:          0  HIT %:        100  MISS %:          0  MPKI: 0
PSCL2 LOAD TRANSLATION DATA	ACCESS:       1818  HIT:          0  MISS:       1818  HIT %:          0  MISS %:        100  MPKI: 0.03636
PSCL2 TRANSLATION FROM L1D PREFETCHER DATA	ACCESS:         20  HIT:          0  MISS:         20  HIT %:          0  MISS %:        100  MPKI: 0.0004


LLC TOTAL     ACCESS:     520049  HIT:     492888  MISS:      27161  HIT %:    94.7772  MISS %:    5.22278   MPKI: 0.54322
LLC LOAD INSTRUCTION	ACCESS:     275127  HIT:     274364  MISS:        763  HIT %:    99.7227  MISS %:   0.277326  MPKI: 0.01526
LLC LOAD TRANSLATION INSTRUCTION	ACCESS:        331  HIT:        313  MISS:         18  HIT %:    94.5619  MISS %:    5.43807  MPKI: 0.00036
LLC LOAD DATA	ACCESS:      70790  HIT:      67411  MISS:       3379  HIT %:    95.2267  MISS %:    4.77327  MPKI: 0.06758
LLC RFO DATA	ACCESS:      41017  HIT:      28049  MISS:      12968  HIT %:    68.3838  MISS %:    31.6162  MPKI: 0.25936
LLC PREFETCH DATA	ACCESS:      69371  HIT:      59762  MISS:       9609  HIT %:    86.1484  MISS %:    13.8516  MPKI: 0.19218
LLC WRITEBACK DATA	ACCESS:      62081  HIT:      61727  MISS:        354  HIT %:    99.4298  MISS %:   0.570223  MPKI: 0.00708
LLC LOAD TRANSLATION DATA	ACCESS:       1325  HIT:       1256  MISS:         69  HIT %:    94.7925  MISS %:    5.20755  MPKI: 0.00138
LLC TRANSLATION FROM L1D PREFETCHER DATA	ACCESS:          7  HIT:          6  MISS:          1  HIT %:    85.7143  MISS %:    14.2857  MPKI: 2e-05

LLC AVERAGE MISS LATENCY: 153.054 cycles
LLC RQ	ACCESS:     388597	FORWARD:          0	MERGED:          0	TO_CACHE:     388597
LLC WQ	ACCESS:      62081	FORWARD:          0	MERGED:          0	TO_CACHE:      62081
LLC PQ	ACCESS:      69371	FORWARD:          0	MERGED:          0	TO_CACHE:      69371

LLC Dense regions hint to LLC: 0

RAW hits: 1801406
Loads Generated: 12651937
Loads sent to L1D: 10850531
Stores Generated: 6978249
Stores sent to L1D: 6978255
Major fault: 0 Minor fault: 2512
Allocated PAGES: 2512

stream: 
stream:times selected: 1143633
stream:pref_filled: 120684
stream:pref_useful: 22175
stream:pref_late: 4014
stream:misses: 6593
stream:misses_by_poll: 0

CS: 
CS:times selected: 166421
CS:pref_filled: 51559
CS:pref_useful: 28860
CS:pref_late: 3606
CS:misses: 10513
CS:misses_by_poll: 11

CPLX: 
CPLX:times selected: 976003
CPLX:pref_filled: 18349
CPLX:pref_useful: 3669
CPLX:pref_late: 1180
CPLX:misses: 66114
CPLX:misses_by_poll: 0

NL_L1: 
NL:times selected: 13232
NL:pref_filled: 494
NL:pref_useful: 160
NL:pref_late: 136
NL:misses: 573
NL:misses_by_poll: 0

total selections: 2299289
total_filled: 87602
total_useful: 25732
total_late: 9738
total_polluted: 11
total_misses_after_warmup: 754343
conflicts: 5653063

test: 113836

DRAM Statistics
 CHANNEL 0
 RQ ROW_BUFFER_HIT:       9927  ROW_BUFFER_MISS:      16865
 DBUS_CONGESTED:          7
 WQ ROW_BUFFER_HIT:       1236  ROW_BUFFER_MISS:      11376  FULL:          0

 AVG_CONGESTED_CYCLE: 4

CPU 0 Branch Prediction Accuracy: 99.8231% MPKI: 0.32354 Average ROB Occupancy at Mispredict: 149.328
Branch types
NOT_BRANCH: 40857440 81.7149%
BRANCH_DIRECT_JUMP: 550528 1.10106%
BRANCH_INDIRECT: 183196 0.366392%
BRANCH_CONDITIONAL: 6162393 12.3248%
BRANCH_DIRECT_CALL: 950546 1.90109%
BRANCH_INDIRECT_CALL: 172626 0.345252%
BRANCH_RETURN: 1123175 2.24635%
BRANCH_OTHER: 0 0%

DRAM PAGES: 1048576
Allocated PAGES: 2512
Average_ROB_Occupancy: 131.888
Average_Decode_Occupancy: 16.0857
Average_FTQ_Occupancy: 7.46274
Indirect max targets: 14 Average targets: 1.14576
Branch_type:  BRANCH_DIRECT_JUMP:  Count Percentage: 3.80297 6.01754 3.6726 8.84384 2.22938 6.32363 0.581012 68.529 
Branch_type:  BRANCH_INDIRECT:  Count Percentage: 6.1156 3.44168 8.14823 9.68129 3.34602 2.81156 0.937004 65.5186 
Branch_type:  BRANCH_CONDITIONAL:  Count Percentage: 20.6651 3.83628 1.48798 7.5525 2.19096 4.34824 0.533507 59.3854 
Branch_type:  BRANCH_DIRECT_CALL:  Count Percentage: 0.898474 1.30601 0.730926 4.43279 1.93835 2.83946 0.660649 87.1933 
Branch_type:  BRANCH_INDIRECT_CALL:  Count Percentage: 9.56936 0 3.00121 0 0 2.33076 0.997406 84.1013 
Branch_type:  BRANCH_RETURN:  Count Percentage: 4.74901 4.80293 1.02541 3.95663 3.34546 4.97963 0.580715 76.5602 
Branch_type:  BRANCH_DIRECT_JUMP:  Total Count: 41858 66233 40423 97341 24538 69602 6395 754275 
Branch_type:  BRANCH_INDIRECT:  Total Count: 22439 12628 29897 35522 12277 10316 3438 240397 
Branch_type:  BRANCH_CONDITIONAL:  Total Count: 2546323 472701 183347 930608 269967 535784 65738 7317385 
Branch_type:  BRANCH_DIRECT_CALL:  Total Count: 17042 24772 13864 84080 36766 53858 12531 1653859 
Branch_type:  BRANCH_INDIRECT_CALL:  Total Count: 32985 0 10345 0 0 8034 3438 289892 
Branch_type:  BRANCH_RETURN:  Total Count: 106484 107693 22992 88717 75013 111655 13021 1716660 
Number of unique branch instructions: 9734
Upper 32 bits: 
aaaa
ffff
ffff0000
Unique upper 32 bits: 3
Unique upper 36 bits: 3
Unique upper 40 bits: 5
Unique upper 44 bits: 32
Unique upper 48 bits: 153
Offset_3 4016
Offset_4 238
Offset_5 440
Offset_6 494
Offset_7 570
Offset_8 504
Offset_9 459
Offset_10 371
Offset_11 302
Offset_12 266
Offset_13 199
Offset_14 223
Offset_15 184
Offset_16 214
Offset_17 143
Offset_18 118
Offset_19 230
Offset_20 135
Offset_21 235
Offset_22 389
Offset_23 241
Offset_24 328
Offset_25 88
Offset_47 82
decode_dispatch_called: 20026784 46.5787
Dispatch_width: 0 9906937 49.4684 23.0417
Dispatch_width: 1 537336 2.68309 1.24975
Dispatch_width: 2 672993 3.36046 1.56526
Dispatch_width: 3 418160 2.088 0.972564
Dispatch_width: 4 1893765 9.45616 4.40455
Dispatch_width: 5 298420 1.4901 0.694071
Dispatch_width: 6 6299173 31.4537 14.6507
Empty_decode_cycles: 22968830 53.4213
ROB_full_cycles: 2665437 6.19932
Starvation_cycles_per_kilo_instr: 340.31
Starvation_cycles_per_kilo_instr_3: 318.388
Starvation_cycles_per_kilo_instr_0: 302.103
Branch_type_1  (3,1)  (4,7)  (5,36)  (6,68)  (7,113)  (8,126)  (9,122)  (10,97)  (11,67)  (12,43)  (13,5)  (14,2)  (15,3)  (16,4)  (18,1)  (19,4)  (20,2)  (21,1)  (22,3)  (23,2)  (24,10)  (25,12) 
Branch_type_2  (3,1)  (5,1)  (8,3)  (9,3)  (12,1)  (13,1)  (14,1)  (16,3)  (17,2)  (20,2)  (21,2)  (23,5)  (24,1)  (47,38) 
Branch_type_3  (3,4014)  (4,231)  (5,399)  (6,411)  (7,428)  (8,316)  (9,252)  (10,149)  (11,122)  (12,50)  (13,4) 
Branch_type_4  (6,3)  (7,8)  (8,24)  (9,51)  (10,59)  (11,57)  (12,94)  (13,86)  (14,98)  (15,86)  (16,95)  (17,64)  (18,53)  (19,112)  (20,71)  (21,124)  (22,207)  (23,136)  (24,190)  (25,72) 
Branch_type_5  (8,2)  (9,1)  (10,3)  (11,5)  (12,3)  (13,14)  (14,16)  (15,11)  (16,20)  (17,11)  (18,16)  (19,12)  (20,10)  (21,13)  (22,42)  (23,26)  (24,36) 
Branch_type_6  (5,4)  (6,12)  (7,21)  (8,33)  (9,30)  (10,63)  (11,51)  (12,75)  (13,89)  (14,106)  (15,84)  (16,92)  (17,66)  (18,48)  (19,102)  (20,50)  (21,95)  (22,137)  (23,72)  (24,91)  (25,4)  (47,44) 
Unique trigger count: 
L2BTB1 768 4
L2BTB2 768 4
L2BTB3 768 4
L2BTB4 112 4
