
*** ChampSim Multicore Out-of-Order Simulator ***

Warmup Instructions: 50000000
Simulation Instructions: 50000000
Number of CPUs: 1
LLC sets: 2048
LLC ways: 16
Off-chip DRAM Size: 4096 MB Channels: 1 Width: 64-bit Data Rate: 6400 MT/s
CPU 0 runs ./micro_traces/srv245.trace.gz
.gz
ITLB has LRU replacement policy
DTLB has LRU replacement policy
STLB has LRU replacement policy
FDIP Prefetcher at L1I
L1I has LRU replacement policy
L1D has LRU replacement policy
Initialize SRRIP state for L2C
Initialize DRRIP state for LLC
Heartbeat_Variant_0 : 1337 0.326416 per_variant_size: 0 1337 0 0 0 0 0 0 0 
Heartbeat_Variant_1 : 2440 0.595703 per_variant_size: 0 333 2107 0 0 0 0 0 0 
Heartbeat_Variant_2 : 0 0 per_variant_size: 0 0 0 0 0 0 0 0 0 
Heartbeat_Variant_3 : 0 0 per_variant_size: 0 0 0 0 0 0 0 0 0 
Heartbeat_Variant_0_evicts 0 : 5348 1 : 39 2 : 0 3 : 0 
Heartbeat_Variant_1_evicts 0 : 41 1 : 0 2 : 0 3 : 0 
Heartbeat_Variant_2_evicts 0 : 0 1 : 0 2 : 0 3 : 0 
Heartbeat_Variant_3_evicts 0 : 0 1 : 0 2 : 0 3 : 0 
Heartbeat CPU 0 instructions: 10000001 cycles: 2791458 heartbeat IPC: 3.58236 cumulative IPC: 3.58236 (Simulation time: 0 hr 1 min 49 sec) 
Heartbeat_Variant_0 : 1383 0.337646 per_variant_size: 0 1383 0 0 0 0 0 0 0 
Heartbeat_Variant_1 : 2519 0.61499 per_variant_size: 0 317 2202 0 0 0 0 0 0 
Heartbeat_Variant_2 : 0 0 per_variant_size: 0 0 0 0 0 0 0 0 0 
Heartbeat_Variant_3 : 0 0 per_variant_size: 0 0 0 0 0 0 0 0 0 
Heartbeat_Variant_0_evicts 0 : 5366 1 : 49 2 : 0 3 : 0 
Heartbeat_Variant_1_evicts 0 : 41 1 : 0 2 : 0 3 : 0 
Heartbeat_Variant_2_evicts 0 : 0 1 : 0 2 : 0 3 : 0 
Heartbeat_Variant_3_evicts 0 : 0 1 : 0 2 : 0 3 : 0 
Heartbeat CPU 0 instructions: 20000000 cycles: 5583306 heartbeat IPC: 3.58186 cumulative IPC: 3.58211 (Simulation time: 0 hr 3 min 29 sec) 
Heartbeat_Variant_0 : 1385 0.338135 per_variant_size: 0 1385 0 0 0 0 0 0 0 
Heartbeat_Variant_1 : 2530 0.617676 per_variant_size: 0 321 2209 0 0 0 0 0 0 
Heartbeat_Variant_2 : 0 0 per_variant_size: 0 0 0 0 0 0 0 0 0 
Heartbeat_Variant_3 : 0 0 per_variant_size: 0 0 0 0 0 0 0 0 0 
Heartbeat_Variant_0_evicts 0 : 5361 1 : 9 2 : 0 3 : 0 
Heartbeat_Variant_1_evicts 0 : 11 1 : 0 2 : 0 3 : 0 
Heartbeat_Variant_2_evicts 0 : 0 1 : 0 2 : 0 3 : 0 
Heartbeat_Variant_3_evicts 0 : 0 1 : 0 2 : 0 3 : 0 
Heartbeat CPU 0 instructions: 30000002 cycles: 8374702 heartbeat IPC: 3.58244 cumulative IPC: 3.58222 (Simulation time: 0 hr 5 min 7 sec) 
Heartbeat_Variant_0 : 1395 0.340576 per_variant_size: 0 1395 0 0 0 0 0 0 0 
Heartbeat_Variant_1 : 2547 0.621826 per_variant_size: 0 302 2245 0 0 0 0 0 0 
Heartbeat_Variant_2 : 0 0 per_variant_size: 0 0 0 0 0 0 0 0 0 
Heartbeat_Variant_3 : 0 0 per_variant_size: 0 0 0 0 0 0 0 0 0 
Heartbeat_Variant_0_evicts 0 : 5316 1 : 32 2 : 0 3 : 0 
Heartbeat_Variant_1_evicts 0 : 34 1 : 0 2 : 0 3 : 0 
Heartbeat_Variant_2_evicts 0 : 0 1 : 0 2 : 0 3 : 0 
Heartbeat_Variant_3_evicts 0 : 0 1 : 0 2 : 0 3 : 0 
Heartbeat CPU 0 instructions: 40000003 cycles: 11164998 heartbeat IPC: 3.58385 cumulative IPC: 3.58263 (Simulation time: 0 hr 6 min 48 sec) 
Heartbeat_Variant_0 : 1396 0.34082 per_variant_size: 0 1396 0 0 0 0 0 0 0 
Heartbeat_Variant_1 : 2566 0.626465 per_variant_size: 0 287 2279 0 0 0 0 0 0 
Heartbeat_Variant_2 : 0 0 per_variant_size: 0 0 0 0 0 0 0 0 0 
Heartbeat_Variant_3 : 0 0 per_variant_size: 0 0 0 0 0 0 0 0 0 
Heartbeat_Variant_0_evicts 0 : 5329 1 : 16 2 : 0 3 : 0 
Heartbeat_Variant_1_evicts 0 : 20 1 : 0 2 : 0 3 : 0 
Heartbeat_Variant_2_evicts 0 : 0 1 : 0 2 : 0 3 : 0 
Heartbeat_Variant_3_evicts 0 : 0 1 : 0 2 : 0 3 : 0 
Heartbeat CPU 0 instructions: 50000001 cycles: 13956132 heartbeat IPC: 3.58277 cumulative IPC: 3.58265 (Simulation time: 0 hr 8 min 29 sec) 

Warmup complete CPU 0 instructions: 50000001 cycles: 13956132 (Simulation time: 0 hr 8 min 29 sec) 

Cycle: 20000000 FTQ IN: 58308300 FTQ occupancy: 20.58 DECODE IN: 58308165 DECODE occupancy: 53.4064 ROB IN: 58308105 ROB occupancy: 317.814 ROB OUT: 58307754
Heartbeat_Variant_0 : 1424 0.347656 per_variant_size: 0 1424 0 0 0 0 0 0 0 
Heartbeat_Variant_1 : 2596 0.633789 per_variant_size: 0 281 2315 0 0 0 0 0 0 
Heartbeat_Variant_2 : 0 0 per_variant_size: 0 0 0 0 0 0 0 0 0 
Heartbeat_Variant_3 : 0 0 per_variant_size: 0 0 0 0 0 0 0 0 0 
Heartbeat_Variant_0_evicts 0 : 5462 1 : 95 2 : 0 3 : 0 
Heartbeat_Variant_1_evicts 0 : 88 1 : 0 2 : 0 3 : 0 
Heartbeat_Variant_2_evicts 0 : 0 1 : 0 2 : 0 3 : 0 
Heartbeat_Variant_3_evicts 0 : 0 1 : 0 2 : 0 3 : 0 
Heartbeat CPU 0 instructions: 60000000 cycles: 21219866 heartbeat IPC: 1.3767 cumulative IPC: 1.3767 (Simulation time: 0 hr 10 min 28 sec) 
Heartbeat_Variant_0 : 1428 0.348633 per_variant_size: 0 1428 0 0 0 0 0 0 0 
Heartbeat_Variant_1 : 2599 0.634521 per_variant_size: 0 272 2327 0 0 0 0 0 0 
Heartbeat_Variant_2 : 0 0 per_variant_size: 0 0 0 0 0 0 0 0 0 
Heartbeat_Variant_3 : 0 0 per_variant_size: 0 0 0 0 0 0 0 0 0 
Heartbeat_Variant_0_evicts 0 : 5370 1 : 25 2 : 0 3 : 0 
Heartbeat_Variant_1_evicts 0 : 24 1 : 0 2 : 0 3 : 0 
Heartbeat_Variant_2_evicts 0 : 0 1 : 0 2 : 0 3 : 0 
Heartbeat_Variant_3_evicts 0 : 0 1 : 0 2 : 0 3 : 0 
Heartbeat CPU 0 instructions: 70000000 cycles: 28317014 heartbeat IPC: 1.40902 cumulative IPC: 1.39267 (Simulation time: 0 hr 12 min 27 sec) 
Cycle: 30000000 FTQ IN: 13941525 FTQ occupancy: 15.2153 DECODE IN: 13941554 DECODE occupancy: 38.7122 ROB IN: 13941554 ROB occupancy: 249.819 ROB OUT: 13941758
Heartbeat_Variant_0 : 1429 0.348877 per_variant_size: 0 1429 0 0 0 0 0 0 0 
Heartbeat_Variant_1 : 2602 0.635254 per_variant_size: 0 266 2336 0 0 0 0 0 0 
Heartbeat_Variant_2 : 0 0 per_variant_size: 0 0 0 0 0 0 0 0 0 
Heartbeat_Variant_3 : 0 0 per_variant_size: 0 0 0 0 0 0 0 0 0 
Heartbeat_Variant_0_evicts 0 : 5305 1 : 19 2 : 0 3 : 0 
Heartbeat_Variant_1_evicts 0 : 19 1 : 0 2 : 0 3 : 0 
Heartbeat_Variant_2_evicts 0 : 0 1 : 0 2 : 0 3 : 0 
Heartbeat_Variant_3_evicts 0 : 0 1 : 0 2 : 0 3 : 0 
Heartbeat CPU 0 instructions: 80000002 cycles: 35506194 heartbeat IPC: 1.39098 cumulative IPC: 1.39211 (Simulation time: 0 hr 14 min 27 sec) 
Cycle: 40000000 FTQ IN: 14086517 FTQ occupancy: 15.2301 DECODE IN: 14086486 DECODE occupancy: 38.9581 ROB IN: 14086486 ROB occupancy: 251.344 ROB OUT: 14086285
Heartbeat_Variant_0 : 1433 0.349854 per_variant_size: 0 1433 0 0 0 0 0 0 0 
Heartbeat_Variant_1 : 2604 0.635742 per_variant_size: 0 251 2353 0 0 0 0 0 0 
Heartbeat_Variant_2 : 0 0 per_variant_size: 0 0 0 0 0 0 0 0 0 
Heartbeat_Variant_3 : 0 0 per_variant_size: 0 0 0 0 0 0 0 0 0 
Heartbeat_Variant_0_evicts 0 : 5431 1 : 21 2 : 0 3 : 0 
Heartbeat_Variant_1_evicts 0 : 20 1 : 0 2 : 0 3 : 0 
Heartbeat_Variant_2_evicts 0 : 0 1 : 0 2 : 0 3 : 0 
Heartbeat_Variant_3_evicts 0 : 0 1 : 0 2 : 0 3 : 0 
Heartbeat CPU 0 instructions: 90000002 cycles: 42659807 heartbeat IPC: 1.39789 cumulative IPC: 1.39355 (Simulation time: 0 hr 16 min 28 sec) 
Heartbeat_Variant_0 : 1437 0.35083 per_variant_size: 0 1437 0 0 0 0 0 0 0 
Heartbeat_Variant_1 : 2609 0.636963 per_variant_size: 0 255 2354 0 0 0 0 0 0 
Heartbeat_Variant_2 : 0 0 per_variant_size: 0 0 0 0 0 0 0 0 0 
Heartbeat_Variant_3 : 0 0 per_variant_size: 0 0 0 0 0 0 0 0 0 
Heartbeat_Variant_0_evicts 0 : 5370 1 : 27 2 : 0 3 : 0 
Heartbeat_Variant_1_evicts 0 : 27 1 : 0 2 : 0 3 : 0 
Heartbeat_Variant_2_evicts 0 : 0 1 : 0 2 : 0 3 : 0 
Heartbeat_Variant_3_evicts 0 : 0 1 : 0 2 : 0 3 : 0 
Heartbeat CPU 0 instructions: 100000002 cycles: 49689142 heartbeat IPC: 1.42261 cumulative IPC: 1.39927 (Simulation time: 0 hr 18 min 26 sec) 
Finished CPU 0 instructions: 50000001 cycles: 35733010 cumulative IPC: 1.39927 (Simulation time: 0 hr 18 min 26 sec) 

ChampSim completed all CPUs

Region of Interest Statistics

CPU 0 cumulative IPC: 1.39927 instructions: 50000001 cycles: 35733010
 Fetch stage stalled: 43.9783  Sim cycles: 35733010 fetch stall cycle: 15714774
 Empty decode stage: 23.808  Sim cycles: 35733010 fetch stall cycle: 8507331
ITLB TOTAL     ACCESS:    5828428  HIT:    5382133  MISS:     446295  HIT %:    92.3428  MISS %:    7.65721   MPKI: 8.9259
ITLB LOAD TRANSLATION INSTRUCTION	ACCESS:    5683818  HIT:    5237523  MISS:     446295  HIT %:     92.148  MISS %:    7.85203  MPKI: 8.9259
ITLB TRANSLATION FROM L1D PREFETCHER INSTRUCTION	ACCESS:     144610  HIT:     144610  MISS:          0  HIT %:        100  MISS %:          0  MPKI: 0

ITLB AVERAGE MISS LATENCY: 9.10536 cycles
ITLB RQ	ACCESS:    7799687	FORWARD:          0	MERGED:    1532580	TO_CACHE:    6267107

DTLB TOTAL     ACCESS:    8827717  HIT:    8353561  MISS:     474156  HIT %:    94.6288  MISS %:    5.37122   MPKI: 9.48312
DTLB LOAD TRANSLATION DATA	ACCESS:    8827717  HIT:    8353561  MISS:     474156  HIT %:    94.6288  MISS %:    5.37122  MPKI: 9.48312

DTLB AVERAGE MISS LATENCY: 9.4144 cycles
DTLB RQ	ACCESS:   13103168	FORWARD:          0	MERGED:    4236220	TO_CACHE:    8866948

STLB TOTAL     ACCESS:    1219353  HIT:    1216192  MISS:       3161  HIT %:    99.7408  MISS %:   0.259236   MPKI: 0.06322
STLB LOAD TRANSLATION INSTRUCTION	ACCESS:     446295  HIT:     445720  MISS:        575  HIT %:    99.8712  MISS %:   0.128839  MPKI: 0.0115
STLB LOAD TRANSLATION DATA	ACCESS:     474156  HIT:     471605  MISS:       2551  HIT %:     99.462  MISS %:   0.538009  MPKI: 0.05102
STLB TRANSLATION FROM L1D PREFETCHER DATA	ACCESS:     298902  HIT:     298867  MISS:         35  HIT %:    99.9883  MISS %:  0.0117095  MPKI: 0.0007

STLB AVERAGE MISS LATENCY: 64.981 cycles
STLB RQ	ACCESS:    1396503	FORWARD:          0	MERGED:     177063	TO_CACHE:    1219440

STLB Hit, L1D data hit: 0
STLB Hit, L2C data hit: 0
STLB Hit, LLC data hit: 0
STLB Hit, LLC data miss: 0
STLB STLB hints to L2: 0
L1D TOTAL     ACCESS:   12949079  HIT:   11848446  MISS:    1100633  HIT %:    91.5003  MISS %:     8.4997   MPKI: 22.0127
L1D LOAD DATA	ACCESS:    6476749  HIT:    5763190  MISS:     713559  HIT %:    88.9828  MISS %:    11.0172  MPKI: 14.2712
L1D RFO DATA	ACCESS:    6075806  HIT:    5799901  MISS:     275905  HIT %:     95.459  MISS %:    4.54104  MPKI: 5.5181
L1D PREFETCH DATA	ACCESS:     396524  HIT:     285355  MISS:     111169  HIT %:    71.9641  MISS %:    28.0359  MPKI: 2.22338

L1D PREFETCH  REQUESTED:     952419  ISSUED:     952419  USEFUL:      57818  USELESS:      72653
L1D USEFUL LOAD PREFETCHES:      57818 PREFETCH ISSUED TO LOWER LEVEL:     130521  ACCURACY: 44.2979
 TIMELY PREFETCHES:      57818 LATE PREFETCHES: 19301 DROPPED PREFETCHES: 48
L1D AVERAGE MISS LATENCY: 552742 cycles
L1D RQ	ACCESS:   10615680	FORWARD:          0	MERGED:    3947341	TO_CACHE:    6515142
L1D WQ	ACCESS:    6770009	FORWARD:     153512	MERGED:     181983	TO_CACHE:    6588026
L1D PQ	ACCESS:     476367	FORWARD:          0	MERGED:          0	TO_CACHE:     476052

L1D UNIQUE REGIONS ACCESSED: 0
L1D REGIONS CONFLICTS: 0
L1D Cross Page Prefetch Requests: 10429
L1D Same Page Prefetch Requests: 957514
L1D ROI Sum of L1D PQ occupancy: 6047139
L1D PREFETCHES PUSHED FROM L2C: 0
L1I TOTAL     ACCESS:    7038071  HIT:    4526039  MISS:    2512032  HIT %:    64.3079  MISS %:    35.6921   MPKI: 50.2406
L1I LOAD INSTRUCTION	ACCESS:    6347374  HIT:    3835342  MISS:    2512032  HIT %:    60.4241  MISS %:    39.5759  MPKI: 50.2406
L1I PREFETCH INSTRUCTION	ACCESS:     690697  HIT:     690697  MISS:          0  HIT %:        100  MISS %:          0  MPKI: 0

L1I PREFETCH  REQUESTED:    1612547  ISSUED:    1612547  USEFUL:          0  USELESS:          0
L1I USEFUL LOAD PREFETCHES:          0 PREFETCH ISSUED TO LOWER LEVEL:          0  ACCURACY: -nan
 TIMELY PREFETCHES:          0 LATE PREFETCHES: 0 DROPPED PREFETCHES: 0
L1I AVERAGE MISS LATENCY: 17.7502 cycles
L1I RQ	ACCESS:    9549422	FORWARD:          0	MERGED:    2920951	TO_CACHE:    6628471
L1I PQ	ACCESS:    1612547	FORWARD:          0	MERGED:     441331	TO_CACHE:    1171216

L1BTB TOTAL     ACCESS:    5844383  HIT:    2450548  MISS:    3393835  HIT %:      41.93  MISS %:      58.07   MPKI: 67.8767
L1BTB BRANCH_DIRECT_JUMP	ACCESS:     589583 HIT:     197486 MISS:     392097 AVERAGE STALL: 53.4595 AVERAGE FETCH STALL: 13.6989 AVERAGE FETCH QUEUE STALL: 18.061 AVERAGE DECODE STALL: 20.8248 AVERAGE EXECUTE STALL: 2.03876e+15
L1BTB BRANCH_INDIRECT	ACCESS:     172404 HIT:      56758 MISS:     115646 AVERAGE STALL: 109.816 AVERAGE FETCH STALL: 11.4478 AVERAGE FETCH QUEUE STALL: 17.9592 AVERAGE DECODE STALL: 11.9451 AVERAGE EXECUTE STALL: 67.5187
L1BTB BRANCH_CONDITIONAL	ACCESS:    2990716 HIT:    1780656 MISS:    1210060 AVERAGE STALL: 68.9883 AVERAGE FETCH STALL: 27.0429 AVERAGE FETCH QUEUE STALL: 22.2326 AVERAGE DECODE STALL: 19.1254 AVERAGE EXECUTE STALL: 4.29994e+15
L1BTB BRANCH_DIRECT_CALL	ACCESS:     886105 HIT:     107600 MISS:     778505 AVERAGE STALL: 86.0272 AVERAGE FETCH STALL: 27.6081 AVERAGE FETCH QUEUE STALL: 30.3007 AVERAGE DECODE STALL: 27.3666 AVERAGE EXECUTE STALL: 1.78921e+16
L1BTB BRANCH_INDIRECT_CALL	ACCESS:     159736 HIT:      20351 MISS:     139385 AVERAGE STALL: 136.746 AVERAGE FETCH STALL: 13.0056 AVERAGE FETCH QUEUE STALL: 15.3439 AVERAGE DECODE STALL: 11.8014 AVERAGE EXECUTE STALL: 96.1858
L1BTB BRANCH_RETURN	ACCESS:    1045839 HIT:     287697 MISS:     758142 AVERAGE STALL: 51.2276 AVERAGE FETCH STALL: 17.7429 AVERAGE FETCH QUEUE STALL: 5.72713 AVERAGE DECODE STALL: 6.20061 AVERAGE EXECUTE STALL: 5.84349e+14
L1BTB BRANCH_OTHER ACCESS:          0 HIT:          0 MISS:          0 AVERAGE STALL: -nan AVERAGE FETCH STALL: -nan AVERAGE FETCH QUEUE STALL: -nan AVERAGE DECODE STALL: -nan AVERAGE EXECUTE STALL: -nan
L1BTB TOTAL ROB OCCUPANCY AT BTB MISS: 2.50928

L2BTB TOTAL     ACCESS:    3368568  HIT:    3316474  MISS:      52094  HIT %:    98.4535  MISS %:    1.54647   MPKI: 1.04188
L2BTB BRANCH_DIRECT_JUMP	ACCESS:     387034 HIT:     383033 MISS:       4001 AVERAGE STALL: 53.4595 AVERAGE FETCH STALL: 13.6989 AVERAGE FETCH QUEUE STALL: 18.061 AVERAGE DECODE STALL: 20.8248 AVERAGE EXECUTE STALL: 2.03876e+15
L2BTB BRANCH_INDIRECT	ACCESS:     105836 HIT:     103345 MISS:       2491 AVERAGE STALL: 109.816 AVERAGE FETCH STALL: 11.4478 AVERAGE FETCH QUEUE STALL: 17.9592 AVERAGE DECODE STALL: 11.9451 AVERAGE EXECUTE STALL: 67.5187
L2BTB BRANCH_CONDITIONAL	ACCESS:    1210060 HIT:    1205634 MISS:       4426 AVERAGE STALL: 68.9883 AVERAGE FETCH STALL: 27.0429 AVERAGE FETCH QUEUE STALL: 22.2326 AVERAGE DECODE STALL: 19.1254 AVERAGE EXECUTE STALL: 4.29994e+15
L2BTB BRANCH_DIRECT_CALL	ACCESS:     778505 HIT:     777447 MISS:       1058 AVERAGE STALL: 86.0272 AVERAGE FETCH STALL: 27.6081 AVERAGE FETCH QUEUE STALL: 30.3007 AVERAGE DECODE STALL: 27.3666 AVERAGE EXECUTE STALL: 1.78921e+16
L2BTB BRANCH_INDIRECT_CALL	ACCESS:     130013 HIT:     120476 MISS:       9537 AVERAGE STALL: 136.746 AVERAGE FETCH STALL: 13.0056 AVERAGE FETCH QUEUE STALL: 15.3439 AVERAGE DECODE STALL: 11.8014 AVERAGE EXECUTE STALL: 96.1858
L2BTB BRANCH_RETURN	ACCESS:     757120 HIT:     726539 MISS:      30581 AVERAGE STALL: 51.2276 AVERAGE FETCH STALL: 17.7429 AVERAGE FETCH QUEUE STALL: 5.72713 AVERAGE DECODE STALL: 6.20061 AVERAGE EXECUTE STALL: 5.84349e+14
L2BTB BRANCH_OTHER ACCESS:          0 HIT:          0 MISS:          0 AVERAGE STALL: -nan AVERAGE FETCH STALL: -nan AVERAGE FETCH QUEUE STALL: -nan AVERAGE DECODE STALL: -nan AVERAGE EXECUTE STALL: -nan
L2BTB TOTAL ROB OCCUPANCY AT BTB MISS: 163.475

L2C TOTAL     ACCESS:    4182444  HIT:    3660280  MISS:     522164  HIT %:    87.5153  MISS %:    12.4847   MPKI: 10.4433
L2C LOAD INSTRUCTION	ACCESS:    2512031  HIT:    2237827  MISS:     274204  HIT %:    89.0844  MISS %:    10.9156  MPKI: 5.48408
L2C LOAD TRANSLATION INSTRUCTION	ACCESS:        642  HIT:        211  MISS:        431  HIT %:     32.866  MISS %:     67.134  MPKI: 0.00862
L2C LOAD DATA	ACCESS:     694125  HIT:     607315  MISS:      86810  HIT %:    87.4936  MISS %:    12.5064  MPKI: 1.7362
L2C RFO DATA	ACCESS:     275836  HIT:     221207  MISS:      54629  HIT %:    80.1951  MISS %:    19.8049  MPKI: 1.09258
L2C PREFETCH DATA	ACCESS:     212905  HIT:     122743  MISS:      90162  HIT %:    57.6515  MISS %:    42.3485  MPKI: 1.80324
L2C WRITEBACK DATA	ACCESS:     484037  HIT:     470029  MISS:      14008  HIT %:     97.106  MISS %:    2.89399  MPKI: 0.28016
L2C LOAD TRANSLATION DATA	ACCESS:       2772  HIT:        896  MISS:       1876  HIT %:    32.3232  MISS %:    67.6768  MPKI: 0.03752
L2C TRANSLATION FROM L1D PREFETCHER DATA	ACCESS:         96  HIT:         52  MISS:         44  HIT %:    54.1667  MISS %:    45.8333  MPKI: 0.00088

L2C PREFETCH  REQUESTED:      90967  ISSUED:      90967  USEFUL:       9192  USELESS:      81569
L2C USEFUL LOAD PREFETCHES:       9192 PREFETCH ISSUED TO LOWER LEVEL:      90635  ACCURACY: 10.1418
 TIMELY PREFETCHES:       9192 LATE PREFETCHES: 473 DROPPED PREFETCHES: 0
L2C AVERAGE MISS LATENCY: 41.2725 cycles
L2C RQ	ACCESS:    3485653	FORWARD:          0	MERGED:          0	TO_CACHE:    3485502
L2C WQ	ACCESS:     484037	FORWARD:        153	MERGED:          0	TO_CACHE:     484037
L2C PQ	ACCESS:     221488	FORWARD:          0	MERGED:       3632	TO_CACHE:     217854

L2C Dense regions hint from L2: 0
PSCL5 TOTAL     ACCESS:       6418  HIT:       3209  MISS:       3209  HIT %:         50  MISS %:         50   MPKI: 0.06418
PSCL5 LOAD TRANSLATION INSTRUCTION	ACCESS:       6238  HIT:       3119  MISS:       3119  HIT %:         50  MISS %:         50  MPKI: 0.06238
PSCL5 TRANSLATION FROM L1D PREFETCHER INSTRUCTION	ACCESS:        180  HIT:         90  MISS:         90  HIT %:         50  MISS %:         50  MPKI: 0.0018


PSCL4 TOTAL     ACCESS:       5977  HIT:       2982  MISS:       2995  HIT %:    49.8912  MISS %:    50.1088   MPKI: 0.0599
PSCL4 LOAD TRANSLATION INSTRUCTION	ACCESS:       3068  HIT:       2893  MISS:        175  HIT %:     94.296  MISS %:    5.70404  MPKI: 0.0035
PSCL4 TRANSLATION FROM L1D PREFETCHER INSTRUCTION	ACCESS:         89  HIT:         89  MISS:          0  HIT %:        100  MISS %:          0  MPKI: 0
PSCL4 LOAD TRANSLATION DATA	ACCESS:       2731  HIT:          0  MISS:       2731  HIT %:          0  MISS %:        100  MPKI: 0.05462
PSCL4 TRANSLATION FROM L1D PREFETCHER DATA	ACCESS:         89  HIT:          0  MISS:         89  HIT %:          0  MISS %:        100  MPKI: 0.00178


PSCL3 TOTAL     ACCESS:       6331  HIT:       3159  MISS:       3172  HIT %:    49.8973  MISS %:    50.1027   MPKI: 0.06344
PSCL3 LOAD TRANSLATION INSTRUCTION	ACCESS:       3245  HIT:       3070  MISS:        175  HIT %:    94.6071  MISS %:    5.39291  MPKI: 0.0035
PSCL3 TRANSLATION FROM L1D PREFETCHER INSTRUCTION	ACCESS:         89  HIT:         89  MISS:          0  HIT %:        100  MISS %:          0  MPKI: 0
PSCL3 LOAD TRANSLATION DATA	ACCESS:       2908  HIT:          0  MISS:       2908  HIT %:          0  MISS %:        100  MPKI: 0.05816
PSCL3 TRANSLATION FROM L1D PREFETCHER DATA	ACCESS:         89  HIT:          0  MISS:         89  HIT %:          0  MISS %:        100  MPKI: 0.00178


PSCL2 TOTAL     ACCESS:       6141  HIT:       2935  MISS:       3206  HIT %:    47.7935  MISS %:    52.2065   MPKI: 0.06412
PSCL2 LOAD TRANSLATION INSTRUCTION	ACCESS:       3418  HIT:       2849  MISS:        569  HIT %:    83.3528  MISS %:    16.6472  MPKI: 0.01138
PSCL2 TRANSLATION FROM L1D PREFETCHER INSTRUCTION	ACCESS:         86  HIT:         86  MISS:          0  HIT %:        100  MISS %:          0  MPKI: 0
PSCL2 LOAD TRANSLATION DATA	ACCESS:       2551  HIT:          0  MISS:       2551  HIT %:          0  MISS %:        100  MPKI: 0.05102
PSCL2 TRANSLATION FROM L1D PREFETCHER DATA	ACCESS:         86  HIT:          0  MISS:         86  HIT %:          0  MISS %:        100  MPKI: 0.00172


LLC TOTAL     ACCESS:     585101  HIT:     546245  MISS:      38856  HIT %:    93.3591  MISS %:     6.6409   MPKI: 0.77712
LLC LOAD INSTRUCTION	ACCESS:     274204  HIT:     272958  MISS:       1246  HIT %:    99.5456  MISS %:   0.454406  MPKI: 0.02492
LLC LOAD TRANSLATION INSTRUCTION	ACCESS:        431  HIT:        396  MISS:         35  HIT %:    91.8794  MISS %:    8.12065  MPKI: 0.0007
LLC LOAD DATA	ACCESS:      86350  HIT:      81554  MISS:       4796  HIT %:    94.4459  MISS %:    5.55414  MPKI: 0.09592
LLC RFO DATA	ACCESS:      54615  HIT:      35674  MISS:      18941  HIT %:    65.3191  MISS %:    34.6809  MPKI: 0.37882
LLC PREFETCH DATA	ACCESS:      90635  HIT:      77350  MISS:      13285  HIT %:    85.3423  MISS %:    14.6577  MPKI: 0.2657
LLC WRITEBACK DATA	ACCESS:      76946  HIT:      76513  MISS:        433  HIT %:    99.4373  MISS %:   0.562732  MPKI: 0.00866
LLC LOAD TRANSLATION DATA	ACCESS:       1876  HIT:       1761  MISS:        115  HIT %:    93.8699  MISS %:    6.13006  MPKI: 0.0023
LLC TRANSLATION FROM L1D PREFETCHER DATA	ACCESS:         44  HIT:         39  MISS:          5  HIT %:    88.6364  MISS %:    11.3636  MPKI: 0.0001

LLC AVERAGE MISS LATENCY: 161.244 cycles
LLC RQ	ACCESS:     417521	FORWARD:          0	MERGED:          0	TO_CACHE:     417520
LLC WQ	ACCESS:      76946	FORWARD:          1	MERGED:          0	TO_CACHE:      76946
LLC PQ	ACCESS:      90635	FORWARD:          0	MERGED:          0	TO_CACHE:      90635

LLC Dense regions hint to LLC: 0

RAW hits: 1834633
Loads Generated: 12450313
Loads sent to L1D: 10615680
Stores Generated: 6769986
Stores sent to L1D: 6770009
Major fault: 0 Minor fault: 2529
Allocated PAGES: 2529

stream: 
stream:times selected: 1485371
stream:pref_filled: 130754
stream:pref_useful: 31342
stream:pref_late: 10730
stream:misses: 13337
stream:misses_by_poll: 0

CS: 
CS:times selected: 234901
CS:pref_filled: 85418
CS:pref_useful: 60646
CS:pref_late: 12114
CS:misses: 30007
CS:misses_by_poll: 8

CPLX: 
CPLX:times selected: 1248359
CPLX:pref_filled: 29340
CPLX:pref_useful: 9514
CPLX:pref_late: 5191
CPLX:misses: 150175
CPLX:misses_by_poll: 3

NL_L1: 
NL:times selected: 28656
NL:pref_filled: 1995
NL:pref_useful: 910
NL:pref_late: 751
NL:misses: 3938
NL:misses_by_poll: 0

total selections: 2997287
total_filled: 111169
total_useful: 57818
total_late: 32069
total_polluted: 11
total_misses_after_warmup: 751957
conflicts: 5200902

test: 176541

DRAM Statistics
 CHANNEL 0
 RQ ROW_BUFFER_HIT:      13412  ROW_BUFFER_MISS:      25006
 DBUS_CONGESTED:         15
 WQ ROW_BUFFER_HIT:       2135  ROW_BUFFER_MISS:      18682  FULL:          0

 AVG_CONGESTED_CYCLE: 5

CPU 0 Branch Prediction Accuracy: 99.7504% MPKI: 0.4573 Average ROB Occupancy at Mispredict: 182.956
Branch types
NOT_BRANCH: 40838334 81.6767%
BRANCH_DIRECT_JUMP: 589583 1.17917%
BRANCH_INDIRECT: 172404 0.344808%
BRANCH_CONDITIONAL: 6307967 12.6159%
BRANCH_DIRECT_CALL: 886105 1.77221%
BRANCH_INDIRECT_CALL: 159736 0.319472%
BRANCH_RETURN: 1045839 2.09168%
BRANCH_OTHER: 0 0%

DRAM PAGES: 1048576
Allocated PAGES: 2529
Average_ROB_Occupancy: 252.086
Average_Decode_Occupancy: 38.8055
Average_FTQ_Occupancy: 15.2142
Indirect max targets: 14 Average targets: 1.14901
Branch_type:  BRANCH_DIRECT_JUMP:  Count Percentage: 9.64257 5.09617 4.66607 13.5032 5.22451 2.24538 1.96706 57.655 
Branch_type:  BRANCH_INDIRECT:  Count Percentage: 5.52769 1.162 14.3352 25.1968 1.37866 16.586 1.78003 34.0336 
Branch_type:  BRANCH_CONDITIONAL:  Count Percentage: 26.4338 2.77984 2.9764 8.35976 2.38979 2.26325 2.16892 52.6283 
Branch_type:  BRANCH_DIRECT_CALL:  Count Percentage: 0.341337 1.29045 1.83381 4.84842 3.03074 2.1258 3.43734 83.0921 
Branch_type:  BRANCH_INDIRECT_CALL:  Count Percentage: 8.72641 0.835574 2.97789 10.165 0.000626133 3.89204 2.77158 70.6309 
Branch_type:  BRANCH_RETURN:  Count Percentage: 3.92467 0.647502 3.47117 9.94929 4.04037 3.69417 2.74145 71.5314 
Branch_type:  BRANCH_DIRECT_JUMP:  Total Count: 113531 60002 54938 158986 61513 26437 23160 678826 
Branch_type:  BRANCH_INDIRECT:  Total Count: 19033 4001 49359 86758 4747 57109 6129 117185 
Branch_type:  BRANCH_CONDITIONAL:  Total Count: 3333099 350517 375301 1054103 301334 285379 273484 6636027 
Branch_type:  BRANCH_DIRECT_CALL:  Total Count: 6052 22880 32514 85964 53736 37691 60945 1473248 
Branch_type:  BRANCH_INDIRECT_CALL:  Total Count: 27874 2669 9512 32469 2 12432 8853 225610 
Branch_type:  BRANCH_RETURN:  Total Count: 82154 13554 72661 208266 84576 77329 57386 1497348 
Number of unique branch instructions: 10145
Upper 32 bits: 
aaaa
ffff
ffff0000
Unique upper 32 bits: 3
Unique upper 36 bits: 3
Unique upper 40 bits: 5
Unique upper 44 bits: 32
Unique upper 48 bits: 157
Variant_0 : 1437 0.35083
Variant_1 : 2609 0.636963
Variant_2 : 0 0
Variant_3 : 0 0
Offset_3 4186
Offset_4 265
Offset_5 474
Offset_6 514
Offset_7 604
Offset_8 522
Offset_9 482
Offset_10 380
Offset_11 324
Offset_12 282
Offset_13 216
Offset_14 231
Offset_15 193
Offset_16 226
Offset_17 155
Offset_18 118
Offset_19 242
Offset_20 142
Offset_21 265
Offset_22 396
Offset_23 241
Offset_24 353
Offset_25 88
Offset_47 86
Offset_64 3
decode_dispatch_called: 26387435 73.8461
Dispatch_width: 0 14220233 53.8902 39.7958
Dispatch_width: 1 1022116 3.8735 2.86043
Dispatch_width: 2 869374 3.29465 2.43297
Dispatch_width: 3 496928 1.8832 1.39067
Dispatch_width: 4 6410412 24.2934 17.9397
Dispatch_width: 5 103527 0.392334 0.289724
Dispatch_width: 6 3264845 12.3727 9.13678
Empty_decode_cycles: 9345575 26.1539
ROB_full_cycles: 10197444 28.5379
Starvation_cycles_per_kilo_instr: 222.707
Starvation_cycles_per_kilo_instr_3: 157.568
Starvation_cycles_per_kilo_instr_0: 133.684
Branch_type_1  (3,1)  (4,11)  (5,38)  (6,69)  (7,118)  (8,135)  (9,129)  (10,90)  (11,74)  (12,44)  (13,9)  (14,2)  (15,3)  (16,4)  (18,1)  (19,4)  (20,2)  (21,1)  (22,3)  (23,2)  (24,10)  (25,12) 
Branch_type_2  (3,1)  (5,1)  (8,2)  (9,3)  (12,1)  (13,1)  (14,1)  (16,3)  (17,2)  (20,2)  (21,2)  (23,5)  (24,1)  (47,40) 
Branch_type_3  (3,4184)  (4,254)  (5,431)  (6,430)  (7,453)  (8,324)  (9,264)  (10,156)  (11,132)  (12,54)  (13,8)  (64,3) 
Branch_type_4  (6,3)  (7,8)  (8,25)  (9,54)  (10,62)  (11,61)  (12,100)  (13,91)  (14,104)  (15,91)  (16,101)  (17,70)  (18,53)  (19,118)  (20,73)  (21,144)  (22,211)  (23,136)  (24,202)  (25,72) 
Branch_type_5  (8,2)  (9,1)  (10,4)  (11,5)  (12,3)  (13,14)  (14,16)  (15,11)  (16,20)  (17,11)  (18,16)  (19,13)  (20,11)  (21,13)  (22,42)  (23,26)  (24,41) 
Branch_type_6  (5,4)  (6,12)  (7,25)  (8,34)  (9,31)  (10,68)  (11,52)  (12,80)  (13,93)  (14,108)  (15,88)  (16,98)  (17,72)  (18,48)  (19,107)  (20,54)  (21,105)  (22,140)  (23,72)  (24,99)  (25,4)  (47,46) 
Unique trigger count: 
Variant_0_evicts_0 : 0
Variant_0_evicts_1 : 0
Variant_0_evicts_2 : 0
Variant_0_evicts_3 : 0
Variant_1_evicts_0 : 0
Variant_1_evicts_1 : 0
Variant_1_evicts_2 : 0
Variant_1_evicts_3 : 0
Variant_2_evicts_0 : 0
Variant_2_evicts_1 : 0
Variant_2_evicts_2 : 0
Variant_2_evicts_3 : 0
Variant_3_evicts_0 : 0
Variant_3_evicts_1 : 0
Variant_3_evicts_2 : 0
Variant_3_evicts_3 : 0
BTB PER SET UNIQUE ADDR: 20 13 20 16 17 17 12 15 13 18 13 16 17 14 11 17 12 21 16 12 13 11 15 18 12 15 15 15 14 14 23 13 11 16 16 16 21 13 15 17 18 14 17 18 17 18 14 11 14 12 10 17 13 16 17 16 12 19 17 13 13 15 15 20 17 13 19 11 15 12 14 19 15 15 15 19 13 16 18 15 15 14 18 16 13 16 20 16 14 20 22 13 15 15 13 17 16 13 15 18 12 17 16 13 16 14 16 13 17 12 14 18 11 20 17 11 14 11 13 19 18 13 14 13 15 17 20 16 17 13 20 13 12 14 17 18 20 14 14 18 15 15 16 14 17 15 15 21 15 16 17 14 12 17 20 13 15 15 16 16 19 11 12 17 14 11 22 16 15 19 24 15 17 11 13 19 13 18 21 13 17 15 13 16 18 12 13 17 14 15 15 12 15 14 16 13 12 15 18 15 12 20 18 13 19 13 14 18 14 19 19 17 13 16 15 14 16 12 17 17 13 11 14 15 14 18 19 15 13 13 13 17 18 15 14 16 13 16 19 15 19 15 13 18 17 15 16 11 13 17 18 11 19 17 16 11 13 14 12 16 15 15 16 13 24 15 14 15 13 15 20 16 15 17 15 19 17 19 18 15 15 18 16 16 18 14 14 20 16 14 16 17 13 18 18 14 12 18 15 18 19 15 14 13 16 16 14 13 16 16 12 16 18 15 14 18 11 19 18 13 17 14 12 24 12 18 18 14 16 19 18 9 23 12 17 14 13 13 17 18 19 14 14 17 18 14 14 13 13 15 16 12 10 21 21 15 17 18 12 16 20 15 14 14 17 14 17 17 19 13 14 16 13 16 18 14 12 20 18 13 17 14 12 16 18 15 15 16 13 19 19 16 15 19 13 14 14 13 18 21 14 18 16 12 18 15 12 14 18 14 14 19 12 14 16 14 15 17 18 15 18 14 12 15 18 14 13 18 13 16 18 11 15 15 12 13 14 20 16 12 14 18 16 11 20 17 12 19 13 15 13 15 10 18 14 18 16 14 12 14 13 16 14 14 17 13 15 12 14 19 18 12 16 18 16 14 15 15 16 15 14 13 15 19 13 17 18 13 12 12 16 15 16 15 13 17 11 17 20 12 14 9 14 18 19 11 13 17 14 19 18 14 
BTB PER SET COUNT: 452 18 24 381 388 70 14 15 16 19 17 17 438 2361 14 20 12 1071 20 14 367 12 19 21 15 2016 2633 449 17 29 28 13 11 21 17 18 26 14 169 21 25 31 21 21 126 18 15 18 16 146 12 17 13 17 26 17 14 21 2027 16 19 28 28 700 19 13 903 19 23 15 268 21 16 708 23 896 731 19 2214 16 16 20 117 271 14 26 25 18 21 1326 524 2441 17 17 19 19 1403 1347 16 77 13 17 20 13 21 15 18 16 18 13 829 19 953 1034 1353 99 16 365 14 28 355 13 22 51 20 413 982 17 695 17 27 13 15 19 589 24 668 15 14 18 25 18 7767 14 19 8769 1119 28 18 32 350 15 18 17 26 206 24 17 74 820 19 687 12 1110 20 12 36 23 18 23 1357 27 21 13 14 826 312 232 248 19 20 36 14 21 20 13 16 20 20 1350 28 1060 1104 16 18 15 12 17 30 16 16 22 1108 16 24 17 367 48 1412 542 22 1110 15 628 21 14 16 13 20 717 17 11 18 19 14 22 1111 25 21 14 1105 981 20 17 15 40 959 590 21 17 141 2735 17 19 1467 18 33 11 2681 20 20 12 86 580 396 13 144 20 12 479 19 22 4102 15 2413 18 79 18 20 1105 32 300 16 21 25 24 1543 99 19 17 15 403 21 1871 19 14 16 26 22 19 26 727 412 22 20 951 67 1462 15 1352 2634 539 15 17 25 966 16 667 365 965 2905 102 36 18 19 1481 11 940 23 14 1194 29 26 6212 13 19 374 353 420 19 696 233 144 4014 21 109 16 16 718 18 20 38 63 17 22 15 21 1106 13 705 22 302 11 25 598 17 59 60 14 16 21 35 17 17 357 761 141 22 27 14 16 17 721 16 18 19 30 576 756 16 25 56 15 18 1429 18 1758 19 13 744 21 20 15 30 15 17 103 19 268 224 17 21 17 28 1109 1068 20 353 1068 14 18 817 12 15 18 19 20 358 18 21 20 15 13 11158 18 19 14 24 17 16 21 12 21 769 15 848 45 38 34 37 15 19 18 13 709 28 13 23 17 24 15 268 12 764 14 21 20 17 13 15 19 20 15 16 5080 14 18 13 17 21 220 155 32 23 22 15 99 37 20 18 14 16 21 54 70 21 20 17 15 12 18 57 154 17 18 19 11 31 26 14 707 12 16 23 24 298 28 18 16 1113 24 265 
To predecode: 0
Predecoding something: 0
Predecode request dropped: 0
sizeofblock_0 0
sizeofblock_1 40518
sizeofblock_2 74213
sizeofblock_3 0
sizeofblock_4 0
sizeofblock_5 0
sizeofblock_6 0
sizeofblock_7 0
sizeofblock_8 0
Variant_0 Correct: 1531229 Incorrect: 0 Accuracy: 1
Variant_1 Correct: 5341005 Incorrect: 0 Accuracy: 1
Variant_2 Correct: 0 Incorrect: 0 Accuracy: -nan
Variant_3 Correct: 0 Incorrect: 0 Accuracy: -nan
