
*** ChampSim Multicore Out-of-Order Simulator ***

Warmup Instructions: 50000000
Simulation Instructions: 50000000
Number of CPUs: 1
LLC sets: 2048
LLC ways: 16
Off-chip DRAM Size: 4096 MB Channels: 1 Width: 64-bit Data Rate: 6400 MT/s
CPU 0 runs ./micro_traces/srv231.trace.gz
.gz
ITLB has LRU replacement policy
DTLB has LRU replacement policy
STLB has LRU replacement policy
SN4L + DIS + BTB Prefetcher for L1I CPU 0
srv231.cond
L1I has LRU replacement policy
L1D has LRU replacement policy
Initialize SRRIP state for L2C
Initialize DRRIP state for LLC
Heartbeat CPU 0 instructions: 10000001 cycles: 2801214 heartbeat IPC: 3.56988 cumulative IPC: 3.56988 (Simulation time: 0 hr 1 min 47 sec) 
Heartbeat CPU 0 instructions: 20000003 cycles: 5599533 heartbeat IPC: 3.57357 cumulative IPC: 3.57173 (Simulation time: 0 hr 3 min 28 sec) 
Heartbeat CPU 0 instructions: 30000003 cycles: 8396743 heartbeat IPC: 3.57499 cumulative IPC: 3.57281 (Simulation time: 0 hr 5 min 4 sec) 
Heartbeat CPU 0 instructions: 40000003 cycles: 11194235 heartbeat IPC: 3.57463 cumulative IPC: 3.57327 (Simulation time: 0 hr 6 min 41 sec) 
Heartbeat CPU 0 instructions: 50000002 cycles: 13992181 heartbeat IPC: 3.57405 cumulative IPC: 3.57342 (Simulation time: 0 hr 8 min 22 sec) 

Warmup complete CPU 0 instructions: 50000002 cycles: 13992181 (Simulation time: 0 hr 8 min 22 sec) 

Cycle: 20000000 FTQ IN: 57195369 FTQ occupancy: 18.3959 DECODE IN: 57195314 DECODE occupancy: 47.2481 ROB IN: 57195314 ROB occupancy: 287.749 ROB OUT: 57195314
Heartbeat CPU 0 instructions: 60000001 cycles: 22444835 heartbeat IPC: 1.18306 cumulative IPC: 1.18306 (Simulation time: 0 hr 9 min 48 sec) 
Cycle: 30000000 FTQ IN: 11776520 FTQ occupancy: 7.85399 DECODE IN: 11776575 DECODE occupancy: 17.8622 ROB IN: 11776575 ROB occupancy: 147.187 ROB OUT: 11776419
Heartbeat CPU 0 instructions: 70000001 cycles: 30867936 heartbeat IPC: 1.18721 cumulative IPC: 1.18513 (Simulation time: 0 hr 11 min 19 sec) 
Heartbeat CPU 0 instructions: 80000003 cycles: 39361601 heartbeat IPC: 1.17735 cumulative IPC: 1.18253 (Simulation time: 0 hr 12 min 50 sec) 
Cycle: 40000000 FTQ IN: 11785817 FTQ occupancy: 7.86858 DECODE IN: 11785817 DECODE occupancy: 17.8952 ROB IN: 11785817 ROB occupancy: 147.325 ROB OUT: 11785864
Heartbeat CPU 0 instructions: 90000000 cycles: 47769397 heartbeat IPC: 1.18937 cumulative IPC: 1.18423 (Simulation time: 0 hr 14 min 19 sec) 
Cycle: 50000000 FTQ IN: 11911732 FTQ occupancy: 7.70947 DECODE IN: 11911724 DECODE occupancy: 17.5417 ROB IN: 11911724 ROB occupancy: 145.198 ROB OUT: 11911684
Heartbeat CPU 0 instructions: 100000001 cycles: 56256920 heartbeat IPC: 1.1782 cumulative IPC: 1.18302 (Simulation time: 0 hr 15 min 49 sec) 
Finished CPU 0 instructions: 50000003 cycles: 42264740 cumulative IPC: 1.18302 (Simulation time: 0 hr 15 min 49 sec) 

ChampSim completed all CPUs

Region of Interest Statistics

CPU 0 cumulative IPC: 1.18302 instructions: 50000003 cycles: 42264740
 Fetch stage stalled: 67.6177  Sim cycles: 42264740 fetch stall cycle: 28578446
 Empty decode stage: 55.8098  Sim cycles: 42264740 fetch stall cycle: 23587857
ITLB TOTAL     ACCESS:    8086112  HIT:    7541128  MISS:     544984  HIT %:    93.2602  MISS %:    6.73975   MPKI: 10.8997
ITLB LOAD TRANSLATION INSTRUCTION	ACCESS:    5521787  HIT:    5046136  MISS:     475651  HIT %:    91.3859  MISS %:    8.61408  MPKI: 9.51302
ITLB TRANSLATION FROM L1D PREFETCHER INSTRUCTION	ACCESS:    2564325  HIT:    2494992  MISS:      69333  HIT %:    97.2962  MISS %:    2.70375  MPKI: 1.38666

ITLB AVERAGE MISS LATENCY: 377658 cycles
ITLB RQ	ACCESS:   11199892	FORWARD:          0	MERGED:    2621361	TO_CACHE:    8578531

DTLB TOTAL     ACCESS:    9219840  HIT:    8747159  MISS:     472681  HIT %:    94.8732  MISS %:    5.12678   MPKI: 9.45362
DTLB LOAD TRANSLATION DATA	ACCESS:    9219840  HIT:    8747159  MISS:     472681  HIT %:    94.8732  MISS %:    5.12678  MPKI: 9.45362

DTLB AVERAGE MISS LATENCY: 9.34312 cycles
DTLB RQ	ACCESS:   13521451	FORWARD:          0	MERGED:    4266676	TO_CACHE:    9254775

STLB TOTAL     ACCESS:    1269441  HIT:    1267218  MISS:       2223  HIT %:    99.8249  MISS %:   0.175116   MPKI: 0.04446
STLB LOAD TRANSLATION INSTRUCTION	ACCESS:     469813  HIT:     469448  MISS:        365  HIT %:    99.9223  MISS %:  0.0776905  MPKI: 0.0073
STLB TRANSLATION FROM L1D PREFETCHER INSTRUCTION	ACCESS:      75171  HIT:      75139  MISS:         32  HIT %:    99.9574  MISS %:  0.0425696  MPKI: 0.00064
STLB LOAD TRANSLATION DATA	ACCESS:     472547  HIT:     470745  MISS:       1802  HIT %:    99.6187  MISS %:   0.381338  MPKI: 0.03604
STLB TRANSLATION FROM L1D PREFETCHER DATA	ACCESS:     251910  HIT:     251886  MISS:         24  HIT %:    99.9905  MISS %: 0.00952721  MPKI: 0.00048

STLB AVERAGE MISS LATENCY: 73.6316 cycles
STLB RQ	ACCESS:    1404608	FORWARD:          0	MERGED:     119972	TO_CACHE:    1284636

STLB Hit, L1D data hit: 0
STLB Hit, L2C data hit: 0
STLB Hit, LLC data hit: 0
STLB Hit, LLC data miss: 0
STLB STLB hints to L2: 0
L1D TOTAL     ACCESS:   13262856  HIT:   12147747  MISS:    1115109  HIT %:    91.5922  MISS %:    8.40776   MPKI: 22.3022
L1D LOAD DATA	ACCESS:    6715453  HIT:    5981577  MISS:     733876  HIT %:    89.0718  MISS %:    10.9282  MPKI: 14.6775
L1D RFO DATA	ACCESS:    6218318  HIT:    5931467  MISS:     286851  HIT %:     95.387  MISS %:      4.613  MPKI: 5.73702
L1D PREFETCH DATA	ACCESS:     329085  HIT:     234703  MISS:      94382  HIT %:    71.3199  MISS %:    28.6801  MPKI: 1.88764

L1D PREFETCH  REQUESTED:     743866  ISSUED:     743866  USEFUL:      34990  USELESS:      68599
L1D USEFUL LOAD PREFETCHES:      34990 PREFETCH ISSUED TO LOWER LEVEL:     103704  ACCURACY: 33.7403
 TIMELY PREFETCHES:      34990 LATE PREFETCHES: 9231 DROPPED PREFETCHES: 3
L1D AVERAGE MISS LATENCY: 295214 cycles
L1D RQ	ACCESS:   10831551	FORWARD:          0	MERGED:    3916937	TO_CACHE:    6753764
L1D WQ	ACCESS:    6946951	FORWARD:     161152	MERGED:     179264	TO_CACHE:    6767687
L1D PQ	ACCESS:     372084	FORWARD:          0	MERGED:          0	TO_CACHE:     371782

L1D UNIQUE REGIONS ACCESSED: 0
L1D REGIONS CONFLICTS: 0
L1D Cross Page Prefetch Requests: 6950
L1D Same Page Prefetch Requests: 751488
L1D ROI Sum of L1D PQ occupancy: 4735283
L1D PREFETCHES PUSHED FROM L2C: 0
L1I TOTAL     ACCESS:   10625959  HIT:    7071119  MISS:    3554840  HIT %:    66.5457  MISS %:    33.4543   MPKI: 71.0968
L1I LOAD INSTRUCTION	ACCESS:    6467076  HIT:    4138071  MISS:    2329005  HIT %:    63.9867  MISS %:    36.0133  MPKI: 46.5801
L1I PREFETCH INSTRUCTION	ACCESS:    4158883  HIT:    2933048  MISS:    1225835  HIT %:    70.5249  MISS %:    29.4751  MPKI: 24.5167

L1I PREFETCH  REQUESTED:    4808256  ISSUED:    4808256  USEFUL:     593555  USELESS:     723029
L1I USEFUL LOAD PREFETCHES:     593555 PREFETCH ISSUED TO LOWER LEVEL:    1316595  ACCURACY: 45.0826
 TIMELY PREFETCHES:     593555 LATE PREFETCHES: 90760 DROPPED PREFETCHES: 35982
L1I AVERAGE MISS LATENCY: 896291 cycles
L1I RQ	ACCESS:    9475293	FORWARD:          0	MERGED:    2829636	TO_CACHE:    6645657
L1I PQ	ACCESS:    4808256	FORWARD:          0	MERGED:     254021	TO_CACHE:    4554235

L1BTB TOTAL     ACCESS:    5670148  HIT:    2048532  MISS:    3621616  HIT %:    36.1284  MISS %:    63.8716   MPKI: 72.4323
L1BTB BRANCH_DIRECT_JUMP	ACCESS:     549110  HIT:     145388  MISS:     403722	AVERAGE STALL: 38.3509
L1BTB BRANCH_INDIRECT	ACCESS:     183191  HIT:      66207  MISS:     116984	AVERAGE STALL: 90.7451
L1BTB BRANCH_CONDITIONAL	ACCESS:    2711732  HIT:    1420335  MISS:    1291397	AVERAGE STALL: 38.4544
L1BTB BRANCH_DIRECT_CALL	ACCESS:     941875  HIT:     105677  MISS:     836198	AVERAGE STALL: 42.1738
L1BTB BRANCH_INDIRECT_CALL	ACCESS:     171183  HIT:      21168  MISS:     150015	AVERAGE STALL: 118.555
L1BTB BRANCH_RETURN	ACCESS:    1113057  HIT:     289757  MISS:     823300	AVERAGE STALL: 38.186
L1BTB BRANCH_OTHER ACCESS:          0  HIT:          0  MISS:          0	AVERAGE STALL: -nan
L1BTB TOTAL ROB OCCUPANCY AT BTB MISS: 14.1044

L2BTB TOTAL     ACCESS:    3596192  HIT:    3175461  MISS:     420731  HIT %:    88.3007  MISS %:    11.6993   MPKI: 8.41462
L2BTB BRANCH_DIRECT_JUMP	ACCESS:     399529  HIT:     354002  MISS:      45527	AVERAGE STALL: 38.3509
L2BTB BRANCH_INDIRECT	ACCESS:     106722  HIT:     101611  MISS:       5111	AVERAGE STALL: 90.7451
L2BTB BRANCH_CONDITIONAL	ACCESS:    1291397  HIT:    1153846  MISS:     137551	AVERAGE STALL: 38.4544
L2BTB BRANCH_DIRECT_CALL	ACCESS:     836198  HIT:     725286  MISS:     110912	AVERAGE STALL: 42.1738
L2BTB BRANCH_INDIRECT_CALL	ACCESS:     140447  HIT:     118839  MISS:      21608	AVERAGE STALL: 118.555
L2BTB BRANCH_RETURN	ACCESS:     821899  HIT:     721877  MISS:     100022	AVERAGE STALL: 38.186
L2BTB BRANCH_OTHER ACCESS:          0  HIT:          0  MISS:          0	AVERAGE STALL: -nan
L2BTB TOTAL ROB OCCUPANCY AT BTB MISS: 121.409

L2C TOTAL     ACCESS:    6057393  HIT:    5020424  MISS:    1036969  HIT %:    82.8809  MISS %:    17.1191   MPKI: 20.7394
L2C LOAD INSTRUCTION	ACCESS:    2238245  HIT:    1915909  MISS:     322336  HIT %:    85.5987  MISS %:    14.4013  MPKI: 6.44672
L2C PREFETCH INSTRUCTION	ACCESS:    1316595  HIT:    1086419  MISS:     230176  HIT %:    82.5173  MISS %:    17.4827  MPKI: 4.60352
L2C LOAD TRANSLATION INSTRUCTION	ACCESS:        406  HIT:        134  MISS:        272  HIT %:    33.0049  MISS %:    66.9951  MPKI: 0.00544
L2C TRANSLATION FROM L1D PREFETCHER INSTRUCTION	ACCESS:      20730  HIT:      19657  MISS:       1073  HIT %:    94.8239  MISS %:    5.17607  MPKI: 0.02146
L2C LOAD DATA	ACCESS:     724625  HIT:     592068  MISS:     132557  HIT %:    81.7068  MISS %:    18.2932  MPKI: 2.65114
L2C RFO DATA	ACCESS:     286742  HIT:     198471  MISS:      88271  HIT %:    69.2159  MISS %:    30.7841  MPKI: 1.76542
L2C PREFETCH DATA	ACCESS:     947660  HIT:     719767  MISS:     227893  HIT %:     75.952  MISS %:     24.048  MPKI: 4.55786
L2C WRITEBACK DATA	ACCESS:     520474  HIT:     487536  MISS:      32938  HIT %:    93.6715  MISS %:    6.32846  MPKI: 0.65876
L2C LOAD TRANSLATION DATA	ACCESS:       1878  HIT:        437  MISS:       1441  HIT %:    23.2694  MISS %:    76.7306  MPKI: 0.02882
L2C TRANSLATION FROM L1D PREFETCHER DATA	ACCESS:         38  HIT:         26  MISS:         12  HIT %:    68.4211  MISS %:    31.5789  MPKI: 0.00024

L2C PREFETCH  REQUESTED:    1369661  ISSUED:    1369661  USEFUL:      37637  USELESS:     424760
L2C USEFUL LOAD PREFETCHES:      37637 PREFETCH ISSUED TO LOWER LEVEL:     460914  ACCURACY: 8.16573
 TIMELY PREFETCHES:      37637 LATE PREFETCHES: 2845 DROPPED PREFETCHES: 0
L2C AVERAGE MISS LATENCY: 33.9926 cycles
L2C RQ	ACCESS:    3272702	FORWARD:          0	MERGED:          0	TO_CACHE:    3272664
L2C WQ	ACCESS:     520474	FORWARD:         38	MERGED:          0	TO_CACHE:     520474
L2C PQ	ACCESS:    2789960	FORWARD:          0	MERGED:     504867	TO_CACHE:    2285093

L2C Dense regions hint from L2: 0
PSCL5 TOTAL     ACCESS:      34780  HIT:      17390  MISS:      17390  HIT %:         50  MISS %:         50   MPKI: 0.3478
PSCL5 LOAD TRANSLATION INSTRUCTION	ACCESS:       4318  HIT:       2159  MISS:       2159  HIT %:         50  MISS %:         50  MPKI: 0.04318
PSCL5 TRANSLATION FROM L1D PREFETCHER INSTRUCTION	ACCESS:      30462  HIT:      15231  MISS:      15231  HIT %:         50  MISS %:         50  MPKI: 0.30462


PSCL4 TOTAL     ACCESS:      34459  HIT:      17227  MISS:      17232  HIT %:    49.9927  MISS %:    50.0073   MPKI: 0.34464
PSCL4 LOAD TRANSLATION INSTRUCTION	ACCESS:       2330  HIT:       2078  MISS:        252  HIT %:    89.1845  MISS %:    10.8155  MPKI: 0.00504
PSCL4 TRANSLATION FROM L1D PREFETCHER INSTRUCTION	ACCESS:      20101  HIT:      15149  MISS:       4952  HIT %:    75.3644  MISS %:    24.6356  MPKI: 0.09904
PSCL4 LOAD TRANSLATION DATA	ACCESS:       1831  HIT:          0  MISS:       1831  HIT %:          0  MISS %:        100  MPKI: 0.03662
PSCL4 TRANSLATION FROM L1D PREFETCHER DATA	ACCESS:      10197  HIT:          0  MISS:      10197  HIT %:          0  MISS %:        100  MPKI: 0.20394


PSCL3 TOTAL     ACCESS:      34551  HIT:      17273  MISS:      17278  HIT %:    49.9928  MISS %:    50.0072   MPKI: 0.34556
PSCL3 LOAD TRANSLATION INSTRUCTION	ACCESS:       2376  HIT:       2124  MISS:        252  HIT %:    89.3939  MISS %:    10.6061  MPKI: 0.00504
PSCL3 TRANSLATION FROM L1D PREFETCHER INSTRUCTION	ACCESS:      20101  HIT:      15149  MISS:       4952  HIT %:    75.3644  MISS %:    24.6356  MPKI: 0.09904
PSCL3 LOAD TRANSLATION DATA	ACCESS:       1877  HIT:          0  MISS:       1877  HIT %:          0  MISS %:        100  MPKI: 0.03754
PSCL3 TRANSLATION FROM L1D PREFETCHER DATA	ACCESS:      10197  HIT:          0  MISS:      10197  HIT %:          0  MISS %:        100  MPKI: 0.20394


PSCL2 TOTAL     ACCESS:      23761  HIT:      11820  MISS:      11941  HIT %:    49.7454  MISS %:    50.2546   MPKI: 0.23882
PSCL2 LOAD TRANSLATION INSTRUCTION	ACCESS:       2411  HIT:       2042  MISS:        369  HIT %:    84.6951  MISS %:    15.3049  MPKI: 0.00738
PSCL2 TRANSLATION FROM L1D PREFETCHER INSTRUCTION	ACCESS:      19518  HIT:       9778  MISS:       9740  HIT %:    50.0973  MISS %:    49.9027  MPKI: 0.1948
PSCL2 LOAD TRANSLATION DATA	ACCESS:       1794  HIT:          0  MISS:       1794  HIT %:          0  MISS %:        100  MPKI: 0.03588
PSCL2 TRANSLATION FROM L1D PREFETCHER DATA	ACCESS:         38  HIT:          0  MISS:         38  HIT %:          0  MISS %:        100  MPKI: 0.00076


LLC TOTAL     ACCESS:    1129850  HIT:    1098197  MISS:      31653  HIT %:    97.1985  MISS %:    2.80152   MPKI: 0.63306
LLC LOAD INSTRUCTION	ACCESS:     320505  HIT:     319764  MISS:        741  HIT %:    99.7688  MISS %:   0.231198  MPKI: 0.01482
LLC PREFETCH INSTRUCTION	ACCESS:     221118  HIT:     220656  MISS:        462  HIT %:    99.7911  MISS %:   0.208938  MPKI: 0.00924
LLC LOAD TRANSLATION INSTRUCTION	ACCESS:        272  HIT:        233  MISS:         39  HIT %:    85.6618  MISS %:    14.3382  MPKI: 0.00078
LLC TRANSLATION FROM L1D PREFETCHER INSTRUCTION	ACCESS:       1073  HIT:       1061  MISS:         12  HIT %:    98.8816  MISS %:    1.11836  MPKI: 0.00024
LLC LOAD DATA	ACCESS:     131609  HIT:     127926  MISS:       3683  HIT %:    97.2016  MISS %:    2.79844  MPKI: 0.07366
LLC RFO DATA	ACCESS:      88194  HIT:      72600  MISS:      15594  HIT %:    82.3185  MISS %:    17.6815  MPKI: 0.31188
LLC PREFETCH DATA	ACCESS:     239796  HIT:     229099  MISS:      10697  HIT %:    95.5391  MISS %:    4.46088  MPKI: 0.21394
LLC WRITEBACK DATA	ACCESS:     125830  HIT:     125497  MISS:        333  HIT %:    99.7354  MISS %:   0.264643  MPKI: 0.00666
LLC LOAD TRANSLATION DATA	ACCESS:       1441  HIT:       1349  MISS:         92  HIT %:    93.6155  MISS %:    6.38446  MPKI: 0.00184
LLC TRANSLATION FROM L1D PREFETCHER DATA	ACCESS:         12  HIT:         12  MISS:          0  HIT %:        100  MISS %:          0  MPKI: 0

LLC AVERAGE MISS LATENCY: 160.571 cycles
LLC RQ	ACCESS:     543117	FORWARD:          0	MERGED:          0	TO_CACHE:     543106
LLC WQ	ACCESS:     125830	FORWARD:         11	MERGED:          0	TO_CACHE:     125830
LLC PQ	ACCESS:     460914	FORWARD:          0	MERGED:          0	TO_CACHE:     460914

LLC Dense regions hint to LLC: 0

RAW hits: 1808123
Loads Generated: 12639674
Loads sent to L1D: 10831551
Stores Generated: 6946934
Stores sent to L1D: 6946951
Major fault: 0 Minor fault: 2558
Allocated PAGES: 2558
CPU 0 L1I prefetcher final stats
USEFUL PREFETCHES 1266109
USELESS PREFETCHES 1601212
MISSES TRACKED 2255507
MISSES OMITTED 2455964
2255507 2283736 4681987BRANCHES PENDING
22843570/32471617
To predecode: 9260808 predecoding_something: 314070790

stream: 
stream:times selected: 1187662
stream:pref_filled: 121158
stream:pref_useful: 22359
stream:pref_late: 8456
stream:misses: 8330
stream:misses_by_poll: 0

CS: 
CS:times selected: 180875
CS:pref_filled: 54056
CS:pref_useful: 30982
CS:pref_late: 12635
CS:misses: 22326
CS:misses_by_poll: 0

CPLX: 
CPLX:times selected: 1005546
CPLX:pref_filled: 19074
CPLX:pref_useful: 3937
CPLX:pref_late: 3789
CPLX:misses: 94614
CPLX:misses_by_poll: 0

NL_L1: 
NL:times selected: 20104
NL:pref_filled: 582
NL:pref_useful: 233
NL:pref_late: 349
NL:misses: 1773
NL:misses_by_poll: 0

total selections: 2394187
total_filled: 94382
total_useful: 34990
total_late: 26580
total_polluted: 0
total_misses_after_warmup: 772188
conflicts: 5597504

test: 118461

DRAM Statistics
 CHANNEL 0
 RQ ROW_BUFFER_HIT:      11478  ROW_BUFFER_MISS:      19804
 DBUS_CONGESTED:          9
 WQ ROW_BUFFER_HIT:       1465  ROW_BUFFER_MISS:      13334  FULL:          0

 AVG_CONGESTED_CYCLE: 7

CPU 0 Branch Prediction Accuracy: 99.8233% MPKI: 0.32296 Average ROB Occupancy at Mispredict: 155.234
Branch types
NOT_BRANCH: 40859190 81.7184%
BRANCH_DIRECT_JUMP: 549110 1.09822%
BRANCH_INDIRECT: 183191 0.366382%
BRANCH_CONDITIONAL: 6182216 12.3644%
BRANCH_DIRECT_CALL: 941875 1.88375%
BRANCH_INDIRECT_CALL: 171183 0.342366%
BRANCH_RETURN: 1113057 2.22611%
BRANCH_OTHER: 0 0%

DRAM PAGES: 1048576
Allocated PAGES: 2558
Average_ROB_Occupancy: 147.526
Average_Decode_Occupancy: 17.7632
Average_FTQ_Occupancy: 7.81442
Indirect max targets: 14 Average targets: 1.15282
Branch_type:  BRANCH_DIRECT_JUMP:  Count Percentage: 2.90184 6.19419 3.72231 8.5733 2.78802 6.28013 1.35295 68.1872 
Branch_type:  BRANCH_INDIRECT:  Count Percentage: 11.7352 3.41967 2.54357 0 1.3371 9.69826 19.238 52.0282 
Branch_type:  BRANCH_CONDITIONAL:  Count Percentage: 20.7876 3.22326 1.9134 8.20168 1.4167 5.12531 2.05178 57.2803 
Branch_type:  BRANCH_DIRECT_CALL:  Count Percentage: 0.259769 1.77396 1.44617 4.26488 2.80381 2.9856 0.890372 85.5754 
Branch_type:  BRANCH_INDIRECT_CALL:  Count Percentage: 9.56288 0.571053 2.99621 4.85468 0.000583601 2.62854 1.28538 78.1007 
Branch_type:  BRANCH_RETURN:  Count Percentage: 3.20296 1.29331 1.27291 8.70862 3.51201 6.86409 3.35307 71.793 
Branch_type:  BRANCH_DIRECT_JUMP:  Total Count: 31842 67969 40845 94075 30593 68912 14846 748220 
Branch_type:  BRANCH_INDIRECT:  Total Count: 42944 12514 9308 0 4893 35490 70400 190393 
Branch_type:  BRANCH_CONDITIONAL:  Total Count: 2569269 398383 236489 1013698 175099 633470 253593 7079634 
Branch_type:  BRANCH_DIRECT_CALL:  Total Count: 4900 33462 27279 80448 52888 56317 16795 1614201 
Branch_type:  BRANCH_INDIRECT_CALL:  Total Count: 32772 1957 10268 16637 2 9008 4405 267651 
Branch_type:  BRANCH_RETURN:  Total Count: 71419 28838 28383 194183 78310 153054 74766 1600827 
Number of unique branch instructions: 10016
Upper 32 bits: 
aaaa
ffff
ffff0000
Unique upper 32 bits: 3
Unique upper 36 bits: 3
Unique upper 40 bits: 5
Unique upper 44 bits: 32
Unique upper 48 bits: 157
Offset_3 4100
Offset_4 264
Offset_5 463
Offset_6 506
Offset_7 585
Offset_8 517
Offset_9 484
Offset_10 389
Offset_11 303
Offset_12 280
Offset_13 205
Offset_14 227
Offset_15 183
Offset_16 225
Offset_17 152
Offset_18 118
Offset_19 242
Offset_20 139
Offset_21 261
Offset_22 391
Offset_23 243
Offset_24 341
Offset_25 88
Offset_47 84
decode_dispatch_called: 20857485 49.3496
Dispatch_width: 0 10580836 50.7292 25.0347
Dispatch_width: 1 591656 2.83666 1.39988
Dispatch_width: 2 684695 3.28273 1.62001
Dispatch_width: 3 442199 2.1201 1.04626
Dispatch_width: 4 2169859 10.4033 5.13397
Dispatch_width: 5 296785 1.42292 0.702205
Dispatch_width: 6 6091455 29.2051 14.4126
Empty_decode_cycles: 21407255 50.6504
ROB_full_cycles: 3295296 7.7968
Starvation_cycles_per_kilo_instr: 328.78
Starvation_cycles_per_kilo_instr_3: 304.113
Starvation_cycles_per_kilo_instr_0: 286.928
Branch_type_1  (3,1)  (4,10)  (5,39)  (6,70)  (7,114)  (8,133)  (9,128)  (10,99)  (11,67)  (12,43)  (13,8)  (14,2)  (15,3)  (16,4)  (18,1)  (19,4)  (20,2)  (21,1)  (22,3)  (23,2)  (24,10)  (25,12) 
Branch_type_2  (3,1)  (5,1)  (8,3)  (9,3)  (12,1)  (13,1)  (14,1)  (16,3)  (17,2)  (20,2)  (21,2)  (23,5)  (24,1)  (47,38) 
Branch_type_3  (3,4098)  (4,254)  (5,419)  (6,421)  (7,440)  (8,319)  (9,267)  (10,156)  (11,122)  (12,50)  (13,7) 
Branch_type_4  (6,3)  (7,8)  (8,25)  (9,54)  (10,63)  (11,58)  (12,101)  (13,86)  (14,100)  (15,85)  (16,101)  (17,69)  (18,53)  (19,116)  (20,72)  (21,141)  (22,208)  (23,137)  (24,192)  (25,72) 
Branch_type_5  (8,2)  (9,1)  (10,4)  (11,5)  (12,3)  (13,14)  (14,16)  (15,11)  (16,20)  (17,11)  (18,16)  (19,13)  (20,11)  (21,13)  (22,42)  (23,26)  (24,41) 
Branch_type_6  (5,4)  (6,12)  (7,23)  (8,35)  (9,31)  (10,67)  (11,51)  (12,82)  (13,89)  (14,108)  (15,84)  (16,97)  (17,70)  (18,48)  (19,109)  (20,52)  (21,104)  (22,138)  (23,73)  (24,97)  (25,4)  (47,46) 
Unique trigger count: 
BTB PER SET UNIQUE ADDR: 2 4 4 2 2 1 3 2 4 0 3 1 5 3 2 3 3 2 3 4 3 4 2 4 4 5 1 3 3 2 6 6 4 2 5 2 1 5 6 3 4 4 3 7 6 2 4 4 6 4 4 2 3 2 2 5 4 3 3 3 1 4 2 3 1 5 6 2 3 5 5 1 1 4 2 3 3 6 1 3 2 3 1 4 3 4 2 5 3 3 6 4 3 5 2 0 3 4 1 4 4 3 3 3 2 2 1 3 3 2 2 1 3 6 2 6 2 4 4 1 4 5 2 0 1 2 3 1 6 4 5 2 3 1 5 3 2 1 3 3 5 3 3 2 0 3 2 5 4 3 3 8 3 5 3 0 3 3 3 2 4 5 4 4 4 3 2 2 9 1 1 2 4 2 1 1 3 4 5 1 3 3 6 3 4 4 3 1 2 3 5 3 3 4 4 4 2 3 2 4 3 2 3 1 3 3 2 4 2 1 2 4 5 3 3 2 2 5 3 0 1 1 2 3 3 2 3 3 0 3 8 3 2 2 3 3 3 1 1 2 1 0 5 3 9 6 1 1 3 2 2 1 1 3 2 6 3 4 4 3 4 4 4 2 3 6 3 1 4 2 3 2 2 3 4 2 1 1 3 3 4 2 6 2 5 5 3 3 1 1 0 3 1 5 1 1 5 3 2 2 3 3 1 2 4 2 4 2 6 6 3 1 3 2 5 1 6 6 2 2 3 8 3 4 2 3 2 6 2 1 4 0 2 5 5 1 2 2 5 0 3 0 1 4 4 2 1 3 3 4 3 6 4 3 5 3 2 0 4 1 3 5 2 4 6 5 1 1 2 1 2 2 2 5 4 4 3 3 3 4 6 3 3 5 3 2 5 2 4 1 5 5 4 2 3 1 5 0 1 3 4 2 3 2 2 4 3 2 1 1 2 3 4 3 2 2 5 3 1 3 1 1 3 4 3 3 2 0 2 4 1 2 8 4 5 5 3 3 3 1 2 5 5 3 4 6 2 3 3 2 4 3 1 3 5 1 1 3 7 2 3 4 4 6 2 3 5 2 3 3 0 4 5 2 2 1 4 5 1 1 2 2 3 2 1 4 3 1 5 1 4 2 4 5 0 5 4 4 2 1 5 2 1 1 1 2 2 2 2 3 3 2 2 6 2 1 2 5 4 5 3 5 4 2 6 5 0 6 6 3 4 3 3 6 3 4 1 1 4 1 2 5 6 2 5 2 7 3 6 9 3 6 3 6 1 3 3 1 3 3 8 2 5 2 2 1 4 2 2 7 3 2 3 7 2 2 3 3 1 5 4 2 1 0 1 0 0 9 4 2 5 6 1 1 2 3 5 2 3 1 3 2 4 6 1 4 3 4 1 2 5 2 2 2 2 2 2 0 3 1 5 3 6 2 2 3 2 5 2 3 5 4 3 2 5 2 2 3 2 2 7 1 4 4 0 0 3 3 3 4 3 2 5 2 3 0 4 3 2 3 5 2 5 4 5 4 5 3 1 4 5 3 4 4 5 6 3 3 3 3 3 2 5 3 5 3 5 3 4 3 1 4 2 2 2 4 6 4 5 4 0 6 0 3 3 2 4 1 3 1 3 3 3 2 2 1 7 2 0 3 2 0 1 1 1 1 1 4 2 4 5 5 2 2 2 4 4 3 2 2 1 3 2 4 2 1 3 2 2 2 0 2 1 3 2 2 2 6 4 1 3 3 1 5 4 4 8 2 2 2 3 3 0 3 3 3 5 2 1 3 4 4 0 3 8 6 3 3 0 2 2 4 1 1 4 6 7 2 2 2 5 3 5 3 4 3 3 5 1 2 1 3 4 0 4 3 1 2 0 4 4 2 4 2 2 1 2 2 4 4 3 1 3 2 5 2 2 1 5 2 2 1 3 3 1 4 6 4 5 2 6 2 5 4 5 5 3 2 5 4 3 6 2 1 9 3 2 4 5 3 1 3 3 6 4 0 2 3 5 4 3 5 3 4 5 3 2 2 2 4 4 2 3 3 3 1 7 3 1 1 5 2 1 3 4 5 3 5 3 4 5 4 0 3 1 5 0 1 5 2 6 4 5 3 4 1 3 2 5 6 4 4 8 7 5 4 6 4 1 5 4 2 0 4 4 5 5 5 3 2 6 0 5 4 2 3 6 5 4 2 2 3 4 5 2 5 9 4 6 3 2 4 0 5 6 1 6 5 1 3 6 5 3 4 2 1 2 3 3 2 5 5 2 7 5 3 4 5 3 5 1 2 5 2 2 5 4 3 3 2 5 3 4 5 5 2 5 2 2 4 5 2 9 5 2 3 3 2 2 3 5 8 6 2 3 2 3 2 3 1 3 2 4 4 2 4 5 5 4 6 0 3 3 3 4 4 2 1 2 2 3 2 1 1 4 1 3 3 3 5 2 8 5 3 2 1 10 1 2 4 1 2 5 6 3 7 3 5 5 7 2 5 2 2 1 1 5 0 4 4 3 8 4 1 7 5 7 2 4 4 5 4 5 8 4 4 6 1 4 4 7 4 3 3 4 3 6 6 2 6 6 6 4 3 5 3 1 2 5 5 1 3 2 1 3 4 2 2 5 2 2 5 4 1 5 1 7 3 3 3 3 1 3 4 3 4 3 4 2 6 1 3 6 3 3 3 3 5 2 8 3 5 3 8 6 1 6 1 5 2 1 2 5 4 2 1 3 4 2 1 2 1 4 3 3 3 2 3 2 5 2 4 5 6 0 5 3 2 2 6 8 0 6 0 1 4 5 2 5 1 3 3 4 1 1 2 4 5 3 4 1 4 5 6 5 1 4 3 3 6 10 4 2 6 6 5 1 1 3 5 6 3 2 2 4 3 4 5 5 3 1 4 2 2 6 8 5 4 3 6 1 2 5 2 4 1 3 2 6 8 3 3 3 3 4 4 2 5 6 6 4 2 1 5 3 3 4 3 4 4 4 4 8 3 6 4 3 5 5 4 1 7 4 4 3 3 3 2 3 3 2 2 5 4 3 2 5 1 1 3 3 8 5 1 3 4 2 3 3 3 4 3 2 1 3 2 4 2 5 3 4 4 2 1 2 6 1 4 2 4 2 4 5 1 2 4 4 3 3 3 5 3 3 4 4 5 4 4 5 3 3 2 2 3 5 2 4 1 3 0 8 3 2 6 4 4 5 7 3 2 3 3 1 2 5 1 4 2 4 2 1 6 1 5 2 2 3 3 3 2 4 2 3 2 3 1 5 1 0 3 4 1 1 3 1 4 2 3 7 3 1 2 2 3 2 2 6 2 3 5 3 3 3 3 2 2 3 0 2 2 2 3 3 1 2 1 5 1 4 3 4 4 3 3 2 1 2 4 4 2 7 1 3 4 2 2 4 5 3 2 6 0 1 2 3 1 1 2 3 3 7 3 1 1 6 3 1 4 1 7 1 4 2 3 6 2 2 2 1 3 3 1 1 4 4 2 3 3 1 2 0 6 2 4 3 0 3 2 5 5 4 3 3 4 2 3 1 3 1 3 3 0 2 3 2 3 3 1 3 3 3 9 6 2 2 2 4 2 1 3 5 2 3 0 3 2 3 3 3 4 5 5 7 0 5 1 6 4 5 5 3 8 2 4 9 3 0 6 3 3 3 4 3 3 2 2 2 4 2 2 2 4 2 4 5 3 5 3 6 2 2 5 5 3 4 4 4 3 6 3 5 6 2 6 3 3 3 1 3 7 5 3 2 3 3 3 3 4 2 2 3 1 3 1 3 7 1 2 2 3 3 3 6 3 5 2 6 2 3 2 5 2 4 5 6 1 1 7 2 4 2 3 4 6 2 3 2 3 6 3 3 3 5 3 4 9 4 4 3 5 2 5 4 3 2 3 0 2 2 4 4 4 2 3 3 4 4 2 3 7 1 3 2 4 4 4 3 4 3 6 2 4 1 5 2 3 5 2 3 0 2 6 0 8 2 5 5 1 4 3 2 0 4 2 3 5 3 6 2 2 2 1 3 4 6 1 3 3 0 3 2 4 5 3 2 3 5 2 3 2 6 3 4 1 5 3 0 3 5 1 1 8 2 1 4 1 4 3 2 3 6 3 4 6 1 6 3 5 2 5 4 2 3 2 7 1 4 0 3 3 4 4 3 3 3 1 2 3 0 3 0 3 5 6 2 2 6 2 3 3 3 1 2 2 5 2 4 2 5 3 2 3 1 2 3 3 4 2 3 5 2 1 2 2 2 5 2 5 1 5 4 2 4 1 4 1 2 3 5 2 3 4 4 5 3 3 3 4 3 2 0 3 2 0 2 1 2 2 4 2 5 2 2 3 4 2 2 4 3 2 3 7 3 2 7 6 3 2 4 1 2 5 3 4 4 2 4 0 1 2 4 3 2 4 3 2 5 3 4 7 4 2 0 5 1 0 2 3 0 4 4 6 1 3 4 6 5 0 2 2 4 2 4 1 3 2 8 3 1 2 3 6 2 7 3 4 6 0 1 3 1 4 3 1 0 2 3 4 5 4 1 0 3 4 5 1 2 1 3 5 2 2 5 4 3 3 5 4 0 6 2 6 1 1 2 3 1 3 3 2 3 3 3 2 3 1 5 2 4 2 4 2 1 3 5 4 4 0 
BTB PER SET COUNT: 2 5 4 1485 2 1 879 2 4 0 3 3 3880 8 2 4 3 23 1438 5330 3 484 2 7 15 6978 1 3 1469 2 3550 2461 5 2 5842 696 2936 3195 1791 3 9 6333 3 2211 10066 2 4 5 1592 6 2115 3514 3 2 6 5 5 3 3 844 7 4 980 489 1 373 490 2 3 1006 951 2495 1 9264 2 980 1471 762 2 3 2 3 2 4 3 4 2 13 3 3 3006 2450 3 3914 2 0 914 4 1 4 521 1690 3895 3 2 2 1 2905 5 2 2 1 122 2621 2665 2445 843 1224 4 1 4 6 2 0 1 2 12 1 2859 5 3294 2 4145 1 981 3 1878 1 5 3 4833 6 3 3 0 6 2 6643 4 11 3 7189 3 10284 217 0 3 3 1000 9925 5230 1762 4 1472 4 1959 2 2 14790 236 1 2 876 32 1 4739 3 4 998 8 473 94 7596 354 4197 2143 1445 1 7315 4 26 3 4 339 1478 3068 16 3 228 988 4339 939 2102 1 5 104 2 1472 3099 1 810 5 17 3 3 1792 2 496 7898 0 1 827 2 3 4948 2 71 67 0 6 14050 3 2 107 989 3 3 64 1 2 10037 0 2447 3 9296 6064 732 1 3 2 6804 1 1 1322 2 4001 5 4 4 6 1325 646 1713 2 1590 2102 4 13718 172 2 3 2 2 3 1940 6845 1 1 4 21 79679 2 1963 15004 1520 9908 5 4 1 1 0 1761 1 71 1 3932 979 2764 2 2 3 3 1 2 4 262 11 2 1962 999 2530 7104 3 3 1870 3 2449 1256 2 4 572 2223 3 1702 2 3 5 547 2 4 3491 0 2 18 1912 1 991 652 2472 0 3 0 1 981 985 1469 1 3 3926 725 3 580 4379 13624 1011 3011 2 0 4 1 4 4195 1551 4 2683 1284 958 47 382 1 2952 2 2 7 5 2951 374 2940 982 5 28 364 3 79520 70 2 1133 2 5 1 2787 323 5110 478 3 1 8062 0 1 3 4 2 3 2 2 3120 1470 2 1 978 2 1116 8 4 979 1469 2714 1093 1 91 1 1 3 40 1533 3 8 0 2 5 2521 2912 9028 4 3943 5628 3 3 6013 2 2 498 3908 382 10 2478 3005 2387 1986 1936 982 3 1 3 1959 1 1 3 7378 2 3 5 4 1974 2 1596 2902 2 3 6103 0 279 32 490 2 1 13 995 1 1 2769 2 3 4879 3 3687 22 1 25 1 5 2 2148 997 0 24 5 2436 2 1 3559 13 1 1 1 2 2 746 2 3 5 2 2 522 2 2358 1469 5381 6 497 3 1476 914 14 1129 4280 0 1958 4975 3 4 5342 32 1237 1472 495 2 7 5 1 2 1472 184 733 1612 15 96 3 1003 13663 4752 2115 9014 2931 3 3 6 1 1470 385 16493 2 1965 2 2 1 5 1950 2 3928 167 3 3 6388 2 2 863 3 1 25 1677 50 1 0 2 0 0 6511 6492 2 1975 2937 1 1 979 738 8 2 1737 1 991 714 2982 8529 1 4 3 1470 2 2 2738 2 2 2 958 2 3450 0 2501 100 9 492 3426 4132 7 3 2 14 2 252 4202 5575 3 12 3214 2 2 2578 2 2 3455 1 4 11 0 0 4 11 10 4 3 2 957 481 4 0 6 478 820 3 20061 995 38 4 1959 4 5088 980 1 4 6692 3 6459 5 1471 3252 498 3 3 3 5222 1825 6 980 6076 3 3086 1469 4 1471 25 3138 2 2 4098 4 5856 9 4671 37 0 4627 0 724 3 979 4 1 1059 1 3 4 5 2 979 1 2468 982 0 3 2 0 1 1 1 1 1 1920 850 1962 5619 4176 979 2 2 481 4 45 2 732 1571 3 4494 6486 2 1 492 2 2 1959 0 2 1 5 2 73 2 7868 2485 1 3 2109 1474 35 551 4 8750 2 3 1158 3 448 0 94 3 3 2937 3 8 4633 4 4 0 1482 4543 4931 13 1978 0 2 2 1562 1 1 4 1517 3442 1287 2 2 8327 2220 372 1244 2653 3 4 20 1 925 1 1425 6 0 23 5 3 2 0 4 5 4596 2653 2 1842 1466 2 2 4 3271 49650 1 1910 2 3650 2 2 1 2497 5583 2 1 3 9315 1 10 1976 2107 11 2 20321 3670 1962 18 2981 8 7 2 60 4 7 6339 2 1 6393 980 2 4 1571 1011 1 1129 1483 4043 4 0 2 1471 24 7 4 6367 4 8632 1215 3 2 216 2287 4 5 2 4 3 3 1 4039 3 1 1001 1668 2 1 1663 28067 2451 3 4110 3 5 2972 4 0 3 1 5708 0 1 1472 2495 51 4 1470 47 9 1469 938 3 3901 3175 4 493 6086 3911 9162 2585 2218 10 1 24 4 632 0 982 5 6360 2686 1471 89 2 821 0 7780 238 4837 3 8391 1986 10 3 980 492 493 4897 2 4876 2543 4372 9447 1478 2536 4 0 1200 8945 1 7334 3603 1 74 6838 1002 492 4 2 4 2 4 3 5969 2316 10263 2 4057 486 3 4 4653 3 1459 1 2 6 3922 2 4974 5 3 3 1597 3464 2839 5753 1351 1726 3 924 5 2 4 2689 2263 5581 1488 2 179 4 2 2 3 6 5366 1965 4 945 72 4 2 3 2 4 2 978 2001 3 4 889 1960 7905 6443 0 3 3 3 1471 373 762 2 2 3 675 2 1 1 4 1 3 3 3 8 1590 4405 2958 12501 2 1 14196 1 2 8 979 1847 4236 1096 952 5384 2137 24 6 2452 2 28 2 2 1 1 4920 0 4603 4 3 12220 1473 1 3513 2901 6108 340 493 4 939 4 2447 2821 13 3919 3520 483 7 4 10769 4 3 981 4 3 9352 2448 2939 4409 20512 3788 4 3 528 4 1 2 6 14077 2969 3 2 1 3 5 595 2 504 724 2005 17 4 4903 1968 54 5630 3 760 833 3 1 25 1466 3 983 3 4 2 32 1 3 1713 4055 3 7347 3 9172 2 6063 3 2297 4 3170 9848 1 5382 3694 2382 3413 1279 3 496 1354 2 1227 1308 3152 2 1 2 489 2923 3100 3 980 2415 14 2312 1471 1899 2983 7 3990 0 3083 3 2 2 52 16672 0 303 0 1 4 4137 5 23 1 967 990 16 1 1 2 3385 2526 3 1412 488 1453 5 14863 11533 1 3926 780 3 3012 10847 1972 4672 8669 4771 3297 1 2 484 1960 2449 2911 2 2 2104 3 4 9 749 3 7 1485 22429 2 3442 19427 6152 4 3 601 1 2 51 2 4 1 3 735 5851 8255 980 4 3 3 983 16 2 4600 1970 3959 987 736 1 4049 3822 3 3383 4884 12 12087 1904 1093 7559 1959 1960 2941 491 3573 2451 7 1703 31980 4 3699 3 3 3 3 3 4 2 2 17 569 3 116 1486 1 1 4320 986 4430 7034 1 361 4 2 3 3 1599 5 3 4 2 3 6813 5274 2 4381 6922 780 4 2 4890 457 7161 1 8892 2 5 2 5 1625 1 2 4 4 980 3 1755 2451 3 1434 1999 4 7865 5 4 8 4 4 6981 2 3166 4411 2 4 1 2251 0 15865 2184 2 2938 851 4 2487 9332 1518 2 3 1013 1 2 2365 2 2911 1438 1473 4 1 19261 1 96 3 2 2879 204 4 2 4942 2348 3 1352 3 1 519 1 0 3 241 1 3 1349 1 15444 2 3 6126 637 1 2 2 4591 2 2 2936 2 3 964 5 3 2138 971 2 3990 1654 0 5 1624 2 1240 3 1 2 1 6 1 3467 4 3026 899 3 3897 979 497 9 4 5699 2 15224 1 9 777 2 493 5 214 4445 2 21531 0 1 2 548 4542 1 2 18459 3 2051 377 1 1 1419 3 509 4 1 7074 1 4404 2 284 1948 16 5391 123 1 200 3 1 3 14 1471 2 4 3 1 2 0 6351 3 7 4 0 5142 2299 2609 10 6327 3 3 1957 2 41 1 1460 1 3 3 0 2 3 2 3 9272 1 743 982 3 3785 2941 6955 2 1470 984 2 1 3 1724 2 1011 0 2670 2 3 7 2005 1858 2447 16 5875 0 630 1 2908 4 915 8168 3 7797 2 767 8429 479 0 5879 6135 3 3 4410 1974 239 2 2 2 982 2948 1440 3 964 2 236 3339 4 1956 531 8689 2933 2 1230 37671 3 9 5878 4 1954 6394 4 2877 1959 2477 2454 3213 287 371 1 1927 2984 13 4295 4 9765 2876 3 5 18 2 4 4 1 4501 1 3 2601 1 2 2 1510 2437 341 3149 37 977 4277 6784 2 1941 2 5745 2 3393 3431 3011 1 1 8033 2 1092 2 4 984 1966 491 3 3136 3004 2939 4 494 3 6199 1181 4 9775 235 4 14672 2939 2936 1958 1471 3 2 1319 0 2 2 159 3633 1473 2 1380 3 4 1249 9021 164 3917 1 1470 3 1471 3055 4 3 4 4425 3345 67 2750 1 2448 2 4 3035 2 3 0 491 4440 0 5386 600 1228 2449 750 5 3 2 0 2938 2 3 8982 3 8800 2 2 2 19 3 5303 7339 1 53 7900 0 5 230 13082 3383 980 3 4 1960 2 3 2 7255 4 4 491 10362 1032 0 3 496 1467 1 6491 2 1 8365 511 5 4 2 2092 3381 3 421 7904 1 5038 6409 4895 224 1960 1338 2 3 2 10790 4567 6670 0 3 1470 479 4 3 3133 1936 3 2 493 0 4285 0 3 3054 3489 2 2 5564 1204 1857 3 981 1 15731 3 7 713 4 1558 109 3 6360 3 196 2 1699 3 5 2869 3 5 2 1 2 115 2 1481 2 8 2757 12360 493 2 2459 5 4 1 1989 3657 698 2303 493 1023 1432 8116 5 3 3 4 3 2 0 3 3 0 2 1 4551 469 4 4 2447 2 2 3 4 2 2 998 3 7 1438 3226 7 190 3676 5434 837 6 6 3 2 604 3 4 496 2 2310 0 2334 2 2489 980 2 4 3 25571 6 3 982 3512 4 2 0 7 2269 0 1807 1707 0 4 1471 1004 1 3 5 2429 15 0 3453 2 6 2 486 1416 1064 944 6701 2069 616 2 2088 2456 8 31056 2934 4 15333 0 1 19 1 4 13325 314 0 697 2928 5 1501 4 1 0 607 5596 1472 1 2 1 3 6565 2 2 7581 4 4422 16 3425 1924 0 2459 2 6282 1 16715 1146 4 1 10 484 2 3 4 1535 962 3 2449 24 9 613 2 25987 12 1 3 1953 30 4 0 
