
*** ChampSim Multicore Out-of-Order Simulator ***

Warmup Instructions: 50000000
Simulation Instructions: 50000000
Number of CPUs: 1
LLC sets: 2048
LLC ways: 16
Off-chip DRAM Size: 4096 MB Channels: 1 Width: 64-bit Data Rate: 6400 MT/s
CPU 0 runs ./micro_traces/srv245.trace.gz
.gz
ITLB has LRU replacement policy
DTLB has LRU replacement policy
STLB has LRU replacement policy
CPU 0 L1I next line prefetcher
./conditional/srv245.cond
L1I has LRU replacement policy
L1D has LRU replacement policy
Initialize SRRIP state for L2C
Initialize DRRIP state for LLC
Heartbeat_Variant_0 : 1338 0.16333 per_variant_size: 0 1338 0 0 0 0 0 0 0 
Heartbeat_Variant_1 : 1396 0.17041 per_variant_size: 0 945 451 0 0 0 0 0 0 
Heartbeat_Variant_2 : 1675 0.204468 per_variant_size: 0 960 457 228 30 0 0 0 0 
Heartbeat_Variant_3 : 0 0 per_variant_size: 0 0 0 0 0 0 0 0 0 
Heartbeat_Variant_0_evicts 0 : 5318 1 : 0 2 : 0 3 : 0 
Heartbeat_Variant_1_evicts 0 : 2 1 : 0 2 : 201 3 : 0 
Heartbeat_Variant_2_evicts 0 : 1 1 : 201 2 : 0 3 : 0 
Heartbeat_Variant_3_evicts 0 : 0 1 : 0 2 : 0 3 : 0 
Heartbeat CPU 0 instructions: 10000001 cycles: 2791807 heartbeat IPC: 3.58191 cumulative IPC: 3.58191 (Simulation time: 0 hr 1 min 36 sec) 
Heartbeat_Variant_0 : 1387 0.169312 per_variant_size: 0 1387 0 0 0 0 0 0 0 
Heartbeat_Variant_1 : 1443 0.176147 per_variant_size: 0 965 478 0 0 0 0 0 0 
Heartbeat_Variant_2 : 1719 0.209839 per_variant_size: 0 961 474 248 36 0 0 0 0 
Heartbeat_Variant_3 : 0 0 per_variant_size: 0 0 0 0 0 0 0 0 0 
Heartbeat_Variant_0_evicts 0 : 5348 1 : 0 2 : 1 3 : 0 
Heartbeat_Variant_1_evicts 0 : 0 1 : 0 2 : 195 3 : 0 
Heartbeat_Variant_2_evicts 0 : 0 1 : 196 2 : 0 3 : 0 
Heartbeat_Variant_3_evicts 0 : 0 1 : 0 2 : 0 3 : 0 
Heartbeat CPU 0 instructions: 20000000 cycles: 5583944 heartbeat IPC: 3.58149 cumulative IPC: 3.5817 (Simulation time: 0 hr 3 min 10 sec) 
Heartbeat_Variant_0 : 1389 0.169556 per_variant_size: 0 1389 0 0 0 0 0 0 0 
Heartbeat_Variant_1 : 1448 0.176758 per_variant_size: 0 966 482 0 0 0 0 0 0 
Heartbeat_Variant_2 : 1724 0.210449 per_variant_size: 0 963 475 239 47 0 0 0 0 
Heartbeat_Variant_3 : 0 0 per_variant_size: 0 0 0 0 0 0 0 0 0 
Heartbeat_Variant_0_evicts 0 : 5355 1 : 1 2 : 0 3 : 0 
Heartbeat_Variant_1_evicts 0 : 0 1 : 0 2 : 206 3 : 0 
Heartbeat_Variant_2_evicts 0 : 0 1 : 205 2 : 0 3 : 0 
Heartbeat_Variant_3_evicts 0 : 0 1 : 0 2 : 0 3 : 0 
Heartbeat CPU 0 instructions: 30000002 cycles: 8375826 heartbeat IPC: 3.58181 cumulative IPC: 3.58174 (Simulation time: 0 hr 4 min 57 sec) 
Heartbeat_Variant_0 : 1400 0.170898 per_variant_size: 0 1400 0 0 0 0 0 0 0 
Heartbeat_Variant_1 : 1459 0.178101 per_variant_size: 0 967 492 0 0 0 0 0 0 
Heartbeat_Variant_2 : 1743 0.212769 per_variant_size: 0 969 480 258 36 0 0 0 0 
Heartbeat_Variant_3 : 0 0 per_variant_size: 0 0 0 0 0 0 0 0 0 
Heartbeat_Variant_0_evicts 0 : 5295 1 : 0 2 : 1 3 : 0 
Heartbeat_Variant_1_evicts 0 : 0 1 : 0 2 : 213 3 : 0 
Heartbeat_Variant_2_evicts 0 : 0 1 : 214 2 : 0 3 : 0 
Heartbeat_Variant_3_evicts 0 : 0 1 : 0 2 : 0 3 : 0 
Heartbeat CPU 0 instructions: 40000003 cycles: 11166392 heartbeat IPC: 3.5835 cumulative IPC: 3.58218 (Simulation time: 0 hr 6 min 38 sec) 
Heartbeat_Variant_0 : 1402 0.171143 per_variant_size: 0 1402 0 0 0 0 0 0 0 
Heartbeat_Variant_1 : 1475 0.180054 per_variant_size: 0 973 502 0 0 0 0 0 0 
Heartbeat_Variant_2 : 1745 0.213013 per_variant_size: 0 969 478 266 32 0 0 0 0 
Heartbeat_Variant_3 : 0 0 per_variant_size: 0 0 0 0 0 0 0 0 0 
Heartbeat_Variant_0_evicts 0 : 5316 1 : 0 2 : 0 3 : 0 
Heartbeat_Variant_1_evicts 0 : 0 1 : 0 2 : 217 3 : 0 
Heartbeat_Variant_2_evicts 0 : 0 1 : 216 2 : 0 3 : 0 
Heartbeat_Variant_3_evicts 0 : 0 1 : 0 2 : 0 3 : 0 
Heartbeat CPU 0 instructions: 50000001 cycles: 13957763 heartbeat IPC: 3.58247 cumulative IPC: 3.58224 (Simulation time: 0 hr 8 min 19 sec) 

Warmup complete CPU 0 instructions: 50000001 cycles: 13957763 (Simulation time: 0 hr 8 min 19 sec) 

Cycle: 20000000 FTQ IN: 58162158 FTQ occupancy: 19.8516 DECODE IN: 58162076 DECODE occupancy: 51.9093 ROB IN: 58162016 ROB occupancy: 314.825 ROB OUT: 58161664
Heartbeat_Variant_0 : 1442 0.176025 per_variant_size: 0 1442 0 0 0 0 0 0 0 
Heartbeat_Variant_1 : 1515 0.184937 per_variant_size: 0 1000 515 0 0 0 0 0 0 
Heartbeat_Variant_2 : 1771 0.216187 per_variant_size: 0 974 486 258 53 0 0 0 0 
Heartbeat_Variant_3 : 0 0 per_variant_size: 0 0 0 0 0 0 0 0 0 
Heartbeat_Variant_0_evicts 0 : 5422 1 : 0 2 : 1 3 : 0 
Heartbeat_Variant_1_evicts 0 : 1 1 : 0 2 : 202 3 : 0 
Heartbeat_Variant_2_evicts 0 : 2 1 : 204 2 : 0 3 : 0 
Heartbeat_Variant_3_evicts 0 : 0 1 : 0 2 : 0 3 : 0 
Heartbeat CPU 0 instructions: 60000000 cycles: 21347206 heartbeat IPC: 1.35328 cumulative IPC: 1.35328 (Simulation time: 0 hr 10 min 10 sec) 
Heartbeat_Variant_0 : 1443 0.176147 per_variant_size: 0 1443 0 0 0 0 0 0 0 
Heartbeat_Variant_1 : 1516 0.185059 per_variant_size: 0 998 518 0 0 0 0 0 0 
Heartbeat_Variant_2 : 1771 0.216187 per_variant_size: 0 971 489 259 52 0 0 0 0 
Heartbeat_Variant_3 : 0 0 per_variant_size: 0 0 0 0 0 0 0 0 0 
Heartbeat_Variant_0_evicts 0 : 5364 1 : 1 2 : 0 3 : 0 
Heartbeat_Variant_1_evicts 0 : 0 1 : 0 2 : 207 3 : 0 
Heartbeat_Variant_2_evicts 0 : 0 1 : 207 2 : 0 3 : 0 
Heartbeat_Variant_3_evicts 0 : 0 1 : 0 2 : 0 3 : 0 
Heartbeat CPU 0 instructions: 70000000 cycles: 28564820 heartbeat IPC: 1.3855 cumulative IPC: 1.3692 (Simulation time: 0 hr 12 min 2 sec) 
Cycle: 30000000 FTQ IN: 13694014 FTQ occupancy: 12.6112 DECODE IN: 13694096 DECODE occupancy: 33.3599 ROB IN: 13694146 ROB occupancy: 239.231 ROB OUT: 13694498
Heartbeat_Variant_0 : 1443 0.176147 per_variant_size: 0 1443 0 0 0 0 0 0 0 
Heartbeat_Variant_1 : 1518 0.185303 per_variant_size: 0 998 520 0 0 0 0 0 0 
Heartbeat_Variant_2 : 1772 0.216309 per_variant_size: 0 972 489 262 49 0 0 0 0 
Heartbeat_Variant_3 : 0 0 per_variant_size: 0 0 0 0 0 0 0 0 0 
Heartbeat_Variant_0_evicts 0 : 5291 1 : 0 2 : 0 3 : 0 
Heartbeat_Variant_1_evicts 0 : 0 1 : 0 2 : 214 3 : 0 
Heartbeat_Variant_2_evicts 0 : 0 1 : 213 2 : 0 3 : 0 
Heartbeat_Variant_3_evicts 0 : 0 1 : 0 2 : 0 3 : 0 
Heartbeat CPU 0 instructions: 80000002 cycles: 35887434 heartbeat IPC: 1.36563 cumulative IPC: 1.36801 (Simulation time: 0 hr 13 min 54 sec) 
Cycle: 40000000 FTQ IN: 13821853 FTQ occupancy: 12.5446 DECODE IN: 13821761 DECODE occupancy: 33.4035 ROB IN: 13821711 ROB occupancy: 240.128 ROB OUT: 13821359
Heartbeat_Variant_0 : 1447 0.176636 per_variant_size: 0 1447 0 0 0 0 0 0 0 
Heartbeat_Variant_1 : 1521 0.185669 per_variant_size: 0 997 524 0 0 0 0 0 0 
Heartbeat_Variant_2 : 1774 0.216553 per_variant_size: 0 971 491 256 56 0 0 0 0 
Heartbeat_Variant_3 : 0 0 per_variant_size: 0 0 0 0 0 0 0 0 0 
Heartbeat_Variant_0_evicts 0 : 5410 1 : 0 2 : 0 3 : 0 
Heartbeat_Variant_1_evicts 0 : 0 1 : 0 2 : 198 3 : 0 
Heartbeat_Variant_2_evicts 0 : 0 1 : 199 2 : 0 3 : 0 
Heartbeat_Variant_3_evicts 0 : 0 1 : 0 2 : 0 3 : 0 
Heartbeat CPU 0 instructions: 90000000 cycles: 43179309 heartbeat IPC: 1.37139 cumulative IPC: 1.36885 (Simulation time: 0 hr 15 min 48 sec) 
Cycle: 50000000 FTQ IN: 13829160 FTQ occupancy: 12.7535 DECODE IN: 13829232 DECODE occupancy: 33.8989 ROB IN: 13829280 ROB occupancy: 242.311 ROB OUT: 13829314
Heartbeat_Variant_0 : 1458 0.177979 per_variant_size: 0 1458 0 0 0 0 0 0 0 
Heartbeat_Variant_1 : 1531 0.18689 per_variant_size: 0 1003 528 0 0 0 0 0 0 
Heartbeat_Variant_2 : 1781 0.217407 per_variant_size: 0 975 489 273 44 0 0 0 0 
Heartbeat_Variant_3 : 0 0 per_variant_size: 0 0 0 0 0 0 0 0 0 
Heartbeat_Variant_0_evicts 0 : 5361 1 : 0 2 : 0 3 : 0 
Heartbeat_Variant_1_evicts 0 : 0 1 : 0 2 : 199 3 : 0 
Heartbeat_Variant_2_evicts 0 : 0 1 : 199 2 : 0 3 : 0 
Heartbeat_Variant_3_evicts 0 : 0 1 : 0 2 : 0 3 : 0 
Heartbeat CPU 0 instructions: 100000002 cycles: 50340368 heartbeat IPC: 1.39644 cumulative IPC: 1.37428 (Simulation time: 0 hr 17 min 33 sec) 
Finished CPU 0 instructions: 50000001 cycles: 36382605 cumulative IPC: 1.37428 (Simulation time: 0 hr 17 min 33 sec) 

ChampSim completed all CPUs

Region of Interest Statistics

CPU 0 cumulative IPC: 1.37428 instructions: 50000001 cycles: 36382605
 Fetch stage stalled: 53.1034  Sim cycles: 36382605 fetch stall cycle: 19320395
 Empty decode stage: 34.2791  Sim cycles: 36382605 fetch stall cycle: 12471646
ITLB TOTAL     ACCESS:    6781621  HIT:    6323395  MISS:     458226  HIT %:    93.2431  MISS %:    6.75688   MPKI: 9.16452
ITLB LOAD TRANSLATION INSTRUCTION	ACCESS:    5646638  HIT:    5208171  MISS:     438467  HIT %:    92.2349  MISS %:     7.7651  MPKI: 8.76934
ITLB TRANSLATION FROM L1D PREFETCHER INSTRUCTION	ACCESS:    1134983  HIT:    1115224  MISS:      19759  HIT %:    98.2591  MISS %:    1.74091  MPKI: 0.39518

ITLB AVERAGE MISS LATENCY: 65047.3 cycles
ITLB RQ	ACCESS:    9824061	FORWARD:          0	MERGED:    2594228	TO_CACHE:    7229833

DTLB TOTAL     ACCESS:    8844997  HIT:    8370729  MISS:     474268  HIT %:     94.638  MISS %:    5.36199   MPKI: 9.48536
DTLB LOAD TRANSLATION DATA	ACCESS:    8844997  HIT:    8370729  MISS:     474268  HIT %:     94.638  MISS %:    5.36199  MPKI: 9.48536

DTLB AVERAGE MISS LATENCY: 9.45162 cycles
DTLB RQ	ACCESS:   13116812	FORWARD:          0	MERGED:    4232699	TO_CACHE:    8884113

STLB TOTAL     ACCESS:    1233055  HIT:    1229808  MISS:       3247  HIT %:    99.7367  MISS %:    0.26333   MPKI: 0.06494
STLB LOAD TRANSLATION INSTRUCTION	ACCESS:     437540  HIT:     436986  MISS:        554  HIT %:    99.8734  MISS %:   0.126617  MPKI: 0.01108
STLB TRANSLATION FROM L1D PREFETCHER INSTRUCTION	ACCESS:      20686  HIT:      20619  MISS:         67  HIT %:    99.6761  MISS %:   0.323891  MPKI: 0.00134
STLB LOAD TRANSLATION DATA	ACCESS:     474268  HIT:     471671  MISS:       2597  HIT %:    99.4524  MISS %:   0.547581  MPKI: 0.05194
STLB TRANSLATION FROM L1D PREFETCHER DATA	ACCESS:     300561  HIT:     300532  MISS:         29  HIT %:    99.9904  MISS %: 0.00964862  MPKI: 0.00058

STLB AVERAGE MISS LATENCY: 68.7484 cycles
STLB RQ	ACCESS:    1450717	FORWARD:          0	MERGED:     177378	TO_CACHE:    1273339

STLB Hit, L1D data hit: 0
STLB Hit, L2C data hit: 0
STLB Hit, LLC data hit: 0
STLB Hit, LLC data miss: 0
STLB STLB hints to L2: 0
L1D TOTAL     ACCESS:   12952560  HIT:   11850594  MISS:    1101966  HIT %:    91.4923  MISS %:    8.50771   MPKI: 22.0393
L1D LOAD DATA	ACCESS:    6486941  HIT:    5771896  MISS:     715045  HIT %:    88.9772  MISS %:    11.0228  MPKI: 14.3009
L1D RFO DATA	ACCESS:    6069983  HIT:    5793610  MISS:     276373  HIT %:    95.4469  MISS %:    4.55311  MPKI: 5.52746
L1D PREFETCH DATA	ACCESS:     395636  HIT:     285088  MISS:     110548  HIT %:    72.0582  MISS %:    27.9418  MPKI: 2.21096

L1D PREFETCH  REQUESTED:     956427  ISSUED:     956427  USEFUL:      58316  USELESS:      73545
L1D USEFUL LOAD PREFETCHES:      58316 PREFETCH ISSUED TO LOWER LEVEL:     131916  ACCURACY: 44.2069
 TIMELY PREFETCHES:      58316 LATE PREFETCHES: 21313 DROPPED PREFETCHES: 46
L1D AVERAGE MISS LATENCY: 615602 cycles
L1D RQ	ACCESS:   10620156	FORWARD:          0	MERGED:    3940155	TO_CACHE:    6528976
L1D WQ	ACCESS:    6770009	FORWARD:     151384	MERGED:     182173	TO_CACHE:    6587836
L1D PQ	ACCESS:     478393	FORWARD:          0	MERGED:          0	TO_CACHE:     478034

L1D UNIQUE REGIONS ACCESSED: 0
L1D REGIONS CONFLICTS: 0
L1D Cross Page Prefetch Requests: 10411
L1D Same Page Prefetch Requests: 960665
L1D ROI Sum of L1D PQ occupancy: 6080877
L1D PREFETCHES PUSHED FROM L2C: 0
L1I TOTAL     ACCESS:    8520171  HIT:    5494172  MISS:    3025999  HIT %:    64.4843  MISS %:    35.5157   MPKI: 60.52
L1I LOAD INSTRUCTION	ACCESS:    6432383  HIT:    4511095  MISS:    1921288  HIT %:     70.131  MISS %:     29.869  MPKI: 38.4258
L1I PREFETCH INSTRUCTION	ACCESS:    2087788  HIT:     983077  MISS:    1104711  HIT %:     47.087  MISS %:     52.913  MPKI: 22.0942

L1I PREFETCH  REQUESTED:    3698218  ISSUED:    3693279  USEFUL:     865048  USELESS:     456055
L1I USEFUL LOAD PREFETCHES:     865048 PREFETCH ISSUED TO LOWER LEVEL:    1321098  ACCURACY: 65.4795
 TIMELY PREFETCHES:     865048 LATE PREFETCHES: 216388 DROPPED PREFETCHES: 95807
L1I AVERAGE MISS LATENCY: 2.30075e+06 cycles
L1I RQ	ACCESS:    9484758	FORWARD:          0	MERGED:    2855222	TO_CACHE:    6629536
L1I PQ	ACCESS:    3693279	FORWARD:          0	MERGED:     498754	TO_CACHE:    3194525

L1BTB TOTAL     ACCESS:    5844385  HIT:    2450527  MISS:    3393858  HIT %:    41.9296  MISS %:    58.0704   MPKI: 67.8772
L1BTB BRANCH_DIRECT_JUMP	ACCESS:     589583  HIT:     197487  MISS:     392096	AVERAGE STALL: 42.9097
L1BTB BRANCH_INDIRECT	ACCESS:     172404  HIT:      56758  MISS:     115646	AVERAGE STALL: 103.021
L1BTB BRANCH_CONDITIONAL	ACCESS:    2990718  HIT:    1780629  MISS:    1210089	AVERAGE STALL: 71.5898
L1BTB BRANCH_DIRECT_CALL	ACCESS:     886105  HIT:     107604  MISS:     778501	AVERAGE STALL: 69.3747
L1BTB BRANCH_INDIRECT_CALL	ACCESS:     159736  HIT:      20352  MISS:     139384	AVERAGE STALL: 122.245
L1BTB BRANCH_RETURN	ACCESS:    1045839  HIT:     287697  MISS:     758142	AVERAGE STALL: 51.4383
L1BTB BRANCH_OTHER ACCESS:          0  HIT:          0  MISS:          0	AVERAGE STALL: -nan
L1BTB TOTAL ROB OCCUPANCY AT BTB MISS: 3.33198

L2BTB TOTAL     ACCESS:    3368579  HIT:    3304257  MISS:      64322  HIT %:    98.0905  MISS %:    1.90947   MPKI: 1.28644
L2BTB BRANCH_DIRECT_JUMP	ACCESS:     387033  HIT:     383367  MISS:       3666	AVERAGE STALL: 42.9097
L2BTB BRANCH_INDIRECT	ACCESS:     105831  HIT:     103356  MISS:       2475	AVERAGE STALL: 103.021
L2BTB BRANCH_CONDITIONAL	ACCESS:    1210089  HIT:    1197181  MISS:      12908	AVERAGE STALL: 71.5898
L2BTB BRANCH_DIRECT_CALL	ACCESS:     778501  HIT:     777756  MISS:        745	AVERAGE STALL: 69.3747
L2BTB BRANCH_INDIRECT_CALL	ACCESS:     130005  HIT:     120788  MISS:       9217	AVERAGE STALL: 122.245
L2BTB BRANCH_RETURN	ACCESS:     757120  HIT:     721809  MISS:      35311	AVERAGE STALL: 51.4383
L2BTB BRANCH_OTHER ACCESS:          0  HIT:          0  MISS:          0	AVERAGE STALL: -nan
L2BTB TOTAL ROB OCCUPANCY AT BTB MISS: 175.807

L2C TOTAL     ACCESS:    5316419  HIT:    4466245  MISS:     850174  HIT %:    84.0085  MISS %:    15.9915   MPKI: 17.0035
L2C LOAD INSTRUCTION	ACCESS:    1704900  HIT:    1471702  MISS:     233198  HIT %:    86.3219  MISS %:    13.6781  MPKI: 4.66396
L2C PREFETCH INSTRUCTION	ACCESS:    1321099  HIT:    1140639  MISS:     180460  HIT %:    86.3402  MISS %:    13.6598  MPKI: 3.6092
L2C LOAD TRANSLATION INSTRUCTION	ACCESS:        616  HIT:        226  MISS:        390  HIT %:    36.6883  MISS %:    63.3117  MPKI: 0.0078
L2C TRANSLATION FROM L1D PREFETCHER INSTRUCTION	ACCESS:      59566  HIT:      42973  MISS:      16593  HIT %:    72.1435  MISS %:    27.8565  MPKI: 0.33186
L2C LOAD DATA	ACCESS:     693629  HIT:     568435  MISS:     125194  HIT %:    81.9509  MISS %:    18.0491  MPKI: 2.50388
L2C RFO DATA	ACCESS:     276298  HIT:     202792  MISS:      73506  HIT %:    73.3961  MISS %:    26.6039  MPKI: 1.47012
L2C PREFETCH DATA	ACCESS:     773162  HIT:     579274  MISS:     193888  HIT %:    74.9227  MISS %:    25.0773  MPKI: 3.87776
L2C WRITEBACK DATA	ACCESS:     484231  HIT:     459387  MISS:      24844  HIT %:    94.8694  MISS %:    5.13061  MPKI: 0.49688
L2C LOAD TRANSLATION DATA	ACCESS:       2828  HIT:        773  MISS:       2055  HIT %:    27.3338  MISS %:    72.6662  MPKI: 0.0411
L2C TRANSLATION FROM L1D PREFETCHER DATA	ACCESS:         90  HIT:         44  MISS:         46  HIT %:    48.8889  MISS %:    51.1111  MPKI: 0.00092

L2C PREFETCH  REQUESTED:    1385082  ISSUED:    1385082  USEFUL:      32142  USELESS:     360899
L2C USEFUL LOAD PREFETCHES:      32142 PREFETCH ISSUED TO LOWER LEVEL:     375584  ACCURACY: 8.55787
 TIMELY PREFETCHES:      32142 LATE PREFETCHES: 1236 DROPPED PREFETCHES: 0
L2C AVERAGE MISS LATENCY: 37.7864 cycles
L2C RQ	ACCESS:    2738050	FORWARD:          0	MERGED:          0	TO_CACHE:    2737927
L2C WQ	ACCESS:     484231	FORWARD:        123	MERGED:          0	TO_CACHE:     484231
L2C PQ	ACCESS:    2838096	FORWARD:          0	MERGED:     724787	TO_CACHE:    2113309

L2C Dense regions hint from L2: 0
PSCL5 TOTAL     ACCESS:      86964  HIT:      43482  MISS:      43482  HIT %:         50  MISS %:         50   MPKI: 0.86964
PSCL5 LOAD TRANSLATION INSTRUCTION	ACCESS:       6284  HIT:       3142  MISS:       3142  HIT %:         50  MISS %:         50  MPKI: 0.06284
PSCL5 TRANSLATION FROM L1D PREFETCHER INSTRUCTION	ACCESS:      80680  HIT:      40340  MISS:      40340  HIT %:         50  MISS %:         50  MPKI: 0.8068


PSCL4 TOTAL     ACCESS:      83405  HIT:      41696  MISS:      41709  HIT %:    49.9922  MISS %:    50.0078   MPKI: 0.83418
PSCL4 LOAD TRANSLATION INSTRUCTION	ACCESS:       3221  HIT:       2955  MISS:        266  HIT %:    91.7417  MISS %:     8.2583  MPKI: 0.00532
PSCL4 TRANSLATION FROM L1D PREFETCHER INSTRUCTION	ACCESS:      45777  HIT:      38741  MISS:       7036  HIT %:    84.6298  MISS %:    15.3702  MPKI: 0.14072
PSCL4 LOAD TRANSLATION DATA	ACCESS:       2702  HIT:          0  MISS:       2702  HIT %:          0  MISS %:        100  MPKI: 0.05404
PSCL4 TRANSLATION FROM L1D PREFETCHER DATA	ACCESS:      31705  HIT:          0  MISS:      31705  HIT %:          0  MISS %:        100  MPKI: 0.6341


PSCL3 TOTAL     ACCESS:      83707  HIT:      41847  MISS:      41860  HIT %:    49.9922  MISS %:    50.0078   MPKI: 0.8372
PSCL3 LOAD TRANSLATION INSTRUCTION	ACCESS:       3372  HIT:       3106  MISS:        266  HIT %:    92.1115  MISS %:    7.88849  MPKI: 0.00532
PSCL3 TRANSLATION FROM L1D PREFETCHER INSTRUCTION	ACCESS:      45777  HIT:      38741  MISS:       7036  HIT %:    84.6298  MISS %:    15.3702  MPKI: 0.14072
PSCL3 LOAD TRANSLATION DATA	ACCESS:       2853  HIT:          0  MISS:       2853  HIT %:          0  MISS %:        100  MPKI: 0.05706
PSCL3 TRANSLATION FROM L1D PREFETCHER DATA	ACCESS:      31705  HIT:          0  MISS:      31705  HIT %:          0  MISS %:        100  MPKI: 0.6341


PSCL2 TOTAL     ACCESS:      51110  HIT:      25403  MISS:      25707  HIT %:    49.7026  MISS %:    50.2974   MPKI: 0.51414
PSCL2 LOAD TRANSLATION INSTRUCTION	ACCESS:       3441  HIT:       2859  MISS:        582  HIT %:    83.0863  MISS %:    16.9137  MPKI: 0.01164
PSCL2 TRANSLATION FROM L1D PREFETCHER INSTRUCTION	ACCESS:      41957  HIT:      22544  MISS:      19413  HIT %:    53.7312  MISS %:    46.2688  MPKI: 0.38826
PSCL2 LOAD TRANSLATION DATA	ACCESS:       2581  HIT:          0  MISS:       2581  HIT %:          0  MISS %:        100  MPKI: 0.05162
PSCL2 TRANSLATION FROM L1D PREFETCHER DATA	ACCESS:       3131  HIT:          0  MISS:       3131  HIT %:          0  MISS %:        100  MPKI: 0.06262


LLC TOTAL     ACCESS:     930094  HIT:     886014  MISS:      44080  HIT %:    95.2607  MISS %:    4.73931   MPKI: 0.8816
LLC LOAD INSTRUCTION	ACCESS:     232818  HIT:     231988  MISS:        830  HIT %:    99.6435  MISS %:   0.356502  MPKI: 0.0166
LLC PREFETCH INSTRUCTION	ACCESS:     178473  HIT:     176908  MISS:       1565  HIT %:    99.1231  MISS %:   0.876883  MPKI: 0.0313
LLC LOAD TRANSLATION INSTRUCTION	ACCESS:        390  HIT:        374  MISS:         16  HIT %:    95.8974  MISS %:    4.10256  MPKI: 0.00032
LLC TRANSLATION FROM L1D PREFETCHER INSTRUCTION	ACCESS:      16593  HIT:      16455  MISS:        138  HIT %:    99.1683  MISS %:   0.831676  MPKI: 0.00276
LLC LOAD DATA	ACCESS:     124360  HIT:     118699  MISS:       5661  HIT %:    95.4479  MISS %:    4.55211  MPKI: 0.11322
LLC RFO DATA	ACCESS:      73470  HIT:      54383  MISS:      19087  HIT %:    74.0207  MISS %:    25.9793  MPKI: 0.38174
LLC PREFETCH DATA	ACCESS:     197111  HIT:     180869  MISS:      16242  HIT %:      91.76  MISS %:    8.24003  MPKI: 0.32484
LLC WRITEBACK DATA	ACCESS:     104778  HIT:     104402  MISS:        376  HIT %:    99.6411  MISS %:   0.358854  MPKI: 0.00752
LLC LOAD TRANSLATION DATA	ACCESS:       2055  HIT:       1895  MISS:        160  HIT %:    92.2141  MISS %:    7.78589  MPKI: 0.0032
LLC TRANSLATION FROM L1D PREFETCHER DATA	ACCESS:         46  HIT:         41  MISS:          5  HIT %:    89.1304  MISS %:    10.8696  MPKI: 0.0001

LLC AVERAGE MISS LATENCY: 166.221 cycles
LLC RQ	ACCESS:     449746	FORWARD:          0	MERGED:          0	TO_CACHE:     449732
LLC WQ	ACCESS:     104778	FORWARD:         14	MERGED:          0	TO_CACHE:     104778
LLC PQ	ACCESS:     375584	FORWARD:          0	MERGED:          0	TO_CACHE:     375584

LLC Dense regions hint to LLC: 0

RAW hits: 1830157
Loads Generated: 12450313
Loads sent to L1D: 10620156
Stores Generated: 6769986
Stores sent to L1D: 6770009
Major fault: 0 Minor fault: 2529
Allocated PAGES: 2529
I-Shadow cache 408 bytes
Touched + WorthPF tables 12288 bytes 
MMA filter 42 bytes 
FNL filter 272 bytes 
TOTAL PREFETCHER STORAGE SIZE: 19922 bytes
CPU 0 L1I next line prefetcher final stats

stream: 
stream:times selected: 1487224
stream:pref_filled: 128382
stream:pref_useful: 29834
stream:pref_late: 12253
stream:misses: 13621
stream:misses_by_poll: 0

CS: 
CS:times selected: 236632
CS:pref_filled: 80820
CS:pref_useful: 56096
CS:pref_late: 16834
CS:misses: 34727
CS:misses_by_poll: 3

CPLX: 
CPLX:times selected: 1248478
CPLX:pref_filled: 29342
CPLX:pref_useful: 8868
CPLX:pref_late: 6179
CPLX:misses: 152163
CPLX:misses_by_poll: 0

NL_L1: 
NL:times selected: 28715
NL:pref_filled: 1847
NL:pref_useful: 818
NL:pref_late: 880
NL:misses: 3976
NL:misses_by_poll: 0

total selections: 3001049
total_filled: 110548
total_useful: 58316
total_late: 39244
total_polluted: 3
total_misses_after_warmup: 757085
conflicts: 5206542

test: 176958

DRAM Statistics
 CHANNEL 0
 RQ ROW_BUFFER_HIT:      13982  ROW_BUFFER_MISS:      29709
 DBUS_CONGESTED:         11
 WQ ROW_BUFFER_HIT:       2298  ROW_BUFFER_MISS:      19432  FULL:          0

 AVG_CONGESTED_CYCLE: 6

CPU 0 Branch Prediction Accuracy: 99.7504% MPKI: 0.4573 Average ROB Occupancy at Mispredict: 179.386
Branch types
NOT_BRANCH: 40838328 81.6767%
BRANCH_DIRECT_JUMP: 589583 1.17917%
BRANCH_INDIRECT: 172404 0.344808%
BRANCH_CONDITIONAL: 6307967 12.6159%
BRANCH_DIRECT_CALL: 886105 1.77221%
BRANCH_INDIRECT_CALL: 159736 0.319472%
BRANCH_RETURN: 1045839 2.09168%
BRANCH_OTHER: 0 0%

DRAM PAGES: 1048576
Allocated PAGES: 2529
Average_ROB_Occupancy: 241.158
Average_Decode_Occupancy: 33.4746
Average_FTQ_Occupancy: 12.6267
Indirect max targets: 14 Average targets: 1.14901
Branch_type:  BRANCH_DIRECT_JUMP:  Count Percentage: 9.64257 5.09617 4.66607 13.5032 5.22451 2.24538 1.96706 57.655 
Branch_type:  BRANCH_INDIRECT:  Count Percentage: 5.52769 1.162 14.3352 25.1968 1.37866 16.586 1.78003 34.0336 
Branch_type:  BRANCH_CONDITIONAL:  Count Percentage: 26.4338 2.77984 2.9764 8.35976 2.38979 2.26325 2.16892 52.6283 
Branch_type:  BRANCH_DIRECT_CALL:  Count Percentage: 0.341337 1.29045 1.83381 4.84842 3.03074 2.1258 3.43734 83.0921 
Branch_type:  BRANCH_INDIRECT_CALL:  Count Percentage: 8.72641 0.835574 2.97789 10.165 0.000626133 3.89204 2.77158 70.6309 
Branch_type:  BRANCH_RETURN:  Count Percentage: 3.92467 0.647502 3.47117 9.94929 4.04037 3.69417 2.74145 71.5314 
Branch_type:  BRANCH_DIRECT_JUMP:  Total Count: 113531 60002 54938 158986 61513 26437 23160 678826 
Branch_type:  BRANCH_INDIRECT:  Total Count: 19033 4001 49359 86758 4747 57109 6129 117185 
Branch_type:  BRANCH_CONDITIONAL:  Total Count: 3333099 350517 375301 1054103 301334 285379 273484 6636027 
Branch_type:  BRANCH_DIRECT_CALL:  Total Count: 6052 22880 32514 85964 53736 37691 60945 1473248 
Branch_type:  BRANCH_INDIRECT_CALL:  Total Count: 27874 2669 9512 32469 2 12432 8853 225610 
Branch_type:  BRANCH_RETURN:  Total Count: 82154 13554 72661 208266 84576 77329 57386 1497348 
Number of unique branch instructions: 10145
Upper 32 bits: 
aaaa
ffff
ffff0000
Unique upper 32 bits: 3
Unique upper 36 bits: 3
Unique upper 40 bits: 5
Unique upper 44 bits: 32
Unique upper 48 bits: 157
Variant_0 : 1458 0.177979
Variant_1 : 1531 0.18689
Variant_2 : 1781 0.217407
Variant_3 : 0 0
Offset_3 4186
Offset_4 265
Offset_5 474
Offset_6 514
Offset_7 604
Offset_8 522
Offset_9 482
Offset_10 380
Offset_11 324
Offset_12 282
Offset_13 216
Offset_14 231
Offset_15 193
Offset_16 226
Offset_17 155
Offset_18 118
Offset_19 242
Offset_20 142
Offset_21 265
Offset_22 396
Offset_23 241
Offset_24 353
Offset_25 88
Offset_47 86
Offset_64 3
decode_dispatch_called: 25330396 69.6223
Dispatch_width: 0 13555789 53.5159 37.259
Dispatch_width: 1 919424 3.62973 2.5271
Dispatch_width: 2 868019 3.42679 2.38581
Dispatch_width: 3 491448 1.94015 1.35078
Dispatch_width: 4 5466443 21.5806 15.0249
Dispatch_width: 5 171215 0.675927 0.470596
Dispatch_width: 6 3858058 15.2309 10.6041
Empty_decode_cycles: 11052209 30.3777
ROB_full_cycles: 8869367 24.378
Starvation_cycles_per_kilo_instr: 236.552
Starvation_cycles_per_kilo_instr_3: 180.175
Starvation_cycles_per_kilo_instr_0: 157.386
Branch_type_1  (3,1)  (4,11)  (5,38)  (6,69)  (7,118)  (8,135)  (9,129)  (10,90)  (11,74)  (12,44)  (13,9)  (14,2)  (15,3)  (16,4)  (18,1)  (19,4)  (20,2)  (21,1)  (22,3)  (23,2)  (24,10)  (25,12) 
Branch_type_2  (3,1)  (5,1)  (8,2)  (9,3)  (12,1)  (13,1)  (14,1)  (16,3)  (17,2)  (20,2)  (21,2)  (23,5)  (24,1)  (47,40) 
Branch_type_3  (3,4184)  (4,254)  (5,431)  (6,430)  (7,453)  (8,324)  (9,264)  (10,156)  (11,132)  (12,54)  (13,8)  (64,3) 
Branch_type_4  (6,3)  (7,8)  (8,25)  (9,54)  (10,62)  (11,61)  (12,100)  (13,91)  (14,104)  (15,91)  (16,101)  (17,70)  (18,53)  (19,118)  (20,73)  (21,144)  (22,211)  (23,136)  (24,202)  (25,72) 
Branch_type_5  (8,2)  (9,1)  (10,4)  (11,5)  (12,3)  (13,14)  (14,16)  (15,11)  (16,20)  (17,11)  (18,16)  (19,13)  (20,11)  (21,13)  (22,42)  (23,26)  (24,41) 
Branch_type_6  (5,4)  (6,12)  (7,25)  (8,34)  (9,31)  (10,68)  (11,52)  (12,80)  (13,93)  (14,108)  (15,88)  (16,98)  (17,72)  (18,48)  (19,107)  (20,54)  (21,105)  (22,140)  (23,72)  (24,99)  (25,4)  (47,46) 
Unique trigger count: 
Variant_0_evicts_0 : 0
Variant_0_evicts_1 : 0
Variant_0_evicts_2 : 0
Variant_0_evicts_3 : 0
Variant_1_evicts_0 : 0
Variant_1_evicts_1 : 0
Variant_1_evicts_2 : 0
Variant_1_evicts_3 : 0
Variant_2_evicts_0 : 0
Variant_2_evicts_1 : 0
Variant_2_evicts_2 : 0
Variant_2_evicts_3 : 0
Variant_3_evicts_0 : 0
Variant_3_evicts_1 : 0
Variant_3_evicts_2 : 0
Variant_3_evicts_3 : 0
BTB PER SET UNIQUE ADDR: 1 4 2 6 5 3 5 3 2 4 3 2 2 5 2 5 1 3 4 2 2 4 4 3 3 4 2 2 3 5 4 2 3 3 4 4 3 2 2 3 3 4 4 1 2 3 3 3 3 2 2 3 2 3 3 4 3 2 1 3 4 3 2 2 6 1 4 4 6 3 3 3 5 3 2 3 4 3 6 4 7 5 4 6 4 4 2 3 2 2 3 5 3 4 3 1 4 2 2 3 3 4 4 4 2 5 3 2 3 7 6 3 2 3 0 2 4 5 4 5 3 3 2 3 8 3 1 3 4 1 7 3 4 2 5 3 3 1 3 3 2 3 2 4 4 6 5 3 5 4 3 1 3 8 4 3 3 2 5 4 1 4 4 2 4 2 1 5 4 7 5 3 3 1 3 3 2 5 2 2 3 2 3 6 2 4 2 4 4 3 3 1 2 5 1 2 4 4 4 3 4 2 4 2 0 5 2 2 5 4 3 4 5 2 3 3 3 3 3 5 3 5 3 2 6 2 2 5 3 5 1 4 5 5 3 4 2 6 3 4 3 6 3 4 3 2 3 2 6 4 2 2 2 2 2 3 2 3 2 3 6 1 5 3 4 2 5 3 4 5 2 4 4 2 4 3 3 1 0 4 6 2 2 5 2 2 3 2 4 1 3 2 3 3 2 4 2 2 2 3 4 2 3 4 3 2 2 6 7 3 2 2 4 3 4 4 2 2 3 4 7 4 2 2 6 6 2 4 1 6 3 6 2 2 3 4 2 4 1 3 4 5 3 2 2 2 5 2 1 3 3 5 3 3 4 7 4 2 2 3 4 4 2 4 2 3 2 6 3 4 5 5 2 3 2 3 1 3 2 1 2 4 2 3 3 3 1 4 2 5 4 2 4 4 2 5 5 2 2 2 5 5 3 1 2 3 2 2 7 2 2 5 1 3 6 3 2 4 3 3 3 2 3 6 3 2 4 3 2 4 4 3 7 3 3 0 3 2 3 2 3 1 3 2 5 0 2 4 5 2 3 2 2 3 5 3 3 2 3 2 3 5 3 4 0 3 4 2 3 4 2 5 4 4 6 6 1 2 4 4 2 2 5 3 2 2 4 2 3 4 2 3 4 2 5 4 2 3 3 3 3 3 5 3 5 3 4 2 2 2 2 3 4 3 3 5 6 2 3 3 3 2 5 4 4 3 1 4 2 2 5 3 5 3 3 4 2 2 4 3 4 4 6 6 3 4 4 4 4 3 3 4 3 5 4 4 3 1 4 2 2 3 3 6 3 2 2 3 3 2 1 2 1 3 2 3 6 2 4 2 1 4 3 3 2 1 2 2 5 2 3 3 2 2 2 3 5 5 4 3 3 3 2 2 3 3 3 1 3 3 3 4 3 3 1 3 4 4 3 3 4 1 4 2 2 4 2 3 3 3 2 2 4 4 3 4 3 4 3 3 4 4 2 3 4 3 4 3 2 2 2 2 3 2 4 4 4 1 3 2 1 3 2 4 2 1 4 2 4 4 5 2 3 3 3 3 2 4 3 3 3 7 2 3 4 4 3 6 5 2 3 2 4 3 3 3 3 2 4 4 4 2 2 2 4 3 2 3 3 4 4 1 1 3 4 2 4 4 2 2 4 4 2 3 3 3 4 4 2 6 2 3 4 3 3 2 5 4 3 2 4 8 4 4 5 1 7 2 2 4 6 5 5 3 3 4 2 0 2 2 5 3 3 4 4 3 4 5 2 6 3 2 1 3 4 3 4 3 1 2 2 4 2 2 1 7 2 4 6 2 3 4 2 6 3 3 7 1 2 2 4 4 3 3 6 3 4 3 4 2 4 1 1 2 3 4 3 1 2 3 2 4 4 2 4 2 3 2 4 4 2 4 3 3 4 2 5 4 3 2 0 4 2 3 2 2 5 3 2 3 6 3 2 3 3 2 3 5 3 4 3 3 4 3 4 3 6 2 3 2 6 1 3 3 2 3 2 4 1 4 4 5 3 3 2 3 4 3 5 1 6 2 2 2 3 3 1 4 2 2 3 1 2 5 4 1 3 4 5 5 7 3 2 3 2 3 3 3 4 3 3 3 3 5 1 2 6 5 2 1 4 8 4 2 2 4 4 2 2 2 3 4 3 2 3 2 2 2 5 4 4 3 3 2 7 3 2 3 1 1 2 2 4 5 4 1 7 2 1 3 4 1 3 8 3 4 2 2 4 3 3 2 3 4 4 2 3 2 3 3 4 2 2 5 4 2 2 4 1 3 4 4 4 3 3 3 4 5 2 5 3 5 3 4 3 2 2 3 3 3 2 3 3 5 5 3 3 6 4 3 1 4 3 3 4 2 4 4 2 3 3 4 4 5 5 2 6 5 3 4 2 4 4 3 3 5 6 4 2 2 3 6 3 3 1 4 5 4 5 4 2 5 3 5 4 5 3 1 3 3 5 4 3 4 2 3 2 2 2 5 3 4 5 5 4 4 2 3 4 3 6 3 4 10 3 3 2 5 2 1 2 5 2 1 4 3 2 4 3 4 4 3 3 4 2 3 2 5 2 1 5 3 4 3 2 2 3 1 4 3 4 6 2 2 3 4 2 4 3 1 3 5 2 3 2 2 3 5 2 3 4 2 5 4 3 2 2 4 5 4 6 2 4 4 1 5 3 3 2 4 1 2 5 3 1 3 5 2 2 5 3 4 3 1 3 3 3 4 4 1 3 2 1 2 7 1 3 2 3 1 4 2 2 4 0 5 3 2 5 3 4 2 4 6 5 4 2 3 3 3 5 3 5 3 3 3 3 2 3 4 3 3 6 3 3 2 5 3 0 6 3 4 3 3 2 2 2 2 3 4 3 2 3 4 2 3 3 3 4 6 3 2 4 2 3 4 4 2 3 3 4 3 6 3 3 3 4 4 4 3 8 2 1 5 3 3 4 5 3 3 2 5 3 6 3 2 2 3 3 3 6 7 5 3 4 2 4 2 3 4 2 6 3 1 3 2 2 4 7 3 2 3 5 2 6 2 2 3 2 4 4 3 2 3 4 6 2 5 5 4 3 3 3 6 3 2 2 3 3 3 4 4 2 6 4 3 4 3 3 4 4 3 1 5 3 5 3 4 3 4 2 2 4 4 4 3 4 6 2 1 2 3 2 5 2 3 4 3 4 5 3 3 5 3 2 2 3 4 3 5 3 2 3 4 6 2 1 3 1 2 4 3 6 6 6 2 3 5 3 5 3 1 5 3 2 3 4 5 5 3 4 2 1 2 1 5 4 3 4 4 2 2 2 2 3 4 2 5 4 4 3 1 4 4 3 4 3 3 2 4 2 2 5 1 4 1 4 3 6 8 2 4 3 4 4 3 5 3 5 3 3 2 2 6 4 5 1 4 2 1 4 3 4 7 4 1 3 1 5 3 3 5 3 5 1 2 4 4 3 8 3 1 3 6 3 2 3 2 3 3 2 4 3 2 4 5 4 3 1 4 5 2 4 3 4 7 3 2 3 2 2 5 1 2 3 3 3 3 5 3 3 6 2 5 2 3 5 5 4 5 4 2 3 2 2 4 5 2 4 4 2 3 3 3 4 2 2 3 3 4 3 2 2 3 4 2 4 2 3 4 3 3 2 3 4 3 4 4 2 3 2 4 5 2 4 4 3 4 3 2 2 3 2 5 4 3 3 2 2 3 3 4 3 4 2 3 4 4 4 7 3 4 4 1 2 7 2 3 4 3 5 3 1 3 6 2 2 3 5 3 3 3 1 4 5 4 2 3 3 1 4 3 3 2 3 4 3 2 4 4 2 4 8 3 1 1 4 4 6 4 3 3 2 1 3 3 2 3 3 3 2 4 3 0 3 3 3 1 3 3 1 1 3 6 2 1 4 2 2 1 2 3 4 4 3 5 2 1 3 3 2 3 1 4 5 2 3 5 4 3 4 2 2 5 3 2 3 6 4 4 5 4 4 4 4 2 1 1 3 3 3 5 4 4 2 2 3 3 2 2 2 4 5 6 2 5 4 5 4 6 2 9 2 5 6 4 2 4 1 2 3 2 3 1 2 4 3 3 5 3 2 3 2 5 1 3 3 2 3 1 4 2 8 2 3 1 3 3 1 3 1 3 3 3 5 4 3 3 2 1 3 3 4 1 2 4 5 2 3 2 4 3 3 3 3 3 2 4 3 2 2 3 4 5 7 3 5 3 4 5 3 3 5 4 2 2 2 4 3 0 1 2 2 3 4 4 3 5 4 3 2 4 3 2 4 3 3 4 2 1 2 3 2 2 5 5 1 3 2 5 3 1 1 2 2 2 3 1 3 6 0 4 3 4 3 4 4 2 3 2 4 5 4 2 3 3 2 1 4 3 1 2 2 8 2 4 5 3 4 4 3 2 2 2 3 4 3 1 3 2 4 5 5 4 4 6 3 3 2 4 2 8 3 5 3 4 4 3 3 4 4 4 5 2 4 3 5 3 3 6 3 6 3 4 4 2 3 5 1 3 4 3 2 2 4 3 4 3 2 4 1 4 3 6 4 2 1 1 3 3 2 2 3 6 2 3 5 3 4 2 6 2 5 4 4 4 2 4 5 5 2 4 4 3 4 3 5 3 4 4 4 3 1 1 3 3 3 5 
BTB PER SET COUNT: 1 2880 2186 3007 810 1642 810 5249 700 4 112 992 3050 1799 2 2400 1 4 1586 4 710 4 51 66 399 3415 2 2 6 1412 7 2 5 36 32 4 3 2 116 4 1841 2119 2987 1 1599 3348 501 693 792 2 2 11 1274 3 3 38 3 1336 1 3 9 1388 2 2 4795 1 595 91 2241 3 3 3 6 1327 376 2431 1387 1813 3840 4 5104 715 55 3143 281 4 2 3 25 1336 544 419 3 600 1425 1 7 2 47 31 2005 428 4 4 2 17 3 693 3 1329 1425 3 2 1289 0 2 4 691 413 1918 46 62 1335 2038 4097 120 355 3 5 1 3168 4 1893 668 5204 3 1884 531 3 1336 491 675 2 2058 2002 42 713 638 88 17 3 1 3 633 794 4 3 1335 1983 513 1 342 1334 2 2362 2 1 2372 2696 3345 2110 211 4 4 502 720 17 3289 668 2 3 2 3 1429 2 2317 678 6 158 414 22 27 4 1117 1297 2 619 873 4 208 4 3 14 2 0 22 3 415 3531 1716 37 1352 1517 252 3 3 3 1124 359 3289 1013 4757 131 2145 1677 2 2 383 31 87 1 2461 722 2030 2002 2229 664 2681 3 3400 568 4302 1600 473 1359 2 10838 1336 1990 4 2 3 65 679 1350 8 1752 3 7 3983 2513 1 2720 286 7 33 814 1081 4 1990 2 6 769 2 4 3 3 1 0 2611 937 2 2 230 2 2 5 160 4 1 413 2 3 373 4495 4079 1355 668 3 1361 3720 17 1486 4751 3 328 668 3477 3810 961 1335 4 4 3 7107 5 2 2 674 4 4630 5 4 2 3502 30 18 18 1 2517 535 1158 665 2 1352 4 2 1861 1359 3 932 7 740 649 2702 54 2816 16 690 4 3 1775 1846 28 206 753 656 29 2 16 8 690 2 1355 2 3 418 399 17 329 6209 1456 1638 3 1370 32 930 3 3 1 1450 1365 2 15 741 1012 1 6221 1359 206 4 1400 904 4 2 8 4942 2 2 2 581 9 3 435 2 16 2 3 1438 1366 2 95 1 1384 1044 3 669 6 3 1799 4 2 2119 3505 647 1312 5 445 2514 12 4 4 1788 3 3 0 521 27 2271 366 3 1 560 498 2690 0 2 75 383 1358 4 286 1086 7 1204 3 3 2 1219 61 2339 826 668 673 0 3 1382 4006 3 728 770 2068 1333 1562 3681 1768 55 2 31 2199 2 1351 4020 1361 1981 669 1415 545 199 297 699 1354 3306 5 1270 47 2 2066 184 670 1355 3 1227 1362 703 3 1311 2 2 56 2 3 2339 2017 3 5 1375 1773 74 1321 3 1851 1435 1750 7 4 1 735 25 2 3394 3 971 670 3 509 2 1365 1051 683 1918 1112 12 712 197 5936 660 1162 4 3350 3 4 1338 1427 371 1930 16 2 4613 3 1337 35 3 75 1431 23 2043 1043 3 4 1 686 1 687 1681 2696 2697 2 4 6 5 4 420 31 2 1 2 1355 373 1062 3 4 2 2 3 3150 5366 7 846 2585 3 577 3 2 1070 1392 4 1 3 4 14 4 4 1064 1 1138 4 3755 3 74 395 1 716 4 499 333 2 1039 3 1384 3 2 106 1174 3 2367 10 6 3 2667 12 1363 744 4 1724 589 38 3376 672 2053 2 12 3 2011 4 334 1845 659 3 1356 1 1928 661 805 340 1 4182 1474 12 828 79 3 3 3 52 56 2 694 3 3 450 734 2 3 4 2506 3 8 11 4 3328 2 1321 4 1361 490 3 2 7 4 4 4 28 2006 59 5 2 30 4 381 1100 3 1 6 2036 396 3541 718 668 3 473 1923 2 1095 2044 3 4 2043 2649 2320 2 347 1379 4 10 10 5609 22 3 4979 2041 4492 21 453 1480 1 2827 2 2 4 888 469 3886 3 1363 37 2 0 157 2 1720 7 307 4291 666 197 43 2910 2 4858 11 13 3 1186 2017 50 6 3 2 336 2 1405 1353 5 1 1126 1685 1960 349 17 5 38 2473 437 369 3 857 1283 2 14 1187 2977 2024 861 2836 4 4710 15 2864 553 4207 1 1 830 3 369 24 185 6 3 2 6 43 11 5 568 3 1681 4 1141 6267 2062 3 1008 401 5 2450 4080 498 4 0 2638 5 17 2 3 1884 17 2 3 3806 3 81 6 3 2 3 6033 1370 8 1420 12 4 3 1062 3 3463 2 4 1233 421 43 1821 5 1356 155 2 1602 1 1053 1022 7 3 853 36 3 76 54 359 1 4537 2 1346 340 21 23 1 10 2634 17 3 1 3320 5 6 2026 3347 883 3462 4387 1219 3143 2 21 1432 3 1386 3 2457 5 2380 1810 4 1272 1 421 6235 41 2 610 3553 2793 4 4 453 1457 5 812 2 10 14 281 495 8 3 2 255 709 2956 226 15 3 670 3 4654 5 2 3 2670 1 2 2 187 6 4 2 2996 3 1 6 4281 1 4 1907 5 1098 6 2 4232 1188 1709 3 1337 2728 366 2120 762 1451 1606 3 8 14 3 1607 65 16 9 2885 85 666 4 9 79 3 350 1908 5 8 3 1595 3 5 442 352 3 227 132 765 494 765 2 3 2998 96 5 3 673 408 4 3 1 1365 3 4 6 2 712 4 2 1727 3 4 1728 6 2750 1988 2077 725 806 187 519 4 370 503 14 2736 2735 4 2 49 38 2660 268 3 1 13 735 29 1366 1631 2 2046 3 2835 711 189 1515 22 3 9 838 1499 4 1411 2 2181 1025 2 2 4162 3 1139 2976 1364 4 1109 350 28 1563 1415 453 8 6 5830 645 160 28 2011 30 669 2 7 229 1 747 18 1426 15 2609 41 1105 27 721 14 1594 1454 52 17 2 1 1084 3 2801 360 2 2 2094 26 5 423 372 7 2 2 3 2708 2 4078 4 612 183 2546 2 362 370 1743 11 339 562 3 3426 17 1343 243 7 378 353 22 552 4 2647 2 19 5 1 2211 696 32 3 207 1 3 1916 1958 3 3 3248 11 756 902 2031 4 5 1 1915 3 1357 6 1120 1 3 2 1374 11 450 1 3 451 3550 2 1449 1213 665 4 0 1031 4 669 194 406 842 2 547 1704 2189 4 3 3 3 3 1573 131 3081 3 91 3 1150 499 4 4360 1402 3 1381 447 688 2 61 3 0 2825 670 1406 3 2847 1358 2 2077 350 1326 2114 39 1525 1386 5 2 880 5 3 2187 1067 3 2 3588 2 16 2384 5071 164 4 3 2631 22 1143 64 36 3 636 1628 2168 4 2289 2 1 1030 342 3 7 1882 3 4 4 1086 9 1426 1361 2 76 3 3 1084 2435 1799 5 3 4 11 1363 5 603 5 2 187 3 1 3 1360 666 1785 2434 3 7 29 1577 2 1129 11 2 7 2 3664 1362 3 3 122 687 3540 2 13 2277 663 3 470 2052 4837 3 10 2480 3 32 340 2631 1608 2 515 1341 3 5 36 15 1927 155 12 1 1325 24 3447 4 533 16 1775 8 2 493 697 4 17 4416 3699 3 1 2 1133 6 6 332 302 482 451 2278 2264 3 4 679 107 619 2 3 1882 47 2109 3 15 4 9 3815 2 1 4 1 8 8 1330 1843 1917 1533 2 665 5 3 1715 3 1 99 2078 2 663 4 2081 601 4 706 219 1 1933 1 4409 9 4 5 5 2 2 2 2 1365 5 39 2078 4 4 87 295 41 4 589 3326 669 3 2 5 4 3 1430 1 4 1 7 1732 577 3143 3 4 3 770 650 122 2095 5 765 12 239 6 2 1373 9 1277 1 1665 299 1 1725 3 1909 1834 4 667 3 1 762 6 929 1822 3 17 704 2 1075 674 4088 3841 19 1 1183 2894 309 2 3 681 1745 3849 2 1482 36 1331 4 5 299 226 1 64 2332 2683 9 685 5975 3574 4 2 883 560 2 253 1 2 692 3201 1591 11 439 298 875 2167 3 2423 2 554 8904 5 1405 1360 4 1259 377 2 385 783 2796 2 4 321 2 3 1319 2698 4 2 2 3 1799 2058 346 702 1042 4 699 12 1367 2 690 1347 3 3 3 1354 9 79 444 4 2 3 660 2699 902 2 23 1368 243 145 3 2 2 45 2 2307 686 1372 3 608 3098 609 3 5 709 1445 2 3 34 13 4 3833 3539 55 4 1 2 3459 138 4 1783 3 4340 3 1034 967 33 15 1061 16 4031 4 4 330 1 2406 2248 5 2 4 5 1 80 814 199 2 44 521 7 87 1270 4 2 1759 50 1335 129 1 4 4 4649 331 5 76 7 66 3 1530 1278 4 355 230 5 1684 5 0 1828 3 123 3 2054 691 1 1 3 2070 3 1355 336 664 4 1 1387 277 9 3580 353 8 1064 717 652 3 2449 3 979 371 590 2 48 3161 45 3 4 28 3 1354 3 2 2076 3788 18 1015 9 444 4 705 1744 730 1 1045 420 769 3 1406 649 365 678 2 1701 491 14 875 12 1984 2160 2095 2 1050 4 911 4 3271 318 5491 70 1325 3451 18 86 1072 1389 2 955 1895 1920 1 1325 1314 687 8 3620 33 1915 873 2 2188 1 5 1356 1680 5 675 701 408 7881 2 3330 1 194 3 1 8 1 1312 3 3 2629 39 1364 3 2 26 985 2407 7 1 994 443 1183 2 4 2 1342 3 111 5 3 659 88 4327 21 3 2 3 204 57 6241 41 167 4 148 38 2036 3 1032 6 2 5 2 473 19035 0 1 19 845 378 132 4 3 2024 294 3 792 1041 206 2 764 71 7 391 2 1 3 3 3 1394 7 109 1 3 2 1742 10892 1 1 671 569 3024 129 1 293 696 0 1350 1622 28 5 4 2949 2 4235 2 15 2176 1012 2 13 13 11 349 333 341 2 2 2 3234 73 1368 8 1367 7 129 3 2 992 2 13 3250 1035 737 809 669 1231 2958 5598 547 8 5493 468 402 2 8 37 3745 1384 3431 3 664 2115 1336 1339 6989 46 700 186 2 2187 213 3220 134 899 1055 6965 1848 34 14 737 40 2731 354 2 3 1921 3 2 2 736 981 1839 2144 2 3576 2 4 993 16 488 2 945 1 3 3 1972 668 490 4400 2 528 220 11 1664 1048 81 489 1289 2192 4 3466 1816 14 2085 5 3 658 11 560 4 3 401 3 872 585 993 1386 1 2 302 3 3 41 
To predecode: 1104711
Predecoding something: 695841
Predecode request dropped: 0
sizeofblock_0 0
sizeofblock_1 500856
sizeofblock_2 504902
sizeofblock_3 498719
sizeofblock_4 89542
sizeofblock_5 0
sizeofblock_6 0
sizeofblock_7 0
sizeofblock_8 0
