
*** ChampSim Multicore Out-of-Order Simulator ***

Warmup Instructions: 50000000
Simulation Instructions: 50000000
Number of CPUs: 1
LLC sets: 2048
LLC ways: 16
Off-chip DRAM Size: 4096 MB Channels: 1 Width: 64-bit Data Rate: 6400 MT/s
CPU 0 runs ./micro_traces/srv245.trace.gz
.gz
ITLB has LRU replacement policy
DTLB has LRU replacement policy
STLB has LRU replacement policy
FDIP Prefetcher at L1I
L1I has LRU replacement policy
L1D has LRU replacement policy
Initialize SRRIP state for L2C
Initialize DRRIP state for LLC
Heartbeat_Variant_0 : 1076 0.262695 per_variant_size: 0 1076 0 0 0 0 0 0 0 
Heartbeat_Variant_1 : 2275 0.55542 per_variant_size: 0 427 1848 0 0 0 0 0 0 
Heartbeat_Variant_2 : 0 0 per_variant_size: 0 0 0 0 0 0 0 0 0 
Heartbeat_Variant_3 : 0 0 per_variant_size: 0 0 0 0 0 0 0 0 0 
Heartbeat_Variant_0_evicts 0 : 18837 1 : 14889 2 : 0 3 : 0 
Heartbeat_Variant_1_evicts 0 : 14949 1 : 0 2 : 0 3 : 0 
Heartbeat_Variant_2_evicts 0 : 0 1 : 0 2 : 0 3 : 0 
Heartbeat_Variant_3_evicts 0 : 0 1 : 0 2 : 0 3 : 0 
Heartbeat CPU 0 instructions: 10000001 cycles: 2791435 heartbeat IPC: 3.58239 cumulative IPC: 3.58239 (Simulation time: 0 hr 2 min 2 sec) 
Heartbeat_Variant_0 : 1095 0.267334 per_variant_size: 0 1095 0 0 0 0 0 0 0 
Heartbeat_Variant_1 : 2321 0.56665 per_variant_size: 0 420 1901 0 0 0 0 0 0 
Heartbeat_Variant_2 : 0 0 per_variant_size: 0 0 0 0 0 0 0 0 0 
Heartbeat_Variant_3 : 0 0 per_variant_size: 0 0 0 0 0 0 0 0 0 
Heartbeat_Variant_0_evicts 0 : 18967 1 : 14901 2 : 0 3 : 0 
Heartbeat_Variant_1_evicts 0 : 14901 1 : 0 2 : 0 3 : 0 
Heartbeat_Variant_2_evicts 0 : 0 1 : 0 2 : 0 3 : 0 
Heartbeat_Variant_3_evicts 0 : 0 1 : 0 2 : 0 3 : 0 
Heartbeat CPU 0 instructions: 20000000 cycles: 5583273 heartbeat IPC: 3.58187 cumulative IPC: 3.58213 (Simulation time: 0 hr 4 min 0 sec) 
Heartbeat_Variant_0 : 1118 0.272949 per_variant_size: 0 1118 0 0 0 0 0 0 0 
Heartbeat_Variant_1 : 2303 0.562256 per_variant_size: 0 419 1884 0 0 0 0 0 0 
Heartbeat_Variant_2 : 0 0 per_variant_size: 0 0 0 0 0 0 0 0 0 
Heartbeat_Variant_3 : 0 0 per_variant_size: 0 0 0 0 0 0 0 0 0 
Heartbeat_Variant_0_evicts 0 : 19515 1 : 15745 2 : 0 3 : 0 
Heartbeat_Variant_1_evicts 0 : 15722 1 : 0 2 : 0 3 : 0 
Heartbeat_Variant_2_evicts 0 : 0 1 : 0 2 : 0 3 : 0 
Heartbeat_Variant_3_evicts 0 : 0 1 : 0 2 : 0 3 : 0 
Heartbeat CPU 0 instructions: 30000002 cycles: 8374758 heartbeat IPC: 3.58232 cumulative IPC: 3.58219 (Simulation time: 0 hr 6 min 11 sec) 
Heartbeat_Variant_0 : 1107 0.270264 per_variant_size: 0 1107 0 0 0 0 0 0 0 
Heartbeat_Variant_1 : 2327 0.568115 per_variant_size: 0 420 1907 0 0 0 0 0 0 
Heartbeat_Variant_2 : 0 0 per_variant_size: 0 0 0 0 0 0 0 0 0 
Heartbeat_Variant_3 : 0 0 per_variant_size: 0 0 0 0 0 0 0 0 0 
Heartbeat_Variant_0_evicts 0 : 19384 1 : 15393 2 : 0 3 : 0 
Heartbeat_Variant_1_evicts 0 : 15406 1 : 0 2 : 0 3 : 0 
Heartbeat_Variant_2_evicts 0 : 0 1 : 0 2 : 0 3 : 0 
Heartbeat_Variant_3_evicts 0 : 0 1 : 0 2 : 0 3 : 0 
Heartbeat CPU 0 instructions: 40000003 cycles: 11165100 heartbeat IPC: 3.58379 cumulative IPC: 3.58259 (Simulation time: 0 hr 8 min 18 sec) 
Heartbeat_Variant_0 : 1098 0.268066 per_variant_size: 0 1098 0 0 0 0 0 0 0 
Heartbeat_Variant_1 : 2346 0.572754 per_variant_size: 0 410 1936 0 0 0 0 0 0 
Heartbeat_Variant_2 : 0 0 per_variant_size: 0 0 0 0 0 0 0 0 0 
Heartbeat_Variant_3 : 0 0 per_variant_size: 0 0 0 0 0 0 0 0 0 
Heartbeat_Variant_0_evicts 0 : 19473 1 : 15321 2 : 0 3 : 0 
Heartbeat_Variant_1_evicts 0 : 15331 1 : 0 2 : 0 3 : 0 
Heartbeat_Variant_2_evicts 0 : 0 1 : 0 2 : 0 3 : 0 
Heartbeat_Variant_3_evicts 0 : 0 1 : 0 2 : 0 3 : 0 
Heartbeat CPU 0 instructions: 50000001 cycles: 13956127 heartbeat IPC: 3.58291 cumulative IPC: 3.58266 (Simulation time: 0 hr 10 min 26 sec) 

Warmup complete CPU 0 instructions: 50000001 cycles: 13956127 (Simulation time: 0 hr 10 min 26 sec) 

Cycle: 20000000 FTQ IN: 56964625 FTQ occupancy: 18.4298 DECODE IN: 56964522 DECODE occupancy: 47.229 ROB IN: 56964462 ROB occupancy: 285.461 ROB OUT: 56964163
Heartbeat_Variant_0 : 1116 0.272461 per_variant_size: 0 1116 0 0 0 0 0 0 0 
Heartbeat_Variant_1 : 2380 0.581055 per_variant_size: 0 446 1934 0 0 0 0 0 0 
Heartbeat_Variant_2 : 0 0 per_variant_size: 0 0 0 0 0 0 0 0 0 
Heartbeat_Variant_3 : 0 0 per_variant_size: 0 0 0 0 0 0 0 0 0 
Heartbeat_Variant_0_evicts 0 : 19452 1 : 15466 2 : 0 3 : 0 
Heartbeat_Variant_1_evicts 0 : 15463 1 : 0 2 : 0 3 : 0 
Heartbeat_Variant_2_evicts 0 : 0 1 : 0 2 : 0 3 : 0 
Heartbeat_Variant_3_evicts 0 : 0 1 : 0 2 : 0 3 : 0 
Heartbeat CPU 0 instructions: 60000000 cycles: 22613047 heartbeat IPC: 1.15515 cumulative IPC: 1.15515 (Simulation time: 0 hr 12 min 35 sec) 
Cycle: 30000000 FTQ IN: 11780413 FTQ occupancy: 7.78423 DECODE IN: 11780450 DECODE occupancy: 17.5549 ROB IN: 11780457 ROB occupancy: 140.063 ROB OUT: 11780708
Heartbeat_Variant_0 : 1108 0.270508 per_variant_size: 0 1108 0 0 0 0 0 0 0 
Heartbeat_Variant_1 : 2389 0.583252 per_variant_size: 0 421 1968 0 0 0 0 0 0 
Heartbeat_Variant_2 : 0 0 per_variant_size: 0 0 0 0 0 0 0 0 0 
Heartbeat_Variant_3 : 0 0 per_variant_size: 0 0 0 0 0 0 0 0 0 
Heartbeat_Variant_0_evicts 0 : 19255 1 : 15339 2 : 0 3 : 0 
Heartbeat_Variant_1_evicts 0 : 15347 1 : 0 2 : 0 3 : 0 
Heartbeat_Variant_2_evicts 0 : 0 1 : 0 2 : 0 3 : 0 
Heartbeat_Variant_3_evicts 0 : 0 1 : 0 2 : 0 3 : 0 
Heartbeat CPU 0 instructions: 70000000 cycles: 31052860 heartbeat IPC: 1.18486 cumulative IPC: 1.16981 (Simulation time: 0 hr 14 min 30 sec) 
Heartbeat_Variant_0 : 1098 0.268066 per_variant_size: 0 1098 0 0 0 0 0 0 0 
Heartbeat_Variant_1 : 2400 0.585938 per_variant_size: 0 438 1962 0 0 0 0 0 0 
Heartbeat_Variant_2 : 0 0 per_variant_size: 0 0 0 0 0 0 0 0 0 
Heartbeat_Variant_3 : 0 0 per_variant_size: 0 0 0 0 0 0 0 0 0 
Heartbeat_Variant_0_evicts 0 : 19300 1 : 15524 2 : 0 3 : 0 
Heartbeat_Variant_1_evicts 0 : 15534 1 : 0 2 : 0 3 : 0 
Heartbeat_Variant_2_evicts 0 : 0 1 : 0 2 : 0 3 : 0 
Heartbeat_Variant_3_evicts 0 : 0 1 : 0 2 : 0 3 : 0 
Heartbeat CPU 0 instructions: 80000002 cycles: 39617925 heartbeat IPC: 1.16753 cumulative IPC: 1.16905 (Simulation time: 0 hr 16 min 31 sec) 
Cycle: 40000000 FTQ IN: 11696038 FTQ occupancy: 7.93293 DECODE IN: 11696074 DECODE occupancy: 17.7766 ROB IN: 11696116 ROB occupancy: 141.606 ROB OUT: 11695932
Heartbeat_Variant_0 : 1103 0.269287 per_variant_size: 0 1103 0 0 0 0 0 0 0 
Heartbeat_Variant_1 : 2402 0.586426 per_variant_size: 0 436 1966 0 0 0 0 0 0 
Heartbeat_Variant_2 : 0 0 per_variant_size: 0 0 0 0 0 0 0 0 0 
Heartbeat_Variant_3 : 0 0 per_variant_size: 0 0 0 0 0 0 0 0 0 
Heartbeat_Variant_0_evicts 0 : 19220 1 : 15338 2 : 0 3 : 0 
Heartbeat_Variant_1_evicts 0 : 15335 1 : 0 2 : 0 3 : 0 
Heartbeat_Variant_2_evicts 0 : 0 1 : 0 2 : 0 3 : 0 
Heartbeat_Variant_3_evicts 0 : 0 1 : 0 2 : 0 3 : 0 
Heartbeat CPU 0 instructions: 90000000 cycles: 48125820 heartbeat IPC: 1.17538 cumulative IPC: 1.17063 (Simulation time: 0 hr 18 min 23 sec) 
Cycle: 50000000 FTQ IN: 11761041 FTQ occupancy: 8.01174 DECODE IN: 11761053 DECODE occupancy: 17.9984 ROB IN: 11761064 ROB occupancy: 141.622 ROB OUT: 11761000
Heartbeat_Variant_0 : 1137 0.277588 per_variant_size: 0 1137 0 0 0 0 0 0 0 
Heartbeat_Variant_1 : 2389 0.583252 per_variant_size: 0 422 1967 0 0 0 0 0 0 
Heartbeat_Variant_2 : 0 0 per_variant_size: 0 0 0 0 0 0 0 0 0 
Heartbeat_Variant_3 : 0 0 per_variant_size: 0 0 0 0 0 0 0 0 0 
Heartbeat_Variant_0_evicts 0 : 19021 1 : 15000 2 : 0 3 : 0 
Heartbeat_Variant_1_evicts 0 : 14970 1 : 0 2 : 0 3 : 0 
Heartbeat_Variant_2_evicts 0 : 0 1 : 0 2 : 0 3 : 0 
Heartbeat_Variant_3_evicts 0 : 0 1 : 0 2 : 0 3 : 0 
Heartbeat CPU 0 instructions: 100000000 cycles: 56436931 heartbeat IPC: 1.20321 cumulative IPC: 1.177 (Simulation time: 0 hr 20 min 25 sec) 
Finished CPU 0 instructions: 50000003 cycles: 42480805 cumulative IPC: 1.177 (Simulation time: 0 hr 20 min 25 sec) 

ChampSim completed all CPUs

Region of Interest Statistics

CPU 0 cumulative IPC: 1.177 instructions: 50000003 cycles: 42480805
 Fetch stage stalled: 66.8542  Sim cycles: 42480805 fetch stall cycle: 28400197
 Empty decode stage: 54.5039  Sim cycles: 42480805 fetch stall cycle: 23153673
ITLB TOTAL     ACCESS:    5627281  HIT:    5180968  MISS:     446313  HIT %:    92.0688  MISS %:    7.93124   MPKI: 8.92626
ITLB LOAD TRANSLATION INSTRUCTION	ACCESS:    5511771  HIT:    5065458  MISS:     446313  HIT %:    91.9025  MISS %:    8.09745  MPKI: 8.92626
ITLB TRANSLATION FROM L1D PREFETCHER INSTRUCTION	ACCESS:     115510  HIT:     115510  MISS:          0  HIT %:        100  MISS %:          0  MPKI: 0

ITLB AVERAGE MISS LATENCY: 9.09528 cycles
ITLB RQ	ACCESS:    7382701	FORWARD:          0	MERGED:    1308262	TO_CACHE:    6074439

DTLB TOTAL     ACCESS:    9106446  HIT:    8631925  MISS:     474521  HIT %:    94.7892  MISS %:    5.21083   MPKI: 9.49042
DTLB LOAD TRANSLATION DATA	ACCESS:    9106446  HIT:    8631925  MISS:     474521  HIT %:    94.7892  MISS %:    5.21083  MPKI: 9.49042

DTLB AVERAGE MISS LATENCY: 9.40911 cycles
DTLB RQ	ACCESS:   13312610	FORWARD:          0	MERGED:    4168064	TO_CACHE:    9144546

STLB TOTAL     ACCESS:    1219161  HIT:    1216000  MISS:       3161  HIT %:    99.7407  MISS %:   0.259277   MPKI: 0.06322
STLB LOAD TRANSLATION INSTRUCTION	ACCESS:     446313  HIT:     445738  MISS:        575  HIT %:    99.8712  MISS %:   0.128833  MPKI: 0.0115
STLB LOAD TRANSLATION DATA	ACCESS:     474415  HIT:     471862  MISS:       2553  HIT %:    99.4619  MISS %:   0.538136  MPKI: 0.05106
STLB TRANSLATION FROM L1D PREFETCHER DATA	ACCESS:     298433  HIT:     298400  MISS:         33  HIT %:    99.9889  MISS %:  0.0110578  MPKI: 0.00066

STLB AVERAGE MISS LATENCY: 65.5179 cycles
STLB RQ	ACCESS:    1396385	FORWARD:          0	MERGED:     177143	TO_CACHE:    1219242

STLB Hit, L1D data hit: 0
STLB Hit, L2C data hit: 0
STLB Hit, LLC data hit: 0
STLB Hit, LLC data miss: 0
STLB STLB hints to L2: 0
L1D TOTAL     ACCESS:   13167461  HIT:   12067783  MISS:    1099678  HIT %:    91.6485  MISS %:    8.35148   MPKI: 21.9936
L1D LOAD DATA	ACCESS:    6670084  HIT:    5956867  MISS:     713217  HIT %:    89.3072  MISS %:    10.6928  MPKI: 14.2643
L1D RFO DATA	ACCESS:    6101306  HIT:    5825268  MISS:     276038  HIT %:    95.4758  MISS %:    4.52424  MPKI: 5.52076
L1D PREFETCH DATA	ACCESS:     396071  HIT:     285648  MISS:     110423  HIT %:    72.1204  MISS %:    27.8796  MPKI: 2.20846

L1D PREFETCH  REQUESTED:     951376  ISSUED:     951376  USEFUL:      57561  USELESS:      71899
L1D USEFUL LOAD PREFETCHES:      57561 PREFETCH ISSUED TO LOWER LEVEL:     129512  ACCURACY: 44.4445
 TIMELY PREFETCHES:      57561 LATE PREFETCHES: 19034 DROPPED PREFETCHES: 44
L1D AVERAGE MISS LATENCY: 603690 cycles
L1D RQ	ACCESS:   10761681	FORWARD:          0	MERGED:    3900388	TO_CACHE:    6706941
L1D WQ	ACCESS:    6770009	FORWARD:     154626	MERGED:     164340	TO_CACHE:    6605669
L1D PQ	ACCESS:     475825	FORWARD:          0	MERGED:          0	TO_CACHE:     475551

L1D UNIQUE REGIONS ACCESSED: 0
L1D REGIONS CONFLICTS: 0
L1D Cross Page Prefetch Requests: 10439
L1D Same Page Prefetch Requests: 956683
L1D ROI Sum of L1D PQ occupancy: 6036509
L1D PREFETCHES PUSHED FROM L2C: 0
L1I TOTAL     ACCESS:    6880732  HIT:    4368443  MISS:    2512289  HIT %:    63.4881  MISS %:    36.5119   MPKI: 50.2458
L1I LOAD INSTRUCTION	ACCESS:    6336993  HIT:    3824704  MISS:    2512289  HIT %:    60.3552  MISS %:    39.6448  MPKI: 50.2458
L1I PREFETCH INSTRUCTION	ACCESS:     543739  HIT:     543739  MISS:          0  HIT %:        100  MISS %:          0  MPKI: 0

L1I PREFETCH  REQUESTED:    1173585  ISSUED:    1173585  USEFUL:          0  USELESS:          0
L1I USEFUL LOAD PREFETCHES:          0 PREFETCH ISSUED TO LOWER LEVEL:          0  ACCURACY: -nan
 TIMELY PREFETCHES:          0 LATE PREFETCHES: 0 DROPPED PREFETCHES: 0
L1I AVERAGE MISS LATENCY: 17.7908 cycles
L1I RQ	ACCESS:    9443817	FORWARD:          0	MERGED:    2892360	TO_CACHE:    6551457
L1I PQ	ACCESS:    1173585	FORWARD:          0	MERGED:     342341	TO_CACHE:     831244

L1BTB TOTAL     ACCESS:    5844346  HIT:    2450439  MISS:    3393907  HIT %:    41.9284  MISS %:    58.0716   MPKI: 67.8781
L1BTB BRANCH_DIRECT_JUMP	ACCESS:     589577 HIT:     197482 MISS:     392095 AVERAGE STALL: 36.9183 AVERAGE FETCH STALL: 17.9633 AVERAGE FETCH QUEUE STALL: 9.90513 AVERAGE DECODE STALL: 8.24352 AVERAGE EXECUTE STALL: 4.40572e+14
L1BTB BRANCH_INDIRECT	ACCESS:     172403 HIT:      56759 MISS:     115644 AVERAGE STALL: 100.129 AVERAGE FETCH STALL: 15.2446 AVERAGE FETCH QUEUE STALL: 8.63216 AVERAGE DECODE STALL: 8.78232 AVERAGE EXECUTE STALL: 66.5371
L1BTB BRANCH_CONDITIONAL	ACCESS:    2990688 HIT:    1780552 MISS:    1210136 AVERAGE STALL: 38.8454 AVERAGE FETCH STALL: 23.341 AVERAGE FETCH QUEUE STALL: 7.26947 AVERAGE DECODE STALL: 7.46306 AVERAGE EXECUTE STALL: 1.97177e+14
L1BTB BRANCH_DIRECT_CALL	ACCESS:     886103 HIT:     107602 MISS:     778501 AVERAGE STALL: 41.0651 AVERAGE FETCH STALL: 22.0388 AVERAGE FETCH QUEUE STALL: 9.90835 AVERAGE DECODE STALL: 8.36996 AVERAGE EXECUTE STALL: 1.27852e+14
L1BTB BRANCH_INDIRECT_CALL	ACCESS:     159736 HIT:      20347 MISS:     139389 AVERAGE STALL: 115.963 AVERAGE FETCH STALL: 17.1392 AVERAGE FETCH QUEUE STALL: 8.20363 AVERAGE DECODE STALL: 6.99571 AVERAGE EXECUTE STALL: 83.1445
L1BTB BRANCH_RETURN	ACCESS:    1045839 HIT:     287697 MISS:     758142 AVERAGE STALL: 38.5407 AVERAGE FETCH STALL: 19.6318 AVERAGE FETCH QUEUE STALL: 6.30922 AVERAGE DECODE STALL: 6.01831 AVERAGE EXECUTE STALL: 2.48786e+14
L1BTB BRANCH_OTHER ACCESS:          0 HIT:          0 MISS:          0 AVERAGE STALL: -nan AVERAGE FETCH STALL: -nan AVERAGE FETCH QUEUE STALL: -nan AVERAGE DECODE STALL: -nan AVERAGE EXECUTE STALL: -nan
L1BTB TOTAL ROB OCCUPANCY AT BTB MISS: 12.7979

L2BTB TOTAL     ACCESS:    3368613  HIT:    2984270  MISS:     384343  HIT %:    88.5905  MISS %:    11.4095   MPKI: 7.68686
L2BTB BRANCH_DIRECT_JUMP	ACCESS:     387032 HIT:     350197 MISS:      36835 AVERAGE STALL: 36.9183 AVERAGE FETCH STALL: 17.9633 AVERAGE FETCH QUEUE STALL: 9.90513 AVERAGE DECODE STALL: 8.24352 AVERAGE EXECUTE STALL: 4.40572e+14
L2BTB BRANCH_INDIRECT	ACCESS:     105824 HIT:      98506 MISS:       7318 AVERAGE STALL: 100.129 AVERAGE FETCH STALL: 15.2446 AVERAGE FETCH QUEUE STALL: 8.63216 AVERAGE DECODE STALL: 8.78232 AVERAGE EXECUTE STALL: 66.5371
L2BTB BRANCH_CONDITIONAL	ACCESS:    1210136 HIT:    1115614 MISS:      94522 AVERAGE STALL: 38.8454 AVERAGE FETCH STALL: 23.341 AVERAGE FETCH QUEUE STALL: 7.26947 AVERAGE DECODE STALL: 7.46306 AVERAGE EXECUTE STALL: 1.97177e+14
L2BTB BRANCH_DIRECT_CALL	ACCESS:     778501 HIT:     634157 MISS:     144344 AVERAGE STALL: 41.0651 AVERAGE FETCH STALL: 22.0388 AVERAGE FETCH QUEUE STALL: 9.90835 AVERAGE DECODE STALL: 8.36996 AVERAGE EXECUTE STALL: 1.27852e+14
L2BTB BRANCH_INDIRECT_CALL	ACCESS:     130000 HIT:     101857 MISS:      28143 AVERAGE STALL: 115.963 AVERAGE FETCH STALL: 17.1392 AVERAGE FETCH QUEUE STALL: 8.20363 AVERAGE DECODE STALL: 6.99571 AVERAGE EXECUTE STALL: 83.1445
L2BTB BRANCH_RETURN	ACCESS:     757120 HIT:     683939 MISS:      73181 AVERAGE STALL: 38.5407 AVERAGE FETCH STALL: 19.6318 AVERAGE FETCH QUEUE STALL: 6.30922 AVERAGE DECODE STALL: 6.01831 AVERAGE EXECUTE STALL: 2.48786e+14
L2BTB BRANCH_OTHER ACCESS:          0 HIT:          0 MISS:          0 AVERAGE STALL: -nan AVERAGE FETCH STALL: -nan AVERAGE FETCH QUEUE STALL: -nan AVERAGE DECODE STALL: -nan AVERAGE EXECUTE STALL: -nan
L2BTB TOTAL ROB OCCUPANCY AT BTB MISS: 113.011

L2C TOTAL     ACCESS:    4182342  HIT:    3646136  MISS:     536206  HIT %:    87.1793  MISS %:    12.8207   MPKI: 10.7241
L2C LOAD INSTRUCTION	ACCESS:    2512289  HIT:    2232307  MISS:     279982  HIT %:    88.8555  MISS %:    11.1445  MPKI: 5.59964
L2C LOAD TRANSLATION INSTRUCTION	ACCESS:        642  HIT:        173  MISS:        469  HIT %:     26.947  MISS %:     73.053  MPKI: 0.00938
L2C LOAD DATA	ACCESS:     694050  HIT:     605367  MISS:      88683  HIT %:    87.2224  MISS %:    12.7776  MPKI: 1.77366
L2C RFO DATA	ACCESS:     275961  HIT:     217157  MISS:      58804  HIT %:    78.6912  MISS %:    21.3088  MPKI: 1.17608
L2C PREFETCH DATA	ACCESS:     212773  HIT:     122929  MISS:      89844  HIT %:    57.7747  MISS %:    42.2253  MPKI: 1.79688
L2C WRITEBACK DATA	ACCESS:     483763  HIT:     467323  MISS:      16440  HIT %:    96.6016  MISS %:    3.39836  MPKI: 0.3288
L2C LOAD TRANSLATION DATA	ACCESS:       2776  HIT:        838  MISS:       1938  HIT %:    30.1873  MISS %:    69.8127  MPKI: 0.03876
L2C TRANSLATION FROM L1D PREFETCHER DATA	ACCESS:         88  HIT:         42  MISS:         46  HIT %:    47.7273  MISS %:    52.2727  MPKI: 0.00092

L2C PREFETCH  REQUESTED:      92280  ISSUED:      92280  USEFUL:       9733  USELESS:      80771
L2C USEFUL LOAD PREFETCHES:       9733 PREFETCH ISSUED TO LOWER LEVEL:      90392  ACCURACY: 10.7675
 TIMELY PREFETCHES:       9733 LATE PREFETCHES: 548 DROPPED PREFETCHES: 0
L2C AVERAGE MISS LATENCY: 40.832 cycles
L2C RQ	ACCESS:    3485965	FORWARD:          0	MERGED:          0	TO_CACHE:    3485811
L2C WQ	ACCESS:     483763	FORWARD:        154	MERGED:          0	TO_CACHE:     483763
L2C PQ	ACCESS:     221792	FORWARD:          0	MERGED:       3700	TO_CACHE:     218092

L2C Dense regions hint from L2: 0
PSCL5 TOTAL     ACCESS:       6416  HIT:       3208  MISS:       3208  HIT %:         50  MISS %:         50   MPKI: 0.06416
PSCL5 LOAD TRANSLATION INSTRUCTION	ACCESS:       6244  HIT:       3122  MISS:       3122  HIT %:         50  MISS %:         50  MPKI: 0.06244
PSCL5 TRANSLATION FROM L1D PREFETCHER INSTRUCTION	ACCESS:        172  HIT:         86  MISS:         86  HIT %:         50  MISS %:         50  MPKI: 0.00172


PSCL4 TOTAL     ACCESS:       5975  HIT:       2981  MISS:       2994  HIT %:    49.8912  MISS %:    50.1088   MPKI: 0.05988
PSCL4 LOAD TRANSLATION INSTRUCTION	ACCESS:       3070  HIT:       2895  MISS:        175  HIT %:    94.2997  MISS %:    5.70033  MPKI: 0.0035
PSCL4 TRANSLATION FROM L1D PREFETCHER INSTRUCTION	ACCESS:         86  HIT:         86  MISS:          0  HIT %:        100  MISS %:          0  MPKI: 0
PSCL4 LOAD TRANSLATION DATA	ACCESS:       2733  HIT:          0  MISS:       2733  HIT %:          0  MISS %:        100  MPKI: 0.05466
PSCL4 TRANSLATION FROM L1D PREFETCHER DATA	ACCESS:         86  HIT:          0  MISS:         86  HIT %:          0  MISS %:        100  MPKI: 0.00172


PSCL3 TOTAL     ACCESS:       6331  HIT:       3159  MISS:       3172  HIT %:    49.8973  MISS %:    50.1027   MPKI: 0.06344
PSCL3 LOAD TRANSLATION INSTRUCTION	ACCESS:       3248  HIT:       3073  MISS:        175  HIT %:    94.6121  MISS %:    5.38793  MPKI: 0.0035
PSCL3 TRANSLATION FROM L1D PREFETCHER INSTRUCTION	ACCESS:         86  HIT:         86  MISS:          0  HIT %:        100  MISS %:          0  MPKI: 0
PSCL3 LOAD TRANSLATION DATA	ACCESS:       2911  HIT:          0  MISS:       2911  HIT %:          0  MISS %:        100  MPKI: 0.05822
PSCL3 TRANSLATION FROM L1D PREFETCHER DATA	ACCESS:         86  HIT:          0  MISS:         86  HIT %:          0  MISS %:        100  MPKI: 0.00172


PSCL2 TOTAL     ACCESS:       6141  HIT:       2935  MISS:       3206  HIT %:    47.7935  MISS %:    52.2065   MPKI: 0.06412
PSCL2 LOAD TRANSLATION INSTRUCTION	ACCESS:       3420  HIT:       2851  MISS:        569  HIT %:    83.3626  MISS %:    16.6374  MPKI: 0.01138
PSCL2 TRANSLATION FROM L1D PREFETCHER INSTRUCTION	ACCESS:         84  HIT:         84  MISS:          0  HIT %:        100  MISS %:          0  MPKI: 0
PSCL2 LOAD TRANSLATION DATA	ACCESS:       2553  HIT:          0  MISS:       2553  HIT %:          0  MISS %:        100  MPKI: 0.05106
PSCL2 TRANSLATION FROM L1D PREFETCHER DATA	ACCESS:         84  HIT:          0  MISS:         84  HIT %:          0  MISS %:        100  MPKI: 0.00168


LLC TOTAL     ACCESS:     601974  HIT:     563129  MISS:      38845  HIT %:    93.5471  MISS %:    6.45294   MPKI: 0.7769
LLC LOAD INSTRUCTION	ACCESS:     279982  HIT:     278869  MISS:       1113  HIT %:    99.6025  MISS %:   0.397526  MPKI: 0.02226
LLC LOAD TRANSLATION INSTRUCTION	ACCESS:        469  HIT:        425  MISS:         44  HIT %:    90.6183  MISS %:    9.38166  MPKI: 0.00088
LLC LOAD DATA	ACCESS:      88150  HIT:      83371  MISS:       4779  HIT %:    94.5786  MISS %:    5.42144  MPKI: 0.09558
LLC RFO DATA	ACCESS:      58782  HIT:      39860  MISS:      18922  HIT %:    67.8099  MISS %:    32.1901  MPKI: 0.37844
LLC PREFETCH DATA	ACCESS:      90392  HIT:      76921  MISS:      13471  HIT %:    85.0971  MISS %:    14.9029  MPKI: 0.26942
LLC WRITEBACK DATA	ACCESS:      82215  HIT:      81812  MISS:        403  HIT %:    99.5098  MISS %:   0.490178  MPKI: 0.00806
LLC LOAD TRANSLATION DATA	ACCESS:       1938  HIT:       1829  MISS:        109  HIT %:    94.3756  MISS %:    5.62436  MPKI: 0.00218
LLC TRANSLATION FROM L1D PREFETCHER DATA	ACCESS:         46  HIT:         42  MISS:          4  HIT %:    91.3043  MISS %:    8.69565  MPKI: 8e-05

LLC AVERAGE MISS LATENCY: 161.158 cycles
LLC RQ	ACCESS:     429374	FORWARD:          0	MERGED:          0	TO_CACHE:     429367
LLC WQ	ACCESS:      82215	FORWARD:          7	MERGED:          0	TO_CACHE:      82215
LLC PQ	ACCESS:      90392	FORWARD:          0	MERGED:          0	TO_CACHE:      90392

LLC Dense regions hint to LLC: 0

RAW hits: 1688632
Loads Generated: 12450313
Loads sent to L1D: 10761681
Stores Generated: 6769986
Stores sent to L1D: 6770009
Major fault: 0 Minor fault: 2529
Allocated PAGES: 2529

stream: 
stream:times selected: 1483379
stream:pref_filled: 129551
stream:pref_useful: 30840
stream:pref_late: 10730
stream:misses: 13443
stream:misses_by_poll: 0

CS: 
CS:times selected: 233212
CS:pref_filled: 85586
CS:pref_useful: 60932
CS:pref_late: 11874
CS:misses: 29986
CS:misses_by_poll: 2

CPLX: 
CPLX:times selected: 1248121
CPLX:pref_filled: 29248
CPLX:pref_useful: 9440
CPLX:pref_late: 5268
CPLX:misses: 149923
CPLX:misses_by_poll: 1

NL_L1: 
NL:times selected: 28744
NL:pref_filled: 1910
NL:pref_useful: 930
NL:pref_late: 751
NL:misses: 3974
NL:misses_by_poll: 0

total selections: 2993456
total_filled: 110423
total_useful: 57561
total_late: 31975
total_polluted: 3
total_misses_after_warmup: 750079
conflicts: 5293361

test: 175581

DRAM Statistics
 CHANNEL 0
 RQ ROW_BUFFER_HIT:      13391  ROW_BUFFER_MISS:      25040
 DBUS_CONGESTED:         12
 WQ ROW_BUFFER_HIT:       2179  ROW_BUFFER_MISS:      18725  FULL:          0

 AVG_CONGESTED_CYCLE: 5

CPU 0 Branch Prediction Accuracy: 99.7504% MPKI: 0.4573 Average ROB Occupancy at Mispredict: 147.91
Branch types
NOT_BRANCH: 40838098 81.6762%
BRANCH_DIRECT_JUMP: 589577 1.17915%
BRANCH_INDIRECT: 172403 0.344806%
BRANCH_CONDITIONAL: 6307930 12.6159%
BRANCH_DIRECT_CALL: 886103 1.77221%
BRANCH_INDIRECT_CALL: 159736 0.319472%
BRANCH_RETURN: 1045839 2.09168%
BRANCH_OTHER: 0 0%

DRAM PAGES: 1048576
Allocated PAGES: 2529
Average_ROB_Occupancy: 142.778
Average_Decode_Occupancy: 17.8766
Average_FTQ_Occupancy: 7.93443
Indirect max targets: 14 Average targets: 1.14901
Branch_type:  BRANCH_DIRECT_JUMP:  Count Percentage: 9.64262 5.0962 4.6661 13.5033 5.22454 2.2454 1.96707 57.6548 
Branch_type:  BRANCH_INDIRECT:  Count Percentage: 5.52771 1.162 14.3352 25.1969 1.37866 16.586 1.78003 34.0335 
Branch_type:  BRANCH_CONDITIONAL:  Count Percentage: 26.4339 2.77985 2.9764 8.35979 2.38979 2.26326 2.16892 52.6281 
Branch_type:  BRANCH_DIRECT_CALL:  Count Percentage: 0.341337 1.29045 1.83381 4.84843 3.03075 2.1258 3.43734 83.0921 
Branch_type:  BRANCH_INDIRECT_CALL:  Count Percentage: 8.72641 0.835574 2.97789 10.165 0.000626133 3.89204 2.77158 70.6309 
Branch_type:  BRANCH_RETURN:  Count Percentage: 3.92467 0.647502 3.47117 9.94929 4.04037 3.69417 2.74145 71.5314 
Branch_type:  BRANCH_DIRECT_JUMP:  Total Count: 113531 60002 54938 158986 61513 26437 23160 678820 
Branch_type:  BRANCH_INDIRECT:  Total Count: 19033 4001 49359 86758 4747 57109 6129 117184 
Branch_type:  BRANCH_CONDITIONAL:  Total Count: 3333099 350517 375301 1054103 301334 285379 273484 6635990 
Branch_type:  BRANCH_DIRECT_CALL:  Total Count: 6052 22880 32514 85964 53736 37691 60945 1473246 
Branch_type:  BRANCH_INDIRECT_CALL:  Total Count: 27874 2669 9512 32469 2 12432 8853 225610 
Branch_type:  BRANCH_RETURN:  Total Count: 82154 13554 72661 208266 84576 77329 57386 1497348 
Number of unique branch instructions: 10145
Upper 32 bits: 
aaaa
ffff
ffff0000
Unique upper 32 bits: 3
Unique upper 36 bits: 3
Unique upper 40 bits: 5
Unique upper 44 bits: 32
Unique upper 48 bits: 157
Variant_0 : 1137 0.277588
Variant_1 : 2389 0.583252
Variant_2 : 0 0
Variant_3 : 0 0
Offset_3 4186
Offset_4 265
Offset_5 474
Offset_6 514
Offset_7 604
Offset_8 522
Offset_9 482
Offset_10 380
Offset_11 324
Offset_12 282
Offset_13 216
Offset_14 231
Offset_15 193
Offset_16 226
Offset_17 155
Offset_18 118
Offset_19 242
Offset_20 142
Offset_21 265
Offset_22 396
Offset_23 241
Offset_24 353
Offset_25 88
Offset_47 86
Offset_64 3
decode_dispatch_called: 20587530 48.4631
Dispatch_width: 0 10293513 49.9988 24.231
Dispatch_width: 1 595292 2.89152 1.40132
Dispatch_width: 2 685634 3.33034 1.61399
Dispatch_width: 3 426631 2.07228 1.00429
Dispatch_width: 4 2246032 10.9097 5.28717
Dispatch_width: 5 273333 1.32766 0.643427
Dispatch_width: 6 6067095 29.4698 14.282
Empty_decode_cycles: 21893275 51.5369
ROB_full_cycles: 3351389 7.88918
Starvation_cycles_per_kilo_instr: 330.623
Starvation_cycles_per_kilo_instr_3: 305.43
Starvation_cycles_per_kilo_instr_0: 288.354
Branch_type_1  (3,1)  (4,11)  (5,38)  (6,69)  (7,118)  (8,135)  (9,129)  (10,90)  (11,74)  (12,44)  (13,9)  (14,2)  (15,3)  (16,4)  (18,1)  (19,4)  (20,2)  (21,1)  (22,3)  (23,2)  (24,10)  (25,12) 
Branch_type_2  (3,1)  (5,1)  (8,2)  (9,3)  (12,1)  (13,1)  (14,1)  (16,3)  (17,2)  (20,2)  (21,2)  (23,5)  (24,1)  (47,40) 
Branch_type_3  (3,4184)  (4,254)  (5,431)  (6,430)  (7,453)  (8,324)  (9,264)  (10,156)  (11,132)  (12,54)  (13,8)  (64,3) 
Branch_type_4  (6,3)  (7,8)  (8,25)  (9,54)  (10,62)  (11,61)  (12,100)  (13,91)  (14,104)  (15,91)  (16,101)  (17,70)  (18,53)  (19,118)  (20,73)  (21,144)  (22,211)  (23,136)  (24,202)  (25,72) 
Branch_type_5  (8,2)  (9,1)  (10,4)  (11,5)  (12,3)  (13,14)  (14,16)  (15,11)  (16,20)  (17,11)  (18,16)  (19,13)  (20,11)  (21,13)  (22,42)  (23,26)  (24,41) 
Branch_type_6  (5,4)  (6,12)  (7,25)  (8,34)  (9,31)  (10,68)  (11,52)  (12,80)  (13,93)  (14,108)  (15,88)  (16,98)  (17,72)  (18,48)  (19,107)  (20,54)  (21,105)  (22,140)  (23,72)  (24,99)  (25,4)  (47,46) 
Unique trigger count: 
Variant_0_evicts_0 : 0
Variant_0_evicts_1 : 0
Variant_0_evicts_2 : 0
Variant_0_evicts_3 : 0
Variant_1_evicts_0 : 0
Variant_1_evicts_1 : 0
Variant_1_evicts_2 : 0
Variant_1_evicts_3 : 0
Variant_2_evicts_0 : 0
Variant_2_evicts_1 : 0
Variant_2_evicts_2 : 0
Variant_2_evicts_3 : 0
Variant_3_evicts_0 : 0
Variant_3_evicts_1 : 0
Variant_3_evicts_2 : 0
Variant_3_evicts_3 : 0
BTB PER SET UNIQUE ADDR: 4 8 7 4 3 4 8 10 10 2 5 2 8 5 5 4 7 5 7 8 4 8 7 10 8 12 1 7 6 5 10 10 6 3 8 5 4 8 8 4 8 5 6 10 9 7 6 11 11 7 7 3 13 3 4 8 5 5 9 9 4 11 5 8 6 11 8 7 5 7 6 2 6 4 6 7 6 14 5 4 9 7 9 6 7 8 7 9 8 10 10 8 9 6 6 4 10 8 4 7 8 7 8 9 4 8 7 8 8 6 6 4 5 7 7 11 3 5 6 2 9 9 4 2 6 4 5 6 9 5 11 3 11 3 8 5 5 2 6 8 7 8 6 7 3 10 4 9 10 6 6 11 6 10 4 8 6 8 6 10 9 6 9 5 9 5 3 5 14 5 5 3 8 6 3 2 5 7 8 4 6 6 9 7 6 11 5 6 7 10 5 7 6 6 6 10 10 3 10 5 4 6 9 3 8 4 5 7 6 2 3 5 9 9 5 6 3 8 9 6 6 2 6 6 5 8 13 7 2 10 14 10 5 2 7 9 10 6 4 5 5 3 9 8 14 9 2 6 5 5 7 9 6 7 5 11 4 6 9 5 8 5 7 4 9 14 6 4 7 5 7 6 4 9 10 10 5 4 4 8 7 5 10 5 10 9 7 8 9 4 6 7 4 12 6 5 6 11 6 6 6 7 4 4 7 7 6 4 11 10 6 4 8 3 6 4 9 14 7 4 6 12 5 7 5 5 6 8 4 2 7 2 6 7 10 5 6 6 7 1 5 6 2 9 5 6 3 6 8 5 4 9 8 7 8 6 7 3 7 5 6 10 6 8 11 8 4 3 4 4 8 4 6 5 7 4 11 7 6 10 9 6 7 11 6 5 7 5 5 4 10 5 8 4 7 3 6 7 2 8 6 4 7 5 5 6 9 5 5 3 3 4 9 4 2 5 9 4 3 6 2 6 6 8 10 7 4 2 4 7 4 4 14 4 8 11 6 6 6 4 4 6 8 4 6 8 4 7 6 3 6 4 5 3 9 4 5 8 10 5 5 4 6 10 5 5 11 3 6 7 2 6 9 7 5 3 9 5 2 3 5 4 4 4 3 7 10 4 6 2 10 5 4 9 2 14 4 7 5 5 11 3 3 3 2 5 5 3 3 7 7 4 4 9 3 3 2 12 7 10 6 5 8 3 10 11 4 9 10 7 6 6 4 9 4 8 5 1 6 4 5 9 8 4 8 5 10 12 12 12 5 8 7 8 2 6 9 3 6 3 11 5 8 6 6 5 9 7 11 6 9 3 9 12 8 7 6 11 5 8 13 6 1 6 4 3 3 13 8 6 8 9 3 5 3 5 7 6 5 5 9 5 9 10 7 7 5 9 7 6 10 6 7 5 8 5 7 5 5 8 8 5 9 4 5 10 7 8 3 5 8 7 6 6 7 4 5 4 5 3 10 9 5 6 3 3 6 6 9 7 9 4 11 4 6 1 9 5 6 8 11 3 6 11 7 8 7 6 5 11 7 6 6 8 11 9 7 6 7 6 7 11 9 7 7 8 7 8 8 7 3 7 2 4 4 8 10 8 7 8 3 12 5 5 6 10 4 4 5 5 6 7 5 5 5 7 9 5 1 8 4 3 6 3 4 1 3 9 3 12 7 10 7 2 6 7 6 3 6 4 4 8 5 10 4 3 5 3 5 6 6 3 5 5 2 5 4 10 9 4 5 6 6 8 7 6 14 5 5 5 9 6 0 7 8 5 6 10 3 4 7 5 4 6 11 9 9 5 4 9 4 11 5 6 5 12 11 4 5 4 12 4 8 3 7 6 7 8 4 6 4 4 7 3 4 6 1 6 5 9 6 4 10 3 5 2 5 3 6 7 8 3 7 4 11 5 5 4 6 5 6 4 7 6 4 10 8 5 7 5 8 7 7 9 6 10 7 4 9 4 8 6 4 4 14 5 6 8 9 8 5 6 6 10 6 2 2 4 8 4 5 6 6 6 9 5 6 4 4 7 8 4 5 8 6 4 10 10 3 4 13 8 6 5 7 6 5 10 6 9 10 6 4 3 1 6 4 4 8 6 9 8 8 6 8 8 7 4 5 12 5 4 11 10 5 8 10 11 2 8 8 8 5 4 6 7 10 6 7 3 9 3 13 7 3 5 9 12 5 9 5 7 10 6 4 9 9 8 9 3 2 5 4 8 10 5 8 4 4 7 12 5 5 6 5 6 4 5 8 6 8 8 7 11 5 10 6 11 5 5 3 6 7 5 7 7 7 6 6 5 9 4 9 5 9 5 9 4 3 7 9 6 13 4 
BTB PER SET COUNT: 4 10 10 5 3 4 16 1370 3784 9 5 2 2010 5 5 5 7 7 46 2237 4 11 9 1349 4419 3422 1 7 1300 6 5223 837 132 4 10 10 2724 8 11 4 38 5 6 2142 1767 8 6 3006 3347 10 7 5 7876 3 10 1011 10 6 707 798 4 4070 7 24 6 968 386 23 8 520 518 2 9 4 6 8 366 5880 5 4 669 8 738 8 362 23 9 40 6220 1217 1977 383 1508 9 12 6 1958 10 4 8 21 9 10 2310 4 47 8 1442 1443 29 7 6 5 9 7 4778 4 6 6 10 14 37 6 2 420 5 6 6 6113 6 2506 4 6197 3 2035 6 5 2 8 1304 7 14 7 9 3 607 4 13 2293 1688 7 5061 6 7291 5 703 6 1311 6 3070 4395 7 2330 5 932 2257 3 6 8045 7 5 3 28 90 3 2 5 372 1400 4 7 6 3991 7 6 5105 7 10 2078 36 5 1359 8 6 6 62 724 3 27 5 5 6 11 3 10 4 5 3103 7 2 3 7 408 23 7 9 6 9 20 6 6 2 8 6 5 1337 5367 2479 3 2883 6656 1635 5 8 21 1718 2234 6 4 5 5 3 6077 9 5925 1434 2 8 5 5 10 2370 7 8 6 2114 6 6 2082 7 1589 5 11 4 1815 5811 697 4 1688 5 2618 20 5 1575 717 720 7 6 6 3271 19 5 1587 6 2464 3675 7 374 29 4 8 101 345 3255 2299 18 14 4773 7 6 8 30 4 11 205 22 16 5 4647 2538 8 4 2070 4 6 6 1163 4531 1377 5 7 1052 6 7 14 5 10 903 5 2 2543 2 7 8 4604 6 2009 6 7 1 7 9 2 2809 1339 472 4 8 292 8 4 640 8 1129 8 11 11 3 1568 61 7 618 6 1276 771 889 6 4 5 4 12 4 12 6 25 6 4318 7 6 2425 3265 1341 7 5182 8 5 13 183 5 5 1048 6 1686 6 13 4 1050 3033 3 14 6 4 1004 5 612 7 2261 7 5 1992 3 7 413 4 1026 5 145 8 16 1043 2 8 8 18 705 44 11 2 4 15 94 6 5968 4 1245 4497 8 6 6 5 7 6 1103 6 9 33 6 1375 7 3 6 4 7 4 1122 5 11 14 452 6 677 24 21 53 37 5 3518 3 22 9 2 25 1513 411 137 3 23755 6 2 4 5 9 26 341 4 188 1251 515 7 2 1076 5 5 859 2 4078 12 30 5 5 3309 17 3 3 2 5 5 3 5 13 17 4 4 32 3 3 2 9493 12 680 7 1093 21 3 34 1431 4 770 1036 26 7 6 4 22 4 839 6 1 25 4 5 3147 20 10 33 7 70 1692 4076 8780 6 2800 9 15 2 6 1612 3 6 3 3869 7 1370 9 6 5 1005 13 3212 6 2376 4 2077 4776 1038 1016 6 3729 12 1040 7565 376 1 1053 1095 3 6 6445 18 6 1155 3117 4 696 694 8 10 7 5 5 1434 13 3557 1792 7 4295 5 2019 8 12 5066 8 9 8 8 6 1795 5 5 46 12 710 3319 1671 1474 1291 33 956 3 5 3034 1095 7 11 8 4 6 4 5 3 6329 1536 7 6 3 21 6 10 705 10 981 4 7494 4 9 2 686 5 2343 3510 13450 4 6 5001 7 1687 2226 1341 27 1388 829 7 10 9 6752 2992 346 8 1012 7 8 4954 31 1341 12885 1701 37 3111 1124 22 4 1562 2 7 4 355 6106 8 10 158 3 3547 5 5 6 3680 4 1093 6 1093 241 10 8 5 1339 7 1406 5 1 1327 5 4 7 3 4 1 3 13 3 5369 1017 2689 699 2 9 7 8 5 6 5 10 622 8 5734 4 4 825 3 5 680 54 5 5 7 2 6 4 1387 4481 695 5 7 701 380 2091 6 6952 6 7 5 1339 6 0 226 9 1503 6 4508 3 4 1012 6 4 8 3354 1261 1317 9 961 818 6 1777 5 6 8 5966 2367 4 5 4 3175 6 9 4 2698 1959 9 15 4 8 4 6 7 372 5 6 4 6 5 1564 12 4 368 3 5 2 696 3 1009 101 528 4 350 4 5635 7 15 4 6 5 290 4 7 1054 4 24 344 5 12 9 4197 1045 10 10 6 7694 36 5 1024 6 41 6 4 6 4919 706 14 1655 3888 10 5 6 6 889 6 2 5 4 9 4 5 7 9 6 1928 9 1343 4 4 11 12 4 7 36 6 9 31 2848 3 5 7185 1295 81 116 550 9 5 2417 7 240 2116 6 5 3 1 6 4 676 4966 2672 45 460 684 12 787 1265 11 5 5 849 6 357 2820 1483 6 769 3593 2143 2 4094 27 8 5 695 19 1046 97 187 10 4 582 3 5041 11 4 5 1476 8200 5 2906 5 418 4741 6 4 757 50 521 51 3 2 6 6 508 3414 9 708 5 4 8 1984 8 360 10 9 6 4 8 25 6 1067 9 3003 3056 7 3143 6 5704 5 40 3 6 33 6 10 8 1344 21 9 7 3341 6 5452 256 1043 6 707 6 3 9 1069 9 3668 6 
To predecode: 0
Predecoding something: 0
Predecode request dropped: 0
sizeofblock_0 0
sizeofblock_1 197969
sizeofblock_2 286528
sizeofblock_3 0
sizeofblock_4 0
sizeofblock_5 0
sizeofblock_6 0
sizeofblock_7 0
sizeofblock_8 0
Variant_0 Correct: 0 Incorrect: 0 Accuracy: -nan
Variant_1 Correct: 0 Incorrect: 0 Accuracy: -nan
Variant_2 Correct: 0 Incorrect: 0 Accuracy: -nan
Variant_3 Correct: 0 Incorrect: 0 Accuracy: -nan
