
*** ChampSim Multicore Out-of-Order Simulator ***

Warmup Instructions: 50000000
Simulation Instructions: 50000000
Number of CPUs: 1
LLC sets: 2048
LLC ways: 16
Off-chip DRAM Size: 4096 MB Channels: 1 Width: 64-bit Data Rate: 6400 MT/s
CPU 0 runs ./micro_traces/srv274.trace.gz
.gz
ITLB has LRU replacement policy
DTLB has LRU replacement policy
STLB has LRU replacement policy
L1I has LRU replacement policy
L1D has LRU replacement policy
Initialize SRRIP state for L2C
Initialize DRRIP state for LLC
Heartbeat_Variant_0 : 1296 0.316406 per_variant_size: 0 1296 0 0 0 0 0 0 0 
Heartbeat_Variant_1 : 1191 0.290771 per_variant_size: 0 596 595 0 0 0 0 0 0 
Heartbeat_Variant_2 : 1277 0.311768 per_variant_size: 0 544 334 228 171 0 0 0 0 
Heartbeat_Variant_3 : 0 0 per_variant_size: 0 0 0 0 0 0 0 0 0 
Heartbeat_Variant_0_evicts 0 : 5749 1 : 159 2 : 195 3 : 0 
Heartbeat_Variant_1_evicts 0 : 151 1 : 0 2 : 350 3 : 0 
Heartbeat_Variant_2_evicts 0 : 175 1 : 352 2 : 0 3 : 0 
Heartbeat_Variant_3_evicts 0 : 0 1 : 0 2 : 0 3 : 0 
Heartbeat CPU 0 instructions: 10000001 cycles: 2797299 heartbeat IPC: 3.57488 cumulative IPC: 3.57488 (Simulation time: 0 hr 1 min 23 sec) 
Heartbeat_Variant_0 : 1326 0.32373 per_variant_size: 0 1326 0 0 0 0 0 0 0 
Heartbeat_Variant_1 : 1219 0.297607 per_variant_size: 0 597 622 0 0 0 0 0 0 
Heartbeat_Variant_2 : 1304 0.318359 per_variant_size: 0 523 352 247 182 0 0 0 0 
Heartbeat_Variant_3 : 0 0 per_variant_size: 0 0 0 0 0 0 0 0 0 
Heartbeat_Variant_0_evicts 0 : 5651 1 : 71 2 : 55 3 : 0 
Heartbeat_Variant_1_evicts 0 : 59 1 : 0 2 : 280 3 : 0 
Heartbeat_Variant_2_evicts 0 : 60 1 : 270 2 : 0 3 : 0 
Heartbeat_Variant_3_evicts 0 : 0 1 : 0 2 : 0 3 : 0 
Heartbeat CPU 0 instructions: 20000000 cycles: 5593739 heartbeat IPC: 3.57597 cumulative IPC: 3.57543 (Simulation time: 0 hr 2 min 43 sec) 
Heartbeat_Variant_0 : 1355 0.330811 per_variant_size: 0 1355 0 0 0 0 0 0 0 
Heartbeat_Variant_1 : 1244 0.303711 per_variant_size: 0 595 649 0 0 0 0 0 0 
Heartbeat_Variant_2 : 1331 0.324951 per_variant_size: 0 534 347 252 198 0 0 0 0 
Heartbeat_Variant_3 : 0 0 per_variant_size: 0 0 0 0 0 0 0 0 0 
Heartbeat_Variant_0_evicts 0 : 5646 1 : 104 2 : 102 3 : 0 
Heartbeat_Variant_1_evicts 0 : 90 1 : 0 2 : 299 3 : 0 
Heartbeat_Variant_2_evicts 0 : 109 1 : 295 2 : 0 3 : 0 
Heartbeat_Variant_3_evicts 0 : 0 1 : 0 2 : 0 3 : 0 
Heartbeat CPU 0 instructions: 30000002 cycles: 8391156 heartbeat IPC: 3.57473 cumulative IPC: 3.57519 (Simulation time: 0 hr 4 min 2 sec) 
Heartbeat_Variant_0 : 1358 0.331543 per_variant_size: 0 1358 0 0 0 0 0 0 0 
Heartbeat_Variant_1 : 1254 0.306152 per_variant_size: 0 612 642 0 0 0 0 0 0 
Heartbeat_Variant_2 : 1333 0.325439 per_variant_size: 0 540 342 249 202 0 0 0 0 
Heartbeat_Variant_3 : 0 0 per_variant_size: 0 0 0 0 0 0 0 0 0 
Heartbeat_Variant_0_evicts 0 : 5542 1 : 44 2 : 51 3 : 0 
Heartbeat_Variant_1_evicts 0 : 51 1 : 0 2 : 233 3 : 0 
Heartbeat_Variant_2_evicts 0 : 47 1 : 232 2 : 0 3 : 0 
Heartbeat_Variant_3_evicts 0 : 0 1 : 0 2 : 0 3 : 0 
Heartbeat CPU 0 instructions: 40000002 cycles: 11188237 heartbeat IPC: 3.57516 cumulative IPC: 3.57518 (Simulation time: 0 hr 5 min 20 sec) 
Heartbeat_Variant_0 : 1362 0.33252 per_variant_size: 0 1362 0 0 0 0 0 0 0 
Heartbeat_Variant_1 : 1259 0.307373 per_variant_size: 0 618 641 0 0 0 0 0 0 
Heartbeat_Variant_2 : 1344 0.328125 per_variant_size: 0 535 360 253 196 0 0 0 0 
Heartbeat_Variant_3 : 0 0 per_variant_size: 0 0 0 0 0 0 0 0 0 
Heartbeat_Variant_0_evicts 0 : 5687 1 : 72 2 : 79 3 : 0 
Heartbeat_Variant_1_evicts 0 : 73 1 : 0 2 : 263 3 : 0 
Heartbeat_Variant_2_evicts 0 : 79 1 : 268 2 : 0 3 : 0 
Heartbeat_Variant_3_evicts 0 : 0 1 : 0 2 : 0 3 : 0 
Heartbeat CPU 0 instructions: 50000000 cycles: 13985614 heartbeat IPC: 3.57478 cumulative IPC: 3.5751 (Simulation time: 0 hr 6 min 35 sec) 

Warmup complete CPU 0 instructions: 50000004 cycles: 13985615 (Simulation time: 0 hr 6 min 35 sec) 

Cycle: 20000000 FTQ IN: 55234170 FTQ occupancy: 15.7304 DECODE IN: 55234170 DECODE occupancy: 9.46644 ROB IN: 55234158 ROB occupancy: 258.228 ROB OUT: 55234131
Heartbeat_Variant_0 : 1363 0.332764 per_variant_size: 0 1363 0 0 0 0 0 0 0 
Heartbeat_Variant_1 : 1265 0.308838 per_variant_size: 0 631 634 0 0 0 0 0 0 
Heartbeat_Variant_2 : 1341 0.327393 per_variant_size: 0 529 362 256 194 0 0 0 0 
Heartbeat_Variant_3 : 0 0 per_variant_size: 0 0 0 0 0 0 0 0 0 
Heartbeat_Variant_0_evicts 0 : 5445 1 : 14 2 : 13 3 : 0 
Heartbeat_Variant_1_evicts 0 : 18 1 : 0 2 : 207 3 : 0 
Heartbeat_Variant_2_evicts 0 : 9 1 : 205 2 : 0 3 : 0 
Heartbeat_Variant_3_evicts 0 : 0 1 : 0 2 : 0 3 : 0 
Heartbeat CPU 0 instructions: 60000003 cycles: 25489288 heartbeat IPC: 0.869288 cumulative IPC: 0.869287 (Simulation time: 0 hr 7 min 48 sec) 
Cycle: 30000000 FTQ IN: 8599148 FTQ occupancy: 14.4336 DECODE IN: 8599134 DECODE occupancy: 4.80494 ROB IN: 8599140 ROB occupancy: 51.831 ROB OUT: 8599159
Heartbeat_Variant_0 : 1364 0.333008 per_variant_size: 0 1364 0 0 0 0 0 0 0 
Heartbeat_Variant_1 : 1270 0.310059 per_variant_size: 0 615 655 0 0 0 0 0 0 
Heartbeat_Variant_2 : 1348 0.329102 per_variant_size: 0 535 358 260 195 0 0 0 0 
Heartbeat_Variant_3 : 0 0 per_variant_size: 0 0 0 0 0 0 0 0 0 
Heartbeat_Variant_0_evicts 0 : 5604 1 : 21 2 : 28 3 : 0 
Heartbeat_Variant_1_evicts 0 : 21 1 : 0 2 : 232 3 : 0 
Heartbeat_Variant_2_evicts 0 : 31 1 : 230 2 : 0 3 : 0 
Heartbeat_Variant_3_evicts 0 : 0 1 : 0 2 : 0 3 : 0 
Heartbeat CPU 0 instructions: 70000000 cycles: 37022425 heartbeat IPC: 0.867067 cumulative IPC: 0.868176 (Simulation time: 0 hr 9 min 1 sec) 
Cycle: 40000000 FTQ IN: 8788096 FTQ occupancy: 14.3956 DECODE IN: 8788092 DECODE occupancy: 4.81664 ROB IN: 8788096 ROB occupancy: 50.9786 ROB OUT: 8787982
Heartbeat_Variant_0 : 1373 0.335205 per_variant_size: 0 1373 0 0 0 0 0 0 0 
Heartbeat_Variant_1 : 1268 0.30957 per_variant_size: 0 621 647 0 0 0 0 0 0 
Heartbeat_Variant_2 : 1360 0.332031 per_variant_size: 0 548 360 256 196 0 0 0 0 
Heartbeat_Variant_3 : 0 0 per_variant_size: 0 0 0 0 0 0 0 0 0 
Heartbeat_Variant_0_evicts 0 : 5827 1 : 108 2 : 96 3 : 0 
Heartbeat_Variant_1_evicts 0 : 110 1 : 0 2 : 282 3 : 0 
Heartbeat_Variant_2_evicts 0 : 88 1 : 294 2 : 0 3 : 0 
Heartbeat_Variant_3_evicts 0 : 0 1 : 0 2 : 0 3 : 0 
Heartbeat CPU 0 instructions: 80000003 cycles: 48481762 heartbeat IPC: 0.872651 cumulative IPC: 0.869662 (Simulation time: 0 hr 10 min 16 sec) 
Cycle: 50000000 FTQ IN: 8610930 FTQ occupancy: 14.3966 DECODE IN: 8610948 DECODE occupancy: 4.79541 ROB IN: 8610947 ROB occupancy: 51.6545 ROB OUT: 8611066
Cycle: 60000000 FTQ IN: 8547896 FTQ occupancy: 14.2184 DECODE IN: 8547882 DECODE occupancy: 4.71311 ROB IN: 8547873 ROB occupancy: 49.8901 ROB OUT: 8547847
Heartbeat_Variant_0 : 1391 0.3396 per_variant_size: 0 1391 0 0 0 0 0 0 0 
Heartbeat_Variant_1 : 1317 0.321533 per_variant_size: 0 614 703 0 0 0 0 0 0 
Heartbeat_Variant_2 : 1351 0.329834 per_variant_size: 0 509 356 287 199 0 0 0 0 
Heartbeat_Variant_3 : 0 0 per_variant_size: 0 0 0 0 0 0 0 0 0 
Heartbeat_Variant_0_evicts 0 : 5940 1 : 374 2 : 395 3 : 0 
Heartbeat_Variant_1_evicts 0 : 378 1 : 0 2 : 543 3 : 0 
Heartbeat_Variant_2_evicts 0 : 387 1 : 518 2 : 0 3 : 0 
Heartbeat_Variant_3_evicts 0 : 0 1 : 0 2 : 0 3 : 0 
Heartbeat CPU 0 instructions: 90000000 cycles: 60257084 heartbeat IPC: 0.849233 cumulative IPC: 0.864464 (Simulation time: 0 hr 11 min 27 sec) 
Cycle: 70000000 FTQ IN: 8729339 FTQ occupancy: 14.3715 DECODE IN: 8729352 DECODE occupancy: 4.79967 ROB IN: 8729364 ROB occupancy: 50.0982 ROB OUT: 8729372
Heartbeat_Variant_0 : 1395 0.340576 per_variant_size: 0 1395 0 0 0 0 0 0 0 
Heartbeat_Variant_1 : 1307 0.319092 per_variant_size: 0 599 708 0 0 0 0 0 0 
Heartbeat_Variant_2 : 1361 0.332275 per_variant_size: 0 517 366 273 205 0 0 0 0 
Heartbeat_Variant_3 : 0 0 per_variant_size: 0 0 0 0 0 0 0 0 0 
Heartbeat_Variant_0_evicts 0 : 5729 1 : 112 2 : 126 3 : 0 
Heartbeat_Variant_1_evicts 0 : 114 1 : 0 2 : 293 3 : 0 
Heartbeat_Variant_2_evicts 0 : 120 1 : 306 2 : 0 3 : 0 
Heartbeat_Variant_3_evicts 0 : 0 1 : 0 2 : 0 3 : 0 
Heartbeat CPU 0 instructions: 100000003 cycles: 71713557 heartbeat IPC: 0.872869 cumulative IPC: 0.866132 (Simulation time: 0 hr 12 min 43 sec) 
Finished CPU 0 instructions: 50000003 cycles: 57727943 cumulative IPC: 0.866132 (Simulation time: 0 hr 12 min 43 sec) 

ChampSim completed all CPUs

Region of Interest Statistics

CPU 0 cumulative IPC: 0.866132 instructions: 50000003 cycles: 57727943
 Fetch stage stalled: 32.9311  Sim cycles: 57727943 fetch stall cycle: 19010448
 Empty decode stage: 69.7328  Sim cycles: 57727943 fetch stall cycle: 40255297
ITLB TOTAL     ACCESS:    7305202  HIT:    6808908  MISS:     496294  HIT %:    93.2063  MISS %:    6.79371   MPKI: 9.92588
ITLB LOAD TRANSLATION INSTRUCTION	ACCESS:    7305202  HIT:    6808908  MISS:     496294  HIT %:    93.2063  MISS %:    6.79371  MPKI: 9.92588

ITLB AVERAGE MISS LATENCY: 9.04844 cycles
ITLB RQ	ACCESS:    8436056	FORWARD:          0	MERGED:     929954	TO_CACHE:    7506102

DTLB TOTAL     ACCESS:   10407633  HIT:    9931516  MISS:     476117  HIT %:    95.4253  MISS %:    4.57469   MPKI: 9.52234
DTLB LOAD TRANSLATION DATA	ACCESS:   10407633  HIT:    9931516  MISS:     476117  HIT %:    95.4253  MISS %:    4.57469  MPKI: 9.52234

DTLB AVERAGE MISS LATENCY: 9.31532 cycles
DTLB RQ	ACCESS:   14510631	FORWARD:          0	MERGED:    4073717	TO_CACHE:   10436914

STLB TOTAL     ACCESS:    1229856  HIT:    1227795  MISS:       2061  HIT %:    99.8324  MISS %:   0.167581   MPKI: 0.04122
STLB LOAD TRANSLATION INSTRUCTION	ACCESS:     496294  HIT:     496043  MISS:        251  HIT %:    99.9494  MISS %:  0.0505749  MPKI: 0.00502
STLB LOAD TRANSLATION DATA	ACCESS:     476113  HIT:     474329  MISS:       1784  HIT %:    99.6253  MISS %:   0.374701  MPKI: 0.03568
STLB TRANSLATION FROM L1D PREFETCHER DATA	ACCESS:     257449  HIT:     257423  MISS:         26  HIT %:    99.9899  MISS %:  0.0100991  MPKI: 0.00052

STLB AVERAGE MISS LATENCY: 73.5915 cycles
STLB RQ	ACCESS:    1347068	FORWARD:          0	MERGED:     117171	TO_CACHE:    1229897

STLB Hit, L1D data hit: 0
STLB Hit, L2C data hit: 0
STLB Hit, LLC data hit: 0
STLB Hit, LLC data miss: 0
STLB STLB hints to L2: 0
L1D TOTAL     ACCESS:   14303263  HIT:   13182702  MISS:    1120561  HIT %:    92.1657  MISS %:     7.8343   MPKI: 22.4112
L1D LOAD DATA	ACCESS:    7639649  HIT:    6901829  MISS:     737820  HIT %:    90.3422  MISS %:    9.65777  MPKI: 14.7564
L1D RFO DATA	ACCESS:    6330553  HIT:    6042480  MISS:     288073  HIT %:    95.4495  MISS %:    4.55052  MPKI: 5.76146
L1D PREFETCH DATA	ACCESS:     333061  HIT:     238393  MISS:      94668  HIT %:    71.5764  MISS %:    28.4236  MPKI: 1.89336

L1D PREFETCH  REQUESTED:     749428  ISSUED:     749428  USEFUL:      35842  USELESS:      67484
L1D USEFUL LOAD PREFETCHES:      35842 PREFETCH ISSUED TO LOWER LEVEL:     103413  ACCURACY: 34.6591
 TIMELY PREFETCHES:      35842 LATE PREFETCHES: 8663 DROPPED PREFETCHES: 6
L1D AVERAGE MISS LATENCY: 329406 cycles
L1D RQ	ACCESS:   11450734	FORWARD:          0	MERGED:    3626216	TO_CACHE:    7674271
L1D WQ	ACCESS:    6952233	FORWARD:     150363	MERGED:     115873	TO_CACHE:    6836360
L1D PQ	ACCESS:     374772	FORWARD:          0	MERGED:          0	TO_CACHE:     374656

L1D UNIQUE REGIONS ACCESSED: 0
L1D REGIONS CONFLICTS: 0
L1D Cross Page Prefetch Requests: 6534
L1D Same Page Prefetch Requests: 752398
L1D ROI Sum of L1D PQ occupancy: 4775903
L1D PREFETCHES PUSHED FROM L2C: 0
L1I TOTAL     ACCESS:    7897683  HIT:    5124892  MISS:    2772791  HIT %:    64.8911  MISS %:    35.1089   MPKI: 55.4558
L1I LOAD INSTRUCTION	ACCESS:    7897683  HIT:    5124892  MISS:    2772791  HIT %:    64.8911  MISS %:    35.1089  MPKI: 55.4558

L1I AVERAGE MISS LATENCY: 17.0562 cycles
L1I RQ	ACCESS:   15412029	FORWARD:          0	MERGED:    6975973	TO_CACHE:    8436056

L1BTB TOTAL     ACCESS:    5671088  HIT:    2033381  MISS:    3637707  HIT %:    35.8552  MISS %:    64.1448   MPKI: 72.7541
L1BTB BRANCH_DIRECT_JUMP	ACCESS:     548828  HIT:     144096  MISS:     404732	AVERAGE STALL: 22.2938
L1BTB BRANCH_INDIRECT	ACCESS:     182711  HIT:      65796  MISS:     116915	AVERAGE STALL: 48.7691
L1BTB BRANCH_CONDITIONAL	ACCESS:    2703620  HIT:    1407445  MISS:    1296175	AVERAGE STALL: 28.5578
L1BTB BRANCH_DIRECT_CALL	ACCESS:     946148  HIT:     105326  MISS:     840822	AVERAGE STALL: 36.9856
L1BTB BRANCH_INDIRECT_CALL	ACCESS:     171813  HIT:      21108  MISS:     150705	AVERAGE STALL: 64.9723
L1BTB BRANCH_RETURN	ACCESS:    1117968  HIT:     289610  MISS:     828358	AVERAGE STALL: 33.4371
L1BTB BRANCH_OTHER ACCESS:          0  HIT:          0  MISS:          0	AVERAGE STALL: -nan
L1BTB TOTAL ROB OCCUPANCY AT BTB MISS: 0.596248

L2BTB TOTAL     ACCESS:    3612361  HIT:    3542807  MISS:      69554  HIT %:    98.0746  MISS %:    1.92544   MPKI: 1.39108
L2BTB BRANCH_DIRECT_JUMP	ACCESS:     400617  HIT:     395952  MISS:       4665	AVERAGE STALL: 22.2938
L2BTB BRANCH_INDIRECT	ACCESS:     106582  HIT:     103878  MISS:       2704	AVERAGE STALL: 48.7691
L2BTB BRANCH_CONDITIONAL	ACCESS:    1296175  HIT:    1290168  MISS:       6007	AVERAGE STALL: 28.5578
L2BTB BRANCH_DIRECT_CALL	ACCESS:     840822  HIT:     838456  MISS:       2366	AVERAGE STALL: 36.9856
L2BTB BRANCH_INDIRECT_CALL	ACCESS:     141223  HIT:     130915  MISS:      10308	AVERAGE STALL: 64.9723
L2BTB BRANCH_RETURN	ACCESS:     826942  HIT:     783438  MISS:      43504	AVERAGE STALL: 33.4371
L2BTB BRANCH_OTHER ACCESS:          0  HIT:          0  MISS:          0	AVERAGE STALL: -nan
L2BTB TOTAL ROB OCCUPANCY AT BTB MISS: 31.184

L2C TOTAL     ACCESS:    4509864  HIT:    4015797  MISS:     494067  HIT %:    89.0447  MISS %:    10.9553   MPKI: 9.88134
L2C LOAD INSTRUCTION	ACCESS:    2772790  HIT:    2508432  MISS:     264358  HIT %:     90.466  MISS %:    9.53401  MPKI: 5.28716
L2C LOAD TRANSLATION INSTRUCTION	ACCESS:        289  HIT:        105  MISS:        184  HIT %:    36.3322  MISS %:    63.6678  MPKI: 0.00368
L2C LOAD DATA	ACCESS:     729151  HIT:     647787  MISS:      81364  HIT %:    88.8413  MISS %:    11.1587  MPKI: 1.62728
L2C RFO DATA	ACCESS:     287973  HIT:     232952  MISS:      55021  HIT %:    80.8937  MISS %:    19.1063  MPKI: 1.10042
L2C PREFETCH DATA	ACCESS:     194705  HIT:     119941  MISS:      74764  HIT %:    61.6014  MISS %:    38.3986  MPKI: 1.49528
L2C WRITEBACK DATA	ACCESS:     523046  HIT:     506007  MISS:      17039  HIT %:    96.7424  MISS %:    3.25765  MPKI: 0.34078
L2C LOAD TRANSLATION DATA	ACCESS:       1859  HIT:        543  MISS:       1316  HIT %:    29.2093  MISS %:    70.7907  MPKI: 0.02632
L2C TRANSLATION FROM L1D PREFETCHER DATA	ACCESS:         51  HIT:         30  MISS:         21  HIT %:    58.8235  MISS %:    41.1765  MPKI: 0.00042

L2C PREFETCH  REQUESTED:      98766  ISSUED:      98766  USEFUL:       9318  USELESS:      65906
L2C USEFUL LOAD PREFETCHES:       9318 PREFETCH ISSUED TO LOWER LEVEL:      75128  ACCURACY: 12.4028
 TIMELY PREFETCHES:       9318 LATE PREFETCHES: 364 DROPPED PREFETCHES: 0
L2C AVERAGE MISS LATENCY: 38.0929 cycles
L2C RQ	ACCESS:    3792137	FORWARD:          0	MERGED:          0	TO_CACHE:    3792114
L2C WQ	ACCESS:     523046	FORWARD:         23	MERGED:          0	TO_CACHE:     523046
L2C PQ	ACCESS:     202179	FORWARD:          0	MERGED:       3950	TO_CACHE:     198229

L2C Dense regions hint from L2: 0
PSCL5 TOTAL     ACCESS:       4146  HIT:       2073  MISS:       2073  HIT %:         50  MISS %:         50   MPKI: 0.04146
PSCL5 LOAD TRANSLATION INSTRUCTION	ACCESS:       4044  HIT:       2022  MISS:       2022  HIT %:         50  MISS %:         50  MPKI: 0.04044
PSCL5 TRANSLATION FROM L1D PREFETCHER INSTRUCTION	ACCESS:        102  HIT:         51  MISS:         51  HIT %:         50  MISS %:         50  MPKI: 0.00102


PSCL4 TOTAL     ACCESS:       3955  HIT:       1972  MISS:       1983  HIT %:    49.8609  MISS %:    50.1391   MPKI: 0.03966
PSCL4 LOAD TRANSLATION INSTRUCTION	ACCESS:       3143  HIT:       1922  MISS:       1221  HIT %:    61.1518  MISS %:    38.8482  MPKI: 0.02442
PSCL4 TRANSLATION FROM L1D PREFETCHER INSTRUCTION	ACCESS:         86  HIT:         50  MISS:         36  HIT %:    58.1395  MISS %:    41.8605  MPKI: 0.00072
PSCL4 LOAD TRANSLATION DATA	ACCESS:        712  HIT:          0  MISS:        712  HIT %:          0  MISS %:        100  MPKI: 0.01424
PSCL4 TRANSLATION FROM L1D PREFETCHER DATA	ACCESS:         14  HIT:          0  MISS:         14  HIT %:          0  MISS %:        100  MPKI: 0.00028


PSCL3 TOTAL     ACCESS:       4047  HIT:       2018  MISS:       2029  HIT %:    49.8641  MISS %:    50.1359   MPKI: 0.04058
PSCL3 LOAD TRANSLATION INSTRUCTION	ACCESS:       3189  HIT:       1968  MISS:       1221  HIT %:    61.7121  MISS %:    38.2879  MPKI: 0.02442
PSCL3 TRANSLATION FROM L1D PREFETCHER INSTRUCTION	ACCESS:         86  HIT:         50  MISS:         36  HIT %:    58.1395  MISS %:    41.8605  MPKI: 0.00072
PSCL3 LOAD TRANSLATION DATA	ACCESS:        758  HIT:          0  MISS:        758  HIT %:          0  MISS %:        100  MPKI: 0.01516
PSCL3 TRANSLATION FROM L1D PREFETCHER DATA	ACCESS:         14  HIT:          0  MISS:         14  HIT %:          0  MISS %:        100  MPKI: 0.00028


PSCL2 TOTAL     ACCESS:       4039  HIT:       1966  MISS:       2073  HIT %:    48.6754  MISS %:    51.3246   MPKI: 0.04146
PSCL2 LOAD TRANSLATION INSTRUCTION	ACCESS:       2175  HIT:       1915  MISS:        260  HIT %:     88.046  MISS %:     11.954  MPKI: 0.0052
PSCL2 TRANSLATION FROM L1D PREFETCHER INSTRUCTION	ACCESS:         51  HIT:         51  MISS:          0  HIT %:        100  MISS %:          0  MPKI: 0
PSCL2 LOAD TRANSLATION DATA	ACCESS:       1762  HIT:          0  MISS:       1762  HIT %:          0  MISS %:        100  MPKI: 0.03524
PSCL2 TRANSLATION FROM L1D PREFETCHER DATA	ACCESS:         51  HIT:          0  MISS:         51  HIT %:          0  MISS %:        100  MPKI: 0.00102


LLC TOTAL     ACCESS:     559463  HIT:     530537  MISS:      28926  HIT %:    94.8297  MISS %:    5.17032   MPKI: 0.57852
LLC LOAD INSTRUCTION	ACCESS:     264358  HIT:     263074  MISS:       1284  HIT %:    99.5143  MISS %:   0.485705  MPKI: 0.02568
LLC LOAD TRANSLATION INSTRUCTION	ACCESS:        184  HIT:        149  MISS:         35  HIT %:    80.9783  MISS %:    19.0217  MPKI: 0.0007
LLC LOAD DATA	ACCESS:      81019  HIT:      77203  MISS:       3816  HIT %:      95.29  MISS %:    4.71001  MPKI: 0.07632
LLC RFO DATA	ACCESS:      54998  HIT:      41512  MISS:      13486  HIT %:    75.4791  MISS %:    24.5209  MPKI: 0.26972
LLC PREFETCH DATA	ACCESS:      75128  HIT:      65264  MISS:       9864  HIT %:    86.8704  MISS %:    13.1296  MPKI: 0.19728
LLC WRITEBACK DATA	ACCESS:      82439  HIT:      82097  MISS:        342  HIT %:    99.5851  MISS %:   0.414852  MPKI: 0.00684
LLC LOAD TRANSLATION DATA	ACCESS:       1316  HIT:       1219  MISS:         97  HIT %:    92.6292  MISS %:    7.37082  MPKI: 0.00194
LLC TRANSLATION FROM L1D PREFETCHER DATA	ACCESS:         21  HIT:         19  MISS:          2  HIT %:    90.4762  MISS %:    9.52381  MPKI: 4e-05

LLC AVERAGE MISS LATENCY: 154.7 cycles
LLC RQ	ACCESS:     401900	FORWARD:          0	MERGED:          0	TO_CACHE:     401896
LLC WQ	ACCESS:      82439	FORWARD:          4	MERGED:          0	TO_CACHE:      82439
LLC PQ	ACCESS:      75128	FORWARD:          0	MERGED:          0	TO_CACHE:      75128

LLC Dense regions hint to LLC: 0

RAW hits: 1184897
Loads Generated: 12635631
Loads sent to L1D: 11450734
Stores Generated: 6952200
Stores sent to L1D: 6952233
Major fault: 0 Minor fault: 2578
Allocated PAGES: 2578

stream: 
stream:times selected: 1179732
stream:pref_filled: 120801
stream:pref_useful: 24907
stream:pref_late: 6894
stream:misses: 7289
stream:misses_by_poll: 0

CS: 
CS:times selected: 178022
CS:pref_filled: 58590
CS:pref_useful: 35716
CS:pref_late: 7478
CS:misses: 16667
CS:misses_by_poll: 0

CPLX: 
CPLX:times selected: 1000602
CPLX:pref_filled: 22015
CPLX:pref_useful: 5096
CPLX:pref_late: 3148
CPLX:misses: 92581
CPLX:misses_by_poll: 1

NL_L1: 
NL:times selected: 19413
NL:pref_filled: 589
NL:pref_useful: 266
NL:pref_late: 338
NL:misses: 1454
NL:misses_by_poll: 0

total selections: 2377769
total_filled: 94668
total_useful: 35842
total_late: 19297
total_polluted: 1
total_misses_after_warmup: 772443
conflicts: 6018574

test: 117717

DRAM Statistics
 CHANNEL 0
 RQ ROW_BUFFER_HIT:      10515  ROW_BUFFER_MISS:      18054
 DBUS_CONGESTED:          9
 WQ ROW_BUFFER_HIT:       1506  ROW_BUFFER_MISS:      12186  FULL:          0

 AVG_CONGESTED_CYCLE: 5

CPU 0 Branch Prediction Accuracy: 99.8094% MPKI: 0.34876 Average ROB Occupancy at Mispredict: 67.5048
Branch types
NOT_BRANCH: 40849568 81.6991%
BRANCH_DIRECT_JUMP: 548828 1.09766%
BRANCH_INDIRECT: 182711 0.365422%
BRANCH_CONDITIONAL: 6182641 12.3653%
BRANCH_DIRECT_CALL: 946148 1.8923%
BRANCH_INDIRECT_CALL: 171813 0.343626%
BRANCH_RETURN: 1117968 2.23594%
BRANCH_OTHER: 0 0%

DRAM PAGES: 1048576
Allocated PAGES: 2578
Average_ROB_Occupancy: 51.5596
Average_Decode_Occupancy: 4.7854
Average_FTQ_Occupancy: 14.3532
Indirect max targets: 14 Average targets: 1.17516
Branch_type:  BRANCH_DIRECT_JUMP:  Count Percentage: 3.61336 6.01027 4.17054 7.78646 8.05939 6.00498 1.34673 63.0083 
Branch_type:  BRANCH_INDIRECT:  Count Percentage: 11.7685 3.44172 2.49436 17.3859 11.0485 2.81143 0.93696 50.1127 
Branch_type:  BRANCH_CONDITIONAL:  Count Percentage: 20.8605 10.3502 1.99622 5.99533 3.18714 4.26679 0.637426 52.7063 
Branch_type:  BRANCH_DIRECT_CALL:  Count Percentage: 0.904747 1.28408 0.731795 3.50295 3.20988 2.61248 0.725289 87.0288 
Branch_type:  BRANCH_INDIRECT_CALL:  Count Percentage: 9.57556 0 3.00237 0.000873629 0.907119 1.71843 0.997394 83.7982 
Branch_type:  BRANCH_RETURN:  Count Percentage: 4.75736 7.45721 1.02289 5.82575 5.092 4.16785 0.753085 70.9239 
Branch_type:  BRANCH_DIRECT_JUMP:  Total Count: 39637 65930 45749 85414 88408 65872 14773 691173 
Branch_type:  BRANCH_INDIRECT:  Total Count: 43019 12581 9118 63553 40387 10277 3425 183184 
Branch_type:  BRANCH_CONDITIONAL:  Total Count: 2578301 1279255 246727 741005 393921 527362 78784 6514345 
Branch_type:  BRANCH_DIRECT_CALL:  Total Count: 17106 24278 13836 66230 60689 49394 13713 1645448 
Branch_type:  BRANCH_INDIRECT_CALL:  Total Count: 32882 0 10310 3 3115 5901 3425 287759 
Branch_type:  BRANCH_RETURN:  Total Count: 106324 166664 22861 130202 113803 93149 16831 1585105 
Number of unique branch instructions: 10547
Upper 32 bits: 
aaaa
ffff
ffff0000
Unique upper 32 bits: 3
Unique upper 36 bits: 3
Unique upper 40 bits: 5
Unique upper 44 bits: 32
Unique upper 48 bits: 157
Variant_0 : 1395 0.340576
Variant_1 : 1307 0.319092
Variant_2 : 1361 0.332275
Variant_3 : 0 0
Offset_3 4367
Offset_4 251
Offset_5 472
Offset_6 531
Offset_7 621
Offset_8 567
Offset_9 501
Offset_10 409
Offset_11 335
Offset_12 303
Offset_13 238
Offset_14 240
Offset_15 194
Offset_16 223
Offset_17 165
Offset_18 144
Offset_19 251
Offset_20 139
Offset_21 235
Offset_22 406
Offset_23 241
Offset_24 346
Offset_25 117
Offset_47 94
decode_dispatch_called: 30539714 52.9028
Dispatch_width: 0 18428022 60.3412 31.9222
Dispatch_width: 1 2338033 7.65571 4.05009
Dispatch_width: 2 1116984 3.65748 1.93491
Dispatch_width: 3 1072278 3.51109 1.85747
Dispatch_width: 4 1009237 3.30467 1.74826
Dispatch_width: 5 1277063 4.18165 2.21221
Dispatch_width: 6 5298097 17.3482 9.1777
Empty_decode_cycles: 27188229 47.0972
ROB_full_cycles: 506084 0.876671
Starvation_cycles_per_kilo_instr: 519.238
Starvation_cycles_per_kilo_instr_3: 496.375
Starvation_cycles_per_kilo_instr_0: 451.102
Branch_type_1  (3,1)  (4,7)  (5,38)  (6,72)  (7,123)  (8,147)  (9,133)  (10,109)  (11,74)  (12,47)  (13,11)  (14,2)  (15,3)  (16,4)  (18,1)  (19,5)  (20,2)  (21,1)  (22,3)  (23,2)  (24,10)  (25,12) 
Branch_type_2  (3,1)  (4,1)  (5,1)  (8,4)  (9,4)  (10,1)  (12,1)  (13,1)  (14,1)  (16,3)  (17,2)  (20,2)  (21,2)  (23,5)  (24,1)  (47,43) 
Branch_type_3  (3,4365)  (4,243)  (5,429)  (6,443)  (7,470)  (8,354)  (9,274)  (10,164)  (11,127)  (12,54)  (13,10) 
Branch_type_4  (6,3)  (7,8)  (8,24)  (9,53)  (10,64)  (11,68)  (12,111)  (13,101)  (14,108)  (15,92)  (16,97)  (17,76)  (18,61)  (19,122)  (20,71)  (21,124)  (22,213)  (23,136)  (24,202)  (25,101) 
Branch_type_5  (8,3)  (9,1)  (10,4)  (11,5)  (12,3)  (13,14)  (14,16)  (15,11)  (16,22)  (17,11)  (18,23)  (19,14)  (20,11)  (21,13)  (22,43)  (23,26)  (24,37) 
Branch_type_6  (5,4)  (6,13)  (7,20)  (8,35)  (9,36)  (10,67)  (11,61)  (12,87)  (13,101)  (14,113)  (15,88)  (16,97)  (17,76)  (18,59)  (19,110)  (20,53)  (21,95)  (22,147)  (23,72)  (24,96)  (25,4)  (47,51) 
Unique trigger count: 
Variant_0_evicts_0 : 0
Variant_0_evicts_1 : 0
Variant_0_evicts_2 : 0
Variant_0_evicts_3 : 0
Variant_1_evicts_0 : 0
Variant_1_evicts_1 : 0
Variant_1_evicts_2 : 0
Variant_1_evicts_3 : 0
Variant_2_evicts_0 : 0
Variant_2_evicts_1 : 0
Variant_2_evicts_2 : 0
Variant_2_evicts_3 : 0
Variant_3_evicts_0 : 0
Variant_3_evicts_1 : 0
Variant_3_evicts_2 : 0
Variant_3_evicts_3 : 0
BTB PER SET UNIQUE ADDR: 12 11 15 12 13 15 7 12 9 13 13 14 12 14 10 11 10 13 14 14 13 14 15 9 12 12 14 14 11 9 17 20 9 12 9 10 12 9 10 11 10 9 12 17 7 10 15 10 11 13 15 10 11 13 12 6 14 11 13 13 11 12 16 13 14 8 11 11 17 14 13 15 18 9 11 9 10 12 12 13 15 10 13 15 14 13 15 9 11 16 10 6 17 13 8 17 9 12 11 15 16 14 16 13 15 12 7 10 6 10 13 16 10 13 12 7 12 11 13 14 13 12 9 12 12 15 5 13 17 15 14 13 11 15 13 17 4 10 11 14 11 14 11 12 13 16 15 9 5 12 9 12 11 14 8 15 13 15 21 13 11 12 16 15 15 14 10 8 12 14 11 11 10 13 11 12 12 11 11 18 10 13 11 14 15 16 6 13 12 15 15 14 11 17 9 14 11 12 14 12 15 15 8 8 10 6 14 9 12 9 10 14 16 13 11 17 11 11 13 10 12 17 11 10 7 12 16 10 10 17 9 8 12 14 14 11 14 13 9 10 13 12 16 14 11 15 12 11 12 7 16 12 17 11 14 13 10 11 8 9 12 9 3 12 11 8 10 10 11 11 10 12 11 6 11 11 11 13 13 11 11 12 13 11 14 11 13 11 16 10 10 11 15 19 7 16 11 17 8 13 14 10 13 18 13 13 14 11 17 12 13 15 7 21 10 8 16 14 11 16 9 12 9 10 12 10 12 10 12 8 11 17 6 14 12 15 9 10 9 19 12 13 8 17 15 12 12 11 15 10 12 12 17 8 11 14 9 15 12 11 10 16 10 16 12 15 10 15 14 14 11 5 12 14 6 13 14 18 13 13 16 10 8 7 10 10 13 12 13 15 13 8 14 20 7 11 14 12 11 12 6 6 9 15 14 15 13 12 13 11 14 7 8 17 13 13 12 14 19 14 8 15 10 10 11 10 11 13 11 15 17 12 10 9 16 16 17 7 8 12 16 10 15 12 17 12 10 12 15 14 17 12 10 12 19 16 14 13 11 14 12 11 14 17 19 14 17 11 13 14 15 14 14 9 12 12 14 10 7 12 15 13 14 19 10 16 15 18 16 13 12 15 7 9 10 10 14 16 14 7 13 18 13 21 11 8 12 15 11 10 12 17 9 12 15 13 13 14 10 7 12 9 13 12 14 17 18 9 11 16 16 18 11 15 12 14 10 10 13 10 14 12 13 12 18 11 11 10 10 12 14 15 16 12 13 13 14 9 15 18 14 14 12 15 11 18 11 12 9 21 14 16 11 15 10 12 23 15 10 13 13 15 8 14 11 12 13 13 15 15 10 15 17 9 13 11 11 15 11 9 14 12 9 9 9 12 14 9 12 7 17 12 12 10 6 12 9 16 10 13 20 14 9 9 15 17 14 15 10 14 12 18 17 14 15 8 16 17 9 18 7 14 15 14 10 16 12 14 18 13 9 20 9 13 18 13 9 5 10 16 11 5 18 17 10 14 9 12 10 12 15 11 10 17 21 7 14 15 10 17 9 14 16 12 11 15 12 12 17 10 14 13 11 9 8 12 8 14 8 18 8 14 15 16 9 13 11 12 7 8 13 10 10 9 14 9 13 11 13 16 13 13 15 12 11 10 12 7 11 11 15 11 13 13 8 13 15 11 24 17 9 10 12 11 16 14 14 13 12 11 11 7 15 15 10 8 17 10 8 6 12 8 9 12 9 15 14 12 10 11 14 14 8 8 14 12 9 12 17 15 10 16 10 14 14 14 6 12 12 9 10 9 19 12 14 16 11 8 17 14 18 11 15 8 17 12 10 11 15 10 13 13 10 11 17 14 18 18 8 17 14 16 8 14 14 16 9 15 11 12 13 11 12 13 12 11 6 15 12 14 12 14 8 13 9 19 11 21 12 10 11 12 11 14 14 13 13 16 12 12 14 11 12 11 15 5 14 12 14 15 13 12 20 11 10 5 16 11 10 10 13 11 12 11 18 14 12 11 15 16 11 10 14 16 14 15 21 10 12 8 15 9 10 14 5 14 10 12 12 14 12 14 15 16 12 18 14 14 12 12 12 12 11 13 11 10 10 15 11 10 14 18 16 9 14 20 10 8 13 14 12 14 13 10 12 13 11 11 12 13 14 15 11 13 9 19 11 13 20 14 16 11 12 11 13 14 17 12 8 11 12 17 13 12 15 13 14 15 14 21 9 14 13 15 11 17 19 13 18 14 11 16 15 17 15 13 12 10 11 10 19 14 9 12 14 17 9 17 12 16 11 12 18 9 12 12 5 11 8 8 10 16 10 10 
BTB PER SET COUNT: 19 16 1867 12 17 19 8 87 929 16 17 19 2790 370 13 13 1067 14 436 18 16 48 740 9 23 14 17 578 80 9 21 398 9 16 11 13 16 13 28 18 13 13 23 1294 922 85 22 15 17 411 23 13 15 15 16 243 18 15 20 17 14 17 20 16 16 9 15 1282 23 17 1143 595 39 12 14 11 15 15 18 18 586 16 17 40 15 1312 27 13 219 28 19 6 450 451 8 19 13 1004 17 20 19 104 24 13 2152 15 12 16 6 10 16 29 1244 17 20 495 13 12 1139 1009 610 15 15 14 15 69 5 21 29 866 17 16 14 25 15 34 6 17 14 15 12 214 20 16 20 18 26 12 8 81 14 176 788 23 8 16 828 18 29 15 15 149 25 20 205 21 12 12 17 471 21 14 13 17 18 13 28 26 381 29 11 231 588 21 18 65 7 17 17 987 15 17 11 22 12 23 18 235 18 16 18 20 8 8 12 6 17 413 18 692 11 21 21 9214 15 299 16 18 2385 11 20 23 366 13 9 41 27 12 449 22 12 9 14 19 362 16 23 503 23 13 1234 14 28 19 12 892 12 20 13 11 22 15 22 14 16 162 14 19 8 13 15 18 3 21 11 8 16 12 228 12 10 17 12 6 15 13 11 23 17 17 25 18 489 975 24 13 13 20 22 10 14 15 18 23 10 23 12 26 9 29 19 11 13 43 21 26 92 12 38 141 17 23 11 38 1603 969 18 23 16 25 15 3639 16 12 17 10 124 15 21 8 14 25 7 21 16 24 12 10 11 314 13 748 8 32 459 23 14 16 18 11 19 44 25 10 11 14 10 22 531 19 13 21 10 24 27 25 11 18 18 22 22 6 13 18 7 16 20 21 15 375 296 10 8 8 14 10 21 19 20 25 25 9 20 36 8 12 21 18 1125 164 9 6 16 18 20 18 20 92 15 12 21 7 8 306 14 18 15 52 25 20 8 15 17 14 21 18 317 20 11 22 26 17 10 18 111 30 19 400 10 12 23 18 57 13 2483 14 14 15 21 23 986 14 12 13 208 405 17 19 12 20 13 13 17 475 33 40 6309 23 17 24 29 16 25 17 15 15 25 14 13 19 18 1453 16 32 12 20 436 24 91 15 19 19 69 11 11 12 784 26 20 9 22 26 16 94 16 9 16 21 18 17 20 509 972 73 22 16 21 23 15 7 14 11 18 453 17 29 21 229 18 21 25 25 15 24 24 102 18 977 16 13 15 12 18 12 28 100 14 15 15 1006 17 26 175 108 18 20 24 10 25 27 20 36 17 25 15 23 127 16 11 36 20 17 13 21 2473 19 74 20 12 21 16 19 8 3574 12 18 424 13 25 18 18 23 608 11 28 13 12 401 251 9 18 14 115 14 12 16 15 24 16 7 23 914 24 11 7 21 333 22 17 703 26 18 12 13 16 19 20 20 14 15 16 26 21 17 24 12 24 988 16 27 9 20 21 511 14 30 209 20 725 17 9 31 9 23 30 503 14 5 12 22 389 6 24 28 17915 26 12 1014 1509 18 23 13 20 21 48 8 18 28 13 44 10 23 26 70 932 18 15 22 57 16 14 15 11 15 1997 16 10 470 11 29 13 27 307 25 17 301 12 13 8 11 17 15 945 11 18 161 446 17 18 24 22 976 22 1122 2386 21 15 12 13 19 22 16 15 17 10 1017 79 20 264 27 13 17 18 44 159 18 107 15 15 14 835 8 1211 1975 1160 10 22 1478 11 6 15 8 10 13 10 25 14 573 12 11 29 27 12 10 20 16 11 17 28 21 413 24 387 16 15 19 9 14 19 11 13 1006 25 14 472 212 12 9 21 22 145 16 18 12 18 21 16 16 20 61 21 7792 19 22 46 194 23 1316 11 1990 19 613 14 22 15 40 18 23 22 19 17 54 20 22 92 1843 7 980 978 22 18 876 9 15 199 26 18 34 25 21 15 298 14 22 1492 19 217 21 12 13 819 13 109 12 17 5 15 22 20 51 14 50 35 13 12 5 23 12 2888 13 14 14 141 13 475 417 12 14 19 35 14 16 863 27 19 25 31 15 2003 11 27 12 13 421 6 25 10 21 12 288 293 502 21 20 25 42 427 1227 23 18 20 981 972 18 12 12 11 22 13 27 16 22 117 11 26 25 16 8 68 25 16 1201 20 11 16 18 14 11 16 21 633 27 1493 1803 12 33 16 19 116 698 589 11 981 12 17 19 184 16 10 61 58 500 20 18 551 17 16 22 23 735 12 16 267 1626 17 1077 289 127 27 17 14 218 21 27 22 15 14 1484 14 246 42 1454 16 18 18 202 12 21 21 23 17 28 24 15 16 15 5 18 10 10 10 217 17 10 
To predecode: 0
Predecoding something: 0
Predecode request dropped: 0
sizeofblock_0 0
sizeofblock_1 33106
sizeofblock_2 38387
sizeofblock_3 45405
sizeofblock_4 22659
sizeofblock_5 0
sizeofblock_6 0
sizeofblock_7 0
sizeofblock_8 0
Variant_0 Correct: 1615500 Incorrect: 0 Accuracy: 1
Variant_1 Correct: 2095546 Incorrect: 0 Accuracy: 1
Variant_2 Correct: 3653241 Incorrect: 0 Accuracy: 1
Variant_3 Correct: 0 Incorrect: 0 Accuracy: -nan
