
*** ChampSim Multicore Out-of-Order Simulator ***

Warmup Instructions: 50000000
Simulation Instructions: 50000000
Number of CPUs: 1
LLC sets: 2048
LLC ways: 16
Off-chip DRAM Size: 4096 MB Channels: 1 Width: 64-bit Data Rate: 6400 MT/s
CPU 0 runs ./micro_traces/srv27.trace.gz
.gz
ITLB has LRU replacement policy
DTLB has LRU replacement policy
STLB has LRU replacement policy
FDIP Prefetcher at L1I
L1I has LRU replacement policy
L1D has LRU replacement policy
Initialize SRRIP state for L2C
Initialize DRRIP state for LLC
Heartbeat_Variant_0 : 1330 0.324707 per_variant_size: 0 1330 0 0 0 0 0 0 0 
Heartbeat_Variant_1 : 1000 0.244141 per_variant_size: 0 157 843 0 0 0 0 0 0 
Heartbeat_Variant_2 : 845 0.206299 per_variant_size: 0 129 103 108 505 0 0 0 0 
Heartbeat_Variant_3 : 0 0 per_variant_size: 0 0 0 0 0 0 0 0 0 
Heartbeat_Variant_0_evicts 0 : 5560 1 : 0 2 : 2 3 : 0 
Heartbeat_Variant_1_evicts 0 : 0 1 : 0 2 : 194 3 : 0 
Heartbeat_Variant_2_evicts 0 : 0 1 : 195 2 : 0 3 : 0 
Heartbeat_Variant_3_evicts 0 : 0 1 : 0 2 : 0 3 : 0 
Heartbeat CPU 0 instructions: 10000003 cycles: 2796913 heartbeat IPC: 3.57537 cumulative IPC: 3.57537 (Simulation time: 0 hr 2 min 13 sec) 
Heartbeat_Variant_0 : 1392 0.339844 per_variant_size: 0 1392 0 0 0 0 0 0 0 
Heartbeat_Variant_1 : 1049 0.256104 per_variant_size: 0 156 893 0 0 0 0 0 0 
Heartbeat_Variant_2 : 874 0.213379 per_variant_size: 0 119 109 114 532 0 0 0 0 
Heartbeat_Variant_3 : 0 0 per_variant_size: 0 0 0 0 0 0 0 0 0 
Heartbeat_Variant_0_evicts 0 : 5662 1 : 0 2 : 0 3 : 0 
Heartbeat_Variant_1_evicts 0 : 0 1 : 0 2 : 198 3 : 0 
Heartbeat_Variant_2_evicts 0 : 0 1 : 198 2 : 0 3 : 0 
Heartbeat_Variant_3_evicts 0 : 0 1 : 0 2 : 0 3 : 0 
Heartbeat CPU 0 instructions: 20000000 cycles: 5593699 heartbeat IPC: 3.57553 cumulative IPC: 3.57545 (Simulation time: 0 hr 4 min 9 sec) 
Heartbeat_Variant_0 : 1421 0.346924 per_variant_size: 0 1421 0 0 0 0 0 0 0 
Heartbeat_Variant_1 : 1077 0.262939 per_variant_size: 0 163 914 0 0 0 0 0 0 
Heartbeat_Variant_2 : 882 0.215332 per_variant_size: 0 104 112 111 555 0 0 0 0 
Heartbeat_Variant_3 : 0 0 per_variant_size: 0 0 0 0 0 0 0 0 0 
Heartbeat_Variant_0_evicts 0 : 5575 1 : 1 2 : 0 3 : 0 
Heartbeat_Variant_1_evicts 0 : 0 1 : 0 2 : 195 3 : 0 
Heartbeat_Variant_2_evicts 0 : 0 1 : 195 2 : 0 3 : 0 
Heartbeat_Variant_3_evicts 0 : 0 1 : 0 2 : 0 3 : 0 
Heartbeat CPU 0 instructions: 30000000 cycles: 8390829 heartbeat IPC: 3.57509 cumulative IPC: 3.57533 (Simulation time: 0 hr 6 min 19 sec) 
Heartbeat_Variant_0 : 1421 0.346924 per_variant_size: 0 1421 0 0 0 0 0 0 0 
Heartbeat_Variant_1 : 1078 0.263184 per_variant_size: 0 162 916 0 0 0 0 0 0 
Heartbeat_Variant_2 : 882 0.215332 per_variant_size: 0 104 112 124 542 0 0 0 0 
Heartbeat_Variant_3 : 0 0 per_variant_size: 0 0 0 0 0 0 0 0 0 
Heartbeat_Variant_0_evicts 0 : 5555 1 : 0 2 : 0 3 : 0 
Heartbeat_Variant_1_evicts 0 : 0 1 : 0 2 : 195 3 : 0 
Heartbeat_Variant_2_evicts 0 : 0 1 : 195 2 : 0 3 : 0 
Heartbeat_Variant_3_evicts 0 : 0 1 : 0 2 : 0 3 : 0 
Heartbeat CPU 0 instructions: 40000001 cycles: 11187403 heartbeat IPC: 3.5758 cumulative IPC: 3.57545 (Simulation time: 0 hr 8 min 20 sec) 
Heartbeat_Variant_0 : 1543 0.376709 per_variant_size: 0 1543 0 0 0 0 0 0 0 
Heartbeat_Variant_1 : 1235 0.301514 per_variant_size: 0 176 1059 0 0 0 0 0 0 
Heartbeat_Variant_2 : 948 0.231445 per_variant_size: 0 115 105 102 626 0 0 0 0 
Heartbeat_Variant_3 : 0 0 per_variant_size: 0 0 0 0 0 0 0 0 0 
Heartbeat_Variant_0_evicts 0 : 5555 1 : 2 2 : 0 3 : 0 
Heartbeat_Variant_1_evicts 0 : 2 1 : 0 2 : 195 3 : 0 
Heartbeat_Variant_2_evicts 0 : 0 1 : 195 2 : 0 3 : 0 
Heartbeat_Variant_3_evicts 0 : 0 1 : 0 2 : 0 3 : 0 
Heartbeat CPU 0 instructions: 50000000 cycles: 13983253 heartbeat IPC: 3.57673 cumulative IPC: 3.57571 (Simulation time: 0 hr 10 min 22 sec) 

Warmup complete CPU 0 instructions: 50000004 cycles: 13983254 (Simulation time: 0 hr 10 min 22 sec) 

Cycle: 20000000 FTQ IN: 58313159 FTQ occupancy: 19.8009 DECODE IN: 58313091 DECODE occupancy: 51.688 ROB IN: 58313031 ROB occupancy: 313.882 ROB OUT: 58312679
Heartbeat_Variant_0 : 1543 0.376709 per_variant_size: 0 1543 0 0 0 0 0 0 0 
Heartbeat_Variant_1 : 1235 0.301514 per_variant_size: 0 179 1056 0 0 0 0 0 0 
Heartbeat_Variant_2 : 948 0.231445 per_variant_size: 0 115 106 106 621 0 0 0 0 
Heartbeat_Variant_3 : 0 0 per_variant_size: 0 0 0 0 0 0 0 0 0 
Heartbeat_Variant_0_evicts 0 : 5583 1 : 0 2 : 0 3 : 0 
Heartbeat_Variant_1_evicts 0 : 0 1 : 0 2 : 196 3 : 0 
Heartbeat_Variant_2_evicts 0 : 0 1 : 196 2 : 0 3 : 0 
Heartbeat_Variant_3_evicts 0 : 0 1 : 0 2 : 0 3 : 0 
Heartbeat CPU 0 instructions: 60000000 cycles: 21213309 heartbeat IPC: 1.38312 cumulative IPC: 1.38311 (Simulation time: 0 hr 12 min 40 sec) 
Heartbeat_Variant_0 : 1543 0.376709 per_variant_size: 0 1543 0 0 0 0 0 0 0 
Heartbeat_Variant_1 : 1234 0.30127 per_variant_size: 0 183 1051 0 0 0 0 0 0 
Heartbeat_Variant_2 : 949 0.231689 per_variant_size: 0 115 106 125 603 0 0 0 0 
Heartbeat_Variant_3 : 0 0 per_variant_size: 0 0 0 0 0 0 0 0 0 
Heartbeat_Variant_0_evicts 0 : 5581 1 : 0 2 : 0 3 : 0 
Heartbeat_Variant_1_evicts 0 : 0 1 : 0 2 : 194 3 : 0 
Heartbeat_Variant_2_evicts 0 : 0 1 : 195 2 : 0 3 : 0 
Heartbeat_Variant_3_evicts 0 : 0 1 : 0 2 : 0 3 : 0 
Heartbeat CPU 0 instructions: 70000003 cycles: 28479824 heartbeat IPC: 1.37618 cumulative IPC: 1.37964 (Simulation time: 0 hr 14 min 57 sec) 
Cycle: 30000000 FTQ IN: 13741590 FTQ occupancy: 12.5298 DECODE IN: 13741601 DECODE occupancy: 32.4127 ROB IN: 13741661 ROB occupancy: 233.398 ROB OUT: 13741995
Heartbeat_Variant_0 : 1555 0.379639 per_variant_size: 0 1555 0 0 0 0 0 0 0 
Heartbeat_Variant_1 : 1243 0.303467 per_variant_size: 0 185 1058 0 0 0 0 0 0 
Heartbeat_Variant_2 : 958 0.233887 per_variant_size: 0 116 102 140 600 0 0 0 0 
Heartbeat_Variant_3 : 0 0 per_variant_size: 0 0 0 0 0 0 0 0 0 
Heartbeat_Variant_0_evicts 0 : 5659 1 : 1 2 : 0 3 : 0 
Heartbeat_Variant_1_evicts 0 : 0 1 : 0 2 : 198 3 : 0 
Heartbeat_Variant_2_evicts 0 : 0 1 : 197 2 : 0 3 : 0 
Heartbeat_Variant_3_evicts 0 : 0 1 : 0 2 : 0 3 : 0 
Heartbeat CPU 0 instructions: 80000003 cycles: 35715471 heartbeat IPC: 1.38205 cumulative IPC: 1.38044 (Simulation time: 0 hr 17 min 32 sec) 
Cycle: 40000000 FTQ IN: 13874951 FTQ occupancy: 12.6073 DECODE IN: 13874906 DECODE occupancy: 32.98 ROB IN: 13874846 ROB occupancy: 236.419 ROB OUT: 13874515
Heartbeat_Variant_0 : 1556 0.379883 per_variant_size: 0 1556 0 0 0 0 0 0 0 
Heartbeat_Variant_1 : 1248 0.304688 per_variant_size: 0 187 1061 0 0 0 0 0 0 
Heartbeat_Variant_2 : 960 0.234375 per_variant_size: 0 118 99 126 617 0 0 0 0 
Heartbeat_Variant_3 : 0 0 per_variant_size: 0 0 0 0 0 0 0 0 0 
Heartbeat_Variant_0_evicts 0 : 5453 1 : 0 2 : 0 3 : 0 
Heartbeat_Variant_1_evicts 0 : 1 1 : 0 2 : 193 3 : 0 
Heartbeat_Variant_2_evicts 0 : 0 1 : 193 2 : 0 3 : 0 
Heartbeat_Variant_3_evicts 0 : 0 1 : 0 2 : 0 3 : 0 
Heartbeat CPU 0 instructions: 90000002 cycles: 43009252 heartbeat IPC: 1.37103 cumulative IPC: 1.37807 (Simulation time: 0 hr 20 min 0 sec) 
Cycle: 50000000 FTQ IN: 13777424 FTQ occupancy: 12.8022 DECODE IN: 13777456 DECODE occupancy: 33.1277 ROB IN: 13777456 ROB occupancy: 233.833 ROB OUT: 13777453
Heartbeat_Variant_0 : 1557 0.380127 per_variant_size: 0 1557 0 0 0 0 0 0 0 
Heartbeat_Variant_1 : 1248 0.304688 per_variant_size: 0 182 1066 0 0 0 0 0 0 
Heartbeat_Variant_2 : 964 0.235352 per_variant_size: 0 119 99 128 618 0 0 0 0 
Heartbeat_Variant_3 : 0 0 per_variant_size: 0 0 0 0 0 0 0 0 0 
Heartbeat_Variant_0_evicts 0 : 5630 1 : 0 2 : 0 3 : 0 
Heartbeat_Variant_1_evicts 0 : 0 1 : 0 2 : 196 3 : 0 
Heartbeat_Variant_2_evicts 0 : 0 1 : 197 2 : 0 3 : 0 
Heartbeat_Variant_3_evicts 0 : 0 1 : 0 2 : 0 3 : 0 
Heartbeat CPU 0 instructions: 100000001 cycles: 50209265 heartbeat IPC: 1.38889 cumulative IPC: 1.38022 (Simulation time: 0 hr 22 min 5 sec) 
Finished CPU 0 instructions: 50000000 cycles: 36226012 cumulative IPC: 1.38022 (Simulation time: 0 hr 22 min 5 sec) 

ChampSim completed all CPUs

Region of Interest Statistics

CPU 0 cumulative IPC: 1.38022 instructions: 50000000 cycles: 36226012
 Fetch stage stalled: 54.858  Sim cycles: 36226012 fetch stall cycle: 19872853
 Empty decode stage: 36.6469  Sim cycles: 36226012 fetch stall cycle: 13275700
ITLB TOTAL     ACCESS:    5852216  HIT:    5358054  MISS:     494162  HIT %:     91.556  MISS %:    8.44402   MPKI: 9.88324
ITLB LOAD TRANSLATION INSTRUCTION	ACCESS:    5730029  HIT:    5235867  MISS:     494162  HIT %:    91.3759  MISS %:    8.62408  MPKI: 9.88324
ITLB TRANSLATION FROM L1D PREFETCHER INSTRUCTION	ACCESS:     122187  HIT:     122187  MISS:          0  HIT %:        100  MISS %:          0  MPKI: 0

ITLB AVERAGE MISS LATENCY: 9.05122 cycles
ITLB RQ	ACCESS:    7992312	FORWARD:          0	MERGED:    1691480	TO_CACHE:    6300832

DTLB TOTAL     ACCESS:    8969389  HIT:    8495369  MISS:     474020  HIT %:    94.7151  MISS %:    5.28486   MPKI: 9.4804
DTLB LOAD TRANSLATION DATA	ACCESS:    8969389  HIT:    8495369  MISS:     474020  HIT %:    94.7151  MISS %:    5.28486  MPKI: 9.4804

DTLB AVERAGE MISS LATENCY: 9.30898 cycles
DTLB RQ	ACCESS:   13337655	FORWARD:          0	MERGED:    4331416	TO_CACHE:    9006239

STLB TOTAL     ACCESS:    1215203  HIT:    1213212  MISS:       1991  HIT %:    99.8362  MISS %:   0.163841   MPKI: 0.03982
STLB LOAD TRANSLATION INSTRUCTION	ACCESS:     494162  HIT:     493934  MISS:        228  HIT %:    99.9539  MISS %:  0.0461387  MPKI: 0.00456
STLB LOAD TRANSLATION DATA	ACCESS:     474020  HIT:     472291  MISS:       1729  HIT %:    99.6352  MISS %:   0.364753  MPKI: 0.03458
STLB TRANSLATION FROM L1D PREFETCHER DATA	ACCESS:     247021  HIT:     246987  MISS:         34  HIT %:    99.9862  MISS %:   0.013764  MPKI: 0.00068

STLB AVERAGE MISS LATENCY: 71.4224 cycles
STLB RQ	ACCESS:    1336409	FORWARD:          0	MERGED:     121159	TO_CACHE:    1215250

STLB Hit, L1D data hit: 0
STLB Hit, L2C data hit: 0
STLB Hit, LLC data hit: 0
STLB Hit, LLC data miss: 0
STLB STLB hints to L2: 0
L1D TOTAL     ACCESS:   13090210  HIT:   11974987  MISS:    1115223  HIT %:    91.4805  MISS %:    8.51952   MPKI: 22.3045
L1D LOAD DATA	ACCESS:    6556247  HIT:    5821285  MISS:     734962  HIT %:    88.7899  MISS %:    11.2101  MPKI: 14.6992
L1D RFO DATA	ACCESS:    6206179  HIT:    5920928  MISS:     285251  HIT %:    95.4038  MISS %:    4.59624  MPKI: 5.70502
L1D PREFETCH DATA	ACCESS:     327784  HIT:     232774  MISS:      95010  HIT %:    71.0144  MISS %:    28.9856  MPKI: 1.9002

L1D PREFETCH  REQUESTED:     736787  ISSUED:     736787  USEFUL:      33361  USELESS:      69125
L1D USEFUL LOAD PREFETCHES:      33361 PREFETCH ISSUED TO LOWER LEVEL:     102502  ACCURACY: 32.5467
 TIMELY PREFETCHES:      33361 LATE PREFETCHES: 7448 DROPPED PREFETCHES: 11
L1D AVERAGE MISS LATENCY: 218956 cycles
L1D RQ	ACCESS:   10689480	FORWARD:          0	MERGED:    3937590	TO_CACHE:    6589617
L1D WQ	ACCESS:    6944847	FORWARD:     162606	MERGED:     196809	TO_CACHE:    6748038
L1D PQ	ACCESS:     368560	FORWARD:          0	MERGED:          0	TO_CACHE:     368227

L1D UNIQUE REGIONS ACCESSED: 0
L1D REGIONS CONFLICTS: 0
L1D Cross Page Prefetch Requests: 6858
L1D Same Page Prefetch Requests: 749537
L1D ROI Sum of L1D PQ occupancy: 4680613
L1D PREFETCHES PUSHED FROM L2C: 0
L1I TOTAL     ACCESS:    7162413  HIT:    4399813  MISS:    2762600  HIT %:    61.4292  MISS %:    38.5708   MPKI: 55.252
L1I LOAD INSTRUCTION	ACCESS:    6498943  HIT:    3736343  MISS:    2762600  HIT %:    57.4915  MISS %:    42.5085  MPKI: 55.252
L1I PREFETCH INSTRUCTION	ACCESS:     663470  HIT:     663470  MISS:          0  HIT %:        100  MISS %:          0  MPKI: 0

L1I PREFETCH  REQUESTED:    1599212  ISSUED:    1599212  USEFUL:          0  USELESS:          0
L1I USEFUL LOAD PREFETCHES:          0 PREFETCH ISSUED TO LOWER LEVEL:          0  ACCURACY: -nan
 TIMELY PREFETCHES:          0 LATE PREFETCHES: 0 DROPPED PREFETCHES: 0
L1I AVERAGE MISS LATENCY: 17.1687 cycles
L1I RQ	ACCESS:    9502188	FORWARD:          0	MERGED:    2681828	TO_CACHE:    6820360
L1I PQ	ACCESS:    1599212	FORWARD:          0	MERGED:     427260	TO_CACHE:    1171952

L1BTB TOTAL     ACCESS:    5670761  HIT:    2040844  MISS:    3629917  HIT %:    35.9889  MISS %:    64.0111   MPKI: 72.5983
L1BTB BRANCH_DIRECT_JUMP	ACCESS:     547203  HIT:     144339  MISS:     402864	AVERAGE STALL: 50.0057
L1BTB BRANCH_INDIRECT	ACCESS:     182550  HIT:      65772  MISS:     116778	AVERAGE STALL: 97.7748
L1BTB BRANCH_CONDITIONAL	ACCESS:    2702419  HIT:    1410273  MISS:    1292146	AVERAGE STALL: 65.994
L1BTB BRANCH_DIRECT_CALL	ACCESS:     946910  HIT:     106387  MISS:     840523	AVERAGE STALL: 68.3109
L1BTB BRANCH_INDIRECT_CALL	ACCESS:     172381  HIT:      21863  MISS:     150518	AVERAGE STALL: 135.55
L1BTB BRANCH_RETURN	ACCESS:    1119298  HIT:     292210  MISS:     827088	AVERAGE STALL: 46.9579
L1BTB BRANCH_OTHER ACCESS:          0  HIT:          0  MISS:          0	AVERAGE STALL: -nan
L1BTB TOTAL ROB OCCUPANCY AT BTB MISS: 3.18385

L2BTB TOTAL     ACCESS:    3604557  HIT:    3529467  MISS:      75090  HIT %:    97.9168  MISS %:     2.0832   MPKI: 1.5018
L2BTB BRANCH_DIRECT_JUMP	ACCESS:     398717  HIT:     393903  MISS:       4814	AVERAGE STALL: 50.0057
L2BTB BRANCH_INDIRECT	ACCESS:     106494  HIT:     103790  MISS:       2704	AVERAGE STALL: 97.7748
L2BTB BRANCH_CONDITIONAL	ACCESS:    1292146  HIT:    1282345  MISS:       9801	AVERAGE STALL: 65.994
L2BTB BRANCH_DIRECT_CALL	ACCESS:     840523  HIT:     839723  MISS:        800	AVERAGE STALL: 68.3109
L2BTB BRANCH_INDIRECT_CALL	ACCESS:     140993  HIT:     130970  MISS:      10023	AVERAGE STALL: 135.55
L2BTB BRANCH_RETURN	ACCESS:     825684  HIT:     778736  MISS:      46948	AVERAGE STALL: 46.9579
L2BTB BRANCH_OTHER ACCESS:          0  HIT:          0  MISS:          0	AVERAGE STALL: -nan
L2BTB TOTAL ROB OCCUPANCY AT BTB MISS: 153.91

L2C TOTAL     ACCESS:    4487000  HIT:    4014456  MISS:     472544  HIT %:    89.4686  MISS %:    10.5314   MPKI: 9.45088
L2C LOAD INSTRUCTION	ACCESS:    2762600  HIT:    2505410  MISS:     257190  HIT %:    90.6903  MISS %:    9.30971  MPKI: 5.1438
L2C LOAD TRANSLATION INSTRUCTION	ACCESS:        251  HIT:         58  MISS:        193  HIT %:    23.1076  MISS %:    76.8924  MPKI: 0.00386
L2C LOAD DATA	ACCESS:     727497  HIT:     646693  MISS:      80804  HIT %:    88.8929  MISS %:    11.1071  MPKI: 1.61608
L2C RFO DATA	ACCESS:     285184  HIT:     239380  MISS:      45804  HIT %:    83.9388  MISS %:    16.0612  MPKI: 0.91608
L2C PREFETCH DATA	ACCESS:     189314  HIT:     116809  MISS:      72505  HIT %:    61.7012  MISS %:    38.2988  MPKI: 1.4501
L2C WRITEBACK DATA	ACCESS:     520315  HIT:     505510  MISS:      14805  HIT %:    97.1546  MISS %:    2.84539  MPKI: 0.2961
L2C LOAD TRANSLATION DATA	ACCESS:       1778  HIT:        552  MISS:       1226  HIT %:    31.0461  MISS %:    68.9539  MPKI: 0.02452
L2C TRANSLATION FROM L1D PREFETCHER DATA	ACCESS:         61  HIT:         44  MISS:         17  HIT %:    72.1311  MISS %:    27.8689  MPKI: 0.00034

L2C PREFETCH  REQUESTED:      94860  ISSUED:      94860  USEFUL:       7993  USELESS:      65155
L2C USEFUL LOAD PREFETCHES:       7993 PREFETCH ISSUED TO LOWER LEVEL:      73083  ACCURACY: 10.9369
 TIMELY PREFETCHES:       7993 LATE PREFETCHES: 578 DROPPED PREFETCHES: 0
L2C AVERAGE MISS LATENCY: 38.1755 cycles
L2C RQ	ACCESS:    3777411	FORWARD:          0	MERGED:          0	TO_CACHE:    3777371
L2C WQ	ACCESS:     520315	FORWARD:         41	MERGED:          0	TO_CACHE:     520315
L2C PQ	ACCESS:     197362	FORWARD:          0	MERGED:       3530	TO_CACHE:     193831

L2C Dense regions hint from L2: 0
PSCL5 TOTAL     ACCESS:       4012  HIT:       2006  MISS:       2006  HIT %:         50  MISS %:         50   MPKI: 0.04012
PSCL5 LOAD TRANSLATION INSTRUCTION	ACCESS:       3892  HIT:       1946  MISS:       1946  HIT %:         50  MISS %:         50  MPKI: 0.03892
PSCL5 TRANSLATION FROM L1D PREFETCHER INSTRUCTION	ACCESS:        120  HIT:         60  MISS:         60  HIT %:         50  MISS %:         50  MPKI: 0.0012


PSCL4 TOTAL     ACCESS:       3905  HIT:       1949  MISS:       1956  HIT %:    49.9104  MISS %:    50.0896   MPKI: 0.03912
PSCL4 LOAD TRANSLATION INSTRUCTION	ACCESS:       2552  HIT:       1889  MISS:        663  HIT %:    74.0204  MISS %:    25.9796  MPKI: 0.01326
PSCL4 TRANSLATION FROM L1D PREFETCHER INSTRUCTION	ACCESS:         85  HIT:         60  MISS:         25  HIT %:    70.5882  MISS %:    29.4118  MPKI: 0.0005
PSCL4 LOAD TRANSLATION DATA	ACCESS:       1233  HIT:          0  MISS:       1233  HIT %:          0  MISS %:        100  MPKI: 0.02466
PSCL4 TRANSLATION FROM L1D PREFETCHER DATA	ACCESS:         35  HIT:          0  MISS:         35  HIT %:          0  MISS %:        100  MPKI: 0.0007


PSCL3 TOTAL     ACCESS:       3981  HIT:       1987  MISS:       1994  HIT %:    49.9121  MISS %:    50.0879   MPKI: 0.03988
PSCL3 LOAD TRANSLATION INSTRUCTION	ACCESS:       2590  HIT:       1927  MISS:        663  HIT %:    74.4015  MISS %:    25.5985  MPKI: 0.01326
PSCL3 TRANSLATION FROM L1D PREFETCHER INSTRUCTION	ACCESS:         85  HIT:         60  MISS:         25  HIT %:    70.5882  MISS %:    29.4118  MPKI: 0.0005
PSCL3 LOAD TRANSLATION DATA	ACCESS:       1271  HIT:          0  MISS:       1271  HIT %:          0  MISS %:        100  MPKI: 0.02542
PSCL3 TRANSLATION FROM L1D PREFETCHER DATA	ACCESS:         35  HIT:          0  MISS:         35  HIT %:          0  MISS %:        100  MPKI: 0.0007


PSCL2 TOTAL     ACCESS:       3942  HIT:       1936  MISS:       2006  HIT %:    49.1121  MISS %:    50.8879   MPKI: 0.04012
PSCL2 LOAD TRANSLATION INSTRUCTION	ACCESS:       2105  HIT:       1877  MISS:        228  HIT %:    89.1686  MISS %:    10.8314  MPKI: 0.00456
PSCL2 TRANSLATION FROM L1D PREFETCHER INSTRUCTION	ACCESS:         59  HIT:         59  MISS:          0  HIT %:        100  MISS %:          0  MPKI: 0
PSCL2 LOAD TRANSLATION DATA	ACCESS:       1719  HIT:          0  MISS:       1719  HIT %:          0  MISS %:        100  MPKI: 0.03438
PSCL2 TRANSLATION FROM L1D PREFETCHER DATA	ACCESS:         59  HIT:          0  MISS:         59  HIT %:          0  MISS %:        100  MPKI: 0.00118


LLC TOTAL     ACCESS:     526793  HIT:     499273  MISS:      27520  HIT %:    94.7759  MISS %:    5.22406   MPKI: 0.5504
LLC LOAD INSTRUCTION	ACCESS:     257190  HIT:     256416  MISS:        774  HIT %:    99.6991  MISS %:   0.300945  MPKI: 0.01548
LLC LOAD TRANSLATION INSTRUCTION	ACCESS:        193  HIT:        158  MISS:         35  HIT %:    81.8653  MISS %:    18.1347  MPKI: 0.0007
LLC LOAD DATA	ACCESS:      80268  HIT:      76922  MISS:       3346  HIT %:    95.8315  MISS %:    4.16854  MPKI: 0.06692
LLC RFO DATA	ACCESS:      45756  HIT:      32584  MISS:      13172  HIT %:    71.2125  MISS %:    28.7875  MPKI: 0.26344
LLC PREFETCH DATA	ACCESS:      73083  HIT:      63284  MISS:       9799  HIT %:     86.592  MISS %:     13.408  MPKI: 0.19598
LLC WRITEBACK DATA	ACCESS:      69060  HIT:      68727  MISS:        333  HIT %:    99.5178  MISS %:   0.482189  MPKI: 0.00666
LLC LOAD TRANSLATION DATA	ACCESS:       1226  HIT:       1165  MISS:         61  HIT %:    95.0245  MISS %:    4.97553  MPKI: 0.00122
LLC TRANSLATION FROM L1D PREFETCHER DATA	ACCESS:         17  HIT:         17  MISS:          0  HIT %:        100  MISS %:          0  MPKI: 0

LLC AVERAGE MISS LATENCY: 155.268 cycles
LLC RQ	ACCESS:     384656	FORWARD:          0	MERGED:          0	TO_CACHE:     384650
LLC WQ	ACCESS:      69060	FORWARD:          6	MERGED:          0	TO_CACHE:      69060
LLC PQ	ACCESS:      73083	FORWARD:          0	MERGED:          0	TO_CACHE:      73083

LLC Dense regions hint to LLC: 0

RAW hits: 1939972
Loads Generated: 12629451
Loads sent to L1D: 10689480
Stores Generated: 6944835
Stores sent to L1D: 6944847
Major fault: 0 Minor fault: 2650
Allocated PAGES: 2650

stream: 
stream:times selected: 1187423
stream:pref_filled: 122079
stream:pref_useful: 23805
stream:pref_late: 6953
stream:misses: 7941
stream:misses_by_poll: 0

CS: 
CS:times selected: 179146
CS:pref_filled: 61139
CS:pref_useful: 37609
CS:pref_late: 6747
CS:misses: 16018
CS:misses_by_poll: 5

CPLX: 
CPLX:times selected: 1007078
CPLX:pref_filled: 19749
CPLX:pref_useful: 4565
CPLX:pref_late: 3181
CPLX:misses: 93293
CPLX:misses_by_poll: 1

NL_L1: 
NL:times selected: 20811
NL:pref_filled: 735
NL:pref_useful: 325
NL:pref_late: 321
NL:misses: 1758
NL:misses_by_poll: 0

total selections: 2394458
total_filled: 95010
total_useful: 33361
total_late: 18488
total_polluted: 6
total_misses_after_warmup: 768333
conflicts: 5519045

test: 116167

DRAM Statistics
 CHANNEL 0
 RQ ROW_BUFFER_HIT:      10278  ROW_BUFFER_MISS:      16902
 DBUS_CONGESTED:         12
 WQ ROW_BUFFER_HIT:       1275  ROW_BUFFER_MISS:      11807  FULL:          0

 AVG_CONGESTED_CYCLE: 5

CPU 0 Branch Prediction Accuracy: 99.822% MPKI: 0.3256 Average ROB Occupancy at Mispredict: 188.264
Branch types
NOT_BRANCH: 40852687 81.7054%
BRANCH_DIRECT_JUMP: 547203 1.09441%
BRANCH_INDIRECT: 182550 0.3651%
BRANCH_CONDITIONAL: 6178980 12.358%
BRANCH_DIRECT_CALL: 946910 1.89382%
BRANCH_INDIRECT_CALL: 172381 0.344762%
BRANCH_RETURN: 1119298 2.2386%
BRANCH_OTHER: 0 0%

DRAM PAGES: 1048576
Allocated PAGES: 2650
Average_ROB_Occupancy: 235.508
Average_Decode_Occupancy: 32.726
Average_FTQ_Occupancy: 12.5939
Indirect max targets: 14 Average targets: 1.18125
Branch_type:  BRANCH_DIRECT_JUMP:  Count Percentage: 3.81156 5.29529 4.21399 6.94864 3.49057 2.5443 2.26795 71.4277 
Branch_type:  BRANCH_INDIRECT:  Count Percentage: 11.7744 3.42163 2.54065 9.68396 3.34478 2.80842 1.73817 64.688 
Branch_type:  BRANCH_CONDITIONAL:  Count Percentage: 21.3703 2.92026 2.29738 4.11465 2.50992 2.37156 2.77644 61.6395 
Branch_type:  BRANCH_DIRECT_CALL:  Count Percentage: 0.389486 1.77128 0.73765 3.56831 3.61631 2.05884 4.09755 83.7606 
Branch_type:  BRANCH_INDIRECT_CALL:  Count Percentage: 9.54764 0 2.99262 5.27322 1.05622 2.03287 3.85007 75.2474 
Branch_type:  BRANCH_RETURN:  Count Percentage: 3.94402 1.99213 2.35568 4.14679 4.54676 3.28298 3.69985 76.0318 
Branch_type:  BRANCH_DIRECT_JUMP:  Total Count: 41750 58002 46158 76112 38234 27869 24842 782384 
Branch_type:  BRANCH_INDIRECT:  Total Count: 43049 12510 9289 35406 12229 10268 6355 236509 
Branch_type:  BRANCH_CONDITIONAL:  Total Count: 2640359 360806 283847 508375 310107 293012 343036 7615710 
Branch_type:  BRANCH_DIRECT_CALL:  Total Count: 7352 33435 13924 67356 68262 38863 77346 1581079 
Branch_type:  BRANCH_INDIRECT_CALL:  Total Count: 32759 0 10268 18093 3624 6975 13210 258182 
Branch_type:  BRANCH_RETURN:  Total Count: 88016 44457 52570 92541 101467 73264 82567 1696750 
Number of unique branch instructions: 11078
Upper 32 bits: 
aaaa
ffff
ffff0000
Unique upper 32 bits: 3
Unique upper 36 bits: 3
Unique upper 40 bits: 5
Unique upper 44 bits: 32
Unique upper 48 bits: 160
Variant_0 : 1557 0.380127
Variant_1 : 1248 0.304688
Variant_2 : 964 0.235352
Variant_3 : 0 0
Offset_3 4579
Offset_4 273
Offset_5 501
Offset_6 558
Offset_7 652
Offset_8 593
Offset_9 537
Offset_10 446
Offset_11 360
Offset_12 336
Offset_13 241
Offset_14 248
Offset_15 201
Offset_16 233
Offset_17 176
Offset_18 154
Offset_19 264
Offset_20 149
Offset_21 261
Offset_22 417
Offset_23 241
Offset_24 361
Offset_25 117
Offset_47 96
Offset_64 1
decode_dispatch_called: 25094067 69.2709
Dispatch_width: 0 13416946 53.4666 37.0368
Dispatch_width: 1 931910 3.71367 2.57249
Dispatch_width: 2 804641 3.2065 2.22117
Dispatch_width: 3 493507 1.96663 1.3623
Dispatch_width: 4 5267647 20.9916 14.5411
Dispatch_width: 5 168797 0.672657 0.465955
Dispatch_width: 6 4010619 15.9823 11.0711
Empty_decode_cycles: 11131945 30.7291
ROB_full_cycles: 8419033 23.2403
Starvation_cycles_per_kilo_instr: 237.964
Starvation_cycles_per_kilo_instr_3: 183.599
Starvation_cycles_per_kilo_instr_0: 161.299
Branch_type_1  (3,1)  (4,10)  (5,41)  (6,77)  (7,126)  (8,152)  (9,141)  (10,114)  (11,80)  (12,55)  (13,11)  (14,2)  (15,3)  (16,4)  (18,1)  (19,5)  (20,2)  (21,1)  (22,3)  (23,2)  (24,10)  (25,12) 
Branch_type_2  (3,1)  (4,1)  (5,1)  (8,4)  (9,4)  (10,1)  (12,1)  (13,1)  (14,1)  (16,3)  (17,2)  (20,2)  (21,2)  (23,5)  (24,1)  (47,43) 
Branch_type_3  (3,4577)  (4,262)  (5,455)  (6,464)  (7,493)  (8,370)  (9,294)  (10,182)  (11,141)  (12,62)  (13,10)  (64,1) 
Branch_type_4  (6,4)  (7,8)  (8,26)  (9,59)  (10,70)  (11,72)  (12,122)  (13,103)  (14,113)  (15,96)  (16,103)  (17,85)  (18,67)  (19,126)  (20,75)  (21,141)  (22,222)  (23,136)  (24,208)  (25,101) 
Branch_type_5  (8,3)  (9,1)  (10,4)  (11,5)  (12,3)  (13,14)  (14,16)  (15,11)  (16,22)  (17,11)  (18,23)  (19,15)  (20,12)  (21,13)  (22,43)  (23,26)  (24,42) 
Branch_type_6  (5,4)  (6,13)  (7,25)  (8,38)  (9,38)  (10,75)  (11,62)  (12,93)  (13,102)  (14,116)  (15,91)  (16,101)  (17,78)  (18,63)  (19,118)  (20,58)  (21,104)  (22,149)  (23,72)  (24,100)  (25,4)  (47,53) 
Unique trigger count: 
Variant_0_evicts_0 : 0
Variant_0_evicts_1 : 0
Variant_0_evicts_2 : 0
Variant_0_evicts_3 : 0
Variant_1_evicts_0 : 0
Variant_1_evicts_1 : 0
Variant_1_evicts_2 : 0
Variant_1_evicts_3 : 0
Variant_2_evicts_0 : 0
Variant_2_evicts_1 : 0
Variant_2_evicts_2 : 0
Variant_2_evicts_3 : 0
Variant_3_evicts_0 : 0
Variant_3_evicts_1 : 0
Variant_3_evicts_2 : 0
Variant_3_evicts_3 : 0
BTB PER SET UNIQUE ADDR: 21 26 29 24 24 25 29 27 32 30 33 34 27 29 23 34 31 20 23 23 28 27 21 23 38 24 36 23 26 32 24 24 33 29 32 26 31 29 26 35 29 27 33 26 25 26 28 23 26 19 42 24 26 31 25 26 24 30 27 33 29 30 29 26 27 30 25 30 25 27 31 31 25 25 28 34 25 25 34 29 36 20 35 30 27 35 27 29 18 23 32 25 26 28 27 21 28 29 30 29 25 30 25 30 35 34 25 21 26 29 25 35 30 24 29 24 34 29 29 28 34 27 38 28 25 28 25 33 24 25 24 31 30 34 25 26 37 34 33 26 28 26 23 29 36 29 21 31 28 24 30 26 32 31 27 26 30 20 26 28 26 30 33 26 22 28 24 35 26 24 20 32 23 23 26 26 24 31 36 26 33 31 27 34 34 24 27 28 30 26 21 27 27 29 34 23 24 30 27 28 24 29 28 30 30 35 26 29 28 35 32 32 22 25 31 37 29 41 27 32 34 26 25 26 33 29 25 20 25 27 27 25 33 26 23 31 31 31 30 32 29 23 30 29 30 31 27 27 27 28 35 29 26 24 27 31 
BTB PER SET COUNT: 24 28 32 25 27 272 29 4495 522 30 1564 2728 27 2472 25 123 153 998 24 24 426 28 23 262 906 27 36 29 1492 2269 26 24 1988 2323 2350 28 32 29 29 1108 29 518 35 27 26 28 28 25 818 19 2819 256 2961 1008 77 29 1005 31 29 41 29 30 1154 1004 44 30 1007 31 1980 34 1053 33 513 27 30 1013 2230 210 2485 276 1993 20 39 1356 1005 39 135 32 18 14692 32 25 2469 28 27 21 28 22124 32 39 33 1012 1003 30 1012 36 27 25 27 3932 160 2701 35 30 34 983 2936 1009 29 34 35 43 1789 2947 1698 30 25 3893 24 30 26 1121 33 36 29 56 529 1536 1014 30 99 26 31 35 36 36 24 2467 28 27 1018 28 38 568 28 30 31 20 1982 29 26 5412 2969 1999 45 30 1002 41 43 24 1004 36 24 1013 29 27 1003 93 1711 30 1472 31 63 548 46 26 867 129 32 546 26 1283 1006 31 1736 1496 25 37 37 30 27 275 30 397 1984 1150 7355 2262 30 1501 416 34 23 33 40 40 1500 406 27 806 2720 394 390 1007 2086 43 30 22 26 2574 1989 1003 1044 117 23 163 31 32 7989 34 35 25 4289 1009 2615 1010 1009 27 1497 34 4766 2013 28 27 30 31 
To predecode: 0
Predecoding something: 0
Predecode request dropped: 0
sizeofblock_0 0
sizeofblock_1 12927
sizeofblock_2 24445
sizeofblock_3 60012
sizeofblock_4 60595
sizeofblock_5 0
sizeofblock_6 0
sizeofblock_7 0
sizeofblock_8 0
Variant_0 Correct: 1614805 Incorrect: 0 Accuracy: 1
Variant_1 Correct: 2091733 Incorrect: 0 Accuracy: 1
Variant_2 Correct: 3615696 Incorrect: 506 Accuracy: 0.99986
Variant_3 Correct: 0 Incorrect: 0 Accuracy: -nan
