
*** ChampSim Multicore Out-of-Order Simulator ***

Warmup Instructions: 50000000
Simulation Instructions: 50000000
Number of CPUs: 1
LLC sets: 2048
LLC ways: 16
Off-chip DRAM Size: 4096 MB Channels: 1 Width: 64-bit Data Rate: 6400 MT/s
CPU 0 runs ./micro_traces/srv27.trace.gz
.gz
ITLB has LRU replacement policy
DTLB has LRU replacement policy
STLB has LRU replacement policy
FDIP Prefetcher at L1I
L1I has LRU replacement policy
L1D has LRU replacement policy
Initialize SRRIP state for L2C
Initialize DRRIP state for LLC
Heartbeat_Variant_0 : 1299 0.158569 per_variant_size: 0 1299 0 0 0 0 0 0 0 
Heartbeat_Variant_1 : 2770 0.338135 per_variant_size: 0 1036 1734 0 0 0 0 0 0 
Heartbeat_Variant_2 : 0 0 per_variant_size: 0 0 0 0 0 0 0 0 0 
Heartbeat_Variant_3 : 0 0 per_variant_size: 0 0 0 0 0 0 0 0 0 
Heartbeat_Variant_0_evicts 0 : 7788 1 : 1659 2 : 0 3 : 0 
Heartbeat_Variant_1_evicts 0 : 1666 1 : 0 2 : 0 3 : 0 
Heartbeat_Variant_2_evicts 0 : 0 1 : 0 2 : 0 3 : 0 
Heartbeat_Variant_3_evicts 0 : 0 1 : 0 2 : 0 3 : 0 
Heartbeat CPU 0 instructions: 10000003 cycles: 2796913 heartbeat IPC: 3.57537 cumulative IPC: 3.57537 (Simulation time: 0 hr 1 min 57 sec) 
Heartbeat_Variant_0 : 1352 0.165039 per_variant_size: 0 1352 0 0 0 0 0 0 0 
Heartbeat_Variant_1 : 2884 0.352051 per_variant_size: 0 1043 1841 0 0 0 0 0 0 
Heartbeat_Variant_2 : 0 0 per_variant_size: 0 0 0 0 0 0 0 0 0 
Heartbeat_Variant_3 : 0 0 per_variant_size: 0 0 0 0 0 0 0 0 0 
Heartbeat_Variant_0_evicts 0 : 8027 1 : 1715 2 : 0 3 : 0 
Heartbeat_Variant_1_evicts 0 : 1715 1 : 0 2 : 0 3 : 0 
Heartbeat_Variant_2_evicts 0 : 0 1 : 0 2 : 0 3 : 0 
Heartbeat_Variant_3_evicts 0 : 0 1 : 0 2 : 0 3 : 0 
Heartbeat CPU 0 instructions: 20000000 cycles: 5593699 heartbeat IPC: 3.57553 cumulative IPC: 3.57545 (Simulation time: 0 hr 4 min 13 sec) 
Heartbeat_Variant_0 : 1373 0.167603 per_variant_size: 0 1373 0 0 0 0 0 0 0 
Heartbeat_Variant_1 : 2940 0.358887 per_variant_size: 0 1038 1902 0 0 0 0 0 0 
Heartbeat_Variant_2 : 0 0 per_variant_size: 0 0 0 0 0 0 0 0 0 
Heartbeat_Variant_3 : 0 0 per_variant_size: 0 0 0 0 0 0 0 0 0 
Heartbeat_Variant_0_evicts 0 : 7963 1 : 1718 2 : 0 3 : 0 
Heartbeat_Variant_1_evicts 0 : 1723 1 : 0 2 : 0 3 : 0 
Heartbeat_Variant_2_evicts 0 : 0 1 : 0 2 : 0 3 : 0 
Heartbeat_Variant_3_evicts 0 : 0 1 : 0 2 : 0 3 : 0 
Heartbeat CPU 0 instructions: 30000000 cycles: 8390829 heartbeat IPC: 3.57509 cumulative IPC: 3.57533 (Simulation time: 0 hr 6 min 16 sec) 
Heartbeat_Variant_0 : 1376 0.167969 per_variant_size: 0 1376 0 0 0 0 0 0 0 
Heartbeat_Variant_1 : 2939 0.358765 per_variant_size: 0 1034 1905 0 0 0 0 0 0 
Heartbeat_Variant_2 : 0 0 per_variant_size: 0 0 0 0 0 0 0 0 0 
Heartbeat_Variant_3 : 0 0 per_variant_size: 0 0 0 0 0 0 0 0 0 
Heartbeat_Variant_0_evicts 0 : 7855 1 : 1621 2 : 0 3 : 0 
Heartbeat_Variant_1_evicts 0 : 1618 1 : 0 2 : 0 3 : 0 
Heartbeat_Variant_2_evicts 0 : 0 1 : 0 2 : 0 3 : 0 
Heartbeat_Variant_3_evicts 0 : 0 1 : 0 2 : 0 3 : 0 
Heartbeat CPU 0 instructions: 40000001 cycles: 11187403 heartbeat IPC: 3.5758 cumulative IPC: 3.57545 (Simulation time: 0 hr 8 min 27 sec) 
Heartbeat_Variant_0 : 1485 0.181274 per_variant_size: 0 1485 0 0 0 0 0 0 0 
Heartbeat_Variant_1 : 3187 0.389038 per_variant_size: 0 1011 2176 0 0 0 0 0 0 
Heartbeat_Variant_2 : 0 0 per_variant_size: 0 0 0 0 0 0 0 0 0 
Heartbeat_Variant_3 : 0 0 per_variant_size: 0 0 0 0 0 0 0 0 0 
Heartbeat_Variant_0_evicts 0 : 7987 1 : 1757 2 : 0 3 : 0 
Heartbeat_Variant_1_evicts 0 : 1756 1 : 0 2 : 0 3 : 0 
Heartbeat_Variant_2_evicts 0 : 0 1 : 0 2 : 0 3 : 0 
Heartbeat_Variant_3_evicts 0 : 0 1 : 0 2 : 0 3 : 0 
Heartbeat CPU 0 instructions: 50000000 cycles: 13983253 heartbeat IPC: 3.57673 cumulative IPC: 3.57571 (Simulation time: 0 hr 10 min 32 sec) 

Warmup complete CPU 0 instructions: 50000004 cycles: 13983254 (Simulation time: 0 hr 10 min 32 sec) 

Cycle: 20000000 FTQ IN: 58193458 FTQ occupancy: 19.5318 DECODE IN: 58193417 DECODE occupancy: 50.9718 ROB IN: 58193389 ROB occupancy: 309.065 ROB OUT: 58193197
Heartbeat_Variant_0 : 1487 0.181519 per_variant_size: 0 1487 0 0 0 0 0 0 0 
Heartbeat_Variant_1 : 3185 0.388794 per_variant_size: 0 1023 2162 0 0 0 0 0 0 
Heartbeat_Variant_2 : 0 0 per_variant_size: 0 0 0 0 0 0 0 0 0 
Heartbeat_Variant_3 : 0 0 per_variant_size: 0 0 0 0 0 0 0 0 0 
Heartbeat_Variant_0_evicts 0 : 8061 1 : 1677 2 : 0 3 : 0 
Heartbeat_Variant_1_evicts 0 : 1675 1 : 0 2 : 0 3 : 0 
Heartbeat_Variant_2_evicts 0 : 0 1 : 0 2 : 0 3 : 0 
Heartbeat_Variant_3_evicts 0 : 0 1 : 0 2 : 0 3 : 0 
Heartbeat CPU 0 instructions: 60000000 cycles: 21319564 heartbeat IPC: 1.36308 cumulative IPC: 1.36308 (Simulation time: 0 hr 12 min 50 sec) 
Heartbeat_Variant_0 : 1484 0.181152 per_variant_size: 0 1484 0 0 0 0 0 0 0 
Heartbeat_Variant_1 : 3188 0.38916 per_variant_size: 0 1038 2150 0 0 0 0 0 0 
Heartbeat_Variant_2 : 0 0 per_variant_size: 0 0 0 0 0 0 0 0 0 
Heartbeat_Variant_3 : 0 0 per_variant_size: 0 0 0 0 0 0 0 0 0 
Heartbeat_Variant_0_evicts 0 : 8100 1 : 1625 2 : 0 3 : 0 
Heartbeat_Variant_1_evicts 0 : 1628 1 : 0 2 : 0 3 : 0 
Heartbeat_Variant_2_evicts 0 : 0 1 : 0 2 : 0 3 : 0 
Heartbeat_Variant_3_evicts 0 : 0 1 : 0 2 : 0 3 : 0 
Heartbeat CPU 0 instructions: 70000003 cycles: 28697447 heartbeat IPC: 1.3554 cumulative IPC: 1.35923 (Simulation time: 0 hr 15 min 15 sec) 
Cycle: 30000000 FTQ IN: 13540456 FTQ occupancy: 11.6143 DECODE IN: 13540395 DECODE occupancy: 29.9439 ROB IN: 13540363 ROB occupancy: 216.378 ROB OUT: 13540392
Heartbeat_Variant_0 : 1494 0.182373 per_variant_size: 0 1494 0 0 0 0 0 0 0 
Heartbeat_Variant_1 : 3214 0.392334 per_variant_size: 0 1042 2172 0 0 0 0 0 0 
Heartbeat_Variant_2 : 0 0 per_variant_size: 0 0 0 0 0 0 0 0 0 
Heartbeat_Variant_3 : 0 0 per_variant_size: 0 0 0 0 0 0 0 0 0 
Heartbeat_Variant_0_evicts 0 : 8197 1 : 1657 2 : 0 3 : 0 
Heartbeat_Variant_1_evicts 0 : 1658 1 : 0 2 : 0 3 : 0 
Heartbeat_Variant_2_evicts 0 : 0 1 : 0 2 : 0 3 : 0 
Heartbeat_Variant_3_evicts 0 : 0 1 : 0 2 : 0 3 : 0 
Heartbeat CPU 0 instructions: 80000003 cycles: 36043770 heartbeat IPC: 1.36123 cumulative IPC: 1.3599 (Simulation time: 0 hr 17 min 32 sec) 
Cycle: 40000000 FTQ IN: 13657465 FTQ occupancy: 11.5693 DECODE IN: 13657499 DECODE occupancy: 30.1954 ROB IN: 13657499 ROB occupancy: 218.812 ROB OUT: 13657589
Heartbeat_Variant_0 : 1497 0.182739 per_variant_size: 0 1497 0 0 0 0 0 0 0 
Heartbeat_Variant_1 : 3217 0.3927 per_variant_size: 0 1035 2182 0 0 0 0 0 0 
Heartbeat_Variant_2 : 0 0 per_variant_size: 0 0 0 0 0 0 0 0 0 
Heartbeat_Variant_3 : 0 0 per_variant_size: 0 0 0 0 0 0 0 0 0 
Heartbeat_Variant_0_evicts 0 : 7934 1 : 1608 2 : 0 3 : 0 
Heartbeat_Variant_1_evicts 0 : 1606 1 : 0 2 : 0 3 : 0 
Heartbeat_Variant_2_evicts 0 : 0 1 : 0 2 : 0 3 : 0 
Heartbeat_Variant_3_evicts 0 : 0 1 : 0 2 : 0 3 : 0 
Heartbeat CPU 0 instructions: 90000002 cycles: 43445966 heartbeat IPC: 1.35095 cumulative IPC: 1.35765 (Simulation time: 0 hr 19 min 54 sec) 
Cycle: 50000000 FTQ IN: 13572508 FTQ occupancy: 11.71 DECODE IN: 13572545 DECODE occupancy: 30.1819 ROB IN: 13572595 ROB occupancy: 216.783 ROB OUT: 13572545
Heartbeat_Variant_0 : 1497 0.182739 per_variant_size: 0 1497 0 0 0 0 0 0 0 
Heartbeat_Variant_1 : 3226 0.393799 per_variant_size: 0 1035 2191 0 0 0 0 0 0 
Heartbeat_Variant_2 : 0 0 per_variant_size: 0 0 0 0 0 0 0 0 0 
Heartbeat_Variant_3 : 0 0 per_variant_size: 0 0 0 0 0 0 0 0 0 
Heartbeat_Variant_0_evicts 0 : 8198 1 : 1693 2 : 0 3 : 0 
Heartbeat_Variant_1_evicts 0 : 1694 1 : 0 2 : 0 3 : 0 
Heartbeat_Variant_2_evicts 0 : 0 1 : 0 2 : 0 3 : 0 
Heartbeat_Variant_3_evicts 0 : 0 1 : 0 2 : 0 3 : 0 
Heartbeat CPU 0 instructions: 100000001 cycles: 50756818 heartbeat IPC: 1.36783 cumulative IPC: 1.35967 (Simulation time: 0 hr 22 min 5 sec) 
Finished CPU 0 instructions: 50000000 cycles: 36773565 cumulative IPC: 1.35967 (Simulation time: 0 hr 22 min 5 sec) 

ChampSim completed all CPUs

Region of Interest Statistics

CPU 0 cumulative IPC: 1.35967 instructions: 50000000 cycles: 36773565
 Fetch stage stalled: 58.0427  Sim cycles: 36773565 fetch stall cycle: 21344365
 Empty decode stage: 40.0701  Sim cycles: 36773565 fetch stall cycle: 14735188
ITLB TOTAL     ACCESS:    5828377  HIT:    5334281  MISS:     494096  HIT %:    91.5226  MISS %:    8.47742   MPKI: 9.88192
ITLB LOAD TRANSLATION INSTRUCTION	ACCESS:    5714577  HIT:    5220481  MISS:     494096  HIT %:    91.3538  MISS %:    8.64624  MPKI: 9.88192
ITLB TRANSLATION FROM L1D PREFETCHER INSTRUCTION	ACCESS:     113800  HIT:     113800  MISS:          0  HIT %:        100  MISS %:          0  MPKI: 0

ITLB AVERAGE MISS LATENCY: 9.05069 cycles
ITLB RQ	ACCESS:    7946662	FORWARD:          0	MERGED:    1666332	TO_CACHE:    6280330

DTLB TOTAL     ACCESS:    8995736  HIT:    8521710  MISS:     474026  HIT %:    94.7305  MISS %:    5.26945   MPKI: 9.48052
DTLB LOAD TRANSLATION DATA	ACCESS:    8995736  HIT:    8521710  MISS:     474026  HIT %:    94.7305  MISS %:    5.26945  MPKI: 9.48052

DTLB AVERAGE MISS LATENCY: 9.31096 cycles
DTLB RQ	ACCESS:   13358905	FORWARD:          0	MERGED:    4326079	TO_CACHE:    9032826

STLB TOTAL     ACCESS:    1216114  HIT:    1214122  MISS:       1992  HIT %:    99.8362  MISS %:     0.1638   MPKI: 0.03984
STLB LOAD TRANSLATION INSTRUCTION	ACCESS:     494096  HIT:     493867  MISS:        229  HIT %:    99.9537  MISS %:  0.0463473  MPKI: 0.00458
STLB LOAD TRANSLATION DATA	ACCESS:     474025  HIT:     472296  MISS:       1729  HIT %:    99.6353  MISS %:   0.364749  MPKI: 0.03458
STLB TRANSLATION FROM L1D PREFETCHER DATA	ACCESS:     247993  HIT:     247959  MISS:         34  HIT %:    99.9863  MISS %:  0.0137101  MPKI: 0.00068

STLB AVERAGE MISS LATENCY: 71.0065 cycles
STLB RQ	ACCESS:    1336429	FORWARD:          0	MERGED:     120266	TO_CACHE:    1216163

STLB Hit, L1D data hit: 0
STLB Hit, L2C data hit: 0
STLB Hit, LLC data hit: 0
STLB Hit, LLC data miss: 0
STLB STLB hints to L2: 0
L1D TOTAL     ACCESS:   13111719  HIT:   11996872  MISS:    1114847  HIT %:    91.4973  MISS %:    8.50268   MPKI: 22.2969
L1D LOAD DATA	ACCESS:    6574882  HIT:    5839960  MISS:     734922  HIT %:    88.8223  MISS %:    11.1777  MPKI: 14.6984
L1D RFO DATA	ACCESS:    6209322  HIT:    5923948  MISS:     285374  HIT %:    95.4041  MISS %:     4.5959  MPKI: 5.70748
L1D PREFETCH DATA	ACCESS:     327515  HIT:     232964  MISS:      94551  HIT %:    71.1308  MISS %:    28.8692  MPKI: 1.89102

L1D PREFETCH  REQUESTED:     736941  ISSUED:     736941  USEFUL:      33292  USELESS:      68804
L1D USEFUL LOAD PREFETCHES:      33292 PREFETCH ISSUED TO LOWER LEVEL:     102136  ACCURACY: 32.5958
 TIMELY PREFETCHES:      33292 LATE PREFETCHES: 7523 DROPPED PREFETCHES: 12
L1D AVERAGE MISS LATENCY: 223761 cycles
L1D RQ	ACCESS:   10703527	FORWARD:          0	MERGED:    3932401	TO_CACHE:    6607930
L1D WQ	ACCESS:    6944847	FORWARD:     163523	MERGED:     193872	TO_CACHE:    6750975
L1D PQ	ACCESS:     368634	FORWARD:          0	MERGED:          0	TO_CACHE:     368307

L1D UNIQUE REGIONS ACCESSED: 0
L1D REGIONS CONFLICTS: 0
L1D Cross Page Prefetch Requests: 6913
L1D Same Page Prefetch Requests: 749556
L1D ROI Sum of L1D PQ occupancy: 4675315
L1D PREFETCHES PUSHED FROM L2C: 0
L1I TOTAL     ACCESS:    7150503  HIT:    4387883  MISS:    2762620  HIT %:    61.3647  MISS %:    38.6353   MPKI: 55.2524
L1I LOAD INSTRUCTION	ACCESS:    6500613  HIT:    3737993  MISS:    2762620  HIT %:    57.5022  MISS %:    42.4978  MPKI: 55.2524
L1I PREFETCH INSTRUCTION	ACCESS:     649890  HIT:     649890  MISS:          0  HIT %:        100  MISS %:          0  MPKI: 0

L1I PREFETCH  REQUESTED:    1547404  ISSUED:    1547404  USEFUL:          0  USELESS:          0
L1I USEFUL LOAD PREFETCHES:          0 PREFETCH ISSUED TO LOWER LEVEL:          0  ACCURACY: -nan
 TIMELY PREFETCHES:          0 LATE PREFETCHES: 0 DROPPED PREFETCHES: 0
L1I AVERAGE MISS LATENCY: 17.178 cycles
L1I RQ	ACCESS:    9489121	FORWARD:          0	MERGED:    2670041	TO_CACHE:    6819080
L1I PQ	ACCESS:    1547404	FORWARD:          0	MERGED:     419822	TO_CACHE:    1127582

L1BTB TOTAL     ACCESS:    5670761  HIT:    2040849  MISS:    3629912  HIT %:     35.989  MISS %:     64.011   MPKI: 72.5982
L1BTB BRANCH_DIRECT_JUMP	ACCESS:     547203 HIT:     144338 MISS:     402865 AVERAGE STALL: 49.2336 AVERAGE FETCH STALL: 17.7597 AVERAGE FETCH QUEUE STALL: 14.3388 AVERAGE DECODE STALL: 16.2641 AVERAGE EXECUTE STALL: 1.65442e+15
L1BTB BRANCH_INDIRECT	ACCESS:     182550 HIT:      65772 MISS:     116778 AVERAGE STALL: 107.969 AVERAGE FETCH STALL: 11.8181 AVERAGE FETCH QUEUE STALL: 14.1908 AVERAGE DECODE STALL: 12.3848 AVERAGE EXECUTE STALL: 68.6113
L1BTB BRANCH_CONDITIONAL	ACCESS:    2702419 HIT:    1410272 MISS:    1292147 AVERAGE STALL: 48.9728 AVERAGE FETCH STALL: 24.3685 AVERAGE FETCH QUEUE STALL: 12.1999 AVERAGE DECODE STALL: 11.677 AVERAGE EXECUTE STALL: 1.65027e+15
L1BTB BRANCH_DIRECT_CALL	ACCESS:     946910 HIT:     106385 MISS:     840525 AVERAGE STALL: 57.808 AVERAGE FETCH STALL: 21.0463 AVERAGE FETCH QUEUE STALL: 19.3704 AVERAGE DECODE STALL: 16.6556 AVERAGE EXECUTE STALL: 8.29477e+14
L1BTB BRANCH_INDIRECT_CALL	ACCESS:     172381 HIT:      21863 MISS:     150518 AVERAGE STALL: 133.426 AVERAGE FETCH STALL: 13.8174 AVERAGE FETCH QUEUE STALL: 13.2197 AVERAGE DECODE STALL: 10.3873 AVERAGE EXECUTE STALL: 95.4976
L1BTB BRANCH_RETURN	ACCESS:    1119298 HIT:     292219 MISS:     827079 AVERAGE STALL: 47.0656 AVERAGE FETCH STALL: 16.3513 AVERAGE FETCH QUEUE STALL: 6.34942 AVERAGE DECODE STALL: 7.11735 AVERAGE EXECUTE STALL: 4.08656e+14
L1BTB BRANCH_OTHER ACCESS:          0 HIT:          0 MISS:          0 AVERAGE STALL: -nan AVERAGE FETCH STALL: -nan AVERAGE FETCH QUEUE STALL: -nan AVERAGE DECODE STALL: -nan AVERAGE EXECUTE STALL: -nan
L1BTB TOTAL ROB OCCUPANCY AT BTB MISS: 4.25605

L2BTB TOTAL     ACCESS:    3604564  HIT:    3504899  MISS:      99665  HIT %:     97.235  MISS %:    2.76497   MPKI: 1.9933
L2BTB BRANCH_DIRECT_JUMP	ACCESS:     398719 HIT:     391712 MISS:       7007 AVERAGE STALL: 49.2336 AVERAGE FETCH STALL: 17.7597 AVERAGE FETCH QUEUE STALL: 14.3388 AVERAGE DECODE STALL: 16.2641 AVERAGE EXECUTE STALL: 1.65442e+15
L2BTB BRANCH_INDIRECT	ACCESS:     106505 HIT:     103300 MISS:       3205 AVERAGE STALL: 107.969 AVERAGE FETCH STALL: 11.8181 AVERAGE FETCH QUEUE STALL: 14.1908 AVERAGE DECODE STALL: 12.3848 AVERAGE EXECUTE STALL: 68.6113
L2BTB BRANCH_CONDITIONAL	ACCESS:    1292147 HIT:    1280923 MISS:      11224 AVERAGE STALL: 48.9728 AVERAGE FETCH STALL: 24.3685 AVERAGE FETCH QUEUE STALL: 12.1999 AVERAGE DECODE STALL: 11.677 AVERAGE EXECUTE STALL: 1.65027e+15
L2BTB BRANCH_DIRECT_CALL	ACCESS:     840525 HIT:     818270 MISS:      22255 AVERAGE STALL: 57.808 AVERAGE FETCH STALL: 21.0463 AVERAGE FETCH QUEUE STALL: 19.3704 AVERAGE DECODE STALL: 16.6556 AVERAGE EXECUTE STALL: 8.29477e+14
L2BTB BRANCH_INDIRECT_CALL	ACCESS:     140993 HIT:     128773 MISS:      12220 AVERAGE STALL: 133.426 AVERAGE FETCH STALL: 13.8174 AVERAGE FETCH QUEUE STALL: 13.2197 AVERAGE DECODE STALL: 10.3873 AVERAGE EXECUTE STALL: 95.4976
L2BTB BRANCH_RETURN	ACCESS:     825675 HIT:     781921 MISS:      43754 AVERAGE STALL: 47.0656 AVERAGE FETCH STALL: 16.3513 AVERAGE FETCH QUEUE STALL: 6.34942 AVERAGE DECODE STALL: 7.11735 AVERAGE EXECUTE STALL: 4.08656e+14
L2BTB BRANCH_OTHER ACCESS:          0 HIT:          0 MISS:          0 AVERAGE STALL: -nan AVERAGE FETCH STALL: -nan AVERAGE FETCH QUEUE STALL: -nan AVERAGE DECODE STALL: -nan AVERAGE EXECUTE STALL: -nan
L2BTB TOTAL ROB OCCUPANCY AT BTB MISS: 155.01

L2C TOTAL     ACCESS:    4486689  HIT:    4013356  MISS:     473333  HIT %:    89.4503  MISS %:    10.5497   MPKI: 9.46666
L2C LOAD INSTRUCTION	ACCESS:    2762620  HIT:    2504414  MISS:     258206  HIT %:    90.6536  MISS %:    9.34642  MPKI: 5.16412
L2C LOAD TRANSLATION INSTRUCTION	ACCESS:        252  HIT:         59  MISS:        193  HIT %:    23.4127  MISS %:    76.5873  MPKI: 0.00386
L2C LOAD DATA	ACCESS:     727379  HIT:     646515  MISS:      80864  HIT %:    88.8828  MISS %:    11.1172  MPKI: 1.61728
L2C RFO DATA	ACCESS:     285296  HIT:     239653  MISS:      45643  HIT %:    84.0015  MISS %:    15.9985  MPKI: 0.91286
L2C PREFETCH DATA	ACCESS:     189088  HIT:     116529  MISS:      72559  HIT %:    61.6269  MISS %:    38.3731  MPKI: 1.45118
L2C WRITEBACK DATA	ACCESS:     520213  HIT:     505592  MISS:      14621  HIT %:    97.1894  MISS %:    2.81058  MPKI: 0.29242
L2C LOAD TRANSLATION DATA	ACCESS:       1778  HIT:        549  MISS:       1229  HIT %:    30.8774  MISS %:    69.1226  MPKI: 0.02458
L2C TRANSLATION FROM L1D PREFETCHER DATA	ACCESS:         63  HIT:         45  MISS:         18  HIT %:    71.4286  MISS %:    28.5714  MPKI: 0.00036

L2C PREFETCH  REQUESTED:      95032  ISSUED:      95032  USEFUL:       8007  USELESS:      65208
L2C USEFUL LOAD PREFETCHES:       8007 PREFETCH ISSUED TO LOWER LEVEL:      73156  ACCURACY: 10.9451
 TIMELY PREFETCHES:       8007 LATE PREFETCHES: 597 DROPPED PREFETCHES: 0
L2C AVERAGE MISS LATENCY: 38.1053 cycles
L2C RQ	ACCESS:    3777424	FORWARD:          0	MERGED:          0	TO_CACHE:    3777388
L2C WQ	ACCESS:     520213	FORWARD:         36	MERGED:          0	TO_CACHE:     520213
L2C PQ	ACCESS:     197168	FORWARD:          0	MERGED:       3570	TO_CACHE:     193598

L2C Dense regions hint from L2: 0
PSCL5 TOTAL     ACCESS:       4018  HIT:       2009  MISS:       2009  HIT %:         50  MISS %:         50   MPKI: 0.04018
PSCL5 LOAD TRANSLATION INSTRUCTION	ACCESS:       3894  HIT:       1947  MISS:       1947  HIT %:         50  MISS %:         50  MPKI: 0.03894
PSCL5 TRANSLATION FROM L1D PREFETCHER INSTRUCTION	ACCESS:        124  HIT:         62  MISS:         62  HIT %:         50  MISS %:         50  MPKI: 0.00124


PSCL4 TOTAL     ACCESS:       3911  HIT:       1952  MISS:       1959  HIT %:    49.9105  MISS %:    50.0895   MPKI: 0.03918
PSCL4 LOAD TRANSLATION INSTRUCTION	ACCESS:       2554  HIT:       1890  MISS:        664  HIT %:    74.0016  MISS %:    25.9984  MPKI: 0.01328
PSCL4 TRANSLATION FROM L1D PREFETCHER INSTRUCTION	ACCESS:         88  HIT:         62  MISS:         26  HIT %:    70.4545  MISS %:    29.5455  MPKI: 0.00052
PSCL4 LOAD TRANSLATION DATA	ACCESS:       1233  HIT:          0  MISS:       1233  HIT %:          0  MISS %:        100  MPKI: 0.02466
PSCL4 TRANSLATION FROM L1D PREFETCHER DATA	ACCESS:         36  HIT:          0  MISS:         36  HIT %:          0  MISS %:        100  MPKI: 0.00072


PSCL3 TOTAL     ACCESS:       3987  HIT:       1990  MISS:       1997  HIT %:    49.9122  MISS %:    50.0878   MPKI: 0.03994
PSCL3 LOAD TRANSLATION INSTRUCTION	ACCESS:       2592  HIT:       1928  MISS:        664  HIT %:    74.3827  MISS %:    25.6173  MPKI: 0.01328
PSCL3 TRANSLATION FROM L1D PREFETCHER INSTRUCTION	ACCESS:         88  HIT:         62  MISS:         26  HIT %:    70.4545  MISS %:    29.5455  MPKI: 0.00052
PSCL3 LOAD TRANSLATION DATA	ACCESS:       1271  HIT:          0  MISS:       1271  HIT %:          0  MISS %:        100  MPKI: 0.02542
PSCL3 TRANSLATION FROM L1D PREFETCHER DATA	ACCESS:         36  HIT:          0  MISS:         36  HIT %:          0  MISS %:        100  MPKI: 0.00072


PSCL2 TOTAL     ACCESS:       3948  HIT:       1939  MISS:       2009  HIT %:    49.1135  MISS %:    50.8865   MPKI: 0.04018
PSCL2 LOAD TRANSLATION INSTRUCTION	ACCESS:       2107  HIT:       1878  MISS:        229  HIT %:    89.1315  MISS %:    10.8685  MPKI: 0.00458
PSCL2 TRANSLATION FROM L1D PREFETCHER INSTRUCTION	ACCESS:         61  HIT:         61  MISS:          0  HIT %:        100  MISS %:          0  MPKI: 0
PSCL2 LOAD TRANSLATION DATA	ACCESS:       1719  HIT:          0  MISS:       1719  HIT %:          0  MISS %:        100  MPKI: 0.03438
PSCL2 TRANSLATION FROM L1D PREFETCHER DATA	ACCESS:         61  HIT:          0  MISS:         61  HIT %:          0  MISS %:        100  MPKI: 0.00122


LLC TOTAL     ACCESS:     527606  HIT:     500089  MISS:      27517  HIT %:    94.7846  MISS %:    5.21544   MPKI: 0.55034
LLC LOAD INSTRUCTION	ACCESS:     258206  HIT:     257448  MISS:        758  HIT %:    99.7064  MISS %:   0.293564  MPKI: 0.01516
LLC LOAD TRANSLATION INSTRUCTION	ACCESS:        193  HIT:        164  MISS:         29  HIT %:    84.9741  MISS %:    15.0259  MPKI: 0.00058
LLC LOAD DATA	ACCESS:      80310  HIT:      76947  MISS:       3363  HIT %:    95.8125  MISS %:    4.18752  MPKI: 0.06726
LLC RFO DATA	ACCESS:      45596  HIT:      32421  MISS:      13175  HIT %:    71.1049  MISS %:    28.8951  MPKI: 0.2635
LLC PREFETCH DATA	ACCESS:      73156  HIT:      63348  MISS:       9808  HIT %:     86.593  MISS %:     13.407  MPKI: 0.19616
LLC WRITEBACK DATA	ACCESS:      68898  HIT:      68579  MISS:        319  HIT %:     99.537  MISS %:   0.463003  MPKI: 0.00638
LLC LOAD TRANSLATION DATA	ACCESS:       1229  HIT:       1165  MISS:         64  HIT %:    94.7925  MISS %:    5.20749  MPKI: 0.00128
LLC TRANSLATION FROM L1D PREFETCHER DATA	ACCESS:         18  HIT:         17  MISS:          1  HIT %:    94.4444  MISS %:    5.55556  MPKI: 2e-05

LLC AVERAGE MISS LATENCY: 154.032 cycles
LLC RQ	ACCESS:     385556	FORWARD:          0	MERGED:          0	TO_CACHE:     385552
LLC WQ	ACCESS:      68898	FORWARD:          4	MERGED:          0	TO_CACHE:      68898
LLC PQ	ACCESS:      73156	FORWARD:          0	MERGED:          0	TO_CACHE:      73156

LLC Dense regions hint to LLC: 0

RAW hits: 1925925
Loads Generated: 12629451
Loads sent to L1D: 10703527
Stores Generated: 6944835
Stores sent to L1D: 6944847
Major fault: 0 Minor fault: 2650
Allocated PAGES: 2650

stream: 
stream:times selected: 1187656
stream:pref_filled: 122066
stream:pref_useful: 23844
stream:pref_late: 6981
stream:misses: 7826
stream:misses_by_poll: 0

CS: 
CS:times selected: 179411
CS:pref_filled: 60791
CS:pref_useful: 37457
CS:pref_late: 6732
CS:misses: 16047
CS:misses_by_poll: 2

CPLX: 
CPLX:times selected: 1007056
CPLX:pref_filled: 19637
CPLX:pref_useful: 4542
CPLX:pref_late: 3178
CPLX:misses: 93494
CPLX:misses_by_poll: 0

NL_L1: 
NL:times selected: 20835
NL:pref_filled: 726
NL:pref_useful: 326
NL:pref_late: 317
NL:misses: 1745
NL:misses_by_poll: 0

total selections: 2394958
total_filled: 94551
total_useful: 33292
total_late: 18563
total_polluted: 2
total_misses_after_warmup: 767971
conflicts: 5527715

test: 116312

DRAM Statistics
 CHANNEL 0
 RQ ROW_BUFFER_HIT:      10337  ROW_BUFFER_MISS:      16854
 DBUS_CONGESTED:          6
 WQ ROW_BUFFER_HIT:       1323  ROW_BUFFER_MISS:      11749  FULL:          0

 AVG_CONGESTED_CYCLE: 4

CPU 0 Branch Prediction Accuracy: 99.822% MPKI: 0.3256 Average ROB Occupancy at Mispredict: 181.262
Branch types
NOT_BRANCH: 40852687 81.7054%
BRANCH_DIRECT_JUMP: 547203 1.09441%
BRANCH_INDIRECT: 182550 0.3651%
BRANCH_CONDITIONAL: 6178980 12.358%
BRANCH_DIRECT_CALL: 946910 1.89382%
BRANCH_INDIRECT_CALL: 172381 0.344762%
BRANCH_RETURN: 1119298 2.2386%
BRANCH_OTHER: 0 0%

DRAM PAGES: 1048576
Allocated PAGES: 2650
Average_ROB_Occupancy: 218.373
Average_Decode_Occupancy: 30.0446
Average_FTQ_Occupancy: 11.5971
Indirect max targets: 14 Average targets: 1.18125
Branch_type:  BRANCH_DIRECT_JUMP:  Count Percentage: 3.81156 5.29529 4.21399 6.94864 3.49057 2.5443 2.26795 71.4277 
Branch_type:  BRANCH_INDIRECT:  Count Percentage: 11.7744 3.42163 2.54065 9.68396 3.34478 2.80842 1.73817 64.688 
Branch_type:  BRANCH_CONDITIONAL:  Count Percentage: 21.3703 2.92026 2.29738 4.11465 2.50992 2.37156 2.77644 61.6395 
Branch_type:  BRANCH_DIRECT_CALL:  Count Percentage: 0.389486 1.77128 0.73765 3.56831 3.61631 2.05884 4.09755 83.7606 
Branch_type:  BRANCH_INDIRECT_CALL:  Count Percentage: 9.54764 0 2.99262 5.27322 1.05622 2.03287 3.85007 75.2474 
Branch_type:  BRANCH_RETURN:  Count Percentage: 3.94402 1.99213 2.35568 4.14679 4.54676 3.28298 3.69985 76.0318 
Branch_type:  BRANCH_DIRECT_JUMP:  Total Count: 41750 58002 46158 76112 38234 27869 24842 782384 
Branch_type:  BRANCH_INDIRECT:  Total Count: 43049 12510 9289 35406 12229 10268 6355 236509 
Branch_type:  BRANCH_CONDITIONAL:  Total Count: 2640359 360806 283847 508375 310107 293012 343036 7615710 
Branch_type:  BRANCH_DIRECT_CALL:  Total Count: 7352 33435 13924 67356 68262 38863 77346 1581079 
Branch_type:  BRANCH_INDIRECT_CALL:  Total Count: 32759 0 10268 18093 3624 6975 13210 258182 
Branch_type:  BRANCH_RETURN:  Total Count: 88016 44457 52570 92541 101467 73264 82567 1696750 
Number of unique branch instructions: 11078
Upper 32 bits: 
aaaa
ffff
ffff0000
Unique upper 32 bits: 3
Unique upper 36 bits: 3
Unique upper 40 bits: 5
Unique upper 44 bits: 32
Unique upper 48 bits: 160
Variant_0 : 1497 0.182739
Variant_1 : 3226 0.393799
Variant_2 : 0 0
Variant_3 : 0 0
Offset_3 4579
Offset_4 273
Offset_5 501
Offset_6 558
Offset_7 652
Offset_8 593
Offset_9 537
Offset_10 446
Offset_11 360
Offset_12 336
Offset_13 241
Offset_14 248
Offset_15 201
Offset_16 233
Offset_17 176
Offset_18 154
Offset_19 264
Offset_20 149
Offset_21 261
Offset_22 417
Offset_23 241
Offset_24 361
Offset_25 117
Offset_47 96
Offset_64 1
decode_dispatch_called: 24160484 65.7007
Dispatch_width: 0 12898638 53.3873 35.0758
Dispatch_width: 1 827180 3.42369 2.24939
Dispatch_width: 2 745378 3.08511 2.02694
Dispatch_width: 3 460281 1.9051 1.25166
Dispatch_width: 4 4447129 18.4066 12.0933
Dispatch_width: 5 178563 0.73907 0.485574
Dispatch_width: 6 4603315 19.0531 12.518
Empty_decode_cycles: 12613081 34.2993
ROB_full_cycles: 7101708 19.312
Starvation_cycles_per_kilo_instr: 250.685
Starvation_cycles_per_kilo_instr_3: 204.428
Starvation_cycles_per_kilo_instr_0: 184.1
Branch_type_1  (3,1)  (4,10)  (5,41)  (6,77)  (7,126)  (8,152)  (9,141)  (10,114)  (11,80)  (12,55)  (13,11)  (14,2)  (15,3)  (16,4)  (18,1)  (19,5)  (20,2)  (21,1)  (22,3)  (23,2)  (24,10)  (25,12) 
Branch_type_2  (3,1)  (4,1)  (5,1)  (8,4)  (9,4)  (10,1)  (12,1)  (13,1)  (14,1)  (16,3)  (17,2)  (20,2)  (21,2)  (23,5)  (24,1)  (47,43) 
Branch_type_3  (3,4577)  (4,262)  (5,455)  (6,464)  (7,493)  (8,370)  (9,294)  (10,182)  (11,141)  (12,62)  (13,10)  (64,1) 
Branch_type_4  (6,4)  (7,8)  (8,26)  (9,59)  (10,70)  (11,72)  (12,122)  (13,103)  (14,113)  (15,96)  (16,103)  (17,85)  (18,67)  (19,126)  (20,75)  (21,141)  (22,222)  (23,136)  (24,208)  (25,101) 
Branch_type_5  (8,3)  (9,1)  (10,4)  (11,5)  (12,3)  (13,14)  (14,16)  (15,11)  (16,22)  (17,11)  (18,23)  (19,15)  (20,12)  (21,13)  (22,43)  (23,26)  (24,42) 
Branch_type_6  (5,4)  (6,13)  (7,25)  (8,38)  (9,38)  (10,75)  (11,62)  (12,93)  (13,102)  (14,116)  (15,91)  (16,101)  (17,78)  (18,63)  (19,118)  (20,58)  (21,104)  (22,149)  (23,72)  (24,100)  (25,4)  (47,53) 
Unique trigger count: 
Variant_0_evicts_0 : 0
Variant_0_evicts_1 : 0
Variant_0_evicts_2 : 0
Variant_0_evicts_3 : 0
Variant_1_evicts_0 : 0
Variant_1_evicts_1 : 0
Variant_1_evicts_2 : 0
Variant_1_evicts_3 : 0
Variant_2_evicts_0 : 0
Variant_2_evicts_1 : 0
Variant_2_evicts_2 : 0
Variant_2_evicts_3 : 0
Variant_3_evicts_0 : 0
Variant_3_evicts_1 : 0
Variant_3_evicts_2 : 0
Variant_3_evicts_3 : 0
BTB PER SET UNIQUE ADDR: 3 4 4 3 1 2 3 2 4 0 3 0 5 3 2 3 3 2 4 5 3 4 2 3 4 5 1 4 3 2 6 6 4 4 6 2 1 6 6 3 4 4 4 8 6 4 4 4 6 4 4 2 3 2 2 4 4 3 3 3 1 4 2 3 1 5 6 4 3 5 5 1 1 4 2 3 3 7 2 4 2 3 1 4 3 3 2 5 3 3 6 5 3 5 3 0 4 4 2 4 4 4 3 3 4 2 1 2 3 2 2 2 3 6 2 6 2 5 4 1 5 5 2 0 1 2 3 2 7 6 6 2 4 3 6 4 2 2 3 3 5 4 4 2 3 5 3 5 5 5 3 9 3 5 4 1 4 4 4 3 5 6 5 4 7 6 2 2 9 3 3 3 5 3 1 2 4 5 6 1 3 5 7 4 7 7 4 2 2 3 6 3 3 4 4 4 4 3 3 6 3 2 4 2 3 3 2 5 3 1 2 4 5 4 4 2 3 5 4 0 1 3 2 4 3 2 4 3 0 4 8 4 3 4 4 4 5 3 2 3 1 0 6 4 11 8 1 3 4 4 3 2 1 4 2 7 3 5 4 3 4 4 4 2 3 7 3 2 4 2 3 2 2 3 5 2 2 1 3 3 4 3 6 2 5 5 3 3 1 1 0 3 1 6 2 1 5 3 2 2 3 3 2 2 4 2 4 2 8 5 4 1 3 2 5 2 7 6 2 4 4 7 3 5 2 3 3 7 2 2 5 0 2 5 5 2 4 5 6 0 4 0 1 5 5 3 1 6 5 6 4 8 6 3 5 3 2 0 5 1 2 6 2 4 7 5 1 1 2 2 3 2 3 4 4 4 3 4 3 4 6 3 3 6 3 2 5 2 6 1 5 5 4 2 3 1 5 0 1 4 4 2 4 2 2 4 3 2 1 1 1 3 5 4 2 3 6 3 1 3 1 1 4 4 5 6 3 0 2 5 1 2 8 3 5 5 3 3 4 1 3 4 5 3 5 6 2 3 3 2 4 3 1 3 5 1 1 3 7 3 3 3 4 6 2 3 6 3 3 3 0 4 5 3 3 1 4 5 2 1 2 2 2 2 0 4 3 0 6 1 5 2 3 5 1 5 3 3 2 1 5 1 1 2 1 2 2 2 2 3 3 2 5 8 2 1 2 5 4 6 4 3 4 3 5 6 1 6 6 4 6 3 4 6 3 5 2 1 4 1 2 5 7 3 6 2 8 3 7 9 4 6 3 6 1 3 3 1 4 4 7 3 5 3 2 1 4 3 3 7 3 2 3 7 2 2 3 4 1 5 5 2 2 0 1 0 0 9 4 2 6 7 2 2 3 3 7 2 4 2 7 2 6 7 2 4 3 4 2 2 5 3 2 3 2 2 2 0 3 1 5 3 8 2 2 4 3 5 2 3 5 4 3 3 5 5 3 5 3 3 8 1 4 4 1 0 4 4 3 5 4 2 4 2 3 0 5 3 2 3 6 2 5 4 5 4 5 3 2 4 5 5 4 4 5 7 3 3 3 3 4 2 6 3 5 3 5 4 4 3 1 5 2 3 3 4 6 4 5 6 0 6 0 3 3 3 4 1 3 1 3 4 4 2 2 1 8 2 0 3 2 0 1 1 1 3 1 4 2 4 6 6 2 2 3 5 8 4 2 2 2 4 2 4 2 2 4 2 5 2 1 2 1 4 2 2 3 6 4 2 3 3 1 5 4 4 8 3 2 2 5 5 0 3 3 4 5 2 2 3 4 4 0 3 8 6 3 5 0 3 3 4 1 1 4 7 7 2 3 3 6 3 5 3 5 4 3 5 1 2 1 4 4 0 5 4 1 2 0 4 5 2 4 2 2 3 3 3 4 4 3 1 3 2 5 2 2 2 5 3 2 2 3 4 2 4 7 5 6 2 6 3 6 4 6 5 3 2 5 4 3 6 2 1 9 3 3 4 5 4 1 4 3 6 4 0 2 3 5 4 3 6 4 5 6 3 2 3 3 5 5 3 3 4 3 1 7 4 2 1 5 2 1 4 5 5 4 5 3 5 5 4 1 3 1 6 0 3 6 2 6 5 5 3 4 1 3 2 5 8 5 4 9 7 6 4 6 4 2 8 4 2 1 4 4 6 5 5 5 4 6 1 5 5 2 4 6 6 4 2 3 3 4 5 2 6 9 5 6 3 3 4 0 6 7 1 7 5 1 3 7 5 3 5 2 1 2 5 4 3 5 6 3 7 5 5 4 5 3 5 3 3 5 2 2 5 4 3 3 3 5 4 4 5 6 2 5 3 2 5 5 2 10 5 3 3 3 2 2 3 5 8 6 2 3 2 3 2 3 1 4 2 4 4 3 4 6 5 4 6 1 3 3 4 5 4 2 1 3 2 3 2 2 1 4 1 3 3 3 5 2 8 5 3 2 1 10 1 2 4 1 2 6 7 3 8 3 5 5 7 3 5 3 2 1 1 5 1 4 4 3 9 4 1 7 5 7 2 3 4 5 4 5 8 4 4 6 1 5 5 7 4 3 3 4 3 6 6 3 6 7 6 4 3 5 5 1 2 5 5 1 3 2 1 3 5 2 3 5 2 2 5 4 3 5 1 8 3 3 3 3 1 3 5 3 4 3 4 2 6 2 3 7 3 4 5 3 5 2 8 4 5 3 8 6 3 6 1 6 2 1 2 5 4 3 1 3 4 3 1 2 3 4 4 3 3 3 4 2 5 2 5 5 7 0 5 3 3 2 6 8 1 8 0 1 4 5 2 5 1 4 3 4 1 1 2 4 5 3 4 1 4 5 6 5 1 4 3 3 6 10 4 3 7 6 5 1 1 3 5 6 3 2 2 4 3 4 5 5 3 1 4 2 3 6 8 5 4 3 6 1 3 6 3 4 1 3 2 6 9 4 3 3 3 4 5 2 5 6 7 6 2 1 5 4 3 4 3 4 4 4 4 8 3 6 4 3 5 5 4 1 7 4 4 3 3 3 2 3 3 2 2 5 5 3 3 5 2 1 3 3 8 6 2 3 4 2 4 3 3 4 3 2 1 4 2 4 2 5 4 4 4 2 1 3 6 1 4 2 4 2 4 6 1 2 5 5 3 3 4 5 3 3 4 6 5 4 4 5 3 3 3 2 3 6 2 4 1 4 0 8 3 4 6 4 4 5 7 3 2 3 3 2 3 5 1 4 2 4 3 1 5 1 6 3 3 3 5 4 2 5 3 3 2 5 2 7 3 0 3 4 1 2 4 1 5 3 3 7 3 2 2 2 3 2 2 7 2 3 5 3 3 3 4 2 2 5 0 2 3 4 3 3 2 2 1 5 1 4 3 5 5 3 3 2 1 2 6 4 2 7 1 3 5 2 2 5 5 4 2 7 0 1 2 3 1 1 2 3 3 7 3 1 1 8 3 1 4 1 7 1 4 3 3 6 2 4 2 1 3 3 1 3 4 5 2 3 3 1 3 0 6 3 4 3 0 4 3 5 5 5 3 3 4 3 4 2 3 2 3 5 0 2 3 3 4 4 1 3 3 3 11 7 2 3 2 4 2 1 3 6 2 3 0 3 2 4 3 3 5 6 6 8 0 5 2 8 4 5 5 4 8 2 4 9 3 0 6 4 3 3 5 3 3 2 3 2 5 2 2 3 4 2 4 6 3 5 4 6 2 2 5 6 3 4 5 5 4 6 3 5 6 2 6 4 3 3 2 3 7 5 4 2 3 3 3 5 4 2 3 3 2 3 1 3 7 1 2 2 3 3 4 6 3 5 2 6 2 3 3 6 2 4 5 6 1 1 7 2 4 2 3 4 7 2 3 2 4 6 4 5 3 5 4 5 10 4 4 3 5 2 5 4 3 2 3 1 2 2 5 5 4 2 4 3 5 4 2 4 9 1 3 2 4 4 4 3 4 3 6 4 4 1 5 3 3 5 3 3 0 3 6 0 8 2 6 6 1 4 3 2 0 4 2 3 5 3 6 2 3 2 2 3 5 6 1 4 3 0 3 2 4 5 3 3 3 5 2 3 2 6 4 4 1 5 3 0 3 5 1 1 8 2 1 4 2 4 3 2 3 6 3 4 6 1 6 4 6 2 6 5 3 3 2 7 1 4 1 3 3 4 4 3 4 3 1 2 5 0 3 0 3 6 6 2 2 6 2 3 3 3 1 3 2 5 2 4 2 5 3 2 3 1 2 3 3 5 2 3 5 2 1 2 2 2 5 2 6 1 6 4 3 4 2 5 1 2 3 5 4 3 4 5 6 3 3 3 4 3 2 0 3 2 0 2 1 2 2 4 2 5 2 2 3 4 2 2 4 3 2 3 9 3 2 7 7 3 2 4 2 3 6 3 4 4 3 4 1 2 4 6 4 2 4 3 2 5 3 5 7 4 3 0 5 1 0 2 3 0 4 4 6 1 3 4 7 6 0 2 2 4 3 5 2 3 3 8 3 2 3 3 7 2 7 3 5 6 0 1 3 1 4 4 2 0 2 3 4 6 5 1 0 3 4 6 1 2 1 3 6 2 2 5 5 3 3 5 4 0 6 3 6 2 1 2 3 1 3 5 2 3 4 3 3 4 1 5 3 5 2 4 2 1 3 6 4 4 0 
BTB PER SET COUNT: 3 4 4 3 1 2 3 2 4 0 3 0 5 3 2 5 3 2 4 1472 3 4 2 3 4 6 1 4 1469 2 7 6 4 4 7 2 2934 6 6 3 4 4 8 964 984 4 4 4 6 5 4 2 3 2 2 4 5 3 3 3 2 4 2 3 1 364 12 4 3 5 5 1 1 4 2 3 493 726 2 4 2 3 1 4 3 5 2 6 3 3 10 493 3 6 3 0 4 5 2 4 5 4 6 3 4 2 1 2 3 2 2 2 3 6 2 8 2 5 4 1 5 5 2 0 1 2 3 2 11 10 495 3 4 3 6 4 2 2 3 3 5 7 4 2 3 15 3 5 5 6 3 1106 3 5 4 1 4 4 4 3 5 7 5 4 7 2417 2 2 3430 3 3 3 5 3 1 2 4 5 984 1 3 5 1965 5 9 7 4 2 2 3 6 3 4 4 4 7 4 3 5 6 3 3 4 2 5 3 2 2158 3 1 2 6 6 4 6 2 3 5 4 0 1 3 2 4 3 2 4 36 0 4 1686 4 3 4 4 4 5 3 2 3 1 0 6 4 1641 8 1 3 6 4 3 2 1 4 2 7 3 5 5 3 4 4 4 2 2934 7 3 2 4 2 3 2 2 3 5 3 2 1 3 3 8 3 7 2 5 1471 3 3 1 1 0 4 1 6 2 1 7 3 2 2 3 3 2 2 4 2 5 2 1963 5 4 1 3 2 5 4 7 6 2 5 4 8 3 5 2 3 6 7 2 2 1471 0 2 7 982 2 1470 5 6 0 4 0 1 983 983 3 1 6 5 7 4 10 6 3 5 4 2 0 6 1 2 6 2 4 7 5 1 1 2 2 3 2 3 4 5 4 3 4 3 4 8 3 3 6 5 2 5 3 6 1 5 5 4 2 3 1 1471 0 2 4 4 2 4 2 2 4 1469 2 1 978 1 3 6 4 1467 3 242 3 1 91 1 1 4 4 5 6 5 0 2 5 130 4 983 3 5 5 3 3 4 1 3 5 5 3 7 8 2 3 3 2 4 3 1 3 5 1 1 3 496 4 4 3 4 7 2 3 6 3 3 3 0 4 31 491 4 1 4 5 2 1 2 2 2 490 0 4 3 0 6 1 5 2 3 5 1 6 4 3 2 1 5 11 1 2 1 2 3 2 2 4 3 2 5 12 2 1 2 5 4 496 4 1469 4 3 5 6 1 6 6 4 6 3 4 11 5 494 3 1 6 1 2 5 7 4 7 6 12 6 7 1955 4 6 5 8 1 3 6 1 4 4 7 3 5 3 2 1 4 3 3 38 3 4 3 33 2 2 3 4 2 6 5 44 2 0 2 0 0 2286 5 2 6 9 2 2 980 6 7 2 4 2 9 3 6 8 2 4 3 5 4 2 5 3 2 3 2 2 984 0 3 1 5 982 796 2 5 4 3 5 2 3 982 1470 3 6 6 6 3 5 3 3 1480 1 4 4 1 0 4 5 3 5 4 2 4 2 3 0 5 3 2 3 7834 2 5 4 5 4 2939 982 2 4 5 5 4 7 5 1553 3 3 3 3 4 2 6 981 5 3 5 1470 4 3 3 987 2 5 3 4 6 4 6 72 0 6 0 3 3 981 4 1 3 1 3 5 7 2 980 1 1482 2 0 3 2 0 1 1 1 3 1 4 2 5 6 6 980 2 3 5 10 4 2 2 2 4 2 4 2 2 982 2 5 979 1 2 1 7 2 2 3 6 4 2 3 3 1 5 4 4 24 3 2 2 5 5 0 235 3 6 5 3 2 3 5 4 0 3 24 7 3 6 0 3 3 76 1 1 5 794 21 2 3 3 6 5 5 4 1961 4 3 7 1 5 1 4 4 0 7 6 1 2 0 4 5 2 4 2 3 3 3 3 4 98 3 1 3 2 5 2 3 2 5 3 2 2 3 1473 2 17 9 5 8 4 1470 3 7 5 6 5 3 2 5 4 3 6 2 1 1451 989 3 5 5 4 1 4 3 10 4 0 2 3 5 4 3 6 4 5 6 3 2 3 3 5 5 4 4 4 3 1 7 4 2 1 5 2 1 107 8 5 4 5 3 5 5 4 1 3 1 6 0 3 6 2 6 5 5 3 6 1 3 2 5 10 5 493 1236 982 6 4 60 7 3 11 4 2 1 981 4 7 5 249 5 4 7 1 5 5 2 4 10 6 4 3 3 492 4 5 4 6 24 5 7 3 3 4 0 724 8 1 984 5 1 3 7 5 495 5 2 1 3 5 4 3 6 6 3 7 5 5 4 5 3 7 3 3 7 3 2 6 4 5 3 3 1963 4 2448 364 985 2 5 5 2 5 5 2 1227 5 3 3 3 2 2 3 5 23 7 2 3 2 4 2 3 1 4 2 4 5 3 4 7 5 5 6 1 3 3 4 1471 366 2 2 3 5 3 2 2 1 4 1 3 3 3 5 2 9 5 3 2 2 1497 1 2 4 1 2 7 113 3 8 3 5 5 7 3 5 3 2 1 1 5 1 4 4 3 28 4 1 7 5 15 2 980 4 5 4 5 370 4 4 6 1 7 5 7 4 3 3 5 3 7 6 3 6 12 6 4 3 5 7 1 2 5 5 1 3 2 1 3 6 4 3 495 2 2 5 4 3 5 1 19 3 3 3 4 1 3 5 3 4 3 4 2 7 2 3 9 4 5 6 3 5 2 860 4 5 3 27 7 3 983 1 10 2 1 2 587 6 3 1 4 127 4 1 2 493 4 4 3 3 3 4 2 5 2 6 8 8 0 5 3 3 2 9 987 1 19 0 1 4 5 7 5 1 4 1468 5 1 1 2 4 10 3 4 1 4 5 6 5 1 4 3 3 6 1483 1975 3 1475 6 5 1 1 4 5 10 3 2 2 4 3 4 5 5 3 1 4 2 3 6 2353 5 4 3 6 1 3 6 3 4 1 3 2 6 1504 981 5 3 3 4 5 2 5 6 7 6 2 1 17 4 3 6 3 4 4 4 4 15 3 9 4 492 5 2446 10 1 1613 4 4 3 4 3 4 3 3 2 2 5 5 3 3 5 2 1 3 3 11 10 2 3 4 2 4 5 3 4 4 3 1 4 2 6 2 5 5 6 4 2 1 3 6 1 4 3 5 2 4 6 1 2 5 5 980 3 4 9 3 3 48 6 5 5 4 5 3 3 3 3 3 8 4 5 1 4 0 1237 3 4 7 4 4 5 1235 5 2 4 3 2 3 5 2 5 3 4 4 1 5 2 6 3 3 3 7 4 2 1471 3 3 1339 5 2 495 3 0 3 4 1 4 1341 1 5 3 3 7 3 2 2 2 3 2 2 1963 2 3 21 5 3 3 4 2 2 6 0 3 3 4 981 3 2 2 1 7 1 4 3 5 5 3 3 979 1 27 6 30 2 1471 1 3 5 2 2 6 7 137 2 20550 0 1 2 3 1 1 2 3 4 522 370 1 1 41 3 1 4 1 7 1 4 3 4 32 2 4 2 1 3 3 1 3 4 5 2 3 3 1 3 0 8 3 4 4 0 4 776 6 5 5 3 3 4 3 4 2 3 2 3 5 0 2 3 3 4 21 1 3 3 3 763 7 2 3 2 4 2 1 3 984 3 3 0 3 2 4 3 3 5 6 8 15 0 5 2 20 4 5 7 4 1475 2 5 4918 3 0 1960 1470 3 4 5 3 3 2 3 2 983 3 2 3 4 2 4 6 5 5 4 10 2936 2 7 6 3 4 6 5 4 6 3 5 8 2 7 4 443 363 2 1469 7 6 300 14 3 3 3 6 4 2 3 4 2 3 1 3 7 1 2 2 3 3 4 496 3 5 2 6 2 3 3 6 2 1959 5 6 1 1 7 2 982 2 3 4 7 980 4 2 6 6 4 496 3 964 4 5 5522 4 4 14673 1472 2 366 1470 5 2 3 1 4 2 5 5 4 2 4 3 5 4 2 280 18 1 1470 2 1471 481 4 3 4 3 6 5 961 1 5 3 3 5 3 3 0 3 991 0 985 2 7 10 1 6 3 2 0 4 2 3 5 3 6 2 3 2 2 3 5 6 1 4 928 0 3 2 4 5 981 3 3 982 2 3 2 724 5 4 1 7 3 0 3 5 1467 1 1830 2 1 4 2 4 3 4 3 10 4 471 6 1 6 4 6 207 10 90 3 3 2 10 1 517 1 3 2934 4 5 3 4 3 4 2 493 0 3 0 3 7 6 2 2 8 644 3 6 1468 1 3 2 5 2 4 2 21 3 2 3 1 2 527 3 5 2 3 5 2 1 2 2 2 5 2 6 1 3915 4 3 4 13 5 1 2 3 5 4 5 1470 5 6 3 3 3 4 3 2 0 3 6 0 2 1 2 2 4 5 5 2 2 3 4 2 2 4 3 2 3 12 6 2 1203 11 126 2 4 2 3 6 3 4 4 3 4 1 2 4 6 981 2 4 3 2 7 6 5 1439 4 3 0 5 1 0 2 3 0 5 1473 6 1 3 4 14 6 0 2 2 6 3 5 2 6 3 3099 3 2 3 3 498 4 1238 3 6 1227 0 1 3 1 4 4 2 0 2 3 5 6 5 1 0 4 5 7 1 2 1 3 6 2 2 6 5 3 5 6 4 0 28 3 17 8 1 2 3 1 5 10 2 3 4 3 3 4 1 5 3 349 2 4 2 1 3 1494 8 5 0 
To predecode: 0
Predecoding something: 0
Predecode request dropped: 0
sizeofblock_0 0
sizeofblock_1 62552
sizeofblock_2 100544
sizeofblock_3 0
sizeofblock_4 0
sizeofblock_5 0
sizeofblock_6 0
sizeofblock_7 0
sizeofblock_8 0
Variant_0 Correct: 0 Incorrect: 0 Accuracy: -nan
Variant_1 Correct: 0 Incorrect: 0 Accuracy: -nan
Variant_2 Correct: 0 Incorrect: 0 Accuracy: -nan
Variant_3 Correct: 0 Incorrect: 0 Accuracy: -nan
