
*** ChampSim Multicore Out-of-Order Simulator ***

Warmup Instructions: 50000000
Simulation Instructions: 50000000
Number of CPUs: 1
LLC sets: 2048
LLC ways: 16
Off-chip DRAM Size: 4096 MB Channels: 1 Width: 64-bit Data Rate: 6400 MT/s
CPU 0 runs ./micro_traces/srv296.trace.gz
.gz
ITLB has LRU replacement policy
DTLB has LRU replacement policy
STLB has LRU replacement policy
FDIP Prefetcher at L1I
L1I has LRU replacement policy
L1D has LRU replacement policy
Initialize SRRIP state for L2C
Initialize DRRIP state for LLC
Heartbeat_Variant_0 : 1352 0.330078 per_variant_size: 0 1352 0 0 0 0 0 0 0 
Heartbeat_Variant_1 : 2465 0.601807 per_variant_size: 0 314 2151 0 0 0 0 0 0 
Heartbeat_Variant_2 : 0 0 per_variant_size: 0 0 0 0 0 0 0 0 0 
Heartbeat_Variant_3 : 0 0 per_variant_size: 0 0 0 0 0 0 0 0 0 
Heartbeat_Variant_0_evicts 0 : 5624 1 : 57 2 : 0 3 : 0 
Heartbeat_Variant_1_evicts 0 : 54 1 : 0 2 : 0 3 : 0 
Heartbeat_Variant_2_evicts 0 : 0 1 : 0 2 : 0 3 : 0 
Heartbeat_Variant_3_evicts 0 : 0 1 : 0 2 : 0 3 : 0 
Heartbeat CPU 0 instructions: 10000002 cycles: 2798374 heartbeat IPC: 3.5735 cumulative IPC: 3.5735 (Simulation time: 0 hr 1 min 51 sec) 
Heartbeat_Variant_0 : 1352 0.330078 per_variant_size: 0 1352 0 0 0 0 0 0 0 
Heartbeat_Variant_1 : 2473 0.60376 per_variant_size: 0 310 2163 0 0 0 0 0 0 
Heartbeat_Variant_2 : 0 0 per_variant_size: 0 0 0 0 0 0 0 0 0 
Heartbeat_Variant_3 : 0 0 per_variant_size: 0 0 0 0 0 0 0 0 0 
Heartbeat_Variant_0_evicts 0 : 5480 1 : 3 2 : 0 3 : 0 
Heartbeat_Variant_1_evicts 0 : 4 1 : 0 2 : 0 3 : 0 
Heartbeat_Variant_2_evicts 0 : 0 1 : 0 2 : 0 3 : 0 
Heartbeat_Variant_3_evicts 0 : 0 1 : 0 2 : 0 3 : 0 
Heartbeat CPU 0 instructions: 20000003 cycles: 5593917 heartbeat IPC: 3.57712 cumulative IPC: 3.57531 (Simulation time: 0 hr 3 min 31 sec) 
Heartbeat_Variant_0 : 1355 0.330811 per_variant_size: 0 1355 0 0 0 0 0 0 0 
Heartbeat_Variant_1 : 2482 0.605957 per_variant_size: 0 310 2172 0 0 0 0 0 0 
Heartbeat_Variant_2 : 0 0 per_variant_size: 0 0 0 0 0 0 0 0 0 
Heartbeat_Variant_3 : 0 0 per_variant_size: 0 0 0 0 0 0 0 0 0 
Heartbeat_Variant_0_evicts 0 : 5569 1 : 4 2 : 0 3 : 0 
Heartbeat_Variant_1_evicts 0 : 4 1 : 0 2 : 0 3 : 0 
Heartbeat_Variant_2_evicts 0 : 0 1 : 0 2 : 0 3 : 0 
Heartbeat_Variant_3_evicts 0 : 0 1 : 0 2 : 0 3 : 0 
Heartbeat CPU 0 instructions: 30000000 cycles: 8390070 heartbeat IPC: 3.57634 cumulative IPC: 3.57566 (Simulation time: 0 hr 5 min 11 sec) 
Heartbeat_Variant_0 : 1390 0.339355 per_variant_size: 0 1390 0 0 0 0 0 0 0 
Heartbeat_Variant_1 : 2550 0.622559 per_variant_size: 0 268 2282 0 0 0 0 0 0 
Heartbeat_Variant_2 : 0 0 per_variant_size: 0 0 0 0 0 0 0 0 0 
Heartbeat_Variant_3 : 0 0 per_variant_size: 0 0 0 0 0 0 0 0 0 
Heartbeat_Variant_0_evicts 0 : 5577 1 : 35 2 : 0 3 : 0 
Heartbeat_Variant_1_evicts 0 : 39 1 : 0 2 : 0 3 : 0 
Heartbeat_Variant_2_evicts 0 : 0 1 : 0 2 : 0 3 : 0 
Heartbeat_Variant_3_evicts 0 : 0 1 : 0 2 : 0 3 : 0 
Heartbeat CPU 0 instructions: 40000000 cycles: 11186503 heartbeat IPC: 3.57598 cumulative IPC: 3.57574 (Simulation time: 0 hr 6 min 52 sec) 
Heartbeat_Variant_0 : 1390 0.339355 per_variant_size: 0 1390 0 0 0 0 0 0 0 
Heartbeat_Variant_1 : 2553 0.623291 per_variant_size: 0 274 2279 0 0 0 0 0 0 
Heartbeat_Variant_2 : 0 0 per_variant_size: 0 0 0 0 0 0 0 0 0 
Heartbeat_Variant_3 : 0 0 per_variant_size: 0 0 0 0 0 0 0 0 0 
Heartbeat_Variant_0_evicts 0 : 5658 1 : 2 2 : 0 3 : 0 
Heartbeat_Variant_1_evicts 0 : 4 1 : 0 2 : 0 3 : 0 
Heartbeat_Variant_2_evicts 0 : 0 1 : 0 2 : 0 3 : 0 
Heartbeat_Variant_3_evicts 0 : 0 1 : 0 2 : 0 3 : 0 
Heartbeat CPU 0 instructions: 50000001 cycles: 13983058 heartbeat IPC: 3.57583 cumulative IPC: 3.57576 (Simulation time: 0 hr 8 min 31 sec) 

Warmup complete CPU 0 instructions: 50000001 cycles: 13983058 (Simulation time: 0 hr 8 min 31 sec) 

Cycle: 20000000 FTQ IN: 58336771 FTQ occupancy: 20.5527 DECODE IN: 58336622 DECODE occupancy: 53.46 ROB IN: 58336622 ROB occupancy: 319.325 ROB OUT: 58336593
Heartbeat_Variant_0 : 1403 0.342529 per_variant_size: 0 1403 0 0 0 0 0 0 0 
Heartbeat_Variant_1 : 2578 0.629395 per_variant_size: 0 289 2289 0 0 0 0 0 0 
Heartbeat_Variant_2 : 0 0 per_variant_size: 0 0 0 0 0 0 0 0 0 
Heartbeat_Variant_3 : 0 0 per_variant_size: 0 0 0 0 0 0 0 0 0 
Heartbeat_Variant_0_evicts 0 : 5552 1 : 49 2 : 0 3 : 0 
Heartbeat_Variant_1_evicts 0 : 47 1 : 0 2 : 0 3 : 0 
Heartbeat_Variant_2_evicts 0 : 0 1 : 0 2 : 0 3 : 0 
Heartbeat_Variant_3_evicts 0 : 0 1 : 0 2 : 0 3 : 0 
Heartbeat CPU 0 instructions: 60000003 cycles: 21178090 heartbeat IPC: 1.38985 cumulative IPC: 1.38985 (Simulation time: 0 hr 10 min 31 sec) 
Heartbeat_Variant_0 : 1403 0.342529 per_variant_size: 0 1403 0 0 0 0 0 0 0 
Heartbeat_Variant_1 : 2578 0.629395 per_variant_size: 0 288 2290 0 0 0 0 0 0 
Heartbeat_Variant_2 : 0 0 per_variant_size: 0 0 0 0 0 0 0 0 0 
Heartbeat_Variant_3 : 0 0 per_variant_size: 0 0 0 0 0 0 0 0 0 
Heartbeat_Variant_0_evicts 0 : 5578 1 : 1 2 : 0 3 : 0 
Heartbeat_Variant_1_evicts 0 : 1 1 : 0 2 : 0 3 : 0 
Heartbeat_Variant_2_evicts 0 : 0 1 : 0 2 : 0 3 : 0 
Heartbeat_Variant_3_evicts 0 : 0 1 : 0 2 : 0 3 : 0 
Heartbeat CPU 0 instructions: 70000003 cycles: 28272916 heartbeat IPC: 1.40948 cumulative IPC: 1.39959 (Simulation time: 0 hr 12 min 28 sec) 
Cycle: 30000000 FTQ IN: 13995990 FTQ occupancy: 14.8599 DECODE IN: 13996139 DECODE occupancy: 38.2614 ROB IN: 13996139 ROB occupancy: 251.532 ROB OUT: 13996138
Heartbeat_Variant_0 : 1405 0.343018 per_variant_size: 0 1405 0 0 0 0 0 0 0 
Heartbeat_Variant_1 : 2578 0.629395 per_variant_size: 0 277 2301 0 0 0 0 0 0 
Heartbeat_Variant_2 : 0 0 per_variant_size: 0 0 0 0 0 0 0 0 0 
Heartbeat_Variant_3 : 0 0 per_variant_size: 0 0 0 0 0 0 0 0 0 
Heartbeat_Variant_0_evicts 0 : 5580 1 : 4 2 : 0 3 : 0 
Heartbeat_Variant_1_evicts 0 : 3 1 : 0 2 : 0 3 : 0 
Heartbeat_Variant_2_evicts 0 : 0 1 : 0 2 : 0 3 : 0 
Heartbeat_Variant_3_evicts 0 : 0 1 : 0 2 : 0 3 : 0 
Heartbeat CPU 0 instructions: 80000002 cycles: 35430984 heartbeat IPC: 1.39702 cumulative IPC: 1.39874 (Simulation time: 0 hr 14 min 28 sec) 
Cycle: 40000000 FTQ IN: 14070092 FTQ occupancy: 14.8968 DECODE IN: 14070092 DECODE occupancy: 38.569 ROB IN: 14070092 ROB occupancy: 253.304 ROB OUT: 14069950
Heartbeat_Variant_0 : 1407 0.343506 per_variant_size: 0 1407 0 0 0 0 0 0 0 
Heartbeat_Variant_1 : 2580 0.629883 per_variant_size: 0 289 2291 0 0 0 0 0 0 
Heartbeat_Variant_2 : 0 0 per_variant_size: 0 0 0 0 0 0 0 0 0 
Heartbeat_Variant_3 : 0 0 per_variant_size: 0 0 0 0 0 0 0 0 0 
Heartbeat_Variant_0_evicts 0 : 5590 1 : 7 2 : 0 3 : 0 
Heartbeat_Variant_1_evicts 0 : 6 1 : 0 2 : 0 3 : 0 
Heartbeat_Variant_2_evicts 0 : 0 1 : 0 2 : 0 3 : 0 
Heartbeat_Variant_3_evicts 0 : 0 1 : 0 2 : 0 3 : 0 
Heartbeat CPU 0 instructions: 90000000 cycles: 42546375 heartbeat IPC: 1.4054 cumulative IPC: 1.4004 (Simulation time: 0 hr 16 min 26 sec) 
Heartbeat_Variant_0 : 1407 0.343506 per_variant_size: 0 1407 0 0 0 0 0 0 0 
Heartbeat_Variant_1 : 2580 0.629883 per_variant_size: 0 277 2303 0 0 0 0 0 0 
Heartbeat_Variant_2 : 0 0 per_variant_size: 0 0 0 0 0 0 0 0 0 
Heartbeat_Variant_3 : 0 0 per_variant_size: 0 0 0 0 0 0 0 0 0 
Heartbeat_Variant_0_evicts 0 : 5596 1 : 0 2 : 0 3 : 0 
Heartbeat_Variant_1_evicts 0 : 0 1 : 0 2 : 0 3 : 0 
Heartbeat_Variant_2_evicts 0 : 0 1 : 0 2 : 0 3 : 0 
Heartbeat_Variant_3_evicts 0 : 0 1 : 0 2 : 0 3 : 0 
Heartbeat CPU 0 instructions: 100000001 cycles: 49714950 heartbeat IPC: 1.39498 cumulative IPC: 1.39931 (Simulation time: 0 hr 18 min 24 sec) 
Finished CPU 0 instructions: 50000000 cycles: 35731892 cumulative IPC: 1.39931 (Simulation time: 0 hr 18 min 24 sec) 

ChampSim completed all CPUs

Region of Interest Statistics

CPU 0 cumulative IPC: 1.39931 instructions: 50000000 cycles: 35731892
 Fetch stage stalled: 45.6437  Sim cycles: 35731892 fetch stall cycle: 16309373
 Empty decode stage: 24.8214  Sim cycles: 35731892 fetch stall cycle: 8869158
ITLB TOTAL     ACCESS:    5823854  HIT:    5329981  MISS:     493873  HIT %:    91.5198  MISS %:    8.48017   MPKI: 9.87746
ITLB LOAD TRANSLATION INSTRUCTION	ACCESS:    5690099  HIT:    5196226  MISS:     493873  HIT %:    91.3205  MISS %:    8.67952  MPKI: 9.87746
ITLB TRANSLATION FROM L1D PREFETCHER INSTRUCTION	ACCESS:     133755  HIT:     133755  MISS:          0  HIT %:        100  MISS %:          0  MPKI: 0

ITLB AVERAGE MISS LATENCY: 9.06789 cycles
ITLB RQ	ACCESS:    7932599	FORWARD:          0	MERGED:    1623597	TO_CACHE:    6309002

DTLB TOTAL     ACCESS:    8954581  HIT:    8481205  MISS:     473376  HIT %:    94.7136  MISS %:    5.28641   MPKI: 9.46752
DTLB LOAD TRANSLATION DATA	ACCESS:    8954581  HIT:    8481205  MISS:     473376  HIT %:    94.7136  MISS %:    5.28641  MPKI: 9.46752

DTLB AVERAGE MISS LATENCY: 9.33018 cycles
DTLB RQ	ACCESS:   13324168	FORWARD:          0	MERGED:    4333075	TO_CACHE:    8991093

STLB TOTAL     ACCESS:    1215424  HIT:    1213259  MISS:       2165  HIT %:    99.8219  MISS %:   0.178127   MPKI: 0.0433
STLB LOAD TRANSLATION INSTRUCTION	ACCESS:     493873  HIT:     493568  MISS:        305  HIT %:    99.9382  MISS %:  0.0617568  MPKI: 0.0061
STLB LOAD TRANSLATION DATA	ACCESS:     473376  HIT:     471550  MISS:       1826  HIT %:    99.6143  MISS %:    0.38574  MPKI: 0.03652
STLB TRANSLATION FROM L1D PREFETCHER DATA	ACCESS:     248175  HIT:     248141  MISS:         34  HIT %:    99.9863  MISS %:     0.0137  MPKI: 0.00068

STLB AVERAGE MISS LATENCY: 73.7764 cycles
STLB RQ	ACCESS:    1336220	FORWARD:          0	MERGED:     120770	TO_CACHE:    1215450

STLB Hit, L1D data hit: 0
STLB Hit, L2C data hit: 0
STLB Hit, LLC data hit: 0
STLB Hit, LLC data miss: 0
STLB STLB hints to L2: 0
L1D TOTAL     ACCESS:   13068690  HIT:   11949145  MISS:    1119545  HIT %:    91.4334  MISS %:    8.56662   MPKI: 22.3909
L1D LOAD DATA	ACCESS:    6537127  HIT:    5799885  MISS:     737242  HIT %:    88.7222  MISS %:    11.2778  MPKI: 14.7448
L1D RFO DATA	ACCESS:    6203711  HIT:    5916926  MISS:     286785  HIT %:    95.3772  MISS %:     4.6228  MPKI: 5.7357
L1D PREFETCH DATA	ACCESS:     327852  HIT:     232334  MISS:      95518  HIT %:    70.8655  MISS %:    29.1345  MPKI: 1.91036

L1D PREFETCH  REQUESTED:     738270  ISSUED:     738270  USEFUL:      35197  USELESS:      68354
L1D USEFUL LOAD PREFETCHES:      35197 PREFETCH ISSUED TO LOWER LEVEL:     103636  ACCURACY: 33.9621
 TIMELY PREFETCHES:      35197 LATE PREFETCHES: 8053 DROPPED PREFETCHES: 2
L1D AVERAGE MISS LATENCY: 226674 cycles
L1D RQ	ACCESS:   10688139	FORWARD:          0	MERGED:    3950295	TO_CACHE:    6571427
L1D WQ	ACCESS:    6950533	FORWARD:     166745	MERGED:     197792	TO_CACHE:    6752741
L1D PQ	ACCESS:     369299	FORWARD:          0	MERGED:          0	TO_CACHE:     368971

L1D UNIQUE REGIONS ACCESSED: 0
L1D REGIONS CONFLICTS: 0
L1D Cross Page Prefetch Requests: 7045
L1D Same Page Prefetch Requests: 749321
L1D ROI Sum of L1D PQ occupancy: 4696543
L1D PREFETCHES PUSHED FROM L2C: 0
L1I TOTAL     ACCESS:    7126853  HIT:    4366016  MISS:    2760837  HIT %:    61.2615  MISS %:    38.7385   MPKI: 55.2167
L1I LOAD INSTRUCTION	ACCESS:    6455231  HIT:    3694394  MISS:    2760837  HIT %:     57.231  MISS %:     42.769  MPKI: 55.2167
L1I PREFETCH INSTRUCTION	ACCESS:     671622  HIT:     671622  MISS:          0  HIT %:        100  MISS %:          0  MPKI: 0

L1I PREFETCH  REQUESTED:    1615568  ISSUED:    1615568  USEFUL:          0  USELESS:          0
L1I USEFUL LOAD PREFETCHES:          0 PREFETCH ISSUED TO LOWER LEVEL:          0  ACCURACY: -nan
 TIMELY PREFETCHES:          0 LATE PREFETCHES: 0 DROPPED PREFETCHES: 0
L1I AVERAGE MISS LATENCY: 16.7737 cycles
L1I RQ	ACCESS:    9564997	FORWARD:          0	MERGED:    2818306	TO_CACHE:    6746691
L1I PQ	ACCESS:    1615568	FORWARD:          0	MERGED:     429660	TO_CACHE:    1185908

L1BTB TOTAL     ACCESS:    5668129  HIT:    2040046  MISS:    3628083  HIT %:    35.9915  MISS %:    64.0085   MPKI: 72.5617
L1BTB BRANCH_DIRECT_JUMP	ACCESS:     546980 HIT:     144160 MISS:     402820 AVERAGE STALL: 53.6098 AVERAGE FETCH STALL: 15.3681 AVERAGE FETCH QUEUE STALL: 17.1355 AVERAGE DECODE STALL: 20.1842 AVERAGE EXECUTE STALL: 2.38422e+15
L1BTB BRANCH_INDIRECT	ACCESS:     182413 HIT:      65665 MISS:     116748 AVERAGE STALL: 111.187 AVERAGE FETCH STALL: 11.1403 AVERAGE FETCH QUEUE STALL: 17.5539 AVERAGE DECODE STALL: 13.1185 AVERAGE EXECUTE STALL: 68.4116
L1BTB BRANCH_CONDITIONAL	ACCESS:    2700947 HIT:    1409579 MISS:    1291368 AVERAGE STALL: 63.9852 AVERAGE FETCH STALL: 22.517 AVERAGE FETCH QUEUE STALL: 21.8483 AVERAGE DECODE STALL: 19.1166 AVERAGE EXECUTE STALL: 3.94752e+15
L1BTB BRANCH_DIRECT_CALL	ACCESS:     946670 HIT:     106581 MISS:     840089 AVERAGE STALL: 82.4869 AVERAGE FETCH STALL: 36.2439 AVERAGE FETCH QUEUE STALL: 21.8892 AVERAGE DECODE STALL: 23.6676 AVERAGE EXECUTE STALL: 1.79269e+16
L1BTB BRANCH_INDIRECT_CALL	ACCESS:     172227 HIT:      21850 MISS:     150377 AVERAGE STALL: 141.075 AVERAGE FETCH STALL: 12.1263 AVERAGE FETCH QUEUE STALL: 19.1947 AVERAGE DECODE STALL: 12.5434 AVERAGE EXECUTE STALL: 96.7212
L1BTB BRANCH_RETURN	ACCESS:    1118892 HIT:     292211 MISS:     826681 AVERAGE STALL: 48.898 AVERAGE FETCH STALL: 15.8274 AVERAGE FETCH QUEUE STALL: 5.86081 AVERAGE DECODE STALL: 6.4032 AVERAGE EXECUTE STALL: 4.2111e+14
L1BTB BRANCH_OTHER ACCESS:          0 HIT:          0 MISS:          0 AVERAGE STALL: -nan AVERAGE FETCH STALL: -nan AVERAGE FETCH QUEUE STALL: -nan AVERAGE DECODE STALL: -nan AVERAGE EXECUTE STALL: -nan
L1BTB TOTAL ROB OCCUPANCY AT BTB MISS: 2.69735

L2BTB TOTAL     ACCESS:    3602763  HIT:    3538347  MISS:      64416  HIT %:     98.212  MISS %:    1.78796   MPKI: 1.28832
L2BTB BRANCH_DIRECT_JUMP	ACCESS:     398674 HIT:     395080 MISS:       3594 AVERAGE STALL: 53.6098 AVERAGE FETCH STALL: 15.3681 AVERAGE FETCH QUEUE STALL: 17.1355 AVERAGE DECODE STALL: 20.1842 AVERAGE EXECUTE STALL: 2.38422e+15
L2BTB BRANCH_INDIRECT	ACCESS:     106490 HIT:     103831 MISS:       2659 AVERAGE STALL: 111.187 AVERAGE FETCH STALL: 11.1403 AVERAGE FETCH QUEUE STALL: 17.5539 AVERAGE DECODE STALL: 13.1185 AVERAGE EXECUTE STALL: 68.4116
L2BTB BRANCH_CONDITIONAL	ACCESS:    1291368 HIT:    1286680 MISS:       4688 AVERAGE STALL: 63.9852 AVERAGE FETCH STALL: 22.517 AVERAGE FETCH QUEUE STALL: 21.8483 AVERAGE DECODE STALL: 19.1166 AVERAGE EXECUTE STALL: 3.94752e+15
L2BTB BRANCH_DIRECT_CALL	ACCESS:     840089 HIT:     839046 MISS:       1043 AVERAGE STALL: 82.4869 AVERAGE FETCH STALL: 36.2439 AVERAGE FETCH QUEUE STALL: 21.8892 AVERAGE DECODE STALL: 23.6676 AVERAGE EXECUTE STALL: 1.79269e+16
L2BTB BRANCH_INDIRECT_CALL	ACCESS:     140868 HIT:     130842 MISS:      10026 AVERAGE STALL: 141.075 AVERAGE FETCH STALL: 12.1263 AVERAGE FETCH QUEUE STALL: 19.1947 AVERAGE DECODE STALL: 12.5434 AVERAGE EXECUTE STALL: 96.7212
L2BTB BRANCH_RETURN	ACCESS:     825274 HIT:     782868 MISS:      42406 AVERAGE STALL: 48.898 AVERAGE FETCH STALL: 15.8274 AVERAGE FETCH QUEUE STALL: 5.86081 AVERAGE DECODE STALL: 6.4032 AVERAGE EXECUTE STALL: 4.2111e+14
L2BTB BRANCH_OTHER ACCESS:          0 HIT:          0 MISS:          0 AVERAGE STALL: -nan AVERAGE FETCH STALL: -nan AVERAGE FETCH QUEUE STALL: -nan AVERAGE DECODE STALL: -nan AVERAGE EXECUTE STALL: -nan
L2BTB TOTAL ROB OCCUPANCY AT BTB MISS: 151.922

L2C TOTAL     ACCESS:    4482729  HIT:    4073700  MISS:     409029  HIT %:    90.8754  MISS %:    9.12455   MPKI: 8.18058
L2C LOAD INSTRUCTION	ACCESS:    2760837  HIT:    2547029  MISS:     213808  HIT %:    92.2557  MISS %:    7.74432  MPKI: 4.27616
L2C LOAD TRANSLATION INSTRUCTION	ACCESS:        342  HIT:         88  MISS:        254  HIT %:     25.731  MISS %:     74.269  MPKI: 0.00508
L2C LOAD DATA	ACCESS:     729171  HIT:     663948  MISS:      65223  HIT %:    91.0552  MISS %:    8.94482  MPKI: 1.30446
L2C RFO DATA	ACCESS:     286702  HIT:     237581  MISS:      49121  HIT %:    82.8669  MISS %:    17.1331  MPKI: 0.98242
L2C PREFETCH DATA	ACCESS:     181043  HIT:     113559  MISS:      67484  HIT %:    62.7249  MISS %:    37.2751  MPKI: 1.34968
L2C WRITEBACK DATA	ACCESS:     522671  HIT:     510967  MISS:      11704  HIT %:    97.7607  MISS %:    2.23927  MPKI: 0.23408
L2C LOAD TRANSLATION DATA	ACCESS:       1915  HIT:        493  MISS:       1422  HIT %:    25.7441  MISS %:    74.2559  MPKI: 0.02844
L2C TRANSLATION FROM L1D PREFETCHER DATA	ACCESS:         48  HIT:         35  MISS:         13  HIT %:    72.9167  MISS %:    27.0833  MPKI: 0.00026

L2C PREFETCH  REQUESTED:      84426  ISSUED:      84426  USEFUL:       7224  USELESS:      60553
L2C USEFUL LOAD PREFETCHES:       7224 PREFETCH ISSUED TO LOWER LEVEL:      67745  ACCURACY: 10.6635
 TIMELY PREFETCHES:       7224 LATE PREFETCHES: 261 DROPPED PREFETCHES: 0
L2C AVERAGE MISS LATENCY: 40.9521 cycles
L2C RQ	ACCESS:    3779051	FORWARD:          0	MERGED:          0	TO_CACHE:    3779016
L2C WQ	ACCESS:     522671	FORWARD:         35	MERGED:          0	TO_CACHE:     522671
L2C PQ	ACCESS:     188062	FORWARD:          0	MERGED:       3488	TO_CACHE:     184574

L2C Dense regions hint from L2: 0
PSCL5 TOTAL     ACCESS:       4338  HIT:       2169  MISS:       2169  HIT %:         50  MISS %:         50   MPKI: 0.04338
PSCL5 LOAD TRANSLATION INSTRUCTION	ACCESS:       4242  HIT:       2121  MISS:       2121  HIT %:         50  MISS %:         50  MPKI: 0.04242
PSCL5 TRANSLATION FROM L1D PREFETCHER INSTRUCTION	ACCESS:         96  HIT:         48  MISS:         48  HIT %:         50  MISS %:         50  MPKI: 0.00096


PSCL4 TOTAL     ACCESS:       3995  HIT:       1991  MISS:       2004  HIT %:    49.8373  MISS %:    50.1627   MPKI: 0.04008
PSCL4 LOAD TRANSLATION INSTRUCTION	ACCESS:       2603  HIT:       1946  MISS:        657  HIT %:    74.7599  MISS %:    25.2401  MPKI: 0.01314
PSCL4 TRANSLATION FROM L1D PREFETCHER INSTRUCTION	ACCESS:         73  HIT:         45  MISS:         28  HIT %:    61.6438  MISS %:    38.3562  MPKI: 0.00056
PSCL4 LOAD TRANSLATION DATA	ACCESS:       1302  HIT:          0  MISS:       1302  HIT %:          0  MISS %:        100  MPKI: 0.02604
PSCL4 TRANSLATION FROM L1D PREFETCHER DATA	ACCESS:         17  HIT:          0  MISS:         17  HIT %:          0  MISS %:        100  MPKI: 0.00034


PSCL3 TOTAL     ACCESS:       4075  HIT:       2031  MISS:       2044  HIT %:    49.8405  MISS %:    50.1595   MPKI: 0.04088
PSCL3 LOAD TRANSLATION INSTRUCTION	ACCESS:       2643  HIT:       1986  MISS:        657  HIT %:    75.1419  MISS %:    24.8581  MPKI: 0.01314
PSCL3 TRANSLATION FROM L1D PREFETCHER INSTRUCTION	ACCESS:         73  HIT:         45  MISS:         28  HIT %:    61.6438  MISS %:    38.3562  MPKI: 0.00056
PSCL3 LOAD TRANSLATION DATA	ACCESS:       1342  HIT:          0  MISS:       1342  HIT %:          0  MISS %:        100  MPKI: 0.02684
PSCL3 TRANSLATION FROM L1D PREFETCHER DATA	ACCESS:         17  HIT:          0  MISS:         17  HIT %:          0  MISS %:        100  MPKI: 0.00034


PSCL2 TOTAL     ACCESS:       4228  HIT:       2059  MISS:       2169  HIT %:    48.6991  MISS %:    51.3009   MPKI: 0.04338
PSCL2 LOAD TRANSLATION INSTRUCTION	ACCESS:       2315  HIT:       2011  MISS:        304  HIT %:    86.8683  MISS %:    13.1317  MPKI: 0.00608
PSCL2 TRANSLATION FROM L1D PREFETCHER INSTRUCTION	ACCESS:         48  HIT:         48  MISS:          0  HIT %:        100  MISS %:          0  MPKI: 0
PSCL2 LOAD TRANSLATION DATA	ACCESS:       1817  HIT:          0  MISS:       1817  HIT %:          0  MISS %:        100  MPKI: 0.03634
PSCL2 TRANSLATION FROM L1D PREFETCHER DATA	ACCESS:         48  HIT:          0  MISS:         48  HIT %:          0  MISS %:        100  MPKI: 0.00096


LLC TOTAL     ACCESS:     466636  HIT:     436279  MISS:      30357  HIT %:    93.4945  MISS %:     6.5055   MPKI: 0.60714
LLC LOAD INSTRUCTION	ACCESS:     213808  HIT:     212765  MISS:       1043  HIT %:    99.5122  MISS %:   0.487821  MPKI: 0.02086
LLC LOAD TRANSLATION INSTRUCTION	ACCESS:        254  HIT:        212  MISS:         42  HIT %:    83.4646  MISS %:    16.5354  MPKI: 0.00084
LLC LOAD DATA	ACCESS:      64977  HIT:      61462  MISS:       3515  HIT %:    94.5904  MISS %:    5.40961  MPKI: 0.0703
LLC RFO DATA	ACCESS:      49101  HIT:      33837  MISS:      15264  HIT %:    68.9131  MISS %:    31.0869  MPKI: 0.30528
LLC PREFETCH DATA	ACCESS:      67745  HIT:      57753  MISS:       9992  HIT %:    85.2506  MISS %:    14.7494  MPKI: 0.19984
LLC WRITEBACK DATA	ACCESS:      69316  HIT:      68890  MISS:        426  HIT %:    99.3854  MISS %:   0.614577  MPKI: 0.00852
LLC LOAD TRANSLATION DATA	ACCESS:       1422  HIT:       1348  MISS:         74  HIT %:    94.7961  MISS %:    5.20394  MPKI: 0.00148
LLC TRANSLATION FROM L1D PREFETCHER DATA	ACCESS:         13  HIT:         12  MISS:          1  HIT %:    92.3077  MISS %:    7.69231  MPKI: 2e-05

LLC AVERAGE MISS LATENCY: 157.747 cycles
LLC RQ	ACCESS:     329580	FORWARD:          0	MERGED:          0	TO_CACHE:     329575
LLC WQ	ACCESS:      69316	FORWARD:          5	MERGED:          0	TO_CACHE:      69316
LLC PQ	ACCESS:      67745	FORWARD:          0	MERGED:          0	TO_CACHE:      67745

LLC Dense regions hint to LLC: 0

RAW hits: 1949335
Loads Generated: 12637474
Loads sent to L1D: 10688139
Stores Generated: 6950515
Stores sent to L1D: 6950533
Major fault: 0 Minor fault: 2577
Allocated PAGES: 2577

stream: 
stream:times selected: 1183651
stream:pref_filled: 122936
stream:pref_useful: 24516
stream:pref_late: 6654
stream:misses: 8039
stream:misses_by_poll: 0

CS: 
CS:times selected: 178224
CS:pref_filled: 59935
CS:pref_useful: 36691
CS:pref_late: 7151
CS:misses: 16775
CS:misses_by_poll: 6

CPLX: 
CPLX:times selected: 1004241
CPLX:pref_filled: 19399
CPLX:pref_useful: 4734
CPLX:pref_late: 3005
CPLX:misses: 92995
CPLX:misses_by_poll: 3

NL_L1: 
NL:times selected: 21254
NL:pref_filled: 803
NL:pref_useful: 362
NL:pref_late: 292
NL:misses: 1826
NL:misses_by_poll: 0

total selections: 2387370
total_filled: 95518
total_useful: 35197
total_late: 18395
total_polluted: 9
total_misses_after_warmup: 771541
conflicts: 5514044

test: 118528

DRAM Statistics
 CHANNEL 0
 RQ ROW_BUFFER_HIT:      11424  ROW_BUFFER_MISS:      18495
 DBUS_CONGESTED:         13
 WQ ROW_BUFFER_HIT:       1554  ROW_BUFFER_MISS:      12945  FULL:          0

 AVG_CONGESTED_CYCLE: 5

CPU 0 Branch Prediction Accuracy: 99.8232% MPKI: 0.32328 Average ROB Occupancy at Mispredict: 191.833
Branch types
NOT_BRANCH: 40855741 81.7115%
BRANCH_DIRECT_JUMP: 546980 1.09396%
BRANCH_INDIRECT: 182413 0.364826%
BRANCH_CONDITIONAL: 6176679 12.3534%
BRANCH_DIRECT_CALL: 946670 1.89334%
BRANCH_INDIRECT_CALL: 172227 0.344454%
BRANCH_RETURN: 1118892 2.23778%
BRANCH_OTHER: 0 0%

DRAM PAGES: 1048576
Allocated PAGES: 2577
Average_ROB_Occupancy: 253.204
Average_Decode_Occupancy: 38.348
Average_FTQ_Occupancy: 14.8875
Indirect max targets: 14 Average targets: 1.14966
Branch_type:  BRANCH_DIRECT_JUMP:  Count Percentage: 3.24604 6.67624 3.95083 8.43024 1.69722 6.83195 1.16022 68.0073 
Branch_type:  BRANCH_INDIRECT:  Count Percentage: 11.7452 3.43234 10.5294 28.7079 3.34712 4.81886 2.00937 35.4098 
Branch_type:  BRANCH_CONDITIONAL:  Count Percentage: 20.9535 2.9195 2.88683 4.7076 1.45331 5.4417 0.648641 60.9889 
Branch_type:  BRANCH_DIRECT_CALL:  Count Percentage: 0.257983 1.26951 1.42541 2.12862 2.75634 2.97986 0.613819 88.5685 
Branch_type:  BRANCH_INDIRECT_CALL:  Count Percentage: 9.51475 0.565535 2.98249 4.82549 1.4346 2.98046 0.993389 76.7033 
Branch_type:  BRANCH_RETURN:  Count Percentage: 3.77363 0.568521 2.25245 6.32093 2.92523 5.44968 1.02683 77.6827 
Branch_type:  BRANCH_DIRECT_JUMP:  Total Count: 35501 73016 43209 92199 18562 74719 12689 743775 
Branch_type:  BRANCH_INDIRECT:  Total Count: 42863 12526 38426 104767 12215 17586 7333 129225 
Branch_type:  BRANCH_CONDITIONAL:  Total Count: 2587886 360576 356540 581416 179492 672082 80111 7532485 
Branch_type:  BRANCH_DIRECT_CALL:  Total Count: 4880 24014 26963 40265 52139 56367 11611 1675362 
Branch_type:  BRANCH_INDIRECT_CALL:  Total Count: 32757 1947 10268 16613 4939 10261 3420 264071 
Branch_type:  BRANCH_RETURN:  Total Count: 84404 12716 50380 141379 65428 121892 22967 1737514 
Number of unique branch instructions: 9897
Upper 32 bits: 
aaaa
ffff
ffff0000
Unique upper 32 bits: 3
Unique upper 36 bits: 3
Unique upper 40 bits: 5
Unique upper 44 bits: 32
Unique upper 48 bits: 154
Variant_0 : 1407 0.343506
Variant_1 : 2580 0.629883
Variant_2 : 0 0
Variant_3 : 0 0
Offset_3 4062
Offset_4 241
Offset_5 454
Offset_6 502
Offset_7 581
Offset_8 509
Offset_9 463
Offset_10 378
Offset_11 313
Offset_12 287
Offset_13 203
Offset_14 227
Offset_15 189
Offset_16 225
Offset_17 144
Offset_18 126
Offset_19 240
Offset_20 141
Offset_21 235
Offset_22 393
Offset_23 241
Offset_24 327
Offset_25 88
Offset_47 80
Offset_64 1
decode_dispatch_called: 26399488 73.8821
Dispatch_width: 0 14151171 53.604 39.6038
Dispatch_width: 1 1053633 3.99111 2.94872
Dispatch_width: 2 869459 3.29347 2.43329
Dispatch_width: 3 511665 1.93816 1.43196
Dispatch_width: 4 6549852 24.8105 18.3305
Dispatch_width: 5 109419 0.414474 0.306222
Dispatch_width: 6 3154289 11.9483 8.82766
Empty_decode_cycles: 9332404 26.1179
ROB_full_cycles: 10342312 28.9442
Starvation_cycles_per_kilo_instr: 222.353
Starvation_cycles_per_kilo_instr_3: 155.76
Starvation_cycles_per_kilo_instr_0: 131.413
Branch_type_1  (3,1)  (4,9)  (5,37)  (6,69)  (7,114)  (8,129)  (9,122)  (10,96)  (11,70)  (12,51)  (13,5)  (14,2)  (15,3)  (16,4)  (18,1)  (19,4)  (20,2)  (21,1)  (22,3)  (23,2)  (24,10)  (25,12) 
Branch_type_2  (3,1)  (5,1)  (8,3)  (9,3)  (12,1)  (13,1)  (14,1)  (16,3)  (17,2)  (20,2)  (21,2)  (23,5)  (24,1)  (47,36) 
Branch_type_3  (3,4060)  (4,232)  (5,412)  (6,417)  (7,436)  (8,314)  (9,253)  (10,153)  (11,128)  (12,58)  (13,4)  (64,1) 
Branch_type_4  (6,4)  (7,8)  (8,26)  (9,53)  (10,61)  (11,59)  (12,98)  (13,88)  (14,102)  (15,89)  (16,101)  (17,64)  (18,57)  (19,117)  (20,73)  (21,124)  (22,210)  (23,136)  (24,188)  (25,72) 
Branch_type_5  (8,2)  (9,1)  (10,3)  (11,5)  (12,3)  (13,14)  (14,16)  (15,11)  (16,20)  (17,11)  (18,16)  (19,12)  (20,10)  (21,13)  (22,42)  (23,26)  (24,37) 
Branch_type_6  (5,4)  (6,12)  (7,23)  (8,35)  (9,31)  (10,65)  (11,51)  (12,76)  (13,91)  (14,106)  (15,86)  (16,97)  (17,67)  (18,52)  (19,107)  (20,54)  (21,95)  (22,138)  (23,72)  (24,91)  (25,4)  (47,44) 
Unique trigger count: 
Variant_0_evicts_0 : 0
Variant_0_evicts_1 : 0
Variant_0_evicts_2 : 0
Variant_0_evicts_3 : 0
Variant_1_evicts_0 : 0
Variant_1_evicts_1 : 0
Variant_1_evicts_2 : 0
Variant_1_evicts_3 : 0
Variant_2_evicts_0 : 0
Variant_2_evicts_1 : 0
Variant_2_evicts_2 : 0
Variant_2_evicts_3 : 0
Variant_3_evicts_0 : 0
Variant_3_evicts_1 : 0
Variant_3_evicts_2 : 0
Variant_3_evicts_3 : 0
BTB PER SET UNIQUE ADDR: 21 12 13 9 13 16 16 13 17 15 14 13 13 12 13 11 13 17 12 13 14 12 15 18 15 15 12 16 13 15 14 13 13 12 14 12 14 16 15 15 14 17 11 16 17 17 15 15 15 11 13 15 13 13 17 15 13 15 12 13 13 17 12 16 14 14 14 14 13 12 18 17 17 12 14 13 14 13 11 12 14 14 15 16 13 14 17 14 14 14 20 10 13 15 13 15 15 11 14 16 14 16 15 18 19 14 17 11 14 12 15 12 12 18 13 11 12 11 14 14 15 10 12 16 15 16 18 13 11 15 16 12 14 13 14 16 17 14 12 17 15 13 16 15 15 9 11 13 16 12 11 13 15 16 14 11 17 10 9 12 15 13 13 13 11 16 13 14 13 16 18 16 15 16 14 14 15 14 13 12 15 15 13 15 18 14 11 15 14 17 14 12 18 12 13 14 15 15 16 10 14 15 17 11 14 12 12 13 13 14 15 13 15 14 13 13 17 11 14 13 14 9 15 12 11 14 18 13 14 14 14 15 17 13 17 15 15 14 15 10 16 15 15 12 11 12 14 12 10 18 14 13 13 12 12 12 16 16 16 13 11 12 13 15 16 11 13 12 10 13 15 12 18 12 14 12 13 15 15 12 12 11 12 11 14 12 14 14 14 13 16 13 15 14 15 15 13 14 14 13 13 12 15 17 14 14 13 8 12 10 13 13 15 12 14 17 9 16 16 12 13 11 13 12 12 12 17 15 15 15 17 12 12 11 11 13 11 13 17 14 16 15 15 15 13 15 11 16 14 15 17 11 14 19 18 15 16 12 11 15 17 16 11 14 13 18 16 14 16 12 14 16 14 15 15 14 12 13 11 11 15 11 14 12 15 14 13 15 14 16 13 13 14 13 15 12 15 12 16 17 13 16 17 13 13 11 10 14 11 8 14 15 14 14 14 14 13 14 18 12 14 16 10 17 13 13 11 14 15 11 13 15 14 14 12 14 14 12 12 13 13 15 16 12 11 14 11 17 15 12 15 14 16 11 18 13 14 14 14 11 13 12 9 15 14 12 13 13 15 17 15 13 16 11 11 17 11 12 14 11 12 15 14 15 12 12 14 11 10 12 15 14 15 12 16 14 15 16 14 11 14 12 14 15 11 15 14 13 14 18 12 11 
BTB PER SET COUNT: 23 12 13 1993 15 1963 20 13 18 17 15 13 18 12 15 11 14 21 1478 17 14 13 16 882 71 16 12 16 14 15 15 175 2461 12 15 21 15 16 795 16 541 18 985 18 989 18 15 15 18 12 15 15 19 343 699 15 13 15 13 14 18 1776 13 1975 14 15 14 14 13 14 387 235 18 12 15 14 1472 13 11 12 34 15 413 990 100 494 23 423 1481 993 21 11 14 1159 17 15 998 12 14 993 16 18 15 4131 844 16 19 13 15 12 1654 12 2826 66 16 11 12 11 16 14 16 10 18 17 20 575 768 14 12 15 18 4411 52 13 15 17 17 14 12 1650 506 1971 17 15 15 14 11 1002 341 12 11 14 509 18 21 12 990 10 9 12 15 22 14 13 11 17 13 14 500 186 871 44 16 19 18 14 15 17 13 14 17 21 13 16 18 14 14 197 14 993 1983 1481 2142 1478 4517 16 16 16 16 11 17 15 18 14 14 125 12 120 13 15 15 1485 663 14 17 19 25 1957 69 23 14 9 1646 13 11 15 543 986 15 14 14 1503 18 235 17 18 15 1481 22 11 1040 22 16 12 984 13 14 12 11 865 51 47 15 16 509 12 1324 27 17 13 13 14 13 15 16 991 15 12 11 13 15 985 20 14 17 15 634 15 1488 991 12 11 13 12 14 12 15 15 16 20 22 987 15 17 2463 15 1960 15 501 13 13 12 47 1026 18 988 20551 1356 176 10 1205 983 1491 17 14 1478 982 16 20 15 14 11 13 12 28 69 20 658 15 18 995 15 12 11 13 13 11 15 1609 19 16 15 16 16 13 17 12 16 15 38 21 13 506 19 18 17 990 13 11 17 18 16 11 1962 20 19 18 19 18 12 452 384 20 17 17 14 12 15 11 984 15 14 14 13 20 14 501 19 14 996 13 15 16 16 16 14 15 14 387 505 13 21 20 13 13 11 10 17 14681 8 15 25 14 14 500 500 98 14 19 12 14 18 10 18 14 13 11 2459 1002 11 13 15 15 3421 12 14 16 12 12 47 15 883 17 390 12 16 11 843 1000 15 1603 14 18 11 21 341 877 14 15 11 13 498 9 2461 14 14 1288 14 16 990 132 13 17 11 11 3887 12 14 20 310 1479 384 14 635 12 1484 17 12 12 14 20 21 23 45 1144 16 2934 16 14 11 1970 13 70 1487 14 204 14 13 2948 1988 12 11 
To predecode: 0
Predecoding something: 0
Predecode request dropped: 0
sizeofblock_0 0
sizeofblock_1 47219
sizeofblock_2 87824
sizeofblock_3 0
sizeofblock_4 0
sizeofblock_5 0
sizeofblock_6 0
sizeofblock_7 0
sizeofblock_8 0
Variant_0 Correct: 1614996 Incorrect: 0 Accuracy: 1
Variant_1 Correct: 5734497 Incorrect: 0 Accuracy: 1
Variant_2 Correct: 0 Incorrect: 0 Accuracy: -nan
Variant_3 Correct: 0 Incorrect: 0 Accuracy: -nan
