
*** ChampSim Multicore Out-of-Order Simulator ***

Warmup Instructions: 50000000
Simulation Instructions: 50000000
Number of CPUs: 1
LLC sets: 2048
LLC ways: 16
Off-chip DRAM Size: 4096 MB Channels: 1 Width: 64-bit Data Rate: 6400 MT/s
CPU 0 runs ./micro_traces/srv27.trace.gz
.gz
ITLB has LRU replacement policy
DTLB has LRU replacement policy
STLB has LRU replacement policy
FDIP Prefetcher at L1I
L1I has LRU replacement policy
L1D has LRU replacement policy
Initialize SRRIP state for L2C
Initialize DRRIP state for LLC
Heartbeat_Variant_0 : 1330 0.324707 per_variant_size: 0 1330 0 0 0 0 0 0 0 
Heartbeat_Variant_1 : 1098 0.268066 per_variant_size: 0 352 746 0 0 0 0 0 0 
Heartbeat_Variant_2 : 1008 0.246094 per_variant_size: 0 256 209 159 384 0 0 0 0 
Heartbeat_Variant_3 : 0 0 per_variant_size: 0 0 0 0 0 0 0 0 0 
Heartbeat_Variant_0_evicts 0 : 5566 1 : 3 2 : 4 3 : 0 
Heartbeat_Variant_1_evicts 0 : 4 1 : 0 2 : 197 3 : 0 
Heartbeat_Variant_2_evicts 0 : 6 1 : 199 2 : 0 3 : 0 
Heartbeat_Variant_3_evicts 0 : 0 1 : 0 2 : 0 3 : 0 
Heartbeat CPU 0 instructions: 10000003 cycles: 2796873 heartbeat IPC: 3.57542 cumulative IPC: 3.57542 (Simulation time: 0 hr 2 min 27 sec) 
Heartbeat_Variant_0 : 1390 0.339355 per_variant_size: 0 1390 0 0 0 0 0 0 0 
Heartbeat_Variant_1 : 1145 0.279541 per_variant_size: 0 357 788 0 0 0 0 0 0 
Heartbeat_Variant_2 : 1045 0.255127 per_variant_size: 0 249 224 167 405 0 0 0 0 
Heartbeat_Variant_3 : 0 0 per_variant_size: 0 0 0 0 0 0 0 0 0 
Heartbeat_Variant_0_evicts 0 : 5664 1 : 9 2 : 4 3 : 0 
Heartbeat_Variant_1_evicts 0 : 7 1 : 0 2 : 202 3 : 0 
Heartbeat_Variant_2_evicts 0 : 0 1 : 200 2 : 0 3 : 0 
Heartbeat_Variant_3_evicts 0 : 0 1 : 0 2 : 0 3 : 0 
Heartbeat CPU 0 instructions: 20000000 cycles: 5593674 heartbeat IPC: 3.57551 cumulative IPC: 3.57547 (Simulation time: 0 hr 4 min 34 sec) 
Heartbeat_Variant_0 : 1418 0.346191 per_variant_size: 0 1418 0 0 0 0 0 0 0 
Heartbeat_Variant_1 : 1175 0.286865 per_variant_size: 0 361 814 0 0 0 0 0 0 
Heartbeat_Variant_2 : 1072 0.261719 per_variant_size: 0 264 219 161 428 0 0 0 0 
Heartbeat_Variant_3 : 0 0 per_variant_size: 0 0 0 0 0 0 0 0 0 
Heartbeat_Variant_0_evicts 0 : 5578 1 : 3 2 : 6 3 : 0 
Heartbeat_Variant_1_evicts 0 : 4 1 : 0 2 : 199 3 : 0 
Heartbeat_Variant_2_evicts 0 : 9 1 : 200 2 : 0 3 : 0 
Heartbeat_Variant_3_evicts 0 : 0 1 : 0 2 : 0 3 : 0 
Heartbeat CPU 0 instructions: 30000000 cycles: 8390802 heartbeat IPC: 3.5751 cumulative IPC: 3.57534 (Simulation time: 0 hr 6 min 55 sec) 
Heartbeat_Variant_0 : 1418 0.346191 per_variant_size: 0 1418 0 0 0 0 0 0 0 
Heartbeat_Variant_1 : 1176 0.287109 per_variant_size: 0 360 816 0 0 0 0 0 0 
Heartbeat_Variant_2 : 1074 0.262207 per_variant_size: 0 267 220 167 420 0 0 0 0 
Heartbeat_Variant_3 : 0 0 per_variant_size: 0 0 0 0 0 0 0 0 0 
Heartbeat_Variant_0_evicts 0 : 5555 1 : 0 2 : 1 3 : 0 
Heartbeat_Variant_1_evicts 0 : 1 1 : 0 2 : 195 3 : 0 
Heartbeat_Variant_2_evicts 0 : 0 1 : 195 2 : 0 3 : 0 
Heartbeat_Variant_3_evicts 0 : 0 1 : 0 2 : 0 3 : 0 
Heartbeat CPU 0 instructions: 40000001 cycles: 11187310 heartbeat IPC: 3.57589 cumulative IPC: 3.57548 (Simulation time: 0 hr 8 min 57 sec) 
Heartbeat_Variant_0 : 1523 0.371826 per_variant_size: 0 1523 0 0 0 0 0 0 0 
Heartbeat_Variant_1 : 1300 0.317383 per_variant_size: 0 334 966 0 0 0 0 0 0 
Heartbeat_Variant_2 : 1128 0.275391 per_variant_size: 0 258 215 173 482 0 0 0 0 
Heartbeat_Variant_3 : 0 0 per_variant_size: 0 0 0 0 0 0 0 0 0 
Heartbeat_Variant_0_evicts 0 : 5608 1 : 44 2 : 24 3 : 0 
Heartbeat_Variant_1_evicts 0 : 41 1 : 0 2 : 218 3 : 0 
Heartbeat_Variant_2_evicts 0 : 21 1 : 215 2 : 0 3 : 0 
Heartbeat_Variant_3_evicts 0 : 0 1 : 0 2 : 0 3 : 0 
Heartbeat CPU 0 instructions: 50000000 cycles: 13983022 heartbeat IPC: 3.57691 cumulative IPC: 3.57576 (Simulation time: 0 hr 11 min 4 sec) 

Warmup complete CPU 0 instructions: 50000004 cycles: 13983023 (Simulation time: 0 hr 11 min 4 sec) 

Cycle: 20000000 FTQ IN: 58333294 FTQ occupancy: 19.9434 DECODE IN: 58333294 DECODE occupancy: 52.1289 ROB IN: 58333294 ROB occupancy: 314.35 ROB OUT: 58333278
Heartbeat_Variant_0 : 1523 0.371826 per_variant_size: 0 1523 0 0 0 0 0 0 0 
Heartbeat_Variant_1 : 1301 0.317627 per_variant_size: 0 339 962 0 0 0 0 0 0 
Heartbeat_Variant_2 : 1127 0.275146 per_variant_size: 0 257 215 180 475 0 0 0 0 
Heartbeat_Variant_3 : 0 0 per_variant_size: 0 0 0 0 0 0 0 0 0 
Heartbeat_Variant_0_evicts 0 : 5583 1 : 0 2 : 0 3 : 0 
Heartbeat_Variant_1_evicts 0 : 0 1 : 0 2 : 197 3 : 0 
Heartbeat_Variant_2_evicts 0 : 0 1 : 196 2 : 0 3 : 0 
Heartbeat_Variant_3_evicts 0 : 0 1 : 0 2 : 0 3 : 0 
Heartbeat CPU 0 instructions: 60000000 cycles: 21198149 heartbeat IPC: 1.38598 cumulative IPC: 1.38598 (Simulation time: 0 hr 13 min 19 sec) 
Heartbeat_Variant_0 : 1525 0.372314 per_variant_size: 0 1525 0 0 0 0 0 0 0 
Heartbeat_Variant_1 : 1299 0.317139 per_variant_size: 0 338 961 0 0 0 0 0 0 
Heartbeat_Variant_2 : 1131 0.276123 per_variant_size: 0 260 214 193 464 0 0 0 0 
Heartbeat_Variant_3 : 0 0 per_variant_size: 0 0 0 0 0 0 0 0 0 
Heartbeat_Variant_0_evicts 0 : 5582 1 : 2 2 : 0 3 : 0 
Heartbeat_Variant_1_evicts 0 : 2 1 : 0 2 : 194 3 : 0 
Heartbeat_Variant_2_evicts 0 : 0 1 : 196 2 : 0 3 : 0 
Heartbeat_Variant_3_evicts 0 : 0 1 : 0 2 : 0 3 : 0 
Heartbeat CPU 0 instructions: 70000003 cycles: 28455659 heartbeat IPC: 1.37788 cumulative IPC: 1.38192 (Simulation time: 0 hr 15 min 37 sec) 
Cycle: 30000000 FTQ IN: 13752056 FTQ occupancy: 12.9757 DECODE IN: 13752056 DECODE occupancy: 33.7603 ROB IN: 13752056 ROB occupancy: 233.996 ROB OUT: 13751993
Heartbeat_Variant_0 : 1540 0.375977 per_variant_size: 0 1540 0 0 0 0 0 0 0 
Heartbeat_Variant_1 : 1305 0.318604 per_variant_size: 0 339 966 0 0 0 0 0 0 
Heartbeat_Variant_2 : 1135 0.2771 per_variant_size: 0 258 214 197 466 0 0 0 0 
Heartbeat_Variant_3 : 0 0 per_variant_size: 0 0 0 0 0 0 0 0 0 
Heartbeat_Variant_0_evicts 0 : 5666 1 : 12 2 : 11 3 : 0 
Heartbeat_Variant_1_evicts 0 : 8 1 : 0 2 : 205 3 : 0 
Heartbeat_Variant_2_evicts 0 : 6 1 : 205 2 : 0 3 : 0 
Heartbeat_Variant_3_evicts 0 : 0 1 : 0 2 : 0 3 : 0 
Heartbeat CPU 0 instructions: 80000003 cycles: 35688258 heartbeat IPC: 1.38263 cumulative IPC: 1.38215 (Simulation time: 0 hr 17 min 55 sec) 
Cycle: 40000000 FTQ IN: 13882613 FTQ occupancy: 12.9475 DECODE IN: 13882553 DECODE occupancy: 33.9057 ROB IN: 13882553 ROB occupancy: 235.929 ROB OUT: 13882497
Heartbeat_Variant_0 : 1540 0.375977 per_variant_size: 0 1540 0 0 0 0 0 0 0 
Heartbeat_Variant_1 : 1307 0.319092 per_variant_size: 0 336 971 0 0 0 0 0 0 
Heartbeat_Variant_2 : 1135 0.2771 per_variant_size: 0 255 214 183 483 0 0 0 0 
Heartbeat_Variant_3 : 0 0 per_variant_size: 0 0 0 0 0 0 0 0 0 
Heartbeat_Variant_0_evicts 0 : 5457 1 : 3 2 : 3 3 : 0 
Heartbeat_Variant_1_evicts 0 : 3 1 : 0 2 : 196 3 : 0 
Heartbeat_Variant_2_evicts 0 : 4 1 : 194 2 : 0 3 : 0 
Heartbeat_Variant_3_evicts 0 : 0 1 : 0 2 : 0 3 : 0 
Heartbeat CPU 0 instructions: 90000002 cycles: 42981771 heartbeat IPC: 1.37108 cumulative IPC: 1.37937 (Simulation time: 0 hr 20 min 11 sec) 
Cycle: 50000000 FTQ IN: 13796729 FTQ occupancy: 13.109 DECODE IN: 13796643 DECODE occupancy: 33.9877 ROB IN: 13796583 ROB occupancy: 234.679 ROB OUT: 13796366
Heartbeat_Variant_0 : 1540 0.375977 per_variant_size: 0 1540 0 0 0 0 0 0 0 
Heartbeat_Variant_1 : 1311 0.320068 per_variant_size: 0 337 974 0 0 0 0 0 0 
Heartbeat_Variant_2 : 1138 0.277832 per_variant_size: 0 252 219 186 481 0 0 0 0 
Heartbeat_Variant_3 : 0 0 per_variant_size: 0 0 0 0 0 0 0 0 0 
Heartbeat_Variant_0_evicts 0 : 5629 1 : 2 2 : 0 3 : 0 
Heartbeat_Variant_1_evicts 0 : 3 1 : 0 2 : 198 3 : 0 
Heartbeat_Variant_2_evicts 0 : 1 1 : 198 2 : 0 3 : 0 
Heartbeat_Variant_3_evicts 0 : 0 1 : 0 2 : 0 3 : 0 
Heartbeat CPU 0 instructions: 100000001 cycles: 50165908 heartbeat IPC: 1.39196 cumulative IPC: 1.38187 (Simulation time: 0 hr 22 min 19 sec) 
Finished CPU 0 instructions: 50000000 cycles: 36182886 cumulative IPC: 1.38187 (Simulation time: 0 hr 22 min 19 sec) 

ChampSim completed all CPUs

Region of Interest Statistics

CPU 0 cumulative IPC: 1.38187 instructions: 50000000 cycles: 36182886
 Fetch stage stalled: 53.7702  Sim cycles: 36182886 fetch stall cycle: 19455622
 Empty decode stage: 34.9984  Sim cycles: 36182886 fetch stall cycle: 12663415
ITLB TOTAL     ACCESS:    5869045  HIT:    5374904  MISS:     494141  HIT %:    91.5806  MISS %:    8.41944   MPKI: 9.88282
ITLB LOAD TRANSLATION INSTRUCTION	ACCESS:    5751869  HIT:    5257728  MISS:     494141  HIT %:     91.409  MISS %:    8.59096  MPKI: 9.88282
ITLB TRANSLATION FROM L1D PREFETCHER INSTRUCTION	ACCESS:     117176  HIT:     117176  MISS:          0  HIT %:        100  MISS %:          0  MPKI: 0

ITLB AVERAGE MISS LATENCY: 9.05659 cycles
ITLB RQ	ACCESS:    8005445	FORWARD:          0	MERGED:    1689231	TO_CACHE:    6316214

DTLB TOTAL     ACCESS:    8968631  HIT:    8494575  MISS:     474056  HIT %:    94.7143  MISS %:    5.28571   MPKI: 9.48112
DTLB LOAD TRANSLATION DATA	ACCESS:    8968631  HIT:    8494575  MISS:     474056  HIT %:    94.7143  MISS %:    5.28571  MPKI: 9.48112

DTLB AVERAGE MISS LATENCY: 9.31249 cycles
DTLB RQ	ACCESS:   13337825	FORWARD:          0	MERGED:    4332028	TO_CACHE:    9005797

STLB TOTAL     ACCESS:    1215849  HIT:    1213854  MISS:       1995  HIT %:    99.8359  MISS %:   0.164083   MPKI: 0.0399
STLB LOAD TRANSLATION INSTRUCTION	ACCESS:     494141  HIT:     493912  MISS:        229  HIT %:    99.9537  MISS %:   0.046343  MPKI: 0.00458
STLB LOAD TRANSLATION DATA	ACCESS:     474055  HIT:     472325  MISS:       1730  HIT %:    99.6351  MISS %:   0.364937  MPKI: 0.0346
STLB TRANSLATION FROM L1D PREFETCHER DATA	ACCESS:     247653  HIT:     247617  MISS:         36  HIT %:    99.9855  MISS %:  0.0145365  MPKI: 0.00072

STLB AVERAGE MISS LATENCY: 72.5945 cycles
STLB RQ	ACCESS:    1336248	FORWARD:          0	MERGED:     120353	TO_CACHE:    1215895

STLB Hit, L1D data hit: 0
STLB Hit, L2C data hit: 0
STLB Hit, LLC data hit: 0
STLB Hit, LLC data miss: 0
STLB STLB hints to L2: 0
L1D TOTAL     ACCESS:   13089516  HIT:   11974537  MISS:    1114979  HIT %:    91.4819  MISS %:    8.51811   MPKI: 22.2996
L1D LOAD DATA	ACCESS:    6556886  HIT:    5821695  MISS:     735191  HIT %:    88.7875  MISS %:    11.2125  MPKI: 14.7038
L1D RFO DATA	ACCESS:    6205191  HIT:    5919932  MISS:     285259  HIT %:    95.4029  MISS %:     4.5971  MPKI: 5.70518
L1D PREFETCH DATA	ACCESS:     327439  HIT:     232910  MISS:      94529  HIT %:    71.1308  MISS %:    28.8692  MPKI: 1.89058

L1D PREFETCH  REQUESTED:     736433  ISSUED:     736433  USEFUL:      33202  USELESS:      68958
L1D USEFUL LOAD PREFETCHES:      33202 PREFETCH ISSUED TO LOWER LEVEL:     102198  ACCURACY: 32.4879
 TIMELY PREFETCHES:      33202 LATE PREFETCHES: 7602 DROPPED PREFETCHES: 12
L1D AVERAGE MISS LATENCY: 223441 cycles
L1D RQ	ACCESS:   10688388	FORWARD:          0	MERGED:    3935705	TO_CACHE:    6589741
L1D WQ	ACCESS:    6944847	FORWARD:     163273	MERGED:     196763	TO_CACHE:    6748084
L1D PQ	ACCESS:     368382	FORWARD:          0	MERGED:          0	TO_CACHE:     368051

L1D UNIQUE REGIONS ACCESSED: 0
L1D REGIONS CONFLICTS: 0
L1D Cross Page Prefetch Requests: 6889
L1D Same Page Prefetch Requests: 749050
L1D ROI Sum of L1D PQ occupancy: 4671600
L1D PREFETCHES PUSHED FROM L2C: 0
L1I TOTAL     ACCESS:    7179037  HIT:    4416481  MISS:    2762556  HIT %:    61.5191  MISS %:    38.4809   MPKI: 55.2511
L1I LOAD INSTRUCTION	ACCESS:    6513832  HIT:    3751276  MISS:    2762556  HIT %:    57.5894  MISS %:    42.4106  MPKI: 55.2511
L1I PREFETCH INSTRUCTION	ACCESS:     665205  HIT:     665205  MISS:          0  HIT %:        100  MISS %:          0  MPKI: 0

L1I PREFETCH  REQUESTED:    1601986  ISSUED:    1601986  USEFUL:          0  USELESS:          0
L1I USEFUL LOAD PREFETCHES:          0 PREFETCH ISSUED TO LOWER LEVEL:          0  ACCURACY: -nan
 TIMELY PREFETCHES:          0 LATE PREFETCHES: 0 DROPPED PREFETCHES: 0
L1I AVERAGE MISS LATENCY: 17.1213 cycles
L1I RQ	ACCESS:    9507924	FORWARD:          0	MERGED:    2669885	TO_CACHE:    6838039
L1I PQ	ACCESS:    1601986	FORWARD:          0	MERGED:     434580	TO_CACHE:    1167406

L1BTB TOTAL     ACCESS:    5670761  HIT:    2040856  MISS:    3629905  HIT %:    35.9891  MISS %:    64.0109   MPKI: 72.5981
L1BTB BRANCH_DIRECT_JUMP	ACCESS:     547203  HIT:     144341  MISS:     402862	AVERAGE STALL: 45.3151
L1BTB BRANCH_INDIRECT	ACCESS:     182550  HIT:      65772  MISS:     116778	AVERAGE STALL: 101.635
L1BTB BRANCH_CONDITIONAL	ACCESS:    2702419  HIT:    1410273  MISS:    1292146	AVERAGE STALL: 60.2573
L1BTB BRANCH_DIRECT_CALL	ACCESS:     946910  HIT:     106387  MISS:     840523	AVERAGE STALL: 84.5192
L1BTB BRANCH_INDIRECT_CALL	ACCESS:     172381  HIT:      21863  MISS:     150518	AVERAGE STALL: 135.738
L1BTB BRANCH_RETURN	ACCESS:    1119298  HIT:     292220  MISS:     827078	AVERAGE STALL: 45.4575
L1BTB BRANCH_OTHER ACCESS:          0  HIT:          0  MISS:          0	AVERAGE STALL: -nan
L1BTB TOTAL ROB OCCUPANCY AT BTB MISS: 2.88072

L2BTB TOTAL     ACCESS:    3604558  HIT:    3534852  MISS:      69706  HIT %:    98.0662  MISS %:    1.93383   MPKI: 1.39412
L2BTB BRANCH_DIRECT_JUMP	ACCESS:     398717  HIT:     394357  MISS:       4360	AVERAGE STALL: 45.3151
L2BTB BRANCH_INDIRECT	ACCESS:     106505  HIT:     103788  MISS:       2717	AVERAGE STALL: 101.635
L2BTB BRANCH_CONDITIONAL	ACCESS:    1292146  HIT:    1286622  MISS:       5524	AVERAGE STALL: 60.2573
L2BTB BRANCH_DIRECT_CALL	ACCESS:     840523  HIT:     839728  MISS:        795	AVERAGE STALL: 84.5192
L2BTB BRANCH_INDIRECT_CALL	ACCESS:     140993  HIT:     130969  MISS:      10024	AVERAGE STALL: 135.738
L2BTB BRANCH_RETURN	ACCESS:     825674  HIT:     779388  MISS:      46286	AVERAGE STALL: 45.4575
L2BTB BRANCH_OTHER ACCESS:          0  HIT:          0  MISS:          0	AVERAGE STALL: -nan
L2BTB TOTAL ROB OCCUPANCY AT BTB MISS: 150.012

L2C TOTAL     ACCESS:    4485438  HIT:    4020071  MISS:     465367  HIT %:    89.6249  MISS %:    10.3751   MPKI: 9.30734
L2C LOAD INSTRUCTION	ACCESS:    2762556  HIT:    2509900  MISS:     252656  HIT %:    90.8543  MISS %:    9.14573  MPKI: 5.05312
L2C LOAD TRANSLATION INSTRUCTION	ACCESS:        252  HIT:         58  MISS:        194  HIT %:    23.0159  MISS %:    76.9841  MPKI: 0.00388
L2C LOAD DATA	ACCESS:     727571  HIT:     648606  MISS:      78965  HIT %:    89.1468  MISS %:    10.8532  MPKI: 1.5793
L2C RFO DATA	ACCESS:     285170  HIT:     239463  MISS:      45707  HIT %:     83.972  MISS %:     16.028  MPKI: 0.91414
L2C PREFETCH DATA	ACCESS:     187804  HIT:     115512  MISS:      72292  HIT %:    61.5067  MISS %:    38.4933  MPKI: 1.44584
L2C WRITEBACK DATA	ACCESS:     520240  HIT:     505984  MISS:      14256  HIT %:    97.2597  MISS %:    2.74027  MPKI: 0.28512
L2C LOAD TRANSLATION DATA	ACCESS:       1780  HIT:        505  MISS:       1275  HIT %:    28.3708  MISS %:    71.6292  MPKI: 0.0255
L2C TRANSLATION FROM L1D PREFETCHER DATA	ACCESS:         65  HIT:         43  MISS:         22  HIT %:    66.1538  MISS %:    33.8462  MPKI: 0.00044

L2C PREFETCH  REQUESTED:      93639  ISSUED:      93639  USEFUL:       7858  USELESS:      65122
L2C USEFUL LOAD PREFETCHES:       7858 PREFETCH ISSUED TO LOWER LEVEL:      72889  ACCURACY: 10.7808
 TIMELY PREFETCHES:       7858 LATE PREFETCHES: 597 DROPPED PREFETCHES: 0
L2C AVERAGE MISS LATENCY: 38.2799 cycles
L2C RQ	ACCESS:    3777434	FORWARD:          0	MERGED:          0	TO_CACHE:    3777394
L2C WQ	ACCESS:     520240	FORWARD:         41	MERGED:          0	TO_CACHE:     520240
L2C PQ	ACCESS:     195837	FORWARD:          0	MERGED:       3682	TO_CACHE:     192154

L2C Dense regions hint from L2: 0
PSCL5 TOTAL     ACCESS:       4026  HIT:       2013  MISS:       2013  HIT %:         50  MISS %:         50   MPKI: 0.04026
PSCL5 LOAD TRANSLATION INSTRUCTION	ACCESS:       3898  HIT:       1949  MISS:       1949  HIT %:         50  MISS %:         50  MPKI: 0.03898
PSCL5 TRANSLATION FROM L1D PREFETCHER INSTRUCTION	ACCESS:        128  HIT:         64  MISS:         64  HIT %:         50  MISS %:         50  MPKI: 0.00128


PSCL4 TOTAL     ACCESS:       3919  HIT:       1956  MISS:       1963  HIT %:    49.9107  MISS %:    50.0893   MPKI: 0.03926
PSCL4 LOAD TRANSLATION INSTRUCTION	ACCESS:       2556  HIT:       1892  MISS:        664  HIT %:    74.0219  MISS %:    25.9781  MPKI: 0.01328
PSCL4 TRANSLATION FROM L1D PREFETCHER INSTRUCTION	ACCESS:         91  HIT:         64  MISS:         27  HIT %:    70.3297  MISS %:    29.6703  MPKI: 0.00054
PSCL4 LOAD TRANSLATION DATA	ACCESS:       1235  HIT:          0  MISS:       1235  HIT %:          0  MISS %:        100  MPKI: 0.0247
PSCL4 TRANSLATION FROM L1D PREFETCHER DATA	ACCESS:         37  HIT:          0  MISS:         37  HIT %:          0  MISS %:        100  MPKI: 0.00074


PSCL3 TOTAL     ACCESS:       3995  HIT:       1994  MISS:       2001  HIT %:    49.9124  MISS %:    50.0876   MPKI: 0.04002
PSCL3 LOAD TRANSLATION INSTRUCTION	ACCESS:       2594  HIT:       1930  MISS:        664  HIT %:    74.4025  MISS %:    25.5975  MPKI: 0.01328
PSCL3 TRANSLATION FROM L1D PREFETCHER INSTRUCTION	ACCESS:         91  HIT:         64  MISS:         27  HIT %:    70.3297  MISS %:    29.6703  MPKI: 0.00054
PSCL3 LOAD TRANSLATION DATA	ACCESS:       1273  HIT:          0  MISS:       1273  HIT %:          0  MISS %:        100  MPKI: 0.02546
PSCL3 TRANSLATION FROM L1D PREFETCHER DATA	ACCESS:         37  HIT:          0  MISS:         37  HIT %:          0  MISS %:        100  MPKI: 0.00074


PSCL2 TOTAL     ACCESS:       3956  HIT:       1943  MISS:       2013  HIT %:    49.1153  MISS %:    50.8847   MPKI: 0.04026
PSCL2 LOAD TRANSLATION INSTRUCTION	ACCESS:       2109  HIT:       1880  MISS:        229  HIT %:    89.1418  MISS %:    10.8582  MPKI: 0.00458
PSCL2 TRANSLATION FROM L1D PREFETCHER INSTRUCTION	ACCESS:         63  HIT:         63  MISS:          0  HIT %:        100  MISS %:          0  MPKI: 0
PSCL2 LOAD TRANSLATION DATA	ACCESS:       1721  HIT:          0  MISS:       1721  HIT %:          0  MISS %:        100  MPKI: 0.03442
PSCL2 TRANSLATION FROM L1D PREFETCHER DATA	ACCESS:         63  HIT:          0  MISS:         63  HIT %:          0  MISS %:        100  MPKI: 0.00126


LLC TOTAL     ACCESS:     519954  HIT:     492365  MISS:      27589  HIT %:     94.694  MISS %:    5.30605   MPKI: 0.55178
LLC LOAD INSTRUCTION	ACCESS:     252656  HIT:     251836  MISS:        820  HIT %:    99.6754  MISS %:   0.324552  MPKI: 0.0164
LLC LOAD TRANSLATION INSTRUCTION	ACCESS:        194  HIT:        152  MISS:         42  HIT %:    78.3505  MISS %:    21.6495  MPKI: 0.00084
LLC LOAD DATA	ACCESS:      78405  HIT:      75002  MISS:       3403  HIT %:    95.6597  MISS %:    4.34028  MPKI: 0.06806
LLC RFO DATA	ACCESS:      45669  HIT:      32511  MISS:      13158  HIT %:    71.1883  MISS %:    28.8117  MPKI: 0.26316
LLC PREFETCH DATA	ACCESS:      72889  HIT:      63081  MISS:       9808  HIT %:    86.5439  MISS %:    13.4561  MPKI: 0.19616
LLC WRITEBACK DATA	ACCESS:      68844  HIT:      68542  MISS:        302  HIT %:    99.5613  MISS %:   0.438673  MPKI: 0.00604
LLC LOAD TRANSLATION DATA	ACCESS:       1275  HIT:       1219  MISS:         56  HIT %:    95.6078  MISS %:    4.39216  MPKI: 0.00112
LLC TRANSLATION FROM L1D PREFETCHER DATA	ACCESS:         22  HIT:         22  MISS:          0  HIT %:        100  MISS %:          0  MPKI: 0

LLC AVERAGE MISS LATENCY: 153.656 cycles
LLC RQ	ACCESS:     378222	FORWARD:          0	MERGED:          0	TO_CACHE:     378221
LLC WQ	ACCESS:      68844	FORWARD:          1	MERGED:          0	TO_CACHE:      68844
LLC PQ	ACCESS:      72889	FORWARD:          0	MERGED:          0	TO_CACHE:      72889

LLC Dense regions hint to LLC: 0

RAW hits: 1941064
Loads Generated: 12629451
Loads sent to L1D: 10688388
Stores Generated: 6944835
Stores sent to L1D: 6944847
Major fault: 0 Minor fault: 2650
Allocated PAGES: 2650

stream: 
stream:times selected: 1187594
stream:pref_filled: 122084
stream:pref_useful: 23912
stream:pref_late: 6877
stream:misses: 7904
stream:misses_by_poll: 0

CS: 
CS:times selected: 179106
CS:pref_filled: 60701
CS:pref_useful: 37357
CS:pref_late: 6747
CS:misses: 16074
CS:misses_by_poll: 2

CPLX: 
CPLX:times selected: 1007280
CPLX:pref_filled: 19778
CPLX:pref_useful: 4487
CPLX:pref_late: 3189
CPLX:misses: 93504
CPLX:misses_by_poll: 0

NL_L1: 
NL:times selected: 20854
NL:pref_filled: 724
NL:pref_useful: 325
NL:pref_late: 311
NL:misses: 1742
NL:misses_by_poll: 0

total selections: 2394834
total_filled: 94529
total_useful: 33202
total_late: 18538
total_polluted: 2
total_misses_after_warmup: 768047
conflicts: 5518796

test: 116280

DRAM Statistics
 CHANNEL 0
 RQ ROW_BUFFER_HIT:      10237  ROW_BUFFER_MISS:      17042
 DBUS_CONGESTED:         15
 WQ ROW_BUFFER_HIT:       1249  ROW_BUFFER_MISS:      11727  FULL:          0

 AVG_CONGESTED_CYCLE: 5

CPU 0 Branch Prediction Accuracy: 99.822% MPKI: 0.3256 Average ROB Occupancy at Mispredict: 188.557
Branch types
NOT_BRANCH: 40852687 81.7054%
BRANCH_DIRECT_JUMP: 547203 1.09441%
BRANCH_INDIRECT: 182550 0.3651%
BRANCH_CONDITIONAL: 6178980 12.358%
BRANCH_DIRECT_CALL: 946910 1.89382%
BRANCH_INDIRECT_CALL: 172381 0.344762%
BRANCH_RETURN: 1119298 2.2386%
BRANCH_OTHER: 0 0%

DRAM PAGES: 1048576
Allocated PAGES: 2650
Average_ROB_Occupancy: 236.061
Average_Decode_Occupancy: 33.8403
Average_FTQ_Occupancy: 12.9761
Indirect max targets: 14 Average targets: 1.18125
Branch_type:  BRANCH_DIRECT_JUMP:  Count Percentage: 3.81156 5.29529 4.21399 6.94864 3.49057 2.5443 2.26795 71.4277 
Branch_type:  BRANCH_INDIRECT:  Count Percentage: 11.7744 3.42163 2.54065 9.68396 3.34478 2.80842 1.73817 64.688 
Branch_type:  BRANCH_CONDITIONAL:  Count Percentage: 21.3703 2.92026 2.29738 4.11465 2.50992 2.37156 2.77644 61.6395 
Branch_type:  BRANCH_DIRECT_CALL:  Count Percentage: 0.389486 1.77128 0.73765 3.56831 3.61631 2.05884 4.09755 83.7606 
Branch_type:  BRANCH_INDIRECT_CALL:  Count Percentage: 9.54764 0 2.99262 5.27322 1.05622 2.03287 3.85007 75.2474 
Branch_type:  BRANCH_RETURN:  Count Percentage: 3.94402 1.99213 2.35568 4.14679 4.54676 3.28298 3.69985 76.0318 
Branch_type:  BRANCH_DIRECT_JUMP:  Total Count: 41750 58002 46158 76112 38234 27869 24842 782384 
Branch_type:  BRANCH_INDIRECT:  Total Count: 43049 12510 9289 35406 12229 10268 6355 236509 
Branch_type:  BRANCH_CONDITIONAL:  Total Count: 2640359 360806 283847 508375 310107 293012 343036 7615710 
Branch_type:  BRANCH_DIRECT_CALL:  Total Count: 7352 33435 13924 67356 68262 38863 77346 1581079 
Branch_type:  BRANCH_INDIRECT_CALL:  Total Count: 32759 0 10268 18093 3624 6975 13210 258182 
Branch_type:  BRANCH_RETURN:  Total Count: 88016 44457 52570 92541 101467 73264 82567 1696750 
Number of unique branch instructions: 11078
Upper 32 bits: 
aaaa
ffff
ffff0000
Unique upper 32 bits: 3
Unique upper 36 bits: 3
Unique upper 40 bits: 5
Unique upper 44 bits: 32
Unique upper 48 bits: 160
Variant_0 : 1540 0.375977
Variant_1 : 1311 0.320068
Variant_2 : 1138 0.277832
Variant_3 : 0 0
Offset_3 4579
Offset_4 273
Offset_5 501
Offset_6 558
Offset_7 652
Offset_8 593
Offset_9 537
Offset_10 446
Offset_11 360
Offset_12 336
Offset_13 241
Offset_14 248
Offset_15 201
Offset_16 233
Offset_17 176
Offset_18 154
Offset_19 264
Offset_20 149
Offset_21 261
Offset_22 417
Offset_23 241
Offset_24 361
Offset_25 117
Offset_47 96
Offset_64 1
decode_dispatch_called: 25369607 70.1149
Dispatch_width: 0 13634227 53.7424 37.6814
Dispatch_width: 1 946060 3.72911 2.61466
Dispatch_width: 2 806886 3.18052 2.23002
Dispatch_width: 3 493451 1.94505 1.36377
Dispatch_width: 4 5409520 21.3228 14.9505
Dispatch_width: 5 155043 0.611137 0.428498
Dispatch_width: 6 3924420 15.469 10.8461
Empty_decode_cycles: 10813279 29.8851
ROB_full_cycles: 8619208 23.8212
Starvation_cycles_per_kilo_instr: 236.393
Starvation_cycles_per_kilo_instr_3: 180.747
Starvation_cycles_per_kilo_instr_0: 158.283
Branch_type_1  (3,1)  (4,10)  (5,41)  (6,77)  (7,126)  (8,152)  (9,141)  (10,114)  (11,80)  (12,55)  (13,11)  (14,2)  (15,3)  (16,4)  (18,1)  (19,5)  (20,2)  (21,1)  (22,3)  (23,2)  (24,10)  (25,12) 
Branch_type_2  (3,1)  (4,1)  (5,1)  (8,4)  (9,4)  (10,1)  (12,1)  (13,1)  (14,1)  (16,3)  (17,2)  (20,2)  (21,2)  (23,5)  (24,1)  (47,43) 
Branch_type_3  (3,4577)  (4,262)  (5,455)  (6,464)  (7,493)  (8,370)  (9,294)  (10,182)  (11,141)  (12,62)  (13,10)  (64,1) 
Branch_type_4  (6,4)  (7,8)  (8,26)  (9,59)  (10,70)  (11,72)  (12,122)  (13,103)  (14,113)  (15,96)  (16,103)  (17,85)  (18,67)  (19,126)  (20,75)  (21,141)  (22,222)  (23,136)  (24,208)  (25,101) 
Branch_type_5  (8,3)  (9,1)  (10,4)  (11,5)  (12,3)  (13,14)  (14,16)  (15,11)  (16,22)  (17,11)  (18,23)  (19,15)  (20,12)  (21,13)  (22,43)  (23,26)  (24,42) 
Branch_type_6  (5,4)  (6,13)  (7,25)  (8,38)  (9,38)  (10,75)  (11,62)  (12,93)  (13,102)  (14,116)  (15,91)  (16,101)  (17,78)  (18,63)  (19,118)  (20,58)  (21,104)  (22,149)  (23,72)  (24,100)  (25,4)  (47,53) 
Unique trigger count: 
Variant_0_evicts_0 : 0
Variant_0_evicts_1 : 0
Variant_0_evicts_2 : 0
Variant_0_evicts_3 : 0
Variant_1_evicts_0 : 0
Variant_1_evicts_1 : 0
Variant_1_evicts_2 : 0
Variant_1_evicts_3 : 0
Variant_2_evicts_0 : 0
Variant_2_evicts_1 : 0
Variant_2_evicts_2 : 0
Variant_2_evicts_3 : 0
Variant_3_evicts_0 : 0
Variant_3_evicts_1 : 0
Variant_3_evicts_2 : 0
Variant_3_evicts_3 : 0
BTB PER SET UNIQUE ADDR: 13 13 14 16 12 14 17 15 19 16 17 12 16 11 10 15 18 15 15 15 20 13 13 13 14 14 11 16 13 14 14 14 10 16 16 14 17 18 16 15 15 16 15 14 17 12 16 17 15 13 14 17 18 13 19 15 13 18 14 16 12 13 18 14 17 15 16 14 19 18 12 16 19 19 21 17 16 14 15 12 18 16 11 11 15 16 18 17 20 18 22 12 19 21 13 16 14 15 16 12 17 21 13 15 18 13 14 15 15 13 9 13 9 14 17 10 16 12 15 16 18 11 18 16 18 24 20 14 15 15 16 17 15 13 11 22 18 17 15 19 15 8 12 19 11 17 11 17 16 12 10 17 14 14 16 12 9 15 8 15 18 13 10 15 12 13 17 14 18 23 18 14 17 17 15 15 18 14 14 17 15 16 16 19 16 18 12 19 16 16 18 15 15 17 17 14 18 14 17 12 12 18 17 15 16 11 13 16 14 11 13 20 15 18 15 16 19 11 19 18 16 9 16 9 19 15 20 16 15 16 17 11 13 14 15 17 13 16 18 12 21 20 21 15 16 16 21 14 16 14 13 14 10 15 12 13 13 13 19 14 19 15 18 9 14 13 18 17 14 14 21 15 18 12 17 19 13 12 11 16 13 18 19 14 16 15 10 14 14 12 16 12 16 21 14 18 18 12 20 15 9 16 20 10 15 15 20 15 16 19 12 14 18 11 14 25 10 18 17 9 12 13 16 13 11 14 12 15 14 15 15 12 21 9 17 12 14 19 15 17 15 13 14 11 19 19 16 14 12 14 17 11 12 19 16 13 12 17 20 16 15 13 15 13 15 19 16 13 14 8 15 12 13 23 13 14 12 8 18 13 11 18 13 17 15 21 16 12 15 16 13 13 19 12 13 10 12 15 17 18 12 17 21 16 17 21 14 13 14 10 13 16 15 14 22 18 13 13 13 14 13 17 16 18 11 15 11 15 17 13 22 14 20 19 12 17 19 16 14 12 17 13 12 15 16 16 13 12 14 12 16 13 19 13 16 13 16 10 14 14 15 15 14 13 16 13 15 15 15 20 16 15 17 16 14 15 14 12 18 19 28 12 18 17 9 18 16 18 14 14 20 15 14 16 12 16 11 16 15 13 14 18 12 17 15 15 10 16 19 20 16 12 
BTB PER SET COUNT: 19 14 14 39 12 444 1488 17 23 17 17 12 16 466 16 15 20 18 15 18 20 13 13 14 14 16 11 994 395 996 2458 15 10 994 18 16 508 18 18 18 15 17 993 14 521 12 16 17 15 14 14 1002 20 502 19 15 14 18 15 18 12 526 19 289 17 16 16 994 600 20 371 318 19 19 23 25 267 54 16 12 32 16 22 1967 18 1482 18 3453 2954 22 1005 15 19 27 13 16 14 16 16 20 18 510 14 2947 18 17 18 761 17 13 10 538 9 155 18 14 19 12 504 16 19 11 3930 17 106 4620 268 14 16 17 18 17 17 13 12 1975 21 17 20 20 15 8 14 247 13 1691 1480 19 17 16 10 4442 998 14 17 14 9 507 8 16 570 17 13 16 12 13 722 14 18 25 18 1986 1411 115 994 18 25 991 14 19 16 17 16 20 60 19 14 20 17 18 18 15 508 1484 18 14 18 14 21 12 16 18 17 15 504 134 502 16 14 11 15 22 17 19 17 18 19 11 53 19 18 10 17 986 20 15 23 34 18 152 1492 989 13 15 15 19 17 20 1487 12 23 20 23 15 16 18 23 16 18 1970 13 14 12 17 13 15 15 31 19 14 1831 2817 20 9 253 15 70 19 505 834 22 15 1003 1349 17 1007 453 12 11 16 13 481 802 14 18 18 10 15 14 14 16 12 17 1865 14 997 18 14 215 1480 9 17 120 11 15 1231 20560 18 17 21 4318 14 2666 15 16 951 10 1241 20 9 12 17 734 13 12 15 12 1275 17 20 993 12 296 10 17 18 16 26 15 1042 15 13 16 11 20 19 1483 14 12 128 20 11 490 21 18 992 14 506 1219 504 15 15 485 33 21 3527 16 13 991 8 517 256 18 25 15 14 2457 8 18 14 13 21 43 18 1998 85 506 13 992 19 14 13 24 12 18 10 13 23 377 20 12 19 738 150 17 24 14 991 4255 12 13 17 17 243 3799 20 13 992 14 15 988 19 16 10450 11 19 11 17 17 15 25 15 20 507 12 19 20 17 993 12 18 972 14 15 20 69 13 24 2952 14 16 13 21 13 16 13 1000 10 993 1975 16 15 15 13 2950 16 15 2460 16 759 152 15 23 16 14 6146 3436 12 19 146 3453 13 21 18 9 275 17 18 16 17 26 16 14 16 765 16 2946 16 1209 13 481 18 15 18 15 220 499 17 20 1801 16 13 
To predecode: 0
Predecoding something: 0
Predecode request dropped: 0
sizeofblock_0 0
sizeofblock_1 21084
sizeofblock_2 24716
sizeofblock_3 53584
sizeofblock_4 46631
sizeofblock_5 0
sizeofblock_6 0
sizeofblock_7 0
sizeofblock_8 0
Variant_0 Correct: 1614633 Incorrect: 0 Accuracy: 1
Variant_1 Correct: 2090469 Incorrect: 0 Accuracy: 1
Variant_2 Correct: 3631262 Incorrect: 267 Accuracy: 0.999926
Variant_3 Correct: 0 Incorrect: 0 Accuracy: -nan
