Set 35: way: 00
Set 35: way: 11
Set 35: way: 22
Set 35: way: 33

*** ChampSim Multicore Out-of-Order Simulator ***

Warmup Instructions: 50000000
Simulation Instructions: 50000000
Number of CPUs: 1
LLC sets: 2048
LLC ways: 16
Off-chip DRAM Size: 4096 MB Channels: 1 Width: 64-bit Data Rate: 6400 MT/s
CPU 0 runs ./micro_traces/srv231.trace.gz
.gz
ITLB has LRU replacement policy
DTLB has LRU replacement policy
STLB has LRU replacement policy
L1I has LRU replacement policy
L1D has LRU replacement policy
Initialize SRRIP state for L2C
Initialize DRRIP state for LLC
Heartbeat CPU 0 instructions: 10000001 cycles: 2797220 heartbeat IPC: 3.57498 cumulative IPC: 3.57498 (Simulation time: 0 hr 1 min 36 sec) 
Heartbeat CPU 0 instructions: 20000003 cycles: 5594077 heartbeat IPC: 3.57544 cumulative IPC: 3.57521 (Simulation time: 0 hr 3 min 13 sec) 
Heartbeat CPU 0 instructions: 30000003 cycles: 8389519 heartbeat IPC: 3.57725 cumulative IPC: 3.57589 (Simulation time: 0 hr 4 min 50 sec) 
Heartbeat CPU 0 instructions: 40000003 cycles: 11185327 heartbeat IPC: 3.57678 cumulative IPC: 3.57611 (Simulation time: 0 hr 6 min 29 sec) 
Heartbeat CPU 0 instructions: 50000002 cycles: 13981834 heartbeat IPC: 3.57589 cumulative IPC: 3.57607 (Simulation time: 0 hr 8 min 5 sec) 

Warmup complete CPU 0 instructions: 50000002 cycles: 13981834 (Simulation time: 0 hr 8 min 5 sec) 

Cycle: 20000000 FTQ IN: 57020418 FTQ occupancy: 17.8317 DECODE IN: 57020389 DECODE occupancy: 45.9032 ROB IN: 57020344 ROB occupancy: 280.487 ROB OUT: 57019992
Heartbeat CPU 0 instructions: 60000001 cycles: 22674309 heartbeat IPC: 1.15042 cumulative IPC: 1.15042 (Simulation time: 0 hr 9 min 25 sec) 
Cycle: 30000000 FTQ IN: 11456681 FTQ occupancy: 5.98804 DECODE IN: 11456685 DECODE occupancy: 13.2632 ROB IN: 11456693 ROB occupancy: 122.153 ROB OUT: 11456875
Heartbeat CPU 0 instructions: 70000001 cycles: 31316051 heartbeat IPC: 1.15717 cumulative IPC: 1.15379 (Simulation time: 0 hr 10 min 45 sec) 
Cycle: 40000000 FTQ IN: 11487560 FTQ occupancy: 5.99447 DECODE IN: 11487575 DECODE occupancy: 13.4099 ROB IN: 11487612 ROB occupancy: 124.122 ROB OUT: 11487742
Heartbeat CPU 0 instructions: 80000002 cycles: 40028560 heartbeat IPC: 1.14778 cumulative IPC: 1.15178 (Simulation time: 0 hr 12 min 5 sec) 
Heartbeat CPU 0 instructions: 90000000 cycles: 48649317 heartbeat IPC: 1.15999 cumulative IPC: 1.15382 (Simulation time: 0 hr 13 min 24 sec) 
Cycle: 50000000 FTQ IN: 11610562 FTQ occupancy: 5.85728 DECODE IN: 11610572 DECODE occupancy: 13.1344 ROB IN: 11610572 ROB occupancy: 122.837 ROB OUT: 11610590
Heartbeat CPU 0 instructions: 100000000 cycles: 57351914 heartbeat IPC: 1.14908 cumulative IPC: 1.15287 (Simulation time: 0 hr 14 min 44 sec) 
Finished CPU 0 instructions: 50000002 cycles: 43370081 cumulative IPC: 1.15287 (Simulation time: 0 hr 14 min 44 sec) 

ChampSim completed all CPUs

Region of Interest Statistics

CPU 0 cumulative IPC: 1.15287 instructions: 50000002 cycles: 43370081
 Fetch stage stalled: 72.4814  Sim cycles: 43370081 fetch stall cycle: 31435249
 Empty decode stage: 66.6891  Sim cycles: 43370081 fetch stall cycle: 28923123
ITLB TOTAL     ACCESS:    9174179  HIT:    8677287  MISS:     496892  HIT %:    94.5838  MISS %:     5.4162   MPKI: 9.93784
ITLB LOAD TRANSLATION INSTRUCTION	ACCESS:    5895487  HIT:    5476227  MISS:     419260  HIT %:    92.8885  MISS %:    7.11154  MPKI: 8.3852
ITLB TRANSLATION FROM L1D PREFETCHER INSTRUCTION	ACCESS:    3278692  HIT:    3201060  MISS:      77632  HIT %:    97.6322  MISS %:    2.36777  MPKI: 1.55264

ITLB AVERAGE MISS LATENCY: 2.88678e+07 cycles
ITLB RQ	ACCESS:   11270556	FORWARD:          0	MERGED:    1330613	TO_CACHE:    9939943

DTLB TOTAL     ACCESS:    9409453  HIT:    8936263  MISS:     473190  HIT %:    94.9711  MISS %:    5.02888   MPKI: 9.4638
DTLB LOAD TRANSLATION DATA	ACCESS:    9409453  HIT:    8936263  MISS:     473190  HIT %:    94.9711  MISS %:    5.02888  MPKI: 9.4638

DTLB AVERAGE MISS LATENCY: 9.32617 cycles
DTLB RQ	ACCESS:   13677201	FORWARD:          0	MERGED:    4235372	TO_CACHE:    9441829

STLB TOTAL     ACCESS:    1223935  HIT:    1221918  MISS:       2017  HIT %:    99.8352  MISS %:   0.164796   MPKI: 0.04034
STLB LOAD TRANSLATION INSTRUCTION	ACCESS:      15673  HIT:      15650  MISS:         23  HIT %:    99.8533  MISS %:   0.146749  MPKI: 0.00046
STLB TRANSLATION FROM L1D PREFETCHER INSTRUCTION	ACCESS:     481219  HIT:     481004  MISS:        215  HIT %:    99.9553  MISS %:  0.0446782  MPKI: 0.0043
STLB LOAD TRANSLATION DATA	ACCESS:     473124  HIT:     471360  MISS:       1764  HIT %:    99.6272  MISS %:   0.372841  MPKI: 0.03528
STLB TRANSLATION FROM L1D PREFETCHER DATA	ACCESS:     253919  HIT:     253904  MISS:         15  HIT %:    99.9941  MISS %:  0.0059074  MPKI: 0.0003

STLB AVERAGE MISS LATENCY: 77.3401 cycles
STLB RQ	ACCESS:    1343811	FORWARD:          0	MERGED:     119847	TO_CACHE:    1223964

STLB Hit, L1D data hit: 0
STLB Hit, L2C data hit: 0
STLB Hit, LLC data hit: 0
STLB Hit, LLC data miss: 0
STLB STLB hints to L2: 0
L1D TOTAL     ACCESS:   13440152  HIT:   12324659  MISS:    1115493  HIT %:    91.7003  MISS %:    8.29971   MPKI: 22.3099
L1D LOAD DATA	ACCESS:    6868947  HIT:    6135583  MISS:     733364  HIT %:    89.3235  MISS %:    10.6765  MPKI: 14.6673
L1D RFO DATA	ACCESS:    6240068  HIT:    5953410  MISS:     286658  HIT %:    95.4062  MISS %:    4.59383  MPKI: 5.73316
L1D PREFETCH DATA	ACCESS:     331137  HIT:     235666  MISS:      95471  HIT %:    71.1687  MISS %:    28.8313  MPKI: 1.90942

L1D PREFETCH  REQUESTED:     747721  ISSUED:     747721  USEFUL:      36381  USELESS:      68821
L1D USEFUL LOAD PREFETCHES:      36381 PREFETCH ISSUED TO LOWER LEVEL:     105254  ACCURACY: 34.565
 TIMELY PREFETCHES:      36381 LATE PREFETCHES: 9753 DROPPED PREFETCHES: 2
L1D AVERAGE MISS LATENCY: 314873 cycles
L1D RQ	ACCESS:   10918588	FORWARD:          0	MERGED:    3849495	TO_CACHE:    6903967
L1D WQ	ACCESS:    6946951	FORWARD:     165397	MERGED:     173717	TO_CACHE:    6773234
L1D PQ	ACCESS:     373996	FORWARD:          0	MERGED:          0	TO_CACHE:     373725

L1D UNIQUE REGIONS ACCESSED: 0
L1D REGIONS CONFLICTS: 0
L1D Cross Page Prefetch Requests: 6171
L1D Same Page Prefetch Requests: 751491
L1D ROI Sum of L1D PQ occupancy: 4753575
L1D PREFETCHES PUSHED FROM L2C: 0
L1I TOTAL     ACCESS:    9806693  HIT:    7046935  MISS:    2759758  HIT %:    71.8584  MISS %:    28.1416   MPKI: 55.1952
L1I LOAD INSTRUCTION	ACCESS:    6755356  HIT:    4255466  MISS:    2499890  HIT %:     62.994  MISS %:     37.006  MPKI: 49.9978
L1I PREFETCH INSTRUCTION	ACCESS:    3051337  HIT:    2791469  MISS:     259868  HIT %:    91.4835  MISS %:    8.51653  MPKI: 5.19736

L1I PREFETCH  REQUESTED:    4596253  ISSUED:    4596253  USEFUL:    1025200  USELESS:       1909
L1I USEFUL LOAD PREFETCHES:    1025200 PREFETCH ISSUED TO LOWER LEVEL:    1027110  ACCURACY: 99.814
 TIMELY PREFETCHES:    1025200 LATE PREFETCHES: 767242 DROPPED PREFETCHES: 0
L1I AVERAGE MISS LATENCY: 9.89129e+06 cycles
L1I RQ	ACCESS:    9441648	FORWARD:          0	MERGED:    2528098	TO_CACHE:    6913550
L1I PQ	ACCESS:    4596253	FORWARD:          0	MERGED:     239247	TO_CACHE:    4357006

BTB TOTAL     ACCESS:    6789381  HIT:    6252234  MISS:     462580  MISS TARGET:      74567  HIT %:    92.0884  MISS %:    6.81329   MPKI: 9.2516
BTB BRANCH_DIRECT_JUMP	ACCESS:     549110  HIT:     510803  MISS:      32253  MISS TARGET:       6054	AVERAGE STALL: 30.8782
BTB BRANCH_INDIRECT	ACCESS:     183191  HIT:     168242  MISS:       2547  MISS TARGET:      12402	AVERAGE STALL: 75.684
BTB BRANCH_CONDITIONAL	ACCESS:    3830965  HIT:    3527857  MISS:     303034  MISS TARGET:         74	AVERAGE STALL: 33.7764
BTB BRANCH_DIRECT_CALL	ACCESS:     941875  HIT:     862671  MISS:      79204  MISS TARGET:          0	AVERAGE STALL: 37.2797
BTB BRANCH_INDIRECT_CALL	ACCESS:     171183  HIT:     140730  MISS:      12283  MISS TARGET:      18170	AVERAGE STALL: 111.295
BTB BRANCH_RETURN	ACCESS:    1113057  HIT:    1041931  MISS:      33259  MISS TARGET:      37867	AVERAGE STALL: 34.2819
BTB BRANCH_OTHER ACCESS:          0  HIT:          0  MISS:          0  MISS TARGET:          0	AVERAGE STALL: -nan
L2C TOTAL     ACCESS:    5394658  HIT:    4767860  MISS:     626798  HIT %:    88.3811  MISS %:    11.6189   MPKI: 12.536
L2C LOAD INSTRUCTION	ACCESS:    1732648  HIT:    1537365  MISS:     195283  HIT %:    88.7292  MISS %:    11.2708  MPKI: 3.90566
L2C PREFETCH INSTRUCTION	ACCESS:    1027110  HIT:     912987  MISS:     114123  HIT %:    88.8889  MISS %:    11.1111  MPKI: 2.28246
L2C LOAD TRANSLATION INSTRUCTION	ACCESS:         32  HIT:         10  MISS:         22  HIT %:      31.25  MISS %:      68.75  MPKI: 0.00044
L2C TRANSLATION FROM L1D PREFETCHER INSTRUCTION	ACCESS:        251  HIT:         50  MISS:        201  HIT %:    19.9203  MISS %:    80.0797  MPKI: 0.00402
L2C LOAD DATA	ACCESS:     723587  HIT:     633929  MISS:      89658  HIT %:    87.6092  MISS %:    12.3908  MPKI: 1.79316
L2C RFO DATA	ACCESS:     286592  HIT:     225493  MISS:      61099  HIT %:    78.6808  MISS %:    21.3192  MPKI: 1.22198
L2C PREFETCH DATA	ACCESS:    1102032  HIT:     955043  MISS:     146989  HIT %:     86.662  MISS %:     13.338  MPKI: 2.93978
L2C WRITEBACK DATA	ACCESS:     520544  HIT:     502496  MISS:      18048  HIT %:    96.5329  MISS %:    3.46714  MPKI: 0.36096
L2C LOAD TRANSLATION DATA	ACCESS:       1839  HIT:        471  MISS:       1368  HIT %:    25.6117  MISS %:    74.3883  MPKI: 0.02736
L2C TRANSLATION FROM L1D PREFETCHER DATA	ACCESS:         23  HIT:         16  MISS:          7  HIT %:    69.5652  MISS %:    30.4348  MPKI: 0.00014

L2C PREFETCH  REQUESTED:    1103321  ISSUED:    1103321  USEFUL:      37153  USELESS:     235702
L2C USEFUL LOAD PREFETCHES:      37153 PREFETCH ISSUED TO LOWER LEVEL:     271951  ACCURACY: 13.6617
 TIMELY PREFETCHES:      37153 LATE PREFETCHES: 10839 DROPPED PREFETCHES: 0
L2C AVERAGE MISS LATENCY: 36.8309 cycles
L2C RQ	ACCESS:    2745032	FORWARD:          0	MERGED:          0	TO_CACHE:    2744972
L2C WQ	ACCESS:     520544	FORWARD:         60	MERGED:          0	TO_CACHE:     520544
L2C PQ	ACCESS:    2235685	FORWARD:          0	MERGED:      62909	TO_CACHE:    2172776

L2C Dense regions hint from L2: 0
PSCL5 TOTAL     ACCESS:       4050  HIT:       2025  MISS:       2025  HIT %:         50  MISS %:         50   MPKI: 0.0405
PSCL5 LOAD TRANSLATION INSTRUCTION	ACCESS:       3566  HIT:       1783  MISS:       1783  HIT %:         50  MISS %:         50  MPKI: 0.03566
PSCL5 TRANSLATION FROM L1D PREFETCHER INSTRUCTION	ACCESS:        484  HIT:        242  MISS:        242  HIT %:         50  MISS %:         50  MPKI: 0.00484


PSCL4 TOTAL     ACCESS:       3971  HIT:       1982  MISS:       1989  HIT %:    49.9119  MISS %:    50.0881   MPKI: 0.03978
PSCL4 LOAD TRANSLATION INSTRUCTION	ACCESS:       1831  HIT:       1746  MISS:         85  HIT %:    95.3577  MISS %:    4.64227  MPKI: 0.0017
PSCL4 TRANSLATION FROM L1D PREFETCHER INSTRUCTION	ACCESS:        371  HIT:        236  MISS:        135  HIT %:    63.6119  MISS %:    36.3881  MPKI: 0.0027
PSCL4 LOAD TRANSLATION DATA	ACCESS:       1668  HIT:          0  MISS:       1668  HIT %:          0  MISS %:        100  MPKI: 0.03336
PSCL4 TRANSLATION FROM L1D PREFETCHER DATA	ACCESS:        101  HIT:          0  MISS:        101  HIT %:          0  MISS %:        100  MPKI: 0.00202


PSCL3 TOTAL     ACCESS:       3999  HIT:       1996  MISS:       2003  HIT %:    49.9125  MISS %:    50.0875   MPKI: 0.04006
PSCL3 LOAD TRANSLATION INSTRUCTION	ACCESS:       1845  HIT:       1760  MISS:         85  HIT %:     95.393  MISS %:    4.60705  MPKI: 0.0017
PSCL3 TRANSLATION FROM L1D PREFETCHER INSTRUCTION	ACCESS:        371  HIT:        236  MISS:        135  HIT %:    63.6119  MISS %:    36.3881  MPKI: 0.0027
PSCL3 LOAD TRANSLATION DATA	ACCESS:       1682  HIT:          0  MISS:       1682  HIT %:          0  MISS %:        100  MPKI: 0.03364
PSCL3 TRANSLATION FROM L1D PREFETCHER DATA	ACCESS:        101  HIT:          0  MISS:        101  HIT %:          0  MISS %:        100  MPKI: 0.00202


PSCL2 TOTAL     ACCESS:       3941  HIT:       1917  MISS:       2024  HIT %:    48.6425  MISS %:    51.3575   MPKI: 0.04048
PSCL2 LOAD TRANSLATION INSTRUCTION	ACCESS:       1754  HIT:       1703  MISS:         51  HIT %:    97.0924  MISS %:    2.90764  MPKI: 0.00102
PSCL2 TRANSLATION FROM L1D PREFETCHER INSTRUCTION	ACCESS:        404  HIT:        214  MISS:        190  HIT %:    52.9703  MISS %:    47.0297  MPKI: 0.0038
PSCL2 LOAD TRANSLATION DATA	ACCESS:       1759  HIT:          0  MISS:       1759  HIT %:          0  MISS %:        100  MPKI: 0.03518
PSCL2 TRANSLATION FROM L1D PREFETCHER DATA	ACCESS:         24  HIT:          0  MISS:         24  HIT %:          0  MISS %:        100  MPKI: 0.00048


LLC TOTAL     ACCESS:     696609  HIT:     666017  MISS:      30592  HIT %:    95.6084  MISS %:    4.39156   MPKI: 0.61184
LLC LOAD INSTRUCTION	ACCESS:     185030  HIT:     184495  MISS:        535  HIT %:    99.7109  MISS %:   0.289142  MPKI: 0.0107
LLC PREFETCH INSTRUCTION	ACCESS:     113211  HIT:     112864  MISS:        347  HIT %:    99.6935  MISS %:   0.306507  MPKI: 0.00694
LLC LOAD TRANSLATION INSTRUCTION	ACCESS:         22  HIT:         14  MISS:          8  HIT %:    63.6364  MISS %:    36.3636  MPKI: 0.00016
LLC TRANSLATION FROM L1D PREFETCHER INSTRUCTION	ACCESS:        201  HIT:        162  MISS:         39  HIT %:     80.597  MISS %:     19.403  MPKI: 0.00078
LLC LOAD DATA	ACCESS:      89086  HIT:      85529  MISS:       3557  HIT %:    96.0072  MISS %:    3.99277  MPKI: 0.07114
LLC RFO DATA	ACCESS:      61082  HIT:      45448  MISS:      15634  HIT %:    74.4049  MISS %:    25.5951  MPKI: 0.31268
LLC PREFETCH DATA	ACCESS:     158739  HIT:     148746  MISS:       9993  HIT %:    93.7048  MISS %:    6.29524  MPKI: 0.19986
LLC WRITEBACK DATA	ACCESS:      87863  HIT:      87469  MISS:        394  HIT %:    99.5516  MISS %:   0.448425  MPKI: 0.00788
LLC LOAD TRANSLATION DATA	ACCESS:       1368  HIT:       1283  MISS:         85  HIT %:    93.7865  MISS %:    6.21345  MPKI: 0.0017
LLC TRANSLATION FROM L1D PREFETCHER DATA	ACCESS:          7  HIT:          7  MISS:          0  HIT %:        100  MISS %:          0  MPKI: 0

LLC AVERAGE MISS LATENCY: 157.3 cycles
LLC RQ	ACCESS:     336799	FORWARD:          0	MERGED:          0	TO_CACHE:     336796
LLC WQ	ACCESS:      87863	FORWARD:          4	MERGED:          0	TO_CACHE:      87863
LLC PQ	ACCESS:     271951	FORWARD:          0	MERGED:          0	TO_CACHE:     271950

LLC Dense regions hint to LLC: 0

RAW hits: 1721086
Loads Generated: 12639674
Loads sent to L1D: 10918588
Stores Generated: 6946934
Stores sent to L1D: 6946951
Major fault: 0 Minor fault: 2558
Allocated PAGES: 2558

stream: 
stream:times selected: 1186935
stream:pref_filled: 122142
stream:pref_useful: 23457
stream:pref_late: 8831
stream:misses: 7918
stream:misses_by_poll: 0

CS: 
CS:times selected: 180043
CS:pref_filled: 57603
CS:pref_useful: 34554
CS:pref_late: 9879
CS:misses: 19294
CS:misses_by_poll: 0

CPLX: 
CPLX:times selected: 1005755
CPLX:pref_filled: 19484
CPLX:pref_useful: 3853
CPLX:pref_late: 4112
CPLX:misses: 95522
CPLX:misses_by_poll: 0

NL_L1: 
NL:times selected: 17064
NL:pref_filled: 642
NL:pref_useful: 224
NL:pref_late: 313
NL:misses: 1400
NL:misses_by_poll: 0

total selections: 2389797
total_filled: 95471
total_useful: 36381
total_late: 24515
total_polluted: 0
total_misses_after_warmup: 768385
conflicts: 5667497

test: 118663

DRAM Statistics
 CHANNEL 0
 RQ ROW_BUFFER_HIT:      11453  ROW_BUFFER_MISS:      18731
 DBUS_CONGESTED:          5
 WQ ROW_BUFFER_HIT:       1500  ROW_BUFFER_MISS:      12947  FULL:          0

 AVG_CONGESTED_CYCLE: 5

CPU 0 Branch Prediction Accuracy: 99.8233% MPKI: 0.32296 Average ROB Occupancy at Mispredict: 146.331
Branch types
NOT_BRANCH: 40858990 81.718%
BRANCH_DIRECT_JUMP: 549110 1.09822%
BRANCH_INDIRECT: 183191 0.366382%
BRANCH_CONDITIONAL: 6182150 12.3643%
BRANCH_DIRECT_CALL: 941875 1.88375%
BRANCH_INDIRECT_CALL: 171183 0.342366%
BRANCH_RETURN: 1113057 2.22611%
BRANCH_OTHER: 0 0%

DRAM PAGES: 1048576
Allocated PAGES: 2558
Average_ROB_Occupancy: 124.145
Average_Decode_Occupancy: 13.2994
Average_FTQ_Occupancy: 5.95795
Indirect max targets: 14 Average targets: 1.15282
Branch_type:  BRANCH_DIRECT_JUMP:  Count Percentage: 2.90184 6.19419 3.72231 8.5733 2.78802 6.28013 1.35295 68.1872 
Branch_type:  BRANCH_INDIRECT:  Count Percentage: 11.7352 3.41967 2.54357 0 1.3371 9.69826 19.238 52.0282 
Branch_type:  BRANCH_CONDITIONAL:  Count Percentage: 20.7872 3.22328 1.91341 8.20173 1.41671 5.12534 2.05179 57.2806 
Branch_type:  BRANCH_DIRECT_CALL:  Count Percentage: 0.259769 1.77396 1.44617 4.26488 2.80381 2.9856 0.890372 85.5754 
Branch_type:  BRANCH_INDIRECT_CALL:  Count Percentage: 9.56288 0.571053 2.99621 4.85468 0.000583601 2.62854 1.28538 78.1007 
Branch_type:  BRANCH_RETURN:  Count Percentage: 3.20296 1.29331 1.27291 8.70862 3.51201 6.86409 3.35307 71.793 
Branch_type:  BRANCH_DIRECT_JUMP:  Total Count: 31842 67969 40845 94075 30593 68912 14846 748220 
Branch_type:  BRANCH_INDIRECT:  Total Count: 42944 12514 9308 0 4893 35490 70400 190393 
Branch_type:  BRANCH_CONDITIONAL:  Total Count: 2569203 398383 236489 1013698 175099 633470 253593 7079634 
Branch_type:  BRANCH_DIRECT_CALL:  Total Count: 4900 33462 27279 80448 52888 56317 16795 1614201 
Branch_type:  BRANCH_INDIRECT_CALL:  Total Count: 32772 1957 10268 16637 2 9008 4405 267651 
Branch_type:  BRANCH_RETURN:  Total Count: 71419 28838 28383 194183 78310 153054 74766 1600827 
To Predecode: 22824760 Predecode_something: 34123656 Conditional: 14739136 Direct call: 8391897 Direct Branch: 3815375
Number of unique branch instructions: 10016
Upper 32 bits: 
aaaa
ffff
ffff0000
Unique upper 32 bits: 3
Unique upper 36 bits: 3
Unique upper 40 bits: 5
Unique upper 44 bits: 32
Unique upper 48 bits: 157
Offset_3 4100
Offset_4 264
Offset_5 463
Offset_6 506
Offset_7 585
Offset_8 517
Offset_9 484
Offset_10 389
Offset_11 303
Offset_12 280
Offset_13 205
Offset_14 227
Offset_15 183
Offset_16 225
Offset_17 152
Offset_18 118
Offset_19 242
Offset_20 139
Offset_21 261
Offset_22 391
Offset_23 243
Offset_24 341
Offset_25 88
Offset_47 84
decode_dispatch_called: 22041822 50.8226
Dispatch_width: 0 11733110 53.2311 27.0535
Dispatch_width: 1 609471 2.76507 1.40528
Dispatch_width: 2 862639 3.91365 1.98902
Dispatch_width: 3 547665 2.48466 1.26277
Dispatch_width: 4 1655556 7.51098 3.81728
Dispatch_width: 5 400550 1.81723 0.923563
Dispatch_width: 6 6232831 28.2773 14.3713
Empty_decode_cycles: 21328259 49.1774
ROB_full_cycles: 2063223 4.75725
Starvation_cycles_per_kilo_instr: 350.74
Starvation_cycles_per_kilo_instr_3: 330.179
Starvation_cycles_per_kilo_instr_0: 309.981
Branch_type_1  (3,1)  (4,10)  (5,39)  (6,70)  (7,114)  (8,133)  (9,128)  (10,99)  (11,67)  (12,43)  (13,8)  (14,2)  (15,3)  (16,4)  (18,1)  (19,4)  (20,2)  (21,1)  (22,3)  (23,2)  (24,10)  (25,12) 
Branch_type_2  (3,1)  (5,1)  (8,3)  (9,3)  (12,1)  (13,1)  (14,1)  (16,3)  (17,2)  (20,2)  (21,2)  (23,5)  (24,1)  (47,38) 
Branch_type_3  (3,4098)  (4,254)  (5,419)  (6,421)  (7,440)  (8,319)  (9,267)  (10,156)  (11,122)  (12,50)  (13,7) 
Branch_type_4  (6,3)  (7,8)  (8,25)  (9,54)  (10,63)  (11,58)  (12,101)  (13,86)  (14,100)  (15,85)  (16,101)  (17,69)  (18,53)  (19,116)  (20,72)  (21,141)  (22,208)  (23,137)  (24,192)  (25,72) 
Branch_type_5  (8,2)  (9,1)  (10,4)  (11,5)  (12,3)  (13,14)  (14,16)  (15,11)  (16,20)  (17,11)  (18,16)  (19,13)  (20,11)  (21,13)  (22,42)  (23,26)  (24,41) 
Branch_type_6  (5,4)  (6,12)  (7,23)  (8,35)  (9,31)  (10,67)  (11,51)  (12,82)  (13,89)  (14,108)  (15,84)  (16,97)  (17,70)  (18,48)  (19,109)  (20,52)  (21,104)  (22,138)  (23,73)  (24,97)  (25,4)  (47,46) 
Unique trigger count: 
UBTB set used: 958
CBTB set used: 512
RIB set used: 461
UBTB PER SET UNIQUE ADDR: 6 4 3 3 3 3 4 4 4 2 1 6 3 4 3 3 0 1 2 0 4 1 3 2 3 1 0 4 2 4 2 4 3 2 3 1 3 5 1 3 2 1 4 0 6 1 4 4 2 2 3 2 4 0 2 4 4 1 4 0 2 4 5 0 3 4 1 3 2 4 3 1 5 3 2 1 5 1 2 6 2 6 5 1 5 0 2 2 3 2 2 3 4 1 4 5 5 4 7 0 7 6 1 4 2 4 6 2 3 2 5 5 4 5 3 2 1 2 2 6 0 5 0 4 2 3 2 1 6 3 2 2 5 2 1 3 5 2 3 4 4 1 2 2 1 3 2 1 4 0 5 3 2 5 4 2 5 3 5 4 3 3 4 4 3 1 3 3 2 2 0 3 3 1 2 0 3 5 0 3 3 3 0 2 4 2 2 3 3 3 1 4 6 1 3 3 3 2 2 1 2 5 0 1 4 1 3 3 2 0 3 2 4 2 1 4 1 3 0 3 2 0 2 3 2 0 3 4 3 4 3 1 4 2 2 4 4 3 1 6 2 3 4 3 2 1 3 3 1 5 2 4 0 2 2 1 4 1 1 1 4 1 2 4 4 2 0 5 2 0 0 3 2 3 4 1 5 6 2 5 5 2 2 2 3 1 5 2 6 1 5 0 4 3 6 0 2 3 1 1 3 3 4 1 1 0 2 0 0 0 3 1 3 4 2 3 4 2 3 2 3 3 4 3 1 2 4 2 1 3 4 4 4 1 5 3 4 2 1 2 6 5 2 3 1 2 4 3 2 3 2 3 2 1 3 4 3 1 1 0 2 1 1 2 4 2 3 1 4 1 5 4 3 0 0 2 1 0 3 4 3 2 3 1 1 3 1 5 2 2 1 4 2 3 1 7 1 2 1 3 2 6 4 2 3 6 2 4 3 5 2 4 5 3 3 0 3 2 3 3 0 3 0 1 2 2 3 3 3 1 3 1 2 3 1 4 4 1 5 5 2 3 1 3 4 6 2 5 1 2 3 2 1 4 1 3 3 5 5 5 6 3 3 7 4 1 0 4 2 3 1 1 4 3 3 4 2 4 1 1 4 1 1 3 6 3 2 2 0 1 3 1 2 5 1 2 2 2 5 6 7 2 3 3 2 4 2 2 2 3 2 4 4 3 2 5 2 3 5 2 3 4 1 2 0 2 1 3 3 4 5 4 2 2 3 3 4 4 2 2 6 1 7 2 1 2 2 5 7 4 2 2 1 3 1 6 2 0 2 1 7 2 2 2 3 1 2 5 3 3 1 0 1 3 4 2 4 3 8 2 4 2 4 2 4 3 2 3 3 5 4 5 1 1 4 1 3 3 3 5 3 3 6 2 5 3 5 4 2 3 5 6 2 5 2 6 1 1 1 7 4 1 4 3 1 4 1 2 3 1 3 2 7 4 3 2 4 2 4 3 5 2 1 0 3 3 1 3 1 1 2 3 3 1 2 4 3 2 1 2 3 6 5 1 2 2 0 2 2 3 2 1 1 2 1 2 5 4 4 1 4 3 2 5 3 2 0 4 0 0 2 3 0 2 1 1 2 3 2 1 3 3 2 2 2 1 3 3 4 1 2 6 2 3 1 4 2 3 3 4 1 1 0 1 1 3 3 3 2 2 2 2 2 1 2 5 4 5 1 3 3 4 0 1 5 6 3 3 6 3 5 5 4 2 2 3 3 4 0 2 2 4 3 2 3 2 0 3 4 4 4 4 2 2 1 1 3 4 1 2 3 2 2 2 3 0 3 2 4 1 1 3 4 1 2 1 3 0 3 3 5 1 1 2 2 4 0 0 2 1 2 5 0 5 1 0 5 1 3 6 2 3 2 3 2 1 2 3 1 1 5 1 2 1 0 1 6 1 4 1 2 2 3 2 4 3 0 4 2 4 2 6 3 4 2 2 7 1 2 7 4 4 3 6 1 2 2 3 5 4 4 3 4 2 2 6 5 2 2 1 3 2 5 2 2 3 4 2 2 4 2 4 4 5 5 2 4 1 3 4 4 2 7 4 4 4 3 5 1 2 4 1 3 7 4 4 3 1 3 3 5 2 2 4 5 4 3 3 1 1 2 6 2 1 5 5 3 1 4 4 4 1 1 4 3 1 5 1 2 6 3 1 3 3 1 5 4 5 1 6 4 4 5 3 5 4 1 3 1 0 0 4 4 1 1 2 4 2 4 6 1 2 2 2 2 3 2 4 2 5 1 2 7 2 1 5 3 2 1 1 1 4 4 0 2 1 4 4 3 4 2 3 0 3 4 2 0 5 5 2 8 3 7 2 
CBTB PER SET UNIQUE ADDR: 9 15 10 11 11 9 12 4 14 6 13 9 6 6 11 8 8 11 7 10 12 6 6 9 11 14 12 8 9 10 9 6 16 8 9 11 9 7 11 8 6 13 8 7 7 17 8 12 10 15 6 13 11 4 14 10 8 12 12 7 8 13 14 5 10 12 13 8 11 10 12 11 7 11 10 10 11 14 10 11 7 11 7 9 10 14 10 15 9 10 13 7 12 15 11 10 11 12 13 12 5 15 10 14 9 12 12 13 11 14 7 10 10 13 11 13 12 11 15 10 10 9 7 11 8 12 8 7 11 11 12 19 9 10 7 12 10 7 12 11 10 9 11 6 8 12 6 14 13 7 13 19 3 9 8 4 10 5 8 7 7 6 12 11 5 5 7 8 11 6 10 8 16 4 5 11 5 5 3 12 8 8 5 9 7 9 9 11 6 7 5 11 11 7 4 7 12 14 13 8 10 12 9 7 7 7 8 3 7 11 11 6 6 13 9 10 14 3 5 2 14 10 12 10 6 9 10 7 9 13 9 9 13 11 8 12 11 13 4 7 11 9 9 5 9 8 11 5 13 5 6 6 11 9 7 6 12 11 10 15 5 14 10 8 9 14 6 6 11 8 6 9 10 11 10 10 11 8 11 4 13 9 13 10 9 7 12 3 9 14 11 10 12 7 11 9 8 12 7 9 7 8 9 15 11 17 9 9 8 10 13 10 8 10 15 8 10 9 7 9 9 8 11 20 8 6 13 10 10 8 12 10 8 10 11 9 10 7 9 13 9 11 6 10 7 11 12 6 12 7 6 10 4 12 9 7 10 11 10 8 13 8 6 6 7 14 10 7 7 10 7 10 10 10 10 12 10 13 12 5 11 9 13 13 9 8 3 12 10 16 11 10 10 13 10 11 9 11 8 8 14 7 11 12 5 5 7 5 15 9 10 13 14 10 11 13 10 9 11 8 9 11 13 20 8 14 7 6 13 12 9 12 6 9 10 7 6 11 17 11 14 8 12 5 13 14 7 14 6 10 15 12 11 12 8 8 11 12 7 18 9 10 8 12 9 15 9 6 8 11 9 8 14 9 9 13 6 13 12 7 7 11 12 15 10 9 11 15 8 15 8 14 3 17 5 15 15 5 7 12 6 15 14 8 10 6 10 9 10 14 13 10 
RIB PER SET UNIQUE ADDR: 2 5 4 1 2 3 3 2 1 2 2 4 2 3 0 1 4 2 0 2 2 1 5 4 1 3 2 2 1 0 2 0 1 3 3 4 2 5 0 2 1 3 2 1 2 4 2 3 3 1 0 2 2 3 0 1 3 3 3 2 1 1 2 1 3 6 3 0 3 2 2 3 0 2 4 0 1 3 2 3 0 1 4 4 3 1 0 4 4 2 0 1 2 2 2 4 3 3 0 0 2 2 1 4 0 1 5 2 3 4 2 1 1 4 2 2 0 5 2 7 2 1 3 4 1 2 1 2 1 4 2 4 4 3 0 2 1 2 5 4 2 2 3 5 2 3 4 3 4 1 3 2 2 2 2 1 4 1 0 2 3 1 1 2 3 0 1 1 4 2 1 1 3 1 0 3 0 2 2 2 3 0 3 2 6 1 3 4 2 1 1 2 3 1 2 3 3 0 4 2 3 2 3 3 1 5 2 4 1 5 2 2 0 3 4 0 5 0 4 2 2 3 2 1 2 4 2 3 1 1 2 3 1 4 0 3 2 2 1 5 2 0 3 1 5 3 5 0 3 2 3 0 4 2 1 4 4 2 1 1 2 0 2 2 3 2 0 4 4 3 1 2 0 1 4 3 0 2 2 1 2 2 2 1 3 0 2 5 2 2 2 5 1 1 2 5 1 3 3 1 3 3 3 4 3 3 2 3 3 3 3 5 1 1 0 3 2 3 1 3 3 4 5 5 1 3 3 4 1 1 5 3 4 5 6 3 1 0 2 2 1 1 7 2 5 5 6 2 0 5 3 3 3 1 5 1 6 2 5 2 0 3 4 1 4 6 1 0 4 3 2 4 3 3 4 3 1 3 0 1 2 1 3 2 0 5 1 0 3 2 2 4 1 4 1 2 4 7 2 3 3 1 1 2 3 3 4 1 3 1 2 1 3 1 1 3 5 1 0 1 1 4 4 3 2 5 0 2 3 1 2 2 2 2 3 2 3 3 2 3 1 4 4 3 5 2 3 1 1 5 3 1 2 3 2 4 1 1 2 4 3 1 2 2 3 3 2 5 1 0 3 0 2 1 2 2 1 9 6 4 3 1 0 5 2 1 3 0 1 3 2 3 0 6 1 1 2 2 3 1 2 2 3 4 2 1 1 3 1 3 2 2 
UBTB PER SET COUNT: 12 4 3 3 3 3 4 4 4 2 1 2465 3 4 3 3 0 1 2 0 4 1 3 2 3 1 0 4 2 4 2 4 3 2 3 1 3 342 1 3 2 1 4 0 2937 1 4 4 2 2 3 2 4 0 2 4 4 1 4 0 2 4 2205 0 3 4 1 3 2 4 3 1 488 3 2 1 6 1 2 997 2 34 1161 1 6 0 2 2 3 2 2 3 4 1 4 6 1243 4 2942 0 2940 34 1 4 2 4 2935 2 3 2 983 30 4 7 3 2 1 2 2 16 0 1471 0 4 2 3 2 1 2935 3 2 2 1959 2 1 3 1473 2 3 4 4 1 2 2 1 3 2 1 4 0 29 3 2 1668 4 2 1960 3 1470 4 3 3 4 4 3 1 3 3 2 2 0 3 3 1 2 0 3 15 0 3 3 3 0 2 4 2 2 3 3 3 1 4 2696 1 3 3 3 2 2 1 2 1471 0 1 4 1 3 3 2 0 3 2 4 2 1 4 1 3 0 3 2 0 2 3 2 0 3 4 3 4 3 1 4 2 2 4 4 3 1 2442 2 3 4 3 2 1 3 3 1 1471 2 4 0 2 2 1 4 1 1 1 4 1 2 4 4 2 0 1471 2 0 0 3 2 3 4 1 7 997 2 610 565 2 2 2 3 1 6 2 999 1 9 0 4 3 2939 0 2 3 1 1 3 3 4 1 1 0 2 0 0 0 3 1 3 4 2 3 4 2 3 2 3 3 4 3 1 2 4 2 1 3 4 4 4 1 19 3 4 2 1 2 1038 24 2 3 1 2 4 3 2 3 2 3 2 1 3 4 3 1 1 0 2 1 1 2 4 2 3 1 4 1 32 4 3 0 0 2 1 0 3 4 3 2 3 1 1 3 1 1462 2 2 1 4 2 3 1 4404 1 2 1 3 2 7823 4 2 3 5872 2 4 3 8 2 4 1371 3 3 0 3 2 3 3 0 3 0 1 2 2 3 3 3 1 3 1 2 3 1 4 4 1 1958 84 2 3 1 3 4 3945 2 995 1 2 3 2 1 4 1 3 3 1943 989 24 2199 3 3 3432 4 1 0 4 2 3 1 1 4 3 3 4 2 4 1 1 4 1 1 3 5381 3 2 2 0 1 3 1 2 43 1 2 2 2 8 18 2942 2 3 3 2 4 2 2 2 3 2 4 4 3 2 9 2 3 1471 2 3 4 1 2 0 2 1 3 3 4 995 4 2 2 3 3 4 4 2 2 2452 1 6372 2 1 2 2 6 2942 4 2 2 1 3 1 2937 2 0 2 1 1977 2 2 2 3 1 2 17 3 3 1 0 1 3 4 2 4 3 3429 2 4 2 4 2 4 3 2 3 3 1244 4 1243 1 1 4 1 3 3 3 757 3 3 2513 2 29 3 29 4 2 3 4894 2448 2 19 2 2819 1 1 1 3426 4 1 4 3 1 4 1 2 3 1 3 2 3428 4 3 2 4 2 4 3 2447 2 1 0 3 3 1 3 1 1 2 3 3 1 2 4 3 2 1 2 3 2935 2447 1 2 2 0 2 2 3 2 1 1 2 1 2 6 4 4 1 4 3 2 9 3 2 0 4 0 0 2 3 0 2 1 1 2 3 2 1 3 3 2 2 2 1 3 3 4 1 2 1961 2 3 1 4 2 3 3 4 1 1 0 1 1 3 3 3 2 2 2 2 2 1 2 7 4 1958 1 3 3 4 0 1 1959 3921 3 3 2936 3 996 982 4 2 2 3 3 4 0 2 2 4 3 2 3 2 0 3 4 4 4 4 2 2 1 1 3 4 1 2 3 2 2 2 3 0 3 2 4 1 1 3 4 1 2 1 3 0 3 3 2447 1 1 2 2 4 0 0 2 1 2 996 0 2445 1 0 1958 1 3 4214 2 3 2 3 2 1 2 3 1 1 2448 1 2 1 0 1 2937 1 4 1 2 2 3 2 4 3 0 4 2 4 2 2447 3 4 2 2 3437 1 2 5756 4 4 3 1962 1 2 2 3 6 4 4 3 4 2 2 1960 7 2 2 1 3 2 8 2 2 3 4 2 2 4 2 4 4 1471 1958 2 4 1 3 4 4 2 2403 4 4 4 3 19 1 2 4 1 3 7196 4 4 3 1 3 3 16 2 2 4 751 4 3 3 1 1 2 2208 2 1 23 1711 3 1 4 4 4 1 1 4 3 1 1222 1 2 3914 3 1 3 3 1 754 4 1495 1 2937 4 4 1960 3 3914 4 1 3 1 0 0 4 4 1 1 2 4 2 4 2938 1 2 2 2 2 3 2 4 2 1471 1 2 6851 2 1 336 3 2 1 1 1 4 4 0 2 1 4 4 3 4 2 3 0 3 4 2 0 6 1958 2 2890 3 2943 2 
CBTB PER SET COUNT: 14 1044 702 134 17 16 21 4 4452 6 7473 3921 8 8 134 31 1481 34 27 1497 2461 8 7 67 2462 6654 6569 21 108 14 484 7 9806 1475 2459 27 25 11 5388 18 10 1976 22 13 719 7006 19 1971 31 8324 10 7833 4908 4 2467 3448 14 14 2990 18 11 2470 59 5 84 3945 2459 8 2460 3432 52 35 30 1010 24 4900 8321 33 34 2464 4407 4411 11 25 3428 30 24 8347 18 1477 4527 7 19 740 32 56 29 1974 26 994 6 2237 1484 7354 12 2952 6254 1510 15 3944 16 4396 27 3948 36 38 26 2461 56 2251 2461 1729 11 483 15 1978 16 26 41 22 2957 10295 36 13 11 1981 13 26 2460 14 17 7828 21 7 4409 2342 9 5408 8452 5873 7848 14201 3 17 4896 4 1421 6 13 694 16 10 5511 6866 5 5 8 10 2950 10 8321 16 7613 4 10 2463 351 7 3 1254 23 23 6 12 4408 25 38 26 8 9 5 9315 8575 19 4 16 3092 7124 3185 22 1483 2275 1479 14 1826 12 16 3 14 8898 1967 12 12 2959 15 31 6866 3 5 2 1488 37 34 1650 8 1716 41 18 24 3690 33 15 4672 30 12 824 36 4415 4 21 25 14 33 6 1974 22 1990 5 789 6 8 8 1496 4908 13 8 1485 5404 19 2467 5 2462 1967 24 1491 1500 7 2454 1741 2944 8 16 20 40 2945 758 24 1922 2505 4 28 1962 94 2136 13 100 2970 3 6374 9305 1030 14 61 8 3682 1424 22 28 1959 23 10 12 13 5904 67 9806 26 28 1473 29 2475 28 2450 2454 6266 1491 2559 40 708 2476 5355 632 2967 6418 9 15 414 26 129 25 2943 1491 17 19 1977 20 3923 720 2469 3953 653 41 10 22 14 13 6384 6 1724 11 8 24 4 9792 19 14 2464 3056 2213 1495 791 18 7 7 751 3335 2944 22 15 764 1978 25 1006 158 1965 2457 1493 3195 4167 6 7347 24 4963 39 2456 12 3 55 16 4667 1493 16 8198 10275 3903 2465 4663 3446 10 15 3583 10 4416 2956 7 6 10 7 12038 21 2455 4649 48 4904 10279 2500 20 12 2226 36 13 4776 2494 11765 12 2953 46 19 5886 35 16 5404 11 121 33 9 10 33 3221 37 4423 14 3917 5 3453 1520 12 1505 10 29 3814 6378 1492 1488 10 27 3927 3940 1008 10290 2464 1967 24 1509 7835 1324 12 8 1602 2472 38 988 1036 16 1959 22 10 3287 5393 12 13 23 1521 11263 24 22 30 1983 14 7703 4391 4928 3 7333 5 2501 2957 5 12 2459 11 4507 2496 150 130 8 28 11 15 2471 2975 24 
RIB PER SET COUNT: 2 20 4 1 2 3 3 2 1 2 2 4 2 3 0 1 4 2 0 2 2 1 1960 4 1 3 2 2 1 0 2 0 1 3 3 4 2 2448 0 2 1 3 2 1 2 4 2 3 3 1 0 2 2 3 0 1 3 3 3 2 1 1 2 1 3 1973 3 0 3 2 2 3 0 2 4 0 1 3 2 3 0 1 4 4 3 1 0 4 4 2 0 1 2 2 2 4 3 3 0 0 2 2 1 4 0 1 2450 2 3 4 2 1 1 4 2 2 0 9 2 1980 2 1 3 4 1 2 1 2 1 4 2 4 4 3 0 2 1 2 19 4 2 2 3 13 2 3 4 3 4 1 3 2 2 2 2 1 4 1 0 2 3 1 1 2 3 0 1 1 4 2 1 1 3 1 0 3 0 2 2 2 3 0 3 2 1964 1 3 4 2 1 1 2 3 1 2 3 3 0 4 2 3 2 3 3 1 24 2 4 1 20 2 2 0 3 4 0 982 0 4 2 2 3 2 1 2 4 2 3 1 1 2 3 1 4 0 3 2 2 1 6 2 0 3 1 402 3 24 0 3 2 3 0 4 2 1 4 4 2 1 1 2 0 2 2 3 2 0 4 4 3 1 2 0 1 4 3 0 2 2 1 2 2 2 1 3 0 2 1470 2 2 2 1465 1 1 2 756 1 3 3 1 3 3 3 4 3 3 2 3 3 3 3 20 1 1 0 3 2 3 1 3 3 4 3916 1471 1 3 3 4 1 1 6 3 4 1470 6361 3 1 0 2 2 1 1 4153 2 1243 7 1482 2 0 19 3 3 3 1 6 1 3428 2 11 2 0 3 4 1 4 1270 1 0 4 3 2 4 3 3 4 3 1 3 0 1 2 1 3 2 0 17 1 0 3 2 2 4 1 4 1 2 4 3909 2 3 3 1 1 2 3 3 4 1 3 1 2 1 3 1 1 3 22 1 0 1 1 4 4 3 2 6360 0 2 3 1 2 2 2 2 3 2 3 3 2 3 1 4 4 3 983 2 3 1 1 14 3 1 2 3 2 4 1 1 2 4 3 1 2 2 3 3 2 1959 1 0 3 0 2 1 2 2 1 6503 2936 4 3 1 0 1948 2 1 3 0 1 3 2 3 0 18 1 1 2 2 3 1 2 2 3 4 2 1 1 3 1 3 2 2 
