
*** ChampSim Multicore Out-of-Order Simulator ***

Warmup Instructions: 50000000
Simulation Instructions: 50000000
Number of CPUs: 1
LLC sets: 2048
LLC ways: 16
Off-chip DRAM Size: 4096 MB Channels: 1 Width: 64-bit Data Rate: 6400 MT/s
CPU 0 runs ./micro_traces/srv274.trace.gz
.gz
ITLB has LRU replacement policy
DTLB has LRU replacement policy
STLB has LRU replacement policy
FDIP Prefetcher at L1I
L1I has LRU replacement policy
L1D has LRU replacement policy
Initialize SRRIP state for L2C
Initialize DRRIP state for LLC
Heartbeat CPU 0 instructions: 10000001 cycles: 2796969 heartbeat IPC: 3.5753 cumulative IPC: 3.5753 (Simulation time: 0 hr 2 min 25 sec) 
Heartbeat CPU 0 instructions: 20000000 cycles: 5592819 heartbeat IPC: 3.57673 cumulative IPC: 3.57601 (Simulation time: 0 hr 4 min 30 sec) 
Heartbeat CPU 0 instructions: 30000002 cycles: 8389874 heartbeat IPC: 3.57519 cumulative IPC: 3.57574 (Simulation time: 0 hr 6 min 29 sec) 
Heartbeat CPU 0 instructions: 40000002 cycles: 11186539 heartbeat IPC: 3.57569 cumulative IPC: 3.57573 (Simulation time: 0 hr 8 min 39 sec) 
Heartbeat CPU 0 instructions: 50000000 cycles: 13983581 heartbeat IPC: 3.5752 cumulative IPC: 3.57562 (Simulation time: 0 hr 10 min 33 sec) 

Warmup complete CPU 0 instructions: 50000004 cycles: 13983582 (Simulation time: 0 hr 10 min 33 sec) 

Cycle: 20000000 FTQ IN: 58324916 FTQ occupancy: 17.7371 DECODE IN: 58324916 DECODE occupancy: 47.7365 ROB IN: 58324904 ROB occupancy: 308.991 ROB OUT: 58324614
Heartbeat CPU 0 instructions: 60000003 cycles: 21234911 heartbeat IPC: 1.37906 cumulative IPC: 1.37906 (Simulation time: 0 hr 12 min 19 sec) 
Heartbeat CPU 0 instructions: 70000000 cycles: 28492433 heartbeat IPC: 1.37788 cumulative IPC: 1.37847 (Simulation time: 0 hr 13 min 56 sec) 
Cycle: 30000000 FTQ IN: 13761636 FTQ occupancy: 5.70961 DECODE IN: 13761636 DECODE occupancy: 19.3919 ROB IN: 13761648 ROB occupancy: 216.77 ROB OUT: 13761692
Heartbeat CPU 0 instructions: 80000000 cycles: 35756385 heartbeat IPC: 1.37666 cumulative IPC: 1.37787 (Simulation time: 0 hr 15 min 35 sec) 
Cycle: 40000000 FTQ IN: 13768130 FTQ occupancy: 5.76397 DECODE IN: 13768068 DECODE occupancy: 19.5227 ROB IN: 13768008 ROB occupancy: 216.634 ROB OUT: 13767902
Heartbeat CPU 0 instructions: 90000003 cycles: 43088803 heartbeat IPC: 1.36381 cumulative IPC: 1.37432 (Simulation time: 0 hr 17 min 17 sec) 
Cycle: 50000000 FTQ IN: 13706997 FTQ occupancy: 5.58486 DECODE IN: 13707059 DECODE occupancy: 19.1015 ROB IN: 13707097 ROB occupancy: 215.497 ROB OUT: 13707097
Heartbeat CPU 0 instructions: 100000003 cycles: 50318837 heartbeat IPC: 1.38312 cumulative IPC: 1.37607 (Simulation time: 0 hr 19 min 1 sec) 
Finished CPU 0 instructions: 50000003 cycles: 36335256 cumulative IPC: 1.37607 (Simulation time: 0 hr 19 min 1 sec) 

ChampSim completed all CPUs

Region of Interest Statistics

CPU 0 cumulative IPC: 1.37607 instructions: 50000003 cycles: 36335256
 Fetch stage stalled: 64.0357  Sim cycles: 36335256 fetch stall cycle: 23267549
 Empty decode stage: 48.5944  Sim cycles: 36335256 fetch stall cycle: 17656883
ITLB TOTAL     ACCESS:    5580708  HIT:    5085149  MISS:     495559  HIT %:    91.1201  MISS %:    8.87986   MPKI: 9.91118
ITLB LOAD TRANSLATION INSTRUCTION	ACCESS:    5464410  HIT:    4968851  MISS:     495559  HIT %:    90.9312  MISS %:    9.06885  MPKI: 9.91118
ITLB TRANSLATION FROM L1D PREFETCHER INSTRUCTION	ACCESS:     116298  HIT:     116298  MISS:          0  HIT %:        100  MISS %:          0  MPKI: 0

ITLB AVERAGE MISS LATENCY: 9.05591 cycles
ITLB RQ	ACCESS:    7430932	FORWARD:          0	MERGED:    1360864	TO_CACHE:    6070068

DTLB TOTAL     ACCESS:    9002826  HIT:    8530180  MISS:     472646  HIT %:      94.75  MISS %:    5.24997   MPKI: 9.45292
DTLB LOAD TRANSLATION DATA	ACCESS:    9002826  HIT:    8530180  MISS:     472646  HIT %:      94.75  MISS %:    5.24997  MPKI: 9.45292

DTLB AVERAGE MISS LATENCY: 9.34597 cycles
DTLB RQ	ACCESS:   13365305	FORWARD:          0	MERGED:    4326649	TO_CACHE:    9038656

STLB TOTAL     ACCESS:    1213811  HIT:    1211750  MISS:       2061  HIT %:    99.8302  MISS %:   0.169796   MPKI: 0.04122
STLB LOAD TRANSLATION INSTRUCTION	ACCESS:     495559  HIT:     495308  MISS:        251  HIT %:    99.9494  MISS %:  0.0506499  MPKI: 0.00502
STLB LOAD TRANSLATION DATA	ACCESS:     472536  HIT:     470742  MISS:       1794  HIT %:    99.6203  MISS %:   0.379654  MPKI: 0.03588
STLB TRANSLATION FROM L1D PREFETCHER DATA	ACCESS:     245716  HIT:     245700  MISS:         16  HIT %:    99.9935  MISS %: 0.00651158  MPKI: 0.00032

STLB AVERAGE MISS LATENCY: 79.4119 cycles
STLB RQ	ACCESS:    1333759	FORWARD:          0	MERGED:     119915	TO_CACHE:    1213844

STLB Hit, L1D data hit: 0
STLB Hit, L2C data hit: 0
STLB Hit, LLC data hit: 0
STLB Hit, LLC data miss: 0
STLB STLB hints to L2: 0
L1D TOTAL     ACCESS:   13119104  HIT:   11997982  MISS:    1121122  HIT %:    91.4543  MISS %:    8.54572   MPKI: 22.4224
L1D LOAD DATA	ACCESS:    6570996  HIT:    5829198  MISS:     741798  HIT %:     88.711  MISS %:     11.289  MPKI: 14.836
L1D RFO DATA	ACCESS:    6222882  HIT:    5937750  MISS:     285132  HIT %:     95.418  MISS %:    4.58199  MPKI: 5.70264
L1D PREFETCH DATA	ACCESS:     325226  HIT:     231034  MISS:      94192  HIT %:     71.038  MISS %:     28.962  MPKI: 1.88384

L1D PREFETCH  REQUESTED:     731422  ISSUED:     731422  USEFUL:      33557  USELESS:      68391
L1D USEFUL LOAD PREFETCHES:      33557 PREFETCH ISSUED TO LOWER LEVEL:     101989  ACCURACY: 32.9026
 TIMELY PREFETCHES:      33557 LATE PREFETCHES: 7761 DROPPED PREFETCHES: 0
L1D AVERAGE MISS LATENCY: 220515 cycles
L1D RQ	ACCESS:   10710472	FORWARD:          0	MERGED:    3940999	TO_CACHE:    6604049
L1D WQ	ACCESS:    6952233	FORWARD:     165738	MERGED:     190977	TO_CACHE:    6761256
L1D PQ	ACCESS:     365868	FORWARD:          0	MERGED:          0	TO_CACHE:     365554

L1D UNIQUE REGIONS ACCESSED: 0
L1D REGIONS CONFLICTS: 0
L1D Cross Page Prefetch Requests: 5211
L1D Same Page Prefetch Requests: 743609
L1D ROI Sum of L1D PQ occupancy: 4655709
L1D PREFETCHES PUSHED FROM L2C: 0
L1I TOTAL     ACCESS:    6867851  HIT:    4096391  MISS:    2771460  HIT %:    59.6459  MISS %:    40.3541   MPKI: 55.4292
L1I LOAD INSTRUCTION	ACCESS:    6357839  HIT:    3586379  MISS:    2771460  HIT %:    56.4088  MISS %:    43.5912  MPKI: 55.4292
L1I PREFETCH INSTRUCTION	ACCESS:     510012  HIT:     510012  MISS:          0  HIT %:        100  MISS %:          0  MPKI: 0

L1I PREFETCH  REQUESTED:    1119459  ISSUED:    1119459  USEFUL:          0  USELESS:          0
L1I USEFUL LOAD PREFETCHES:          0 PREFETCH ISSUED TO LOWER LEVEL:          0  ACCURACY: -nan
 TIMELY PREFETCHES:          0 LATE PREFETCHES: 0 DROPPED PREFETCHES: 0
L1I AVERAGE MISS LATENCY: 17.1567 cycles
L1I RQ	ACCESS:    9441763	FORWARD:          0	MERGED:    2814779	TO_CACHE:    6626984
L1I PQ	ACCESS:    1119459	FORWARD:          0	MERGED:     315511	TO_CACHE:     803948

L1BTB TOTAL     ACCESS:    5671094  HIT:    2033227  MISS:    3637867  HIT %:    35.8525  MISS %:    64.1475   MPKI: 72.7573
L1BTB BRANCH_DIRECT_JUMP	ACCESS:     548828  HIT:     144088  MISS:     404740	AVERAGE STALL: 24.8633
L1BTB BRANCH_INDIRECT	ACCESS:     182711  HIT:      65725  MISS:     116986	AVERAGE STALL: 89.9326
L1BTB BRANCH_CONDITIONAL	ACCESS:    2703612  HIT:    1407374  MISS:    1296238	AVERAGE STALL: 22.6295
L1BTB BRANCH_DIRECT_CALL	ACCESS:     946157  HIT:     105327  MISS:     840830	AVERAGE STALL: 25.784
L1BTB BRANCH_INDIRECT_CALL	ACCESS:     171812  HIT:      21108  MISS:     150704	AVERAGE STALL: 127.023
L1BTB BRANCH_RETURN	ACCESS:    1117974  HIT:     289605  MISS:     828369	AVERAGE STALL: 25.3613
L1BTB BRANCH_OTHER ACCESS:          0  HIT:          0  MISS:          0	AVERAGE STALL: -nan
L1BTB TOTAL ROB OCCUPANCY AT BTB MISS: 22.9806

L2BTB TOTAL     ACCESS:    3612538  HIT:    3178450  MISS:     434088  HIT %:    87.9838  MISS %:    12.0162   MPKI: 8.68176
L2BTB BRANCH_DIRECT_JUMP	ACCESS:     400625  HIT:     352104  MISS:      48521	AVERAGE STALL: 24.8633
L2BTB BRANCH_INDIRECT	ACCESS:     106670  HIT:     101446  MISS:       5224	AVERAGE STALL: 89.9326
L2BTB BRANCH_CONDITIONAL	ACCESS:    1296238  HIT:    1153239  MISS:     142999	AVERAGE STALL: 22.6295
L2BTB BRANCH_DIRECT_CALL	ACCESS:     840830  HIT:     725268  MISS:     115562	AVERAGE STALL: 25.784
L2BTB BRANCH_INDIRECT_CALL	ACCESS:     141222  HIT:     119903  MISS:      21319	AVERAGE STALL: 127.023
L2BTB BRANCH_RETURN	ACCESS:     826953  HIT:     726490  MISS:     100463	AVERAGE STALL: 25.3613
L2BTB BRANCH_OTHER ACCESS:          0  HIT:          0  MISS:          0	AVERAGE STALL: -nan
L2BTB TOTAL ROB OCCUPANCY AT BTB MISS: 192.588

L2C TOTAL     ACCESS:    4497827  HIT:    4051582  MISS:     446245  HIT %:    90.0787  MISS %:    9.92135   MPKI: 8.9249
L2C LOAD INSTRUCTION	ACCESS:    2771462  HIT:    2523214  MISS:     248248  HIT %:    91.0427  MISS %:    8.95729  MPKI: 4.96496
L2C LOAD TRANSLATION INSTRUCTION	ACCESS:        285  HIT:         84  MISS:        201  HIT %:    29.4737  MISS %:    70.5263  MPKI: 0.00402
L2C LOAD DATA	ACCESS:     734023  HIT:     662294  MISS:      71729  HIT %:     90.228  MISS %:    9.77204  MPKI: 1.43458
L2C RFO DATA	ACCESS:     285074  HIT:     240782  MISS:      44292  HIT %:     84.463  MISS %:     15.537  MPKI: 0.88584
L2C PREFETCH DATA	ACCESS:     181720  HIT:     113411  MISS:      68309  HIT %:    62.4098  MISS %:    37.5902  MPKI: 1.36618
L2C WRITEBACK DATA	ACCESS:     523364  HIT:     511316  MISS:      12048  HIT %:     97.698  MISS %:    2.30203  MPKI: 0.24096
L2C LOAD TRANSLATION DATA	ACCESS:       1868  HIT:        465  MISS:       1403  HIT %:    24.8929  MISS %:    75.1071  MPKI: 0.02806
L2C TRANSLATION FROM L1D PREFETCHER DATA	ACCESS:         31  HIT:         16  MISS:         15  HIT %:    51.6129  MISS %:    48.3871  MPKI: 0.0003

L2C PREFETCH  REQUESTED:      87199  ISSUED:      87199  USEFUL:       7265  USELESS:      61450
L2C USEFUL LOAD PREFETCHES:       7265 PREFETCH ISSUED TO LOWER LEVEL:      68646  ACCURACY: 10.5833
 TIMELY PREFETCHES:       7265 LATE PREFETCHES: 337 DROPPED PREFETCHES: 0
L2C AVERAGE MISS LATENCY: 39.5032 cycles
L2C RQ	ACCESS:    3792782	FORWARD:          0	MERGED:          0	TO_CACHE:    3792746
L2C WQ	ACCESS:     523364	FORWARD:         36	MERGED:          0	TO_CACHE:     523364
L2C PQ	ACCESS:     189188	FORWARD:          0	MERGED:       3495	TO_CACHE:     185693

L2C Dense regions hint from L2: 0
PSCL5 TOTAL     ACCESS:       4136  HIT:       2068  MISS:       2068  HIT %:         50  MISS %:         50   MPKI: 0.04136
PSCL5 LOAD TRANSLATION INSTRUCTION	ACCESS:       4074  HIT:       2037  MISS:       2037  HIT %:         50  MISS %:         50  MPKI: 0.04074
PSCL5 TRANSLATION FROM L1D PREFETCHER INSTRUCTION	ACCESS:         62  HIT:         31  MISS:         31  HIT %:         50  MISS %:         50  MPKI: 0.00062


PSCL4 TOTAL     ACCESS:       3943  HIT:       1966  MISS:       1977  HIT %:    49.8605  MISS %:    50.1395   MPKI: 0.03954
PSCL4 LOAD TRANSLATION INSTRUCTION	ACCESS:       3170  HIT:       1937  MISS:       1233  HIT %:    61.1041  MISS %:    38.8959  MPKI: 0.02466
PSCL4 TRANSLATION FROM L1D PREFETCHER INSTRUCTION	ACCESS:         48  HIT:         29  MISS:         19  HIT %:    60.4167  MISS %:    39.5833  MPKI: 0.00038
PSCL4 LOAD TRANSLATION DATA	ACCESS:        715  HIT:          0  MISS:        715  HIT %:          0  MISS %:        100  MPKI: 0.0143
PSCL4 TRANSLATION FROM L1D PREFETCHER DATA	ACCESS:         10  HIT:          0  MISS:         10  HIT %:          0  MISS %:        100  MPKI: 0.0002


PSCL3 TOTAL     ACCESS:       4035  HIT:       2012  MISS:       2023  HIT %:    49.8637  MISS %:    50.1363   MPKI: 0.04046
PSCL3 LOAD TRANSLATION INSTRUCTION	ACCESS:       3216  HIT:       1983  MISS:       1233  HIT %:    61.6604  MISS %:    38.3396  MPKI: 0.02466
PSCL3 TRANSLATION FROM L1D PREFETCHER INSTRUCTION	ACCESS:         48  HIT:         29  MISS:         19  HIT %:    60.4167  MISS %:    39.5833  MPKI: 0.00038
PSCL3 LOAD TRANSLATION DATA	ACCESS:        761  HIT:          0  MISS:        761  HIT %:          0  MISS %:        100  MPKI: 0.01522
PSCL3 TRANSLATION FROM L1D PREFETCHER DATA	ACCESS:         10  HIT:          0  MISS:         10  HIT %:          0  MISS %:        100  MPKI: 0.0002


PSCL2 TOTAL     ACCESS:       4039  HIT:       1971  MISS:       2068  HIT %:    48.7992  MISS %:    51.2008   MPKI: 0.04136
PSCL2 LOAD TRANSLATION INSTRUCTION	ACCESS:       2200  HIT:       1940  MISS:        260  HIT %:    88.1818  MISS %:    11.8182  MPKI: 0.0052
PSCL2 TRANSLATION FROM L1D PREFETCHER INSTRUCTION	ACCESS:         31  HIT:         31  MISS:          0  HIT %:        100  MISS %:          0  MPKI: 0
PSCL2 LOAD TRANSLATION DATA	ACCESS:       1777  HIT:          0  MISS:       1777  HIT %:          0  MISS %:        100  MPKI: 0.03554
PSCL2 TRANSLATION FROM L1D PREFETCHER DATA	ACCESS:         31  HIT:          0  MISS:         31  HIT %:          0  MISS %:        100  MPKI: 0.00062


LLC TOTAL     ACCESS:     498621  HIT:     469862  MISS:      28759  HIT %:    94.2323  MISS %:    5.76771   MPKI: 0.57518
LLC LOAD INSTRUCTION	ACCESS:     248247  HIT:     246996  MISS:       1251  HIT %:    99.4961  MISS %:   0.503934  MPKI: 0.02502
LLC LOAD TRANSLATION INSTRUCTION	ACCESS:        201  HIT:        165  MISS:         36  HIT %:    82.0896  MISS %:    17.9104  MPKI: 0.00072
LLC LOAD DATA	ACCESS:      71423  HIT:      67688  MISS:       3735  HIT %:    94.7706  MISS %:    5.22941  MPKI: 0.0747
LLC RFO DATA	ACCESS:      44255  HIT:      30749  MISS:      13506  HIT %:    69.4814  MISS %:    30.5186  MPKI: 0.27012
LLC PREFETCH DATA	ACCESS:      68646  HIT:      58867  MISS:       9779  HIT %:    85.7545  MISS %:    14.2455  MPKI: 0.19558
LLC WRITEBACK DATA	ACCESS:      64431  HIT:      64085  MISS:        346  HIT %:     99.463  MISS %:   0.537009  MPKI: 0.00692
LLC LOAD TRANSLATION DATA	ACCESS:       1403  HIT:       1297  MISS:        106  HIT %:    92.4448  MISS %:    7.55524  MPKI: 0.00212
LLC TRANSLATION FROM L1D PREFETCHER DATA	ACCESS:         15  HIT:         15  MISS:          0  HIT %:        100  MISS %:          0  MPKI: 0

LLC AVERAGE MISS LATENCY: 158.366 cycles
LLC RQ	ACCESS:     365551	FORWARD:          0	MERGED:          0	TO_CACHE:     365544
LLC WQ	ACCESS:      64431	FORWARD:          7	MERGED:          0	TO_CACHE:      64431
LLC PQ	ACCESS:      68646	FORWARD:          0	MERGED:          0	TO_CACHE:      68646

LLC Dense regions hint to LLC: 0

RAW hits: 1925160
Loads Generated: 12635631
Loads sent to L1D: 10710472
Stores Generated: 6952200
Stores sent to L1D: 6952233
Major fault: 0 Minor fault: 2578
Allocated PAGES: 2578

stream: 
stream:times selected: 1176859
stream:pref_filled: 121270
stream:pref_useful: 23959
stream:pref_late: 6840
stream:misses: 8181
stream:misses_by_poll: 0

CS: 
CS:times selected: 175494
CS:pref_filled: 59613
CS:pref_useful: 35761
CS:pref_late: 6712
CS:misses: 15719
CS:misses_by_poll: 5

CPLX: 
CPLX:times selected: 1000198
CPLX:pref_filled: 19732
CPLX:pref_useful: 4906
CPLX:pref_late: 3127
CPLX:misses: 94919
CPLX:misses_by_poll: 1

NL_L1: 
NL:times selected: 13798
NL:pref_filled: 458
NL:pref_useful: 157
NL:pref_late: 336
NL:misses: 1087
NL:misses_by_poll: 0

total selections: 2366349
total_filled: 94192
total_useful: 33557
total_late: 18491
total_polluted: 6
total_misses_after_warmup: 774852
conflicts: 5537478

test: 115601

DRAM Statistics
 CHANNEL 0
 RQ ROW_BUFFER_HIT:      10336  ROW_BUFFER_MISS:      18061
 DBUS_CONGESTED:         13
 WQ ROW_BUFFER_HIT:       1355  ROW_BUFFER_MISS:      12363  FULL:          0

 AVG_CONGESTED_CYCLE: 5

CPU 0 Branch Prediction Accuracy: 99.8094% MPKI: 0.34876 Average ROB Occupancy at Mispredict: 175.437
Branch types
NOT_BRANCH: 40849627 81.6992%
BRANCH_DIRECT_JUMP: 548828 1.09766%
BRANCH_INDIRECT: 182711 0.365422%
BRANCH_CONDITIONAL: 6182641 12.3653%
BRANCH_DIRECT_CALL: 946157 1.89231%
BRANCH_INDIRECT_CALL: 171812 0.343624%
BRANCH_RETURN: 1117974 2.23595%
BRANCH_OTHER: 0 0%

DRAM PAGES: 1048576
Allocated PAGES: 2578
Average_ROB_Occupancy: 217.687
Average_Decode_Occupancy: 19.2989
Average_FTQ_Occupancy: 5.65612
Indirect max targets: 14 Average targets: 1.17516
Branch_type:  BRANCH_DIRECT_JUMP:  Count Percentage: 3.61336 6.01026 4.17053 7.78644 8.05938 6.00497 2.46473 61.8903 
Branch_type:  BRANCH_INDIRECT:  Count Percentage: 11.7685 3.44172 2.49436 17.3859 11.0485 2.81143 0.93696 50.1127 
Branch_type:  BRANCH_CONDITIONAL:  Count Percentage: 20.8605 10.3502 1.99622 5.99532 3.18714 4.26678 0.736651 52.6072 
Branch_type:  BRANCH_DIRECT_CALL:  Count Percentage: 0.904742 1.28407 0.731791 3.50293 3.20986 2.61246 0.725285 87.0289 
Branch_type:  BRANCH_INDIRECT_CALL:  Count Percentage: 9.57556 0 3.00237 0.000873629 0.907119 1.71843 0.997394 83.7982 
Branch_type:  BRANCH_RETURN:  Count Percentage: 4.75733 7.45717 1.02289 5.82572 5.09197 4.16783 1.85056 69.8265 
Branch_type:  BRANCH_DIRECT_JUMP:  Total Count: 39637 65930 45749 85414 88408 65872 27037 678911 
Branch_type:  BRANCH_INDIRECT:  Total Count: 43019 12581 9118 63553 40387 10277 3425 183184 
Branch_type:  BRANCH_CONDITIONAL:  Total Count: 2578301 1279255 246727 741005 393921 527362 91048 6502098 
Branch_type:  BRANCH_DIRECT_CALL:  Total Count: 17106 24278 13836 66230 60689 49394 13713 1645459 
Branch_type:  BRANCH_INDIRECT_CALL:  Total Count: 32882 0 10310 3 3115 5901 3425 287759 
Branch_type:  BRANCH_RETURN:  Total Count: 106324 166664 22861 130202 113803 93149 41359 1560588 
Number of unique branch instructions: 10547
Upper 32 bits: 
aaaa
ffff
ffff0000
Unique upper 32 bits: 3
Unique upper 36 bits: 3
Unique upper 40 bits: 5
Unique upper 44 bits: 32
Unique upper 48 bits: 157
Offset_3 4367
Offset_4 251
Offset_5 472
Offset_6 531
Offset_7 621
Offset_8 567
Offset_9 501
Offset_10 409
Offset_11 335
Offset_12 303
Offset_13 238
Offset_14 240
Offset_15 194
Offset_16 223
Offset_17 165
Offset_18 144
Offset_19 251
Offset_20 139
Offset_21 235
Offset_22 406
Offset_23 241
Offset_24 346
Offset_25 117
Offset_47 94
decode_dispatch_called: 22936882 63.1257
Dispatch_width: 0 11437844 49.8666 31.4786
Dispatch_width: 1 899711 3.92255 2.47614
Dispatch_width: 2 1030726 4.49375 2.83671
Dispatch_width: 3 685674 2.98939 1.88708
Dispatch_width: 4 3952618 17.2326 10.8782
Dispatch_width: 5 410614 1.79019 1.13007
Dispatch_width: 6 4519695 19.7049 12.4389
Empty_decode_cycles: 13398374 36.8743
ROB_full_cycles: 6027069 16.5874
Starvation_cycles_per_kilo_instr: 257.885
Starvation_cycles_per_kilo_instr_3: 214.253
Starvation_cycles_per_kilo_instr_0: 188.091
Branch_type_1  (3,1)  (4,7)  (5,38)  (6,72)  (7,123)  (8,147)  (9,133)  (10,109)  (11,74)  (12,47)  (13,11)  (14,2)  (15,3)  (16,4)  (18,1)  (19,5)  (20,2)  (21,1)  (22,3)  (23,2)  (24,10)  (25,12) 
Branch_type_2  (3,1)  (4,1)  (5,1)  (8,4)  (9,4)  (10,1)  (12,1)  (13,1)  (14,1)  (16,3)  (17,2)  (20,2)  (21,2)  (23,5)  (24,1)  (47,43) 
Branch_type_3  (3,4365)  (4,243)  (5,429)  (6,443)  (7,470)  (8,354)  (9,274)  (10,164)  (11,127)  (12,54)  (13,10) 
Branch_type_4  (6,3)  (7,8)  (8,24)  (9,53)  (10,64)  (11,68)  (12,111)  (13,101)  (14,108)  (15,92)  (16,97)  (17,76)  (18,61)  (19,122)  (20,71)  (21,124)  (22,213)  (23,136)  (24,202)  (25,101) 
Branch_type_5  (8,3)  (9,1)  (10,4)  (11,5)  (12,3)  (13,14)  (14,16)  (15,11)  (16,22)  (17,11)  (18,23)  (19,14)  (20,11)  (21,13)  (22,43)  (23,26)  (24,37) 
Branch_type_6  (5,4)  (6,13)  (7,20)  (8,35)  (9,36)  (10,67)  (11,61)  (12,87)  (13,101)  (14,113)  (15,88)  (16,97)  (17,76)  (18,59)  (19,110)  (20,53)  (21,95)  (22,147)  (23,72)  (24,96)  (25,4)  (47,51) 
aaaaab1fc620: 2ac9e77e 2aca717c 2aca8eff 2acaf6bc 2acaf9aa 2acaf9f1 2acb1abc 2acb1b7f 2acd4e22 2acdb712 2acf5f9e 2ad0ef44 2ad3f15c 2ad414e6 2ad60e42 2ad8609c 2ad99830 2ada35cc 2ada4676 2ada6612 2adf183e 2adf30e5 2adf5602 2adf785c 2ae11572 2aeb2dcf 2aee101b 2aee1ae1 2aee9456 2b156a8c 2b156b61 2b156bea 2b167f35 2b177656 2b17feec 2b1a3e5a 
aaaaab1fc640: 2ac9ec07 2aca656e 2aca801d 2acaea11 2acaee73 2acb13ee 2acb1470 2acd462b 2ad0ef5d 2ad3f3fe 2ad86e9b 2ada1641 2ada4115 2ada6638 2adf30d4 2ae12e57 2aee1033 2b1693ab 2b16948c 2b169491 2b17d915 2b17fa85 2b17fccd 
aaaaab1fc740: 2aca1fb0 2aca45b3 2aca5aa1 2aca5c69 2aca66f9 2aca9426 2acaeecb 2acf3d2d 2acf3d64 2acf6089 2ad017ea 2ad5e7ef 2ad61064 2ad87373 2ad9bf84 2ad9c093 2ae9b606 2aea9ffa 2aee99f5 2aee9a2c 2aeece4b 
aaaaab1fcb00: 2acf2d72 2acf3734 2acf604c 2acfa5b7 2ad397b5 2ad3b800 2ae8af7d 2ae8aff0 2ae9aaba 2aea9fc6 2aeaa358 2aee910b 2aee91cf 2aee928e 2aee92e4 2aee99de 2af6fe87 2af70dfe 2b16850c 2b16c4a2 2b1765f4 2b178094 2b17d925 2b17db06 2b17ec8f 
aaaaab1fcb10: 2acf2d95 2acf3758 2acf6052 2acfa5f4 2ad397c3 2ad3b81c 2ae8af88 2ae8affe 2ae9aacf 2aeaa017 2aeaa36d 2aee9114 2aee91d8 2aee934d 2aee9353 2aee9a14 2af6fe8c 2af70e22 2b168526 2b16c542 2b176609 2b1780a3 2b17d95d 2b17db44 2b17ecac 
aaaaac68f310: 2ac9ec8c 2ac9fb44 2ac9fbd2 2aca59ab 2acac04c 2acaf6e0 2acaf6ec 2acaf6f9 2acaf700 2acaf708 2acf2d90 2ad3cfbd 2ad3cfc4 2ad3d000 2ad3f35f 2ad4955d 2ad49571 2ad4f3f2 2ad4f400 2ad5f240 2ad5f37c 2ad5f86a 2ad5f86f 2ad5f880 2ad5fc0d 2ad5fc14 2ad5fc21 2ad5fe1b 2ad873bb 2ad873e3 2ad8a6b2 2ad9086e 2ad93096 2ad9bbb2 2ada152c 2ada1554 2ada3332 2ada5522 2adf3130 2adf313c 2adf3a3f 2adf3bd9 2adf5788 2adf7a8d 2ae07f6b 2ae0857a 2ae0857e 2ae08630 2ae08634 2ae08637 2ae08642 2ae0866f 2ae086e4 2ae086ec 2ae08717 2ae0871b 2aee0170 2aee1d38 2aee75f4 2aee7662 2aee85ca 2aee85e4 2aee8eef 2aee9a0a 2af70b84 2af74e8f 2b17d843 
aaaaac690ef0: 2aca598b 2acb111b 2acb175f 2acb1772 2acbfaf4 2acbfb00 2acf374f 2acf6d43 2acfa5c8 2ad3baf1 2ad3d4ac 2ad3d4b8 2ad3f1cf 2ad486b2 2ad5a59b 2ad5fc64 2ad5fcf9 2ad6121c 2ad906e9 2ad907bf 2ad9bada 2ada16ce 2ada1ad5 2ada43df 2ada64c0 2ada72ee 2adeb71a 2adf3bcb 2adf7a38 2adf7c6a 2adf8872 2adf8880 2adf9959 2adf9abe 2ae07f78 2ae08503 2ae08754 2ae12e80 2aea3bea 2aecb509 2aee00b0 2aee2bdd 2aee5467 2aee5601 2aee8f20 2af703fd 2af7048b 2af74e74 2dfba627 
Unique trigger count: 
1 10051
2 537
3 86
4 30
5 16
6 9
7 8
8 2
9 2
10 2
11 1
12 1
13 2
14 2
16 2
19 1
21 1
23 1
25 2
36 1
49 1
67 1
BTB PER SET UNIQUE ADDR: 3 4 3 3 1 1 3 2 4 0 2 0 5 3 1 3 3 2 3 5 3 4 2 3 4 5 1 4 3 2 6 6 4 3 5 2 1 6 5 2 4 4 4 6 6 4 4 4 6 3 3 2 3 1 0 3 4 3 3 3 1 4 2 3 1 4 5 4 3 5 5 1 1 4 2 3 3 6 1 4 2 2 1 4 3 3 2 5 3 3 6 5 3 5 2 0 3 4 2 3 4 4 3 3 3 2 1 2 3 2 2 2 3 6 2 6 2 4 4 1 5 4 2 0 1 2 2 2 7 4 6 2 4 2 6 4 2 2 3 3 5 4 4 2 3 5 3 5 5 5 3 9 3 5 4 1 4 4 3 3 5 6 5 4 6 5 2 2 9 3 3 3 5 3 1 2 4 4 6 1 3 4 7 4 7 6 4 1 2 3 5 3 3 4 4 4 3 3 3 5 3 2 4 2 3 3 2 5 3 1 2 4 5 4 4 2 3 5 4 0 1 3 2 4 3 2 4 3 0 4 8 4 3 4 4 4 5 2 2 3 1 0 6 4 11 8 1 3 4 4 2 2 1 4 2 7 3 5 4 3 4 4 4 2 3 7 3 2 4 2 3 2 2 3 4 2 1 1 3 3 4 3 6 2 5 5 3 3 1 1 0 3 1 5 2 1 5 3 2 2 3 3 2 2 3 2 4 2 8 5 4 1 3 2 5 2 6 6 2 4 4 6 3 4 2 3 2 7 1 2 5 0 2 5 5 1 3 3 6 0 3 0 1 5 5 3 1 3 4 5 4 7 6 3 5 3 2 0 5 1 2 5 2 4 7 5 1 1 2 1 3 2 2 4 4 4 3 4 3 4 5 3 1 5 3 2 5 2 6 1 5 4 4 2 3 1 5 0 1 3 4 2 5 2 2 4 4 3 1 1 1 3 6 4 2 3 6 3 1 3 1 1 4 4 4 6 2 0 2 5 2 2 9 3 5 5 3 3 4 0 3 4 5 4 5 6 2 4 3 2 4 3 1 3 5 1 1 4 7 3 3 3 4 6 1 3 5 2 3 3 0 4 5 2 2 1 4 5 2 1 2 1 2 2 0 4 3 0 6 1 5 2 3 4 0 6 3 3 3 1 5 1 1 1 1 2 2 2 2 3 3 2 5 8 2 1 2 5 4 6 4 5 4 3 6 6 1 7 6 4 5 3 4 6 3 4 2 1 4 1 2 5 6 3 6 2 8 3 7 9 4 6 3 6 1 3 3 1 4 4 8 3 5 3 2 1 4 3 3 7 3 2 3 7 2 2 3 4 1 5 5 2 2 0 1 0 0 9 5 3 6 8 2 2 3 3 6 2 4 2 6 2 6 7 2 4 3 4 3 2 5 3 3 2 2 3 2 0 3 1 4 3 8 2 2 4 3 5 2 3 5 4 3 3 5 5 3 5 3 3 8 1 4 4 1 0 4 4 3 4 3 2 5 2 3 0 5 3 2 3 6 2 5 4 6 3 5 3 2 3 5 5 4 3 5 6 3 3 3 3 3 2 5 2 5 3 5 3 4 3 1 5 2 3 3 3 6 4 5 5 0 6 0 3 3 3 3 1 3 1 3 3 3 1 2 1 8 2 0 3 2 0 1 1 1 3 1 4 2 4 6 4 2 1 3 4 8 3 2 2 2 3 2 4 2 2 4 2 3 2 0 2 1 4 2 2 3 6 4 1 3 3 1 5 4 4 8 2 2 2 3 3 0 3 3 3 5 2 1 3 4 4 0 3 8 6 3 4 0 3 2 4 2 1 4 6 7 2 2 2 5 3 4 3 4 3 3 5 2 3 1 3 4 0 5 3 1 2 0 4 5 2 4 2 2 2 3 2 4 4 3 1 3 2 5 2 2 2 5 3 2 2 3 4 2 4 7 5 5 2 6 3 5 4 5 4 3 2 4 4 2 6 2 1 8 3 3 4 5 3 1 3 3 6 4 0 2 3 5 4 3 6 4 5 6 3 2 3 3 4 5 2 3 4 2 1 6 4 2 1 5 2 1 4 5 5 4 5 3 5 5 4 1 3 1 5 0 2 6 2 6 5 5 3 4 1 3 2 5 8 5 4 9 7 6 4 6 4 2 6 4 2 1 4 4 6 5 5 4 4 6 1 5 4 2 4 6 6 4 2 3 2 4 5 2 6 9 5 6 3 3 3 0 5 6 1 7 5 1 3 7 5 3 4 2 1 2 4 4 2 5 4 2 7 4 5 4 5 3 5 3 3 4 2 2 5 4 3 3 3 5 3 4 3 6 2 5 3 2 5 5 2 10 5 3 3 3 2 2 3 4 7 6 2 3 2 3 2 3 1 3 2 4 4 2 4 5 5 4 6 0 3 3 4 4 4 2 1 2 2 3 1 0 1 4 1 2 3 3 4 1 8 5 3 2 1 10 1 2 4 1 2 6 5 3 7 2 5 4 5 3 5 3 2 1 1 5 1 4 4 3 8 4 1 6 4 6 2 3 4 5 3 5 7 4 4 6 1 4 5 7 4 3 2 4 3 6 6 3 6 6 6 4 3 4 5 1 2 3 5 1 3 2 1 3 5 2 3 5 2 2 5 4 2 5 1 7 3 3 2 3 1 3 5 3 4 3 4 2 6 2 3 7 3 4 5 3 5 2 8 3 5 3 8 6 2 6 1 5 2 1 2 4 4 3 1 3 4 3 1 2 3 4 4 3 2 3 4 2 5 2 5 4 5 0 5 3 3 2 6 7 1 8 0 1 4 4 2 5 1 3 3 4 1 1 2 4 5 3 4 1 4 3 6 5 1 4 3 3 6 9 4 3 7 5 5 1 1 3 5 6 3 2 2 3 3 4 4 5 3 1 4 2 3 6 8 5 3 3 6 1 2 6 3 4 1 3 2 6 8 2 3 3 3 4 5 2 5 6 6 5 2 1 5 4 2 4 3 4 4 3 4 7 3 5 4 3 5 5 2 1 7 4 4 3 3 3 2 3 3 2 2 5 4 2 3 5 2 1 3 3 7 4 2 3 4 2 4 3 3 4 3 2 1 4 2 4 2 5 3 4 4 2 1 2 6 1 4 2 4 2 4 6 1 1 5 4 3 3 3 5 2 3 4 5 5 4 4 4 3 3 3 2 3 5 2 4 1 4 0 8 3 3 6 4 4 5 7 3 2 3 3 2 3 4 1 4 2 4 2 0 5 1 5 3 3 3 4 3 2 5 3 4 2 4 1 6 3 0 3 3 1 1 4 1 5 3 3 6 3 2 2 2 3 2 2 7 2 3 5 3 3 3 3 2 2 5 0 2 3 4 3 2 1 2 0 3 0 4 2 4 3 2 3 2 1 2 5 4 2 6 1 3 3 2 2 5 5 2 2 6 0 1 2 3 1 1 2 3 3 5 3 1 1 7 2 1 4 1 6 1 4 2 3 6 2 3 2 1 3 3 1 2 3 4 2 3 3 1 3 0 5 2 3 3 0 4 3 5 3 5 3 3 4 1 3 2 2 2 2 5 0 2 3 3 3 4 1 3 3 2 9 7 2 3 2 4 1 1 3 6 2 3 0 3 2 4 2 3 5 6 5 8 0 4 1 8 4 4 5 3 8 2 4 8 3 0 6 4 3 3 5 3 3 2 1 2 5 2 2 3 3 2 3 6 3 5 4 6 1 1 5 5 3 3 5 5 3 6 2 5 5 2 6 4 3 3 1 3 6 5 3 2 3 3 3 4 4 2 2 3 2 3 1 3 7 0 2 2 3 3 3 5 3 4 2 5 1 2 2 5 2 4 5 6 1 1 7 2 4 2 3 4 7 2 3 2 4 6 2 5 3 5 3 5 9 4 4 3 5 1 5 3 3 2 3 0 2 2 4 4 3 2 4 3 5 4 2 4 9 0 3 2 4 4 4 3 4 3 6 3 4 1 5 3 3 4 3 3 0 2 5 0 7 2 6 6 1 4 3 2 0 4 2 3 5 3 6 2 3 2 2 3 5 6 1 3 3 0 3 2 4 5 3 2 3 5 2 3 2 6 4 4 1 5 3 0 2 4 1 1 8 2 0 4 2 4 3 2 3 6 3 3 6 1 5 4 6 2 6 5 3 3 2 7 1 4 1 3 3 4 4 3 4 2 1 2 5 0 3 0 3 4 6 2 2 5 2 3 3 3 1 2 2 4 2 4 2 5 3 2 3 1 2 3 3 3 2 3 3 2 1 1 2 2 5 1 5 1 6 4 3 3 2 5 1 2 3 4 4 3 4 5 6 3 3 3 3 3 2 0 3 2 0 0 1 2 2 4 2 5 2 2 3 4 1 1 3 3 2 2 7 3 2 7 6 4 2 3 2 3 5 3 3 5 3 4 1 2 4 5 4 2 4 3 2 4 3 5 7 3 3 0 4 1 0 2 3 0 4 4 6 1 3 4 7 5 0 2 2 4 2 5 2 3 2 8 3 2 2 3 7 2 7 3 4 7 0 1 3 1 4 4 2 0 2 3 4 6 4 1 0 3 4 6 1 1 1 3 6 2 1 5 5 3 3 5 4 1 6 2 6 2 1 2 2 2 2 6 1 3 3 3 3 4 1 5 3 5 3 4 2 1 3 6 4 4 0 
BTB PER SET COUNT: 3 4 3 3 1 2 4 2 4 0 2 0 2402 3 1 4 3 3 3 1478 3 6 3 3 4 16 1 6 1475 2 2882 28 4 3 10 2 2946 775 772 3 5 4 8 2181 5488 4 4 4 1551 4 3 2 3 1 0 3 5 3 3 3 1 4 2 4 1 378 431 5 3 1043 771 1 1 4 2 3 483 787 1 4 3 2 3 4 3 3 2 12 3 3 2481 516 3 4005 3 0 3 6 2 3 4 4 5 3 4 2 1 2 3 2 2 2 3 1955 2 1893 2 4 4 1 7 4 2 0 1 2 2 2 3235 5 1924 2 4 3 969 4 2 2 3 3 1687 7 4 2 4 11 5 4485 8 6 3 6845 3 2404 14 1 4 4 3 4 7 1032 6 4 13 1993 2 2 8392 3 3 3 9 3 1 5 4 4 1009 1 3 4 6854 4 10 12 5 1 2 4 45 3 3 4 4 13 3 3 4 6 3 4 4 2 5 3 2 1479 3 1 5 7 15 4 4 2 4 761 4 0 1 3 2 4 3 2 9 35 0 4 5834 4 3 5 4 4 7 2 2 3 2 0 2404 4 9351 2147 1 3 4 4 2 2 1 4 2 2368 4 6 5 4 7 4 4 2 1477 1542 3 2 4 2 3 2 3 3 4 2 1 1 3 3 7 3 1924 2 774 2403 3 3 1 1 0 3 1 17 5 1 11 3 3 2 3 3 2 2 4 2 4 2 1928 1030 5 1 3 2 1026 6 2404 1301 2 5 4 2210 3 4 2 3 2 687 1 2 966 0 2 16 1539 1 963 3 26 0 3 0 1 968 966 3 1 3 5 10 4 129 9 4 54 5 2 0 6 1 3 8 2 5 2810 1877 1 2 3 2 3 2 2 4 4 4 4 4 3 4 24 3 1 2129 6 2 12 2 9 1 22 4 4 2 3 1 3270 0 1 3 4 2 6 2 2 4 1476 3 1 993 1 3 14 5 994 3 144 3 1 89 1 1 4 6 4 8 5 0 2 7 133 2 2672 3 1011 2400 3 3 5 0 4 4 1282 4 8 1047 2 4 3 2 4 3 1 4 1924 2 1 4 1463 3 3 3 4 1934 1 4 7 2 3 3 0 5 37 481 2 1 5 1026 3 1 2 1 2 481 0 4 3 0 23 1 6 2 4 4 0 27 3 3 3 1 1923 16 1 1 1 2 2 2 2 3 3 2 6 36 5 1 2 2404 5 498 5 1479 4 3 23 1445 1 1926 4975 4 7 3 4 20 3 484 2 1 6 1 2 1443 214 7 19 2 83 3 983 9281 4 1459 5 2882 1 3 7 1 4 4 6888 3 1924 4 2 1 4 3 3 2918 3 3 3 5455 2 2 3 4 1 23 9 42 2 0 1 0 0 3848 7 3 1925 2887 3 2 995 4 9 2 4 2 8 2 10 1542 2 4 3 4 6 2 2402 3 3 2 2 3 1026 0 3 1 5 484 3366 2 2 4 3 18 2 3 1924 1476 3 5 964 6 3 8 3 3 2891 1 4 4 1 0 6 4 3 6 5 2 14 2 3 0 9 3 2 4 7797 4 25 5 1924 7 2968 963 3 3 776 8 6 4 1443 2952 3 4 7 3 4 5 7 962 1443 3 25 1475 4 3 1 970 2 3 3 3 1931 5 21 36 0 2407 0 3 4 964 3 1 3 2 3 4 5 1 962 1 2455 2 0 4 2 0 1 1 1 5 1 4 2 4 1447 4 994 1 5 5 13 3 2 2 2 3 2 4 2 2 484 2 3 962 0 2 1 5 2 2 3 2884 4 2 3 3 1 17 4 4 5937 2 2 2 3 3 0 123 3 4 3014 4 1 3 4 5 0 4 3005 4972 3 4 0 3 3 59 7 1 5 1449 1944 2 2 2 11 3 5 5 1925 4 5 19 2 5 1 4 4 0 7 4 3 2 0 4 6 2 4 2 2 2 3 2 4 91 3 1 3 2 1927 2 2 3 1444 3 2 2 4 1478 2 6 1946 9 7 2 2404 3 1923 4 9 4 3 3 6 4 2 4894 2 1 6479 995 3 4 1443 5 1 3 3 2574 4 0 3 4 24 4 3 4970 4 7 92 3 2 4 3 4 9 2 3 4 2 2 691 4 2 1 1622 2 1 48 10 2555 4 1026 4 8 47 4 1 3 1 1444 0 2 968 2 53 8 1444 3 8 1 3 2 1923 105 9 485 5406 3966 1446 4 2037 5 3 26 4 2 1 996 6 2387 28 1443 4 4 806 1 357 4 2 4 1386 1926 4 3 3 482 4 4965 3 20 1064 8 1928 3 3 3 0 381 26 1 7399 19 1 3 1931 19 483 5 2 4 2 6 4 2 1643 5 2 3364 4 7 4 1920 3 24 4 4 4 3 2 23 5 3 3 5 1936 4 2469 376 1733 3 26 5 2 7 1622 5 5158 23 3 3 4 2 2 3 4 2887 1928 3 3 2 3 2 3 4 3 2 4 4 2 4 7 1923 4 1454 0 3 3 4 1476 380 2 2 2 5 3 1 0 1 7 1 3 3 4 7 1 3843 1442 4 2 2 11309 1 2 4 1 2 1926 126 4 5447 2 24 4 2404 3 28 3 2 1 1 27 1 7 4 3 1939 4 1 2006 4 2407 2 484 4 14 3 2403 1788 4 4 2405 1 5 7 4925 5 4 2 5 3 1446 1914 3 2404 1446 2297 4 3 4 7 1 3 3 1924 1 3 2 1 3 10 2 5 496 2 3 28 4 2 12 1 5775 4 3 2 3 1 3 27 4 4 3 4 2 26 2 3 1658 3 5 10 3 1924 2 5855 3 1443 3 2519 7397 2 5445 1 19 2 1 2 484 5 3 1 4 156 4 1 2 483 4 4 3 2 3 4 2 1444 2 11 4 17 0 1923 3 3 2 46 7410 1 67 0 1 5 5 2 24 1 3 963 5 1 1 2 4 19 3 5 1 4 4 7365 20 1 4 3 3 2954 10282 2003 5 7399 24 1923 1 1 3 1924 2403 3 2 2 3 4 4 4 15 3 1 4 2 3 3475 7963 4004 4 3 325 1 2 28 3 4 1 3 2 2882 6640 994 4 4 3 4 8 2 1923 1929 2402 8 2 1 24 4 2 7 3 4 4 3 4 1938 4 1922 4 484 1923 2401 9 1 2981 4 4 3 3 3 3 3 3 2 2 16 4 2 3 1021 2 1 3 3 2884 8 2 3 4 2 4 3 3 6 3 3 1 4 2 4 3 9 3 6 4 2 1 2 1037 1 4 2 4 3 4 348 1 1 6 4 995 3 4 2405 3 4 45 7 18 4 4 4 3 4 3 3 4 1922 2 4 1 4 0 5934 3 3 2881 4 4 2401 6932 4 2 3 3 2 3 4 1 5 4 4 4 0 4012 1 6 3 3 3 7 4 2 1479 3 4 1368 12 1 540 4 0 3 4 1 1 1370 1 9 3 3 1929 5 3 2 2 4 2 2 2886 2 3 86 4 3 3 4 2 2 10 0 5 7 5 997 2 1 2 0 4 0 4 2 4 3 2 3 962 1 13 10 30 2 2404 1 3 3 2 2 9 13 121 2 21592 0 1 2 3 1 1 2 3 3 2029 356 1 1 1387 2 1 4 1 2407 1 4 2 3 1921 3 13 2 1 3 3 1 2 3 4 3 3 3 1 3 0 4005 2 3 6 0 6 462 1922 3 8 3 3 4 1 4 2 2 2 2 7 0 2 3 4 3 10 1 3 3 2 3632 2883 2 4 2 4 1 1 3 1766 2 3 0 3 2 4 2 3 6 2404 15 5927 0 4 1 2182 4 5 27 4 3365 2 4 8524 3 0 2883 1476 3 3 7 3 3 2 1 2 999 4 2 3 3 2 3 1719 4 1923 4 983 2878 1 1198 6884 4 6 13 9 3 3515 3 1568 1923 2 1929 4 287 378 1 1475 1458 12 165 13 3 3 3 4 4 2 3 5 2 4 1 4 2587 0 2 2 4 3 3 500 3 4 2 3973 1 2 2 1444 2 1443 1443 2883 1 1 6466 2 964 2 3 4 1929 482 3 2 5 2883 2 486 3 4650 3 6 8884 4 4 14733 2881 1 1936 1475 4 2 3 0 2 2 4 4 3 2 5 3 6 4 2 166 3365 0 1476 2 1476 86 4 3 4 4 2277 3 795 1 2402 6 4 4 3 3 0 2 2933 0 5445 2 1201 2405 1 4 3 2 0 4 2 4 2235 3 4933 2 3 3 3 3 8 7365 1 3 547 0 3 2 4 1924 995 2 3 1956 2 3 2 2181 4 4 1 26 3 0 2 4 1473 1 3785 2 0 4 3 4 3 4 3 2343 4 438 2403 1 2402 4 1927 199 1925 127 3 3 2 4124 3 230 1 5 1475 5 4 3 4 2 2 2 518 0 3 0 3 7 3241 2 2 790 387 3 6 995 1 2 2 5 2 4 2 142 3 2 3 1 2 227 3 3 2 3 3 2 1 1 2 3 1380 1 8 1 4008 4 3 3 11 8 1 2 3 4 4 3 965 9 969 3 3 3 3 3 2 0 3 2 0 0 1 2 2 4 4 2402 2 2 3 4 1 1 3 3 2 2 3201 4 2 3138 2404 127 2 3 3 3 21 3 6 9 4 4 1 3 5 7 965 2 4 3 2 4 3 9 2520 3 5 0 4 3 0 2 4 0 4 1477 983 1 3 4 2379 6 0 2 2 7 3 7 2 5 2 3784 3 3 3 3 2412 7 3363 3 5 5195 0 1 4 1 4 4 2 0 2 3 4 23 4 3 0 3 5 1446 1 1 1 3 2405 2 1 23 9 3 6 1922 4 1 2407 2 1927 5 1 2 2 2 2 10 1 3 3 3 4 4 1 18 4 236 3 5 2 2 3 1501 4 4 0 
