
*** ChampSim Multicore Out-of-Order Simulator ***

Warmup Instructions: 50000000
Simulation Instructions: 50000000
Number of CPUs: 1
LLC sets: 2048
LLC ways: 16
Off-chip DRAM Size: 4096 MB Channels: 1 Width: 64-bit Data Rate: 6400 MT/s
CPU 0 runs ./micro_traces/srv212.trace.gz
.gz
ITLB has LRU replacement policy
DTLB has LRU replacement policy
STLB has LRU replacement policy
L1I has LRU replacement policy
L1D has LRU replacement policy
Initialize SRRIP state for L2C
Initialize DRRIP state for LLC
Heartbeat_Variant_0 : 1315 0.321045 per_variant_size: 0 1315 0 0 0 0 0 0 0 
Heartbeat_Variant_1 : 1209 0.295166 per_variant_size: 0 580 629 0 0 0 0 0 0 
Heartbeat_Variant_2 : 1292 0.31543 per_variant_size: 0 521 369 217 185 0 0 0 0 
Heartbeat_Variant_3 : 0 0 per_variant_size: 0 0 0 0 0 0 0 0 0 
Heartbeat_Variant_0_evicts 0 : 5773 1 : 201 2 : 218 3 : 0 
Heartbeat_Variant_1_evicts 0 : 213 1 : 0 2 : 376 3 : 0 
Heartbeat_Variant_2_evicts 0 : 188 1 : 399 2 : 0 3 : 0 
Heartbeat_Variant_3_evicts 0 : 0 1 : 0 2 : 0 3 : 0 
Heartbeat CPU 0 instructions: 10000003 cycles: 2798012 heartbeat IPC: 3.57397 cumulative IPC: 3.57397 (Simulation time: 0 hr 1 min 31 sec) 
Heartbeat_Variant_0 : 1343 0.327881 per_variant_size: 0 1343 0 0 0 0 0 0 0 
Heartbeat_Variant_1 : 1245 0.303955 per_variant_size: 0 593 652 0 0 0 0 0 0 
Heartbeat_Variant_2 : 1318 0.321777 per_variant_size: 0 516 382 228 192 0 0 0 0 
Heartbeat_Variant_3 : 0 0 per_variant_size: 0 0 0 0 0 0 0 0 0 
Heartbeat_Variant_0_evicts 0 : 5777 1 : 108 2 : 116 3 : 0 
Heartbeat_Variant_1_evicts 0 : 111 1 : 0 2 : 304 3 : 0 
Heartbeat_Variant_2_evicts 0 : 106 1 : 305 2 : 0 3 : 0 
Heartbeat_Variant_3_evicts 0 : 0 1 : 0 2 : 0 3 : 0 
Heartbeat CPU 0 instructions: 20000000 cycles: 5594896 heartbeat IPC: 3.57541 cumulative IPC: 3.57469 (Simulation time: 0 hr 2 min 49 sec) 
Heartbeat_Variant_0 : 1370 0.334473 per_variant_size: 0 1370 0 0 0 0 0 0 0 
Heartbeat_Variant_1 : 1254 0.306152 per_variant_size: 0 564 690 0 0 0 0 0 0 
Heartbeat_Variant_2 : 1342 0.327637 per_variant_size: 0 516 371 245 210 0 0 0 0 
Heartbeat_Variant_3 : 0 0 per_variant_size: 0 0 0 0 0 0 0 0 0 
Heartbeat_Variant_0_evicts 0 : 5689 1 : 98 2 : 104 3 : 0 
Heartbeat_Variant_1_evicts 0 : 97 1 : 0 2 : 287 3 : 0 
Heartbeat_Variant_2_evicts 0 : 98 1 : 296 2 : 0 3 : 0 
Heartbeat_Variant_3_evicts 0 : 0 1 : 0 2 : 0 3 : 0 
Heartbeat CPU 0 instructions: 30000003 cycles: 8390619 heartbeat IPC: 3.57689 cumulative IPC: 3.57542 (Simulation time: 0 hr 4 min 5 sec) 
Heartbeat_Variant_0 : 1373 0.335205 per_variant_size: 0 1373 0 0 0 0 0 0 0 
Heartbeat_Variant_1 : 1259 0.307373 per_variant_size: 0 558 701 0 0 0 0 0 0 
Heartbeat_Variant_2 : 1352 0.330078 per_variant_size: 0 523 362 261 206 0 0 0 0 
Heartbeat_Variant_3 : 0 0 per_variant_size: 0 0 0 0 0 0 0 0 0 
Heartbeat_Variant_0_evicts 0 : 5629 1 : 61 2 : 61 3 : 0 
Heartbeat_Variant_1_evicts 0 : 67 1 : 0 2 : 270 3 : 0 
Heartbeat_Variant_2_evicts 0 : 58 1 : 276 2 : 0 3 : 0 
Heartbeat_Variant_3_evicts 0 : 0 1 : 0 2 : 0 3 : 0 
Heartbeat CPU 0 instructions: 40000002 cycles: 11188730 heartbeat IPC: 3.57384 cumulative IPC: 3.57503 (Simulation time: 0 hr 5 min 18 sec) 
Heartbeat_Variant_0 : 1378 0.336426 per_variant_size: 0 1378 0 0 0 0 0 0 0 
Heartbeat_Variant_1 : 1261 0.307861 per_variant_size: 0 556 705 0 0 0 0 0 0 
Heartbeat_Variant_2 : 1353 0.330322 per_variant_size: 0 515 371 246 221 0 0 0 0 
Heartbeat_Variant_3 : 0 0 per_variant_size: 0 0 0 0 0 0 0 0 0 
Heartbeat_Variant_0_evicts 0 : 5590 1 : 28 2 : 38 3 : 0 
Heartbeat_Variant_1_evicts 0 : 29 1 : 0 2 : 230 3 : 0 
Heartbeat_Variant_2_evicts 0 : 35 1 : 232 2 : 0 3 : 0 
Heartbeat_Variant_3_evicts 0 : 0 1 : 0 2 : 0 3 : 0 
Heartbeat CPU 0 instructions: 50000000 cycles: 13984809 heartbeat IPC: 3.57644 cumulative IPC: 3.57531 (Simulation time: 0 hr 6 min 36 sec) 

Warmup complete CPU 0 instructions: 50000004 cycles: 13984810 (Simulation time: 0 hr 6 min 36 sec) 

Cycle: 20000000 FTQ IN: 55323596 FTQ occupancy: 15.7246 DECODE IN: 55323578 DECODE occupancy: 9.49534 ROB IN: 55323578 ROB occupancy: 258.772 ROB OUT: 55323527
Heartbeat_Variant_0 : 1383 0.337646 per_variant_size: 0 1383 0 0 0 0 0 0 0 
Heartbeat_Variant_1 : 1264 0.308594 per_variant_size: 0 570 694 0 0 0 0 0 0 
Heartbeat_Variant_2 : 1356 0.331055 per_variant_size: 0 519 374 250 213 0 0 0 0 
Heartbeat_Variant_3 : 0 0 per_variant_size: 0 0 0 0 0 0 0 0 0 
Heartbeat_Variant_0_evicts 0 : 5755 1 : 61 2 : 74 3 : 0 
Heartbeat_Variant_1_evicts 0 : 59 1 : 0 2 : 263 3 : 0 
Heartbeat_Variant_2_evicts 0 : 71 1 : 266 2 : 0 3 : 0 
Heartbeat_Variant_3_evicts 0 : 0 1 : 0 2 : 0 3 : 0 
Heartbeat CPU 0 instructions: 60000001 cycles: 25400195 heartbeat IPC: 0.876011 cumulative IPC: 0.87601 (Simulation time: 0 hr 7 min 47 sec) 
Cycle: 30000000 FTQ IN: 8749005 FTQ occupancy: 14.4059 DECODE IN: 8749005 DECODE occupancy: 4.86697 ROB IN: 8749005 ROB occupancy: 52.8158 ROB OUT: 8749043
Heartbeat_Variant_0 : 1384 0.337891 per_variant_size: 0 1384 0 0 0 0 0 0 0 
Heartbeat_Variant_1 : 1261 0.307861 per_variant_size: 0 562 699 0 0 0 0 0 0 
Heartbeat_Variant_2 : 1363 0.332764 per_variant_size: 0 529 375 249 210 0 0 0 0 
Heartbeat_Variant_3 : 0 0 per_variant_size: 0 0 0 0 0 0 0 0 0 
Heartbeat_Variant_0_evicts 0 : 5742 1 : 24 2 : 26 3 : 0 
Heartbeat_Variant_1_evicts 0 : 20 1 : 0 2 : 219 3 : 0 
Heartbeat_Variant_2_evicts 0 : 30 1 : 219 2 : 0 3 : 0 
Heartbeat_Variant_3_evicts 0 : 0 1 : 0 2 : 0 3 : 0 
Heartbeat CPU 0 instructions: 70000000 cycles: 36661231 heartbeat IPC: 0.888018 cumulative IPC: 0.881973 (Simulation time: 0 hr 8 min 55 sec) 
Cycle: 40000000 FTQ IN: 8892939 FTQ occupancy: 14.3772 DECODE IN: 8892939 DECODE occupancy: 4.87319 ROB IN: 8892933 ROB occupancy: 51.2019 ROB OUT: 8892845
Heartbeat_Variant_0 : 1386 0.338379 per_variant_size: 0 1386 0 0 0 0 0 0 0 
Heartbeat_Variant_1 : 1271 0.310303 per_variant_size: 0 590 681 0 0 0 0 0 0 
Heartbeat_Variant_2 : 1363 0.332764 per_variant_size: 0 527 385 243 208 0 0 0 0 
Heartbeat_Variant_3 : 0 0 per_variant_size: 0 0 0 0 0 0 0 0 0 
Heartbeat_Variant_0_evicts 0 : 5744 1 : 134 2 : 120 3 : 0 
Heartbeat_Variant_1_evicts 0 : 131 1 : 0 2 : 328 3 : 0 
Heartbeat_Variant_2_evicts 0 : 121 1 : 321 2 : 0 3 : 0 
Heartbeat_Variant_3_evicts 0 : 0 1 : 0 2 : 0 3 : 0 
Heartbeat CPU 0 instructions: 80000003 cycles: 48138669 heartbeat IPC: 0.871275 cumulative IPC: 0.878378 (Simulation time: 0 hr 10 min 8 sec) 
Cycle: 50000000 FTQ IN: 8682678 FTQ occupancy: 14.362 DECODE IN: 8682685 DECODE occupancy: 4.84881 ROB IN: 8682690 ROB occupancy: 52.2084 ROB OUT: 8682761
Heartbeat_Variant_0 : 1406 0.343262 per_variant_size: 0 1406 0 0 0 0 0 0 0 
Heartbeat_Variant_1 : 1267 0.309326 per_variant_size: 0 556 711 0 0 0 0 0 0 
Heartbeat_Variant_2 : 1363 0.332764 per_variant_size: 0 515 366 260 222 0 0 0 0 
Heartbeat_Variant_3 : 0 0 per_variant_size: 0 0 0 0 0 0 0 0 0 
Heartbeat_Variant_0_evicts 0 : 5774 1 : 137 2 : 148 3 : 0 
Heartbeat_Variant_1_evicts 0 : 132 1 : 0 2 : 348 3 : 0 
Heartbeat_Variant_2_evicts 0 : 137 1 : 352 2 : 0 3 : 0 
Heartbeat_Variant_3_evicts 0 : 0 1 : 0 2 : 0 3 : 0 
Heartbeat CPU 0 instructions: 90000003 cycles: 59509739 heartbeat IPC: 0.879425 cumulative IPC: 0.878639 (Simulation time: 0 hr 11 min 19 sec) 
Cycle: 60000000 FTQ IN: 8793962 FTQ occupancy: 14.3027 DECODE IN: 8793964 DECODE occupancy: 4.84251 ROB IN: 8793965 ROB occupancy: 50.6293 ROB OUT: 8793995
Cycle: 70000000 FTQ IN: 8701064 FTQ occupancy: 14.406 DECODE IN: 8701057 DECODE occupancy: 4.85287 ROB IN: 8701045 ROB occupancy: 52.2827 ROB OUT: 8701021
Heartbeat_Variant_0 : 1409 0.343994 per_variant_size: 0 1409 0 0 0 0 0 0 0 
Heartbeat_Variant_1 : 1275 0.311279 per_variant_size: 0 559 716 0 0 0 0 0 0 
Heartbeat_Variant_2 : 1356 0.331055 per_variant_size: 0 491 377 266 222 0 0 0 0 
Heartbeat_Variant_3 : 0 0 per_variant_size: 0 0 0 0 0 0 0 0 0 
Heartbeat_Variant_0_evicts 0 : 5700 1 : 65 2 : 55 3 : 0 
Heartbeat_Variant_1_evicts 0 : 60 1 : 0 2 : 253 3 : 0 
Heartbeat_Variant_2_evicts 0 : 57 1 : 241 2 : 0 3 : 0 
Heartbeat_Variant_3_evicts 0 : 0 1 : 0 2 : 0 3 : 0 
Heartbeat CPU 0 instructions: 100000001 cycles: 70975404 heartbeat IPC: 0.872169 cumulative IPC: 0.877338 (Simulation time: 0 hr 12 min 26 sec) 
Finished CPU 0 instructions: 50000000 cycles: 56990595 cumulative IPC: 0.877338 (Simulation time: 0 hr 12 min 26 sec) 

ChampSim completed all CPUs

Region of Interest Statistics

CPU 0 cumulative IPC: 0.877338 instructions: 50000000 cycles: 56990595
 Fetch stage stalled: 32.8811  Sim cycles: 56990595 fetch stall cycle: 18739128
 Empty decode stage: 69.3398  Sim cycles: 56990595 fetch stall cycle: 39517174
ITLB TOTAL     ACCESS:    7285978  HIT:    6795413  MISS:     490565  HIT %:     93.267  MISS %:      6.733   MPKI: 9.8113
ITLB LOAD TRANSLATION INSTRUCTION	ACCESS:    7285978  HIT:    6795413  MISS:     490565  HIT %:     93.267  MISS %:      6.733  MPKI: 9.8113

ITLB AVERAGE MISS LATENCY: 9.04907 cycles
ITLB RQ	ACCESS:    8407743	FORWARD:          0	MERGED:     921055	TO_CACHE:    7486688

DTLB TOTAL     ACCESS:   10386549  HIT:    9914389  MISS:     472160  HIT %:    95.4541  MISS %:    4.54588   MPKI: 9.4432
DTLB LOAD TRANSLATION DATA	ACCESS:   10386549  HIT:    9914389  MISS:     472160  HIT %:    95.4541  MISS %:    4.54588  MPKI: 9.4432

DTLB AVERAGE MISS LATENCY: 9.31893 cycles
DTLB RQ	ACCESS:   14480817	FORWARD:          0	MERGED:    4065164	TO_CACHE:   10415653

STLB TOTAL     ACCESS:    1226312  HIT:    1224370  MISS:       1942  HIT %:    99.8416  MISS %:   0.158361   MPKI: 0.03884
STLB LOAD TRANSLATION INSTRUCTION	ACCESS:     490565  HIT:     490351  MISS:        214  HIT %:    99.9564  MISS %:  0.0436232  MPKI: 0.00428
STLB LOAD TRANSLATION DATA	ACCESS:     472156  HIT:     470452  MISS:       1704  HIT %:    99.6391  MISS %:   0.360898  MPKI: 0.03408
STLB TRANSLATION FROM L1D PREFETCHER DATA	ACCESS:     263591  HIT:     263567  MISS:         24  HIT %:    99.9909  MISS %: 0.00910501  MPKI: 0.00048

STLB AVERAGE MISS LATENCY: 78.3708 cycles
STLB RQ	ACCESS:    1346381	FORWARD:          0	MERGED:     120034	TO_CACHE:    1226347

STLB Hit, L1D data hit: 0
STLB Hit, L2C data hit: 0
STLB Hit, LLC data hit: 0
STLB Hit, LLC data miss: 0
STLB STLB hints to L2: 0
L1D TOTAL     ACCESS:   14283721  HIT:   13173987  MISS:    1109734  HIT %:    92.2308  MISS %:    7.76922   MPKI: 22.1947
L1D LOAD DATA	ACCESS:    7627869  HIT:    6900852  MISS:     727017  HIT %:    90.4689  MISS %:    9.53106  MPKI: 14.5403
L1D RFO DATA	ACCESS:    6312866  HIT:    6024914  MISS:     287952  HIT %:    95.4386  MISS %:    4.56135  MPKI: 5.75904
L1D PREFETCH DATA	ACCESS:     342986  HIT:     248221  MISS:      94765  HIT %:    72.3706  MISS %:    27.6294  MPKI: 1.8953

L1D PREFETCH  REQUESTED:     767461  ISSUED:     767461  USEFUL:      35919  USELESS:      67075
L1D USEFUL LOAD PREFETCHES:      35919 PREFETCH ISSUED TO LOWER LEVEL:     103047  ACCURACY: 34.8569
 TIMELY PREFETCHES:      35919 LATE PREFETCHES: 8191 DROPPED PREFETCHES: 7
L1D AVERAGE MISS LATENCY: 321295 cycles
L1D RQ	ACCESS:   11457115	FORWARD:          0	MERGED:    3646762	TO_CACHE:    7660353
L1D WQ	ACCESS:    6939568	FORWARD:     150149	MERGED:     119104	TO_CACHE:    6820464
L1D PQ	ACCESS:     383805	FORWARD:          0	MERGED:          0	TO_CACHE:     383656

L1D UNIQUE REGIONS ACCESSED: 0
L1D REGIONS CONFLICTS: 0
L1D Cross Page Prefetch Requests: 6821
L1D Same Page Prefetch Requests: 760833
L1D ROI Sum of L1D PQ occupancy: 4874350
L1D PREFETCHES PUSHED FROM L2C: 0
L1I TOTAL     ACCESS:    7879176  HIT:    5132155  MISS:    2747021  HIT %:    65.1357  MISS %:    34.8643   MPKI: 54.9404
L1I LOAD INSTRUCTION	ACCESS:    7879176  HIT:    5132155  MISS:    2747021  HIT %:    65.1357  MISS %:    34.8643  MPKI: 54.9404

L1I AVERAGE MISS LATENCY: 16.7478 cycles
L1I RQ	ACCESS:   15406668	FORWARD:          0	MERGED:    6998925	TO_CACHE:    8407743

L1BTB TOTAL     ACCESS:    5669293  HIT:    2060765  MISS:    3608528  HIT %:    36.3496  MISS %:    63.6504   MPKI: 72.1706
L1BTB BRANCH_DIRECT_JUMP	ACCESS:     549968  HIT:     146580  MISS:     403388	AVERAGE STALL: 21.8533
L1BTB BRANCH_INDIRECT	ACCESS:     183897  HIT:      66828  MISS:     117069	AVERAGE STALL: 47.7495
L1BTB BRANCH_CONDITIONAL	ACCESS:    2722605  HIT:    1434744  MISS:    1287861	AVERAGE STALL: 34.7597
L1BTB BRANCH_DIRECT_CALL	ACCESS:     936150  HIT:     104178  MISS:     831972	AVERAGE STALL: 35.1143
L1BTB BRANCH_INDIRECT_CALL	ACCESS:     170255  HIT:      20610  MISS:     149645	AVERAGE STALL: 65.9388
L1BTB BRANCH_RETURN	ACCESS:    1106418  HIT:     287825  MISS:     818593	AVERAGE STALL: 32.0816
L1BTB BRANCH_OTHER ACCESS:          0  HIT:          0  MISS:          0	AVERAGE STALL: -nan
L1BTB TOTAL ROB OCCUPANCY AT BTB MISS: 0.571345

L2BTB TOTAL     ACCESS:    3582895  HIT:    3516862  MISS:      66033  HIT %:     98.157  MISS %:    1.84301   MPKI: 1.32066
L2BTB BRANCH_DIRECT_JUMP	ACCESS:     399104  HIT:     395124  MISS:       3980	AVERAGE STALL: 21.8533
L2BTB BRANCH_INDIRECT	ACCESS:     106805  HIT:     104163  MISS:       2642	AVERAGE STALL: 47.7495
L2BTB BRANCH_CONDITIONAL	ACCESS:    1287861  HIT:    1283091  MISS:       4770	AVERAGE STALL: 34.7597
L2BTB BRANCH_DIRECT_CALL	ACCESS:     831972  HIT:     830408  MISS:       1564	AVERAGE STALL: 35.1143
L2BTB BRANCH_INDIRECT_CALL	ACCESS:     139960  HIT:     129428  MISS:      10532	AVERAGE STALL: 65.9388
L2BTB BRANCH_RETURN	ACCESS:     817193  HIT:     774648  MISS:      42545	AVERAGE STALL: 32.0816
L2BTB BRANCH_OTHER ACCESS:          0  HIT:          0  MISS:          0	AVERAGE STALL: -nan
L2BTB TOTAL ROB OCCUPANCY AT BTB MISS: 31.2225

L2C TOTAL     ACCESS:    4462380  HIT:    4021114  MISS:     441266  HIT %:    90.1114  MISS %:    9.88858   MPKI: 8.82532
L2C LOAD INSTRUCTION	ACCESS:    2747021  HIT:    2513271  MISS:     233750  HIT %:    91.4908  MISS %:    8.50922  MPKI: 4.675
L2C LOAD TRANSLATION INSTRUCTION	ACCESS:        246  HIT:         56  MISS:        190  HIT %:    22.7642  MISS %:    77.2358  MPKI: 0.0038
L2C LOAD DATA	ACCESS:     718820  HIT:     649266  MISS:      69554  HIT %:    90.3239  MISS %:    9.67614  MPKI: 1.39108
L2C RFO DATA	ACCESS:     287856  HIT:     236495  MISS:      51361  HIT %:    82.1574  MISS %:    17.8426  MPKI: 1.02722
L2C PREFETCH DATA	ACCESS:     187932  HIT:     116446  MISS:      71486  HIT %:    61.9618  MISS %:    38.0382  MPKI: 1.42972
L2C WRITEBACK DATA	ACCESS:     518699  HIT:     505119  MISS:      13580  HIT %:    97.3819  MISS %:    2.61809  MPKI: 0.2716
L2C LOAD TRANSLATION DATA	ACCESS:       1765  HIT:        433  MISS:       1332  HIT %:    24.5326  MISS %:    75.4674  MPKI: 0.02664
L2C TRANSLATION FROM L1D PREFETCHER DATA	ACCESS:         41  HIT:         28  MISS:         13  HIT %:    68.2927  MISS %:    31.7073  MPKI: 0.00026

L2C PREFETCH  REQUESTED:      91583  ISSUED:      91583  USEFUL:       7596  USELESS:      64312
L2C USEFUL LOAD PREFETCHES:       7596 PREFETCH ISSUED TO LOWER LEVEL:      71773  ACCURACY: 10.5834
 TIMELY PREFETCHES:       7596 LATE PREFETCHES: 287 DROPPED PREFETCHES: 0
L2C AVERAGE MISS LATENCY: 40.1271 cycles
L2C RQ	ACCESS:    3755760	FORWARD:          0	MERGED:          0	TO_CACHE:    3755749
L2C WQ	ACCESS:     518699	FORWARD:         11	MERGED:          0	TO_CACHE:     518699
L2C PQ	ACCESS:     194630	FORWARD:          0	MERGED:       3689	TO_CACHE:     190941

L2C Dense regions hint from L2: 0
PSCL5 TOTAL     ACCESS:       3902  HIT:       1951  MISS:       1951  HIT %:         50  MISS %:         50   MPKI: 0.03902
PSCL5 LOAD TRANSLATION INSTRUCTION	ACCESS:       3820  HIT:       1910  MISS:       1910  HIT %:         50  MISS %:         50  MPKI: 0.0382
PSCL5 TRANSLATION FROM L1D PREFETCHER INSTRUCTION	ACCESS:         82  HIT:         41  MISS:         41  HIT %:         50  MISS %:         50  MPKI: 0.00082


PSCL4 TOTAL     ACCESS:       3851  HIT:       1923  MISS:       1928  HIT %:    49.9351  MISS %:    50.0649   MPKI: 0.03856
PSCL4 LOAD TRANSLATION INSTRUCTION	ACCESS:       2310  HIT:       1888  MISS:        422  HIT %:    81.7316  MISS %:    18.2684  MPKI: 0.00844
PSCL4 TRANSLATION FROM L1D PREFETCHER INSTRUCTION	ACCESS:         37  HIT:         35  MISS:          2  HIT %:    94.5946  MISS %:    5.40541  MPKI: 4e-05
PSCL4 LOAD TRANSLATION DATA	ACCESS:       1471  HIT:          0  MISS:       1471  HIT %:          0  MISS %:        100  MPKI: 0.02942
PSCL4 TRANSLATION FROM L1D PREFETCHER DATA	ACCESS:         33  HIT:          0  MISS:         33  HIT %:          0  MISS %:        100  MPKI: 0.00066


PSCL3 TOTAL     ACCESS:       3853  HIT:       1924  MISS:       1929  HIT %:    49.9351  MISS %:    50.0649   MPKI: 0.03858
PSCL3 LOAD TRANSLATION INSTRUCTION	ACCESS:       2311  HIT:       1889  MISS:        422  HIT %:    81.7395  MISS %:    18.2605  MPKI: 0.00844
PSCL3 TRANSLATION FROM L1D PREFETCHER INSTRUCTION	ACCESS:         37  HIT:         35  MISS:          2  HIT %:    94.5946  MISS %:    5.40541  MPKI: 4e-05
PSCL3 LOAD TRANSLATION DATA	ACCESS:       1472  HIT:          0  MISS:       1472  HIT %:          0  MISS %:        100  MPKI: 0.02944
PSCL3 TRANSLATION FROM L1D PREFETCHER DATA	ACCESS:         33  HIT:          0  MISS:         33  HIT %:          0  MISS %:        100  MPKI: 0.00066


PSCL2 TOTAL     ACCESS:       3809  HIT:       1858  MISS:       1951  HIT %:    48.7792  MISS %:    51.2208   MPKI: 0.03902
PSCL2 LOAD TRANSLATION INSTRUCTION	ACCESS:       2034  HIT:       1817  MISS:        217  HIT %:    89.3314  MISS %:    10.6686  MPKI: 0.00434
PSCL2 TRANSLATION FROM L1D PREFETCHER INSTRUCTION	ACCESS:         41  HIT:         41  MISS:          0  HIT %:        100  MISS %:          0  MPKI: 0
PSCL2 LOAD TRANSLATION DATA	ACCESS:       1693  HIT:          0  MISS:       1693  HIT %:          0  MISS %:        100  MPKI: 0.03386
PSCL2 TRANSLATION FROM L1D PREFETCHER DATA	ACCESS:         41  HIT:          0  MISS:         41  HIT %:          0  MISS %:        100  MPKI: 0.00082


LLC TOTAL     ACCESS:     499378  HIT:     468691  MISS:      30687  HIT %:     93.855  MISS %:    6.14504   MPKI: 0.61374
LLC LOAD INSTRUCTION	ACCESS:     233750  HIT:     232515  MISS:       1235  HIT %:    99.4717  MISS %:   0.528342  MPKI: 0.0247
LLC LOAD TRANSLATION INSTRUCTION	ACCESS:        190  HIT:        151  MISS:         39  HIT %:    79.4737  MISS %:    20.5263  MPKI: 0.00078
LLC LOAD DATA	ACCESS:      69271  HIT:      65770  MISS:       3501  HIT %:    94.9459  MISS %:    5.05406  MPKI: 0.07002
LLC RFO DATA	ACCESS:      51349  HIT:      35583  MISS:      15766  HIT %:    69.2964  MISS %:    30.7036  MPKI: 0.31532
LLC PREFETCH DATA	ACCESS:      71773  HIT:      62129  MISS:       9644  HIT %:    86.5632  MISS %:    13.4368  MPKI: 0.19288
LLC WRITEBACK DATA	ACCESS:      71700  HIT:      71289  MISS:        411  HIT %:    99.4268  MISS %:   0.573222  MPKI: 0.00822
LLC LOAD TRANSLATION DATA	ACCESS:       1332  HIT:       1242  MISS:         90  HIT %:    93.2432  MISS %:    6.75676  MPKI: 0.0018
LLC TRANSLATION FROM L1D PREFETCHER DATA	ACCESS:         13  HIT:         12  MISS:          1  HIT %:    92.3077  MISS %:    7.69231  MPKI: 2e-05

LLC AVERAGE MISS LATENCY: 157.531 cycles
LLC RQ	ACCESS:     355913	FORWARD:          0	MERGED:          0	TO_CACHE:     355905
LLC WQ	ACCESS:      71700	FORWARD:          8	MERGED:          0	TO_CACHE:      71700
LLC PQ	ACCESS:      71773	FORWARD:          0	MERGED:          0	TO_CACHE:      71773

LLC Dense regions hint to LLC: 0

RAW hits: 1186643
Loads Generated: 12643760
Loads sent to L1D: 11457115
Stores Generated: 6939563
Stores sent to L1D: 6939568
Major fault: 0 Minor fault: 2579
Allocated PAGES: 2579

stream: 
stream:times selected: 1199105
stream:pref_filled: 120442
stream:pref_useful: 25184
stream:pref_late: 6142
stream:misses: 7055
stream:misses_by_poll: 0

CS: 
CS:times selected: 182651
CS:pref_filled: 59262
CS:pref_useful: 36411
CS:pref_late: 7002
CS:misses: 16642
CS:misses_by_poll: 12

CPLX: 
CPLX:times selected: 1015299
CPLX:pref_filled: 21857
CPLX:pref_useful: 5176
CPLX:pref_late: 3020
CPLX:misses: 92221
CPLX:misses_by_poll: 1

NL_L1: 
NL:times selected: 20126
NL:pref_filled: 634
NL:pref_useful: 321
NL:pref_late: 373
NL:misses: 1498
NL:misses_by_poll: 0

total selections: 2417181
total_filled: 94765
total_useful: 35919
total_late: 17743
total_polluted: 13
total_misses_after_warmup: 759503
conflicts: 5992701

test: 117192

DRAM Statistics
 CHANNEL 0
 RQ ROW_BUFFER_HIT:      11517  ROW_BUFFER_MISS:      18743
 DBUS_CONGESTED:         13
 WQ ROW_BUFFER_HIT:       1618  ROW_BUFFER_MISS:      13281  FULL:          0

 AVG_CONGESTED_CYCLE: 6

CPU 0 Branch Prediction Accuracy: 99.8178% MPKI: 0.33282 Average ROB Occupancy at Mispredict: 71.0079
Branch types
NOT_BRANCH: 40864308 81.7286%
BRANCH_DIRECT_JUMP: 549968 1.09994%
BRANCH_INDIRECT: 183897 0.367794%
BRANCH_CONDITIONAL: 6188696 12.3774%
BRANCH_DIRECT_CALL: 936150 1.8723%
BRANCH_INDIRECT_CALL: 170255 0.34051%
BRANCH_RETURN: 1106418 2.21284%
BRANCH_OTHER: 0 0%

DRAM PAGES: 1048576
Allocated PAGES: 2579
Average_ROB_Occupancy: 52.5891
Average_Decode_Occupancy: 4.853
Average_FTQ_Occupancy: 14.3565
Indirect max targets: 14 Average targets: 1.15512
Branch_type:  BRANCH_DIRECT_JUMP:  Count Percentage: 3.81454 5.04712 4.48425 3.22083 9.30381 6.34667 1.39892 66.3839 
Branch_type:  BRANCH_INDIRECT:  Count Percentage: 11.7441 3.44636 2.59901 7.31762 13.0324 21.4988 3.1858 37.176 
Branch_type:  BRANCH_CONDITIONAL:  Count Percentage: 21.9857 2.47387 1.54034 3.10649 4.61604 5.54916 0.849438 59.879 
Branch_type:  BRANCH_DIRECT_CALL:  Count Percentage: 0.390745 1.73011 0.767132 1.8479 5.05187 3.25273 0.828445 86.1311 
Branch_type:  BRANCH_INDIRECT_CALL:  Count Percentage: 9.56434 0 2.99583 4.26963 0.000585924 1.71178 1.00281 80.455 
Branch_type:  BRANCH_RETURN:  Count Percentage: 3.95615 1.97999 1.04306 4.45244 6.18804 5.94441 1.26833 75.1676 
Branch_type:  BRANCH_DIRECT_JUMP:  Total Count: 41807 55316 49147 35300 101969 69559 15332 727562 
Branch_type:  BRANCH_INDIRECT:  Total Count: 43090 12645 9536 26849 47817 78881 11689 136402 
Branch_type:  BRANCH_CONDITIONAL:  Total Count: 2718430 305882 190456 384103 570752 686128 105029 7403752 
Branch_type:  BRANCH_DIRECT_CALL:  Total Count: 7348 32535 14426 34750 95001 61168 15579 1619705 
Branch_type:  BRANCH_INDIRECT_CALL:  Total Count: 32647 0 10226 14574 2 5843 3423 274626 
Branch_type:  BRANCH_RETURN:  Total Count: 87933 44009 23184 98964 137541 132126 28191 1670744 
Number of unique branch instructions: 10259
Upper 32 bits: 
aaaa
ffff
ffff0000
Unique upper 32 bits: 3
Unique upper 36 bits: 3
Unique upper 40 bits: 5
Unique upper 44 bits: 32
Unique upper 48 bits: 157
Variant_0 : 1409 0.343994
Variant_1 : 1275 0.311279
Variant_2 : 1356 0.331055
Variant_3 : 0 0
Offset_3 4221
Offset_4 266
Offset_5 472
Offset_6 520
Offset_7 604
Offset_8 534
Offset_9 489
Offset_10 397
Offset_11 324
Offset_12 297
Offset_13 214
Offset_14 231
Offset_15 193
Offset_16 230
Offset_17 156
Offset_18 126
Offset_19 246
Offset_20 144
Offset_21 261
Offset_22 398
Offset_23 241
Offset_24 353
Offset_25 88
Offset_47 86
decode_dispatch_called: 30509233 53.5338
Dispatch_width: 0 18414327 60.3566 32.3112
Dispatch_width: 1 2324804 7.62 4.07928
Dispatch_width: 2 1104708 3.6209 1.9384
Dispatch_width: 3 1085908 3.55928 1.90542
Dispatch_width: 4 999679 3.27664 1.75411
Dispatch_width: 5 1269813 4.16206 2.22811
Dispatch_width: 6 5309994 17.4045 9.31732
Empty_decode_cycles: 26481362 46.4662
ROB_full_cycles: 533617 0.936325
Starvation_cycles_per_kilo_instr: 511.47
Starvation_cycles_per_kilo_instr_3: 488.775
Starvation_cycles_per_kilo_instr_0: 443.621
Branch_type_1  (3,1)  (4,10)  (5,39)  (6,72)  (7,119)  (8,133)  (9,130)  (10,101)  (11,72)  (12,51)  (13,8)  (14,2)  (15,3)  (16,4)  (18,1)  (19,4)  (20,2)  (21,1)  (22,3)  (23,2)  (24,10)  (25,12) 
Branch_type_2  (3,1)  (5,1)  (8,3)  (9,3)  (12,1)  (13,1)  (14,1)  (16,3)  (17,2)  (20,2)  (21,2)  (23,5)  (24,1)  (47,40) 
Branch_type_3  (3,4219)  (4,256)  (5,428)  (6,432)  (7,452)  (8,336)  (9,269)  (10,160)  (11,133)  (12,59)  (13,7) 
Branch_type_4  (6,4)  (7,8)  (8,26)  (9,55)  (10,63)  (11,62)  (12,102)  (13,91)  (14,103)  (15,92)  (16,103)  (17,71)  (18,57)  (19,119)  (20,74)  (21,141)  (22,213)  (23,136)  (24,203)  (25,72) 
Branch_type_5  (8,2)  (9,1)  (10,4)  (11,5)  (12,3)  (13,14)  (14,16)  (15,11)  (16,20)  (17,11)  (18,16)  (19,13)  (20,11)  (21,13)  (22,42)  (23,26)  (24,41) 
Branch_type_6  (5,4)  (6,12)  (7,25)  (8,34)  (9,31)  (10,69)  (11,52)  (12,81)  (13,93)  (14,109)  (15,87)  (16,100)  (17,72)  (18,52)  (19,110)  (20,55)  (21,104)  (22,140)  (23,72)  (24,98)  (25,4)  (47,46) 
Unique trigger count: 
Variant_0_evicts_0 : 0
Variant_0_evicts_1 : 0
Variant_0_evicts_2 : 0
Variant_0_evicts_3 : 0
Variant_1_evicts_0 : 0
Variant_1_evicts_1 : 0
Variant_1_evicts_2 : 0
Variant_1_evicts_3 : 0
Variant_2_evicts_0 : 0
Variant_2_evicts_1 : 0
Variant_2_evicts_2 : 0
Variant_2_evicts_3 : 0
Variant_3_evicts_0 : 0
Variant_3_evicts_1 : 0
Variant_3_evicts_2 : 0
Variant_3_evicts_3 : 0
BTB PER SET UNIQUE ADDR: 11 7 10 13 13 9 12 14 10 10 10 17 11 14 13 9 9 11 11 14 11 11 17 14 9 14 10 14 10 8 14 16 14 8 7 10 11 16 10 10 8 11 11 14 9 11 12 8 12 12 11 8 13 8 9 6 9 11 8 13 9 16 13 8 13 16 12 12 12 11 13 14 16 11 13 8 5 15 9 12 13 7 10 13 13 11 10 6 8 17 9 8 9 10 7 12 10 6 12 15 15 17 11 11 15 7 5 10 6 8 12 10 14 11 8 7 13 10 13 10 11 11 11 7 18 11 6 10 20 11 9 15 9 13 10 17 9 15 12 14 10 14 11 13 14 14 15 7 8 10 12 15 13 11 9 16 16 10 13 10 9 12 13 14 11 13 14 10 12 9 9 10 11 12 16 9 11 10 14 14 7 12 12 9 18 13 8 11 10 8 5 13 10 17 14 11 9 13 5 13 11 12 11 11 10 13 13 9 10 11 9 13 12 13 6 11 10 11 10 11 10 14 10 11 10 9 16 9 7 12 6 5 7 12 11 10 9 12 14 9 11 11 13 11 11 10 7 11 12 10 12 10 11 9 13 8 12 8 13 12 14 10 5 11 11 10 11 10 7 10 8 12 9 8 9 7 8 13 8 8 8 16 5 12 13 8 9 11 10 18 8 9 10 9 7 16 8 11 14 13 9 11 12 17 14 13 12 13 15 11 13 13 6 18 8 6 15 10 16 19 10 11 9 13 18 14 14 9 12 10 9 13 11 13 15 9 10 13 7 20 11 12 8 14 10 14 12 12 9 11 12 8 10 16 13 15 12 9 9 13 5 12 6 10 11 11 8 9 10 11 14 9 12 10 11 18 16 10 15 12 10 11 8 9 13 11 11 11 9 12 13 14 14 18 12 8 11 9 15 8 9 13 8 12 13 9 15 10 10 14 12 6 8 13 14 8 13 14 18 17 12 10 11 7 14 11 13 12 9 11 16 8 5 14 14 7 17 6 11 8 13 6 8 16 15 8 10 8 9 13 12 16 13 9 9 16 13 14 12 14 11 11 12 9 19 14 10 10 14 15 14 15 12 12 10 17 11 15 9 13 15 13 14 15 8 16 15 14 14 17 7 15 11 6 12 9 17 12 10 11 12 17 13 13 11 7 10 11 11 13 13 10 14 15 8 11 10 22 9 7 10 10 13 8 14 14 15 8 6 19 11 11 19 14 10 20 16 13 7 10 12 11 14 11 21 15 10 7 10 6 11 12 13 11 9 13 13 10 10 12 12 16 15 11 12 16 7 9 11 16 18 13 14 16 14 15 18 16 9 7 15 11 8 11 11 10 14 14 11 12 11 10 16 10 10 13 11 9 9 11 14 9 11 5 14 13 22 8 16 10 14 13 8 10 4 17 8 13 12 16 14 11 9 13 10 16 12 13 11 12 6 17 14 12 11 9 11 19 8 13 10 11 14 16 11 10 8 15 17 13 8 13 10 9 14 14 13 7 10 13 16 10 10 16 8 12 10 7 7 12 16 10 12 17 19 11 11 15 8 11 8 17 13 14 14 12 10 12 13 15 14 13 14 8 10 11 7 13 8 12 6 15 12 13 8 11 13 10 12 8 11 10 9 12 8 9 14 11 8 16 13 11 12 14 10 10 16 11 7 10 15 10 14 7 10 13 16 13 18 10 10 11 14 8 16 13 13 13 10 8 16 8 16 14 12 11 14 13 11 9 7 9 7 7 16 11 9 11 11 8 12 8 13 11 7 13 16 10 16 13 9 12 15 8 10 7 8 9 7 8 9 7 14 10 12 14 12 13 10 10 24 11 12 13 16 9 14 7 10 14 12 15 12 14 11 14 14 15 8 14 13 12 11 13 14 13 8 12 13 12 11 16 13 8 11 18 17 12 11 9 9 12 9 6 12 14 9 16 10 15 10 12 12 11 13 18 10 10 13 10 13 11 11 6 19 9 13 11 17 8 13 13 20 11 15 6 10 11 12 12 13 10 14 15 14 11 15 13 9 15 13 11 10 14 9 13 12 12 7 10 11 9 11 13 9 11 12 8 11 10 11 11 9 15 14 10 14 12 12 13 12 17 12 10 9 7 9 8 10 10 14 12 19 12 10 14 7 10 11 16 7 19 9 14 13 8 9 18 10 16 13 12 11 17 10 13 12 14 9 14 8 18 12 15 13 11 13 11 13 12 11 12 14 14 15 11 15 11 12 18 10 14 12 11 6 15 20 13 11 13 10 15 14 13 14 11 12 9 16 12 12 11 8 9 10 12 6 18 6 14 12 10 6 8 9 12 8 9 8 8 9 15 15 11 
BTB PER SET COUNT: 15 7 1901 14 1474 11 495 26 1453 18 14 1575 13486 32 16 10 971 11 93 19 18 12 763 20 16 16 15 14 14 10 18 869 16 10 8 14 13 25 16 56 10 19 12 34 1469 12 15 8 820 125 18 8 23 9 72 326 11 12 13 18 10 19 112 8 16 23 14 15 14 14 1478 1013 23 14 17 8 7 1025 10 15 18 9 14 46 22 64 16 6 10 35 89 9 15 439 8 16 1142 6 20 19 21 147 15 18 507 9 5 12 1009 10 19 16 230 17 13 730 14 13 1480 12 784 14 18 7 22 85 6 30 28 1011 15 52 10 22 129 29 971 21 15 22 12 14 20 13 19 20 221 9 10 191 14 180 455 15 10 18 19 12 19 11 11 217 397 15 1473 18 17 11 20 1471 15 17 13 18 19 12 26 13 31 504 7 257 83 13 65 19 8 15 865 8 5 19 11 24 17 15 15 603 5 236 19 15 973 12 12 18 23 13 11 13 13 18 15 3856 7 878 10 20 2251 17 14 14 15 15 15 23 19 9 7 19 7 5 7 21 721 3163 9 474 28 10 16 11 15 16 14 985 896 14 371 15 13 15 12 11 21 9 30 15 14 16 24 15 5 19 11 13 15 11 2223 12 9 90 11 9 11 8 8 18 9 13 13 19 6 16 16 9 11 14 13 30 9 11 13 215 7 26 9 15 14 22 14 11 14 26 20 168 28 20 21 534 16 17 6 33 1858 1009 21 11 19 48 13 2933 9 18 24 156 230 11 14 12 10 27 16 15 19 11 12 230 9 25 15 1943 10 21 14 19 20 14 9 13 14 8 20 19 18 18 15 10 467 25 5 16 8 15 11 1494 8 11 16 11 17 9 15 11 969 25 17 12 23 15 1020 11 19 10 29 16 15 17 10 313 18 17 17 416 15 335 14 11 1269 9 11 19 8 13 19 16 24 17 13 21 27 6 9 19 17 11 20 3854 142 25 18 13 13 9 25 22 431 14 13 20 26 10 5 16 409 9 22 1009 13 9 20 10 10 20 1870 8 13 9 13 14 502 1468 22 12 12 20 18 16 14 14 28 291 13 14 26 194 111 10 38 21 17 23 18 16 14 32 14 17 10 18 16 146 14 21 10 27 20 21 445 27 84 22 201 7 14 9 1977 14 13 14 14 25 15 17 12 15 13 18 17 23 16 19 22 15 9 15 20 36 16 14 10 14 25 9 17 21 514 1471 8 143 15 23 25 20 14 169 282 16 7 10 12 17 23 16 38 311 11 7 16 10 11 27 209 23 9 23 14 10 19 12 14 96 17 17 681 24 10 9 12 27 1276 15 18 278 2433 24 24 23 17 7 24 21 12 4317 15 20 27 16 13 13 18 10 21 12 26 16 583 396 271 12 15 11 55 7 20 16 40 12 20 10 17 20 12 11 5 24 465 18 15 32 27 18 12 166 10 27 16 14 14 13 6 28 18 122 14 13 16 644 8 521 10 15 23 20 13 20 1014 29 1080 15 8 18 12 12 35 518 22 9 512 37 340 17 10 19 968 14 12 8 1468 16 24 15 842 22 21 34 14 26 10 21 11 24 24 41 19 16 15 22 405 21 20 26 18 11 2238 23 9 1093 17 14 8 29 895 21 8 13 20 11 15 11 70 12 938 16 11 15 342 19 11 85 26 579 26 2427 314 11 23 18 1012 14 102 10785 147 23 12 15 866 22 159 18 186 27 810 14 86 18 572 13 13 9 747 11 351 1981 254 18 18 24 16 9 9 11 7 9 742 18 14 11 12 9 58 16 15 17 7 16 26 379 19 140 621 18 1345 14 12 7 11 13 10 10 12 956 21 15 12 114 51 21 12 251 126 16 19 65 475 10 17 8 11 21 15 7919 18 25 15 680 28 438 12 2200 20 12 20 13 259 29 8 15 18 17 13 20 18 9 466 35 29 687 16 12 10 22 11 10 1360 17 12 35 11 23 470 357 31 16 20 29 18 13 23 14 155 16 692 7 535 13 18 16 34 13 196 37 33 13 21 7 13 24 25 14 17 10 19 89 520 17 23 16 9 20 14 184 748 16 10 25 13 16 8 10 16 16 15 659 12 23 17 13 20 395 513 434 13 25 52 970 22 22 17 13 17 23 16 1170 12 9 13 10 13 24 25 12 91 13 12 861 8 51 14 22 8 34 10 15 16 9 10 26 10 20 24 1494 751 4026 10 19 13 18 31 19 15 34 13 17 27 16 1477 15 61 16 57 15 19 18 43 13 19 12 16 22 15 18 47 167 6 1364 33 19 18 13 14 963 525 368 19 26 14 1478 27 17 17 16 9 13 12 17 6 28 6 977 22 459 7 9 14 15 9 15 8 11 734 553 22 14 
To predecode: 0
Predecoding something: 0
Predecode request dropped: 0
sizeofblock_0 0
sizeofblock_1 38463
sizeofblock_2 41546
sizeofblock_3 36701
sizeofblock_4 20813
sizeofblock_5 0
sizeofblock_6 0
sizeofblock_7 0
sizeofblock_8 0
Variant_0 Correct: 1608877 Incorrect: 0 Accuracy: 1
Variant_1 Correct: 2084239 Incorrect: 0 Accuracy: 1
Variant_2 Correct: 3631716 Incorrect: 0 Accuracy: 1
Variant_3 Correct: 0 Incorrect: 0 Accuracy: -nan
