
*** ChampSim Multicore Out-of-Order Simulator ***

Warmup Instructions: 50000000
Simulation Instructions: 50000000
Number of CPUs: 1
LLC sets: 2048
LLC ways: 16
Off-chip DRAM Size: 4096 MB Channels: 1 Width: 64-bit Data Rate: 6400 MT/s
CPU 0 runs ./micro_traces/srv250.trace.gz
.gz
ITLB has LRU replacement policy
DTLB has LRU replacement policy
STLB has LRU replacement policy
FDIP Prefetcher at L1I
L1I has LRU replacement policy
L1D has LRU replacement policy
Initialize SRRIP state for L2C
Initialize DRRIP state for LLC
Heartbeat CPU 0 instructions: 10000003 cycles: 2796660 heartbeat IPC: 3.5757 cumulative IPC: 3.5757 (Simulation time: 0 hr 2 min 7 sec) 
Heartbeat CPU 0 instructions: 20000000 cycles: 5592093 heartbeat IPC: 3.57726 cumulative IPC: 3.57648 (Simulation time: 0 hr 4 min 17 sec) 
Heartbeat CPU 0 instructions: 30000000 cycles: 8389730 heartbeat IPC: 3.57445 cumulative IPC: 3.5758 (Simulation time: 0 hr 6 min 22 sec) 
Heartbeat CPU 0 instructions: 40000001 cycles: 11186744 heartbeat IPC: 3.57524 cumulative IPC: 3.57566 (Simulation time: 0 hr 8 min 29 sec) 
Heartbeat CPU 0 instructions: 50000000 cycles: 13983224 heartbeat IPC: 3.57592 cumulative IPC: 3.57571 (Simulation time: 0 hr 10 min 23 sec) 

Warmup complete CPU 0 instructions: 50000004 cycles: 13983225 (Simulation time: 0 hr 10 min 23 sec) 

Cycle: 20000000 FTQ IN: 57792936 FTQ occupancy: 19.1956 DECODE IN: 57792876 DECODE occupancy: 49.4075 ROB IN: 57792876 ROB occupancy: 299.396 ROB OUT: 57792705
Heartbeat CPU 0 instructions: 60000001 cycles: 21693386 heartbeat IPC: 1.29699 cumulative IPC: 1.29699 (Simulation time: 0 hr 12 min 32 sec) 
Heartbeat CPU 0 instructions: 70000003 cycles: 29486774 heartbeat IPC: 1.28314 cumulative IPC: 1.29003 (Simulation time: 0 hr 14 min 40 sec) 
Cycle: 30000000 FTQ IN: 12873343 FTQ occupancy: 10.479 DECODE IN: 12873394 DECODE occupancy: 24.7434 ROB IN: 12873394 ROB occupancy: 183.924 ROB OUT: 12873412
Heartbeat CPU 0 instructions: 80000000 cycles: 37183833 heartbeat IPC: 1.2992 cumulative IPC: 1.29307 (Simulation time: 0 hr 16 min 43 sec) 
Cycle: 40000000 FTQ IN: 12969673 FTQ occupancy: 10.5334 DECODE IN: 12969567 DECODE occupancy: 25.2665 ROB IN: 12969507 ROB occupancy: 189.264 ROB OUT: 12969308
Heartbeat CPU 0 instructions: 90000003 cycles: 44902835 heartbeat IPC: 1.2955 cumulative IPC: 1.29368 (Simulation time: 0 hr 18 min 57 sec) 
Cycle: 50000000 FTQ IN: 12886920 FTQ occupancy: 10.6262 DECODE IN: 12886999 DECODE occupancy: 25.2601 ROB IN: 12887059 ROB occupancy: 187.797 ROB OUT: 12887134
Heartbeat CPU 0 instructions: 100000000 cycles: 52670806 heartbeat IPC: 1.28734 cumulative IPC: 1.2924 (Simulation time: 0 hr 21 min 6 sec) 
Finished CPU 0 instructions: 50000002 cycles: 38687584 cumulative IPC: 1.2924 (Simulation time: 0 hr 21 min 6 sec) 

ChampSim completed all CPUs

Region of Interest Statistics

CPU 0 cumulative IPC: 1.2924 instructions: 50000002 cycles: 38687584
 Fetch stage stalled: 59.7976  Sim cycles: 38687584 fetch stall cycle: 23134262
 Empty decode stage: 46.0235  Sim cycles: 38687584 fetch stall cycle: 17805390
ITLB TOTAL     ACCESS:    5683296  HIT:    5191354  MISS:     491942  HIT %:    91.3441  MISS %:    8.65593   MPKI: 9.83884
ITLB LOAD TRANSLATION INSTRUCTION	ACCESS:    5557801  HIT:    5065859  MISS:     491942  HIT %:    91.1486  MISS %:    8.85138  MPKI: 9.83884
ITLB TRANSLATION FROM L1D PREFETCHER INSTRUCTION	ACCESS:     125495  HIT:     125495  MISS:          0  HIT %:        100  MISS %:          0  MPKI: 0

ITLB AVERAGE MISS LATENCY: 9.04471 cycles
ITLB RQ	ACCESS:    7648055	FORWARD:          0	MERGED:    1472503	TO_CACHE:    6175552

DTLB TOTAL     ACCESS:    9075594  HIT:    8604777  MISS:     470817  HIT %:    94.8123  MISS %:    5.18773   MPKI: 9.41634
DTLB LOAD TRANSLATION DATA	ACCESS:    9075594  HIT:    8604777  MISS:     470817  HIT %:    94.8123  MISS %:    5.18773  MPKI: 9.41634

DTLB AVERAGE MISS LATENCY: 9.31826 cycles
DTLB RQ	ACCESS:   13414912	FORWARD:          0	MERGED:    4304293	TO_CACHE:    9110619

STLB TOTAL     ACCESS:    1211442  HIT:    1209387  MISS:       2055  HIT %:    99.8304  MISS %:   0.169633   MPKI: 0.0411
STLB LOAD TRANSLATION INSTRUCTION	ACCESS:     491942  HIT:     491721  MISS:        221  HIT %:    99.9551  MISS %:   0.044924  MPKI: 0.00442
STLB LOAD TRANSLATION DATA	ACCESS:     470736  HIT:     468931  MISS:       1805  HIT %:    99.6166  MISS %:   0.383442  MPKI: 0.0361
STLB TRANSLATION FROM L1D PREFETCHER DATA	ACCESS:     248764  HIT:     248735  MISS:         29  HIT %:    99.9883  MISS %:  0.0116576  MPKI: 0.00058

STLB AVERAGE MISS LATENCY: 70.6131 cycles
STLB RQ	ACCESS:    1332666	FORWARD:          0	MERGED:     121185	TO_CACHE:    1211481

STLB Hit, L1D data hit: 0
STLB Hit, L2C data hit: 0
STLB Hit, LLC data hit: 0
STLB Hit, LLC data miss: 0
STLB STLB hints to L2: 0
L1D TOTAL     ACCESS:   13175551  HIT:   12067519  MISS:    1108032  HIT %:    91.5902  MISS %:    8.40976   MPKI: 22.1606
L1D LOAD DATA	ACCESS:    6631542  HIT:    5899973  MISS:     731569  HIT %:    88.9683  MISS %:    11.0317  MPKI: 14.6314
L1D RFO DATA	ACCESS:    6215527  HIT:    5931774  MISS:     283753  HIT %:    95.4348  MISS %:    4.56523  MPKI: 5.67506
L1D PREFETCH DATA	ACCESS:     328482  HIT:     235772  MISS:      92710  HIT %:    71.7762  MISS %:    28.2238  MPKI: 1.8542

L1D PREFETCH  REQUESTED:     740158  ISSUED:     740158  USEFUL:      33382  USELESS:      68314
L1D USEFUL LOAD PREFETCHES:      33382 PREFETCH ISSUED TO LOWER LEVEL:     101708  ACCURACY: 32.8214
 TIMELY PREFETCHES:      33382 LATE PREFETCHES: 8984 DROPPED PREFETCHES: 11
L1D AVERAGE MISS LATENCY: 274522 cycles
L1D RQ	ACCESS:   10746976	FORWARD:          0	MERGED:    3917114	TO_CACHE:    6663310
L1D WQ	ACCESS:    6939794	FORWARD:     166896	MERGED:     188192	TO_CACHE:    6751602
L1D PQ	ACCESS:     370251	FORWARD:          0	MERGED:          0	TO_CACHE:     369907

L1D UNIQUE REGIONS ACCESSED: 0
L1D REGIONS CONFLICTS: 0
L1D Cross Page Prefetch Requests: 7002
L1D Same Page Prefetch Requests: 748836
L1D ROI Sum of L1D PQ occupancy: 4697030
L1D PREFETCHES PUSHED FROM L2C: 0
L1I TOTAL     ACCESS:    6987608  HIT:    4234203  MISS:    2753405  HIT %:    60.5959  MISS %:    39.4041   MPKI: 55.0681
L1I LOAD INSTRUCTION	ACCESS:    6401070  HIT:    3647665  MISS:    2753405  HIT %:    56.9852  MISS %:    43.0148  MPKI: 55.0681
L1I PREFETCH INSTRUCTION	ACCESS:     586538  HIT:     586538  MISS:          0  HIT %:        100  MISS %:          0  MPKI: 0

L1I PREFETCH  REQUESTED:    1368336  ISSUED:    1368336  USEFUL:          0  USELESS:          0
L1I USEFUL LOAD PREFETCHES:          0 PREFETCH ISSUED TO LOWER LEVEL:          0  ACCURACY: -nan
 TIMELY PREFETCHES:          0 LATE PREFETCHES: 0 DROPPED PREFETCHES: 0
L1I AVERAGE MISS LATENCY: 17.4712 cycles
L1I RQ	ACCESS:    9502754	FORWARD:          0	MERGED:    2835988	TO_CACHE:    6666766
L1I PQ	ACCESS:    1368336	FORWARD:          0	MERGED:     387047	TO_CACHE:     981289

L1BTB TOTAL     ACCESS:    5671569  HIT:    2051286  MISS:    3620283  HIT %:    36.1679  MISS %:    63.8321   MPKI: 72.4057
L1BTB BRANCH_DIRECT_JUMP	ACCESS:     548241 HIT:     145576 MISS:     402665 AVERAGE STALL: 42.8174 AVERAGE FETCH STALL: 19.2795 AVERAGE FETCH QUEUE STALL: 11.0918 AVERAGE DECODE STALL: 11.6122 AVERAGE EXECUTE STALL: 6.23432e+14
L1BTB BRANCH_INDIRECT	ACCESS:     182975 HIT:      66129 MISS:     116846 AVERAGE STALL: 101.571 AVERAGE FETCH STALL: 12.4892 AVERAGE FETCH QUEUE STALL: 15.301 AVERAGE DECODE STALL: 10.9084 AVERAGE EXECUTE STALL: 61.9342
L1BTB BRANCH_CONDITIONAL	ACCESS:    2709320 HIT:    1419497 MISS:    1289823 AVERAGE STALL: 46.5504 AVERAGE FETCH STALL: 23.2293 AVERAGE FETCH QUEUE STALL: 12.5014 AVERAGE DECODE STALL: 10.0565 AVERAGE EXECUTE STALL: 2.5774e+14
L1BTB BRANCH_DIRECT_CALL	ACCESS:     943740 HIT:     106504 MISS:     837236 AVERAGE STALL: 44.3027 AVERAGE FETCH STALL: 22.3309 AVERAGE FETCH QUEUE STALL: 11.6645 AVERAGE DECODE STALL: 9.56047 AVERAGE EXECUTE STALL: 3.48776e+14
L1BTB BRANCH_INDIRECT_CALL	ACCESS:     171781 HIT:      21714 MISS:     150067 AVERAGE STALL: 121.231 AVERAGE FETCH STALL: 14.4081 AVERAGE FETCH QUEUE STALL: 11.1403 AVERAGE DECODE STALL: 8.74773 AVERAGE EXECUTE STALL: 86.4115
L1BTB BRANCH_RETURN	ACCESS:    1115512 HIT:     291866 MISS:     823646 AVERAGE STALL: 43.6622 AVERAGE FETCH STALL: 18.8796 AVERAGE FETCH QUEUE STALL: 7.27647 AVERAGE DECODE STALL: 6.63744 AVERAGE EXECUTE STALL: 2.65295e+14
L1BTB BRANCH_OTHER ACCESS:          0 HIT:          0 MISS:          0 AVERAGE STALL: -nan AVERAGE FETCH STALL: -nan AVERAGE FETCH QUEUE STALL: -nan AVERAGE DECODE STALL: -nan AVERAGE EXECUTE STALL: -nan
L1BTB TOTAL ROB OCCUPANCY AT BTB MISS: 9.56193

L2BTB TOTAL     ACCESS:    3594869  HIT:    3356552  MISS:     238317  HIT %:    93.3706  MISS %:    6.62937   MPKI: 4.76634
L2BTB BRANCH_DIRECT_JUMP	ACCESS:     398466 HIT:     373066 MISS:      25400 AVERAGE STALL: 42.8174 AVERAGE FETCH STALL: 19.2795 AVERAGE FETCH QUEUE STALL: 11.0918 AVERAGE DECODE STALL: 11.6122 AVERAGE EXECUTE STALL: 6.23432e+14
L2BTB BRANCH_INDIRECT	ACCESS:     106615 HIT:     102014 MISS:       4601 AVERAGE STALL: 101.571 AVERAGE FETCH STALL: 12.4892 AVERAGE FETCH QUEUE STALL: 15.301 AVERAGE DECODE STALL: 10.9084 AVERAGE EXECUTE STALL: 61.9342
L2BTB BRANCH_CONDITIONAL	ACCESS:    1289823 HIT:    1217885 MISS:      71938 AVERAGE STALL: 46.5504 AVERAGE FETCH STALL: 23.2293 AVERAGE FETCH QUEUE STALL: 12.5014 AVERAGE DECODE STALL: 10.0565 AVERAGE EXECUTE STALL: 2.5774e+14
L2BTB BRANCH_DIRECT_CALL	ACCESS:     837236 HIT:     784322 MISS:      52914 AVERAGE STALL: 44.3027 AVERAGE FETCH STALL: 22.3309 AVERAGE FETCH QUEUE STALL: 11.6645 AVERAGE DECODE STALL: 9.56047 AVERAGE EXECUTE STALL: 3.48776e+14
L2BTB BRANCH_INDIRECT_CALL	ACCESS:     140488 HIT:     125184 MISS:      15304 AVERAGE STALL: 121.231 AVERAGE FETCH STALL: 14.4081 AVERAGE FETCH QUEUE STALL: 11.1403 AVERAGE DECODE STALL: 8.74773 AVERAGE EXECUTE STALL: 86.4115
L2BTB BRANCH_RETURN	ACCESS:     822241 HIT:     754081 MISS:      68160 AVERAGE STALL: 43.6622 AVERAGE FETCH STALL: 18.8796 AVERAGE FETCH QUEUE STALL: 7.27647 AVERAGE DECODE STALL: 6.63744 AVERAGE EXECUTE STALL: 2.65295e+14
L2BTB BRANCH_OTHER ACCESS:          0 HIT:          0 MISS:          0 AVERAGE STALL: -nan AVERAGE FETCH STALL: -nan AVERAGE FETCH QUEUE STALL: -nan AVERAGE DECODE STALL: -nan AVERAGE EXECUTE STALL: -nan
L2BTB TOTAL ROB OCCUPANCY AT BTB MISS: 145.256

L2C TOTAL     ACCESS:    4469578  HIT:    3970365  MISS:     499213  HIT %:    88.8309  MISS %:    11.1691   MPKI: 9.98426
L2C LOAD INSTRUCTION	ACCESS:    2753407  HIT:    2474647  MISS:     278760  HIT %:    89.8758  MISS %:    10.1242  MPKI: 5.5752
L2C LOAD TRANSLATION INSTRUCTION	ACCESS:        253  HIT:         62  MISS:        191  HIT %:    24.5059  MISS %:    75.4941  MPKI: 0.00382
L2C LOAD DATA	ACCESS:     722572  HIT:     639320  MISS:      83252  HIT %:    88.4784  MISS %:    11.5216  MPKI: 1.66504
L2C RFO DATA	ACCESS:     283698  HIT:     236215  MISS:      47483  HIT %:    83.2628  MISS %:    16.7372  MPKI: 0.94966
L2C PREFETCH DATA	ACCESS:     190301  HIT:     115653  MISS:      74648  HIT %:    60.7737  MISS %:    39.2263  MPKI: 1.49296
L2C WRITEBACK DATA	ACCESS:     517420  HIT:     503928  MISS:      13492  HIT %:    97.3924  MISS %:    2.60755  MPKI: 0.26984
L2C LOAD TRANSLATION DATA	ACCESS:       1871  HIT:        505  MISS:       1366  HIT %:    26.9909  MISS %:    73.0091  MPKI: 0.02732
L2C TRANSLATION FROM L1D PREFETCHER DATA	ACCESS:         56  HIT:         35  MISS:         21  HIT %:       62.5  MISS %:       37.5  MPKI: 0.00042

L2C PREFETCH  REQUESTED:      96733  ISSUED:      96733  USEFUL:       8463  USELESS:      66516
L2C USEFUL LOAD PREFETCHES:       8463 PREFETCH ISSUED TO LOWER LEVEL:      75165  ACCURACY: 11.2592
 TIMELY PREFETCHES:       8463 LATE PREFETCHES: 517 DROPPED PREFETCHES: 0
L2C AVERAGE MISS LATENCY: 37.9047 cycles
L2C RQ	ACCESS:    3761913	FORWARD:          0	MERGED:          0	TO_CACHE:    3761859
L2C WQ	ACCESS:     517420	FORWARD:         54	MERGED:          0	TO_CACHE:     517420
L2C PQ	ACCESS:     198441	FORWARD:          0	MERGED:       3836	TO_CACHE:     194605

L2C Dense regions hint from L2: 0
PSCL5 TOTAL     ACCESS:       4140  HIT:       2070  MISS:       2070  HIT %:         50  MISS %:         50   MPKI: 0.0414
PSCL5 LOAD TRANSLATION INSTRUCTION	ACCESS:       4028  HIT:       2014  MISS:       2014  HIT %:         50  MISS %:         50  MPKI: 0.04028
PSCL5 TRANSLATION FROM L1D PREFETCHER INSTRUCTION	ACCESS:        112  HIT:         56  MISS:         56  HIT %:         50  MISS %:         50  MPKI: 0.00112


PSCL4 TOTAL     ACCESS:       3538  HIT:       1767  MISS:       1771  HIT %:    49.9435  MISS %:    50.0565   MPKI: 0.03542
PSCL4 LOAD TRANSLATION INSTRUCTION	ACCESS:       1904  HIT:       1716  MISS:        188  HIT %:    90.1261  MISS %:    9.87395  MPKI: 0.00376
PSCL4 TRANSLATION FROM L1D PREFETCHER INSTRUCTION	ACCESS:         51  HIT:         51  MISS:          0  HIT %:        100  MISS %:          0  MPKI: 0
PSCL4 LOAD TRANSLATION DATA	ACCESS:       1532  HIT:          0  MISS:       1532  HIT %:          0  MISS %:        100  MPKI: 0.03064
PSCL4 TRANSLATION FROM L1D PREFETCHER DATA	ACCESS:         51  HIT:          0  MISS:         51  HIT %:          0  MISS %:        100  MPKI: 0.00102


PSCL3 TOTAL     ACCESS:       4096  HIT:       2044  MISS:       2052  HIT %:    49.9023  MISS %:    50.0977   MPKI: 0.04104
PSCL3 LOAD TRANSLATION INSTRUCTION	ACCESS:       2327  HIT:       1994  MISS:        333  HIT %:    85.6897  MISS %:    14.3103  MPKI: 0.00666
PSCL3 TRANSLATION FROM L1D PREFETCHER INSTRUCTION	ACCESS:         55  HIT:         50  MISS:          5  HIT %:    90.9091  MISS %:    9.09091  MPKI: 0.0001
PSCL3 LOAD TRANSLATION DATA	ACCESS:       1669  HIT:          0  MISS:       1669  HIT %:          0  MISS %:        100  MPKI: 0.03338
PSCL3 TRANSLATION FROM L1D PREFETCHER DATA	ACCESS:         45  HIT:          0  MISS:         45  HIT %:          0  MISS %:        100  MPKI: 0.0009


PSCL2 TOTAL     ACCESS:       4041  HIT:       1971  MISS:       2070  HIT %:    48.7751  MISS %:    51.2249   MPKI: 0.0414
PSCL2 LOAD TRANSLATION INSTRUCTION	ACCESS:       2136  HIT:       1915  MISS:        221  HIT %:    89.6536  MISS %:    10.3464  MPKI: 0.00442
PSCL2 TRANSLATION FROM L1D PREFETCHER INSTRUCTION	ACCESS:         56  HIT:         56  MISS:          0  HIT %:        100  MISS %:          0  MPKI: 0
PSCL2 LOAD TRANSLATION DATA	ACCESS:       1793  HIT:          0  MISS:       1793  HIT %:          0  MISS %:        100  MPKI: 0.03586
PSCL2 TRANSLATION FROM L1D PREFETCHER DATA	ACCESS:         56  HIT:          0  MISS:         56  HIT %:          0  MISS %:        100  MPKI: 0.00112


LLC TOTAL     ACCESS:     557863  HIT:     529972  MISS:      27891  HIT %:    95.0004  MISS %:    4.99961   MPKI: 0.55782
LLC LOAD INSTRUCTION	ACCESS:     278760  HIT:     277951  MISS:        809  HIT %:    99.7098  MISS %:   0.290214  MPKI: 0.01618
LLC LOAD TRANSLATION INSTRUCTION	ACCESS:        191  HIT:        172  MISS:         19  HIT %:    90.0524  MISS %:    9.94764  MPKI: 0.00038
LLC LOAD DATA	ACCESS:      82747  HIT:      79271  MISS:       3476  HIT %:    95.7992  MISS %:    4.20076  MPKI: 0.06952
LLC RFO DATA	ACCESS:      47463  HIT:      34046  MISS:      13417  HIT %:    71.7317  MISS %:    28.2683  MPKI: 0.26834
LLC PREFETCH DATA	ACCESS:      75165  HIT:      65418  MISS:       9747  HIT %:    87.0325  MISS %:    12.9675  MPKI: 0.19494
LLC WRITEBACK DATA	ACCESS:      72150  HIT:      71797  MISS:        353  HIT %:    99.5107  MISS %:   0.489258  MPKI: 0.00706
LLC LOAD TRANSLATION DATA	ACCESS:       1366  HIT:       1296  MISS:         70  HIT %:    94.8755  MISS %:    5.12445  MPKI: 0.0014
LLC TRANSLATION FROM L1D PREFETCHER DATA	ACCESS:         21  HIT:         21  MISS:          0  HIT %:        100  MISS %:          0  MPKI: 0

LLC AVERAGE MISS LATENCY: 154.597 cycles
LLC RQ	ACCESS:     410556	FORWARD:          0	MERGED:          0	TO_CACHE:     410548
LLC WQ	ACCESS:      72150	FORWARD:          8	MERGED:          0	TO_CACHE:      72150
LLC PQ	ACCESS:      75165	FORWARD:          0	MERGED:          0	TO_CACHE:      75165

LLC Dense regions hint to LLC: 0

RAW hits: 1883616
Loads Generated: 12630592
Loads sent to L1D: 10746976
Stores Generated: 6939769
Stores sent to L1D: 6939794
Major fault: 0 Minor fault: 2613
Allocated PAGES: 2613

stream: 
stream:times selected: 1185565
stream:pref_filled: 122252
stream:pref_useful: 23906
stream:pref_late: 6958
stream:misses: 7971
stream:misses_by_poll: 0

CS: 
CS:times selected: 178408
CS:pref_filled: 58096
CS:pref_useful: 34750
CS:pref_late: 8025
CS:misses: 17062
CS:misses_by_poll: 5

CPLX: 
CPLX:times selected: 1005974
CPLX:pref_filled: 19304
CPLX:pref_useful: 4525
CPLX:pref_late: 3155
CPLX:misses: 93077
CPLX:misses_by_poll: 4

NL_L1: 
NL:times selected: 20689
NL:pref_filled: 781
NL:pref_useful: 392
NL:pref_late: 265
NL:misses: 1633
NL:misses_by_poll: 0

total selections: 2390636
total_filled: 92710
total_useful: 33382
total_late: 19691
total_polluted: 9
total_misses_after_warmup: 763336
conflicts: 5553325

test: 119029

DRAM Statistics
 CHANNEL 0
 RQ ROW_BUFFER_HIT:      10148  ROW_BUFFER_MISS:      17387
 DBUS_CONGESTED:         10
 WQ ROW_BUFFER_HIT:       1293  ROW_BUFFER_MISS:      12201  FULL:          0

 AVG_CONGESTED_CYCLE: 5

CPU 0 Branch Prediction Accuracy: 99.8243% MPKI: 0.32138 Average ROB Occupancy at Mispredict: 171.609
Branch types
NOT_BRANCH: 40855538 81.7111%
BRANCH_DIRECT_JUMP: 548241 1.09648%
BRANCH_INDIRECT: 182975 0.36595%
BRANCH_CONDITIONAL: 6181916 12.3638%
BRANCH_DIRECT_CALL: 943740 1.88748%
BRANCH_INDIRECT_CALL: 171781 0.343562%
BRANCH_RETURN: 1115512 2.23102%
BRANCH_OTHER: 0 0%

DRAM PAGES: 1048576
Allocated PAGES: 2613
Average_ROB_Occupancy: 187.999
Average_Decode_Occupancy: 25.0215
Average_FTQ_Occupancy: 10.5107
Indirect max targets: 14 Average targets: 1.17778
Branch_type:  BRANCH_DIRECT_JUMP:  Count Percentage: 3.31248 6.93432 3.73607 7.44146 3.32627 6.33076 1.19325 67.7254 
Branch_type:  BRANCH_INDIRECT:  Count Percentage: 6.11677 3.44544 8.16253 9.69241 3.34259 2.80619 0.935213 65.4989 
Branch_type:  BRANCH_CONDITIONAL:  Count Percentage: 21.145 3.9364 1.46678 7.22074 2.64885 3.57189 0.455766 59.5546 
Branch_type:  BRANCH_DIRECT_CALL:  Count Percentage: 0.879085 1.2622 0.746208 3.72522 3.22427 2.61337 0.618257 86.9314 
Branch_type:  BRANCH_INDIRECT_CALL:  Count Percentage: 9.51868 0 2.98318 0.00087338 1.32288 1.70746 0.995362 83.4716 
Branch_type:  BRANCH_RETURN:  Count Percentage: 4.70808 4.7879 1.03126 3.67373 4.23133 3.48933 0.375077 77.7033 
Branch_type:  BRANCH_DIRECT_JUMP:  Total Count: 36277 75942 40916 81496 36428 69332 13068 741702 
Branch_type:  BRANCH_INDIRECT:  Total Count: 22362 12596 29841 35434 12220 10259 3419 239454 
Branch_type:  BRANCH_CONDITIONAL:  Total Count: 2612468 486343 181221 892125 327266 441308 56310 7357989 
Branch_type:  BRANCH_DIRECT_CALL:  Total Count: 16599 23833 14090 70340 60881 49346 11674 1641450 
Branch_type:  BRANCH_INDIRECT_CALL:  Total Count: 32696 0 10247 3 4544 5865 3419 286719 
Branch_type:  BRANCH_RETURN:  Total Count: 105113 106895 23024 82020 94469 77903 8374 1734809 
Number of unique branch instructions: 10884
Upper 32 bits: 
aaaa
ffff
ffff0000
Unique upper 32 bits: 3
Unique upper 36 bits: 3
Unique upper 40 bits: 5
Unique upper 44 bits: 32
Unique upper 48 bits: 158
Offset_3 4498
Offset_4 263
Offset_5 490
Offset_6 552
Offset_7 644
Offset_8 590
Offset_9 528
Offset_10 432
Offset_11 354
Offset_12 327
Offset_13 240
Offset_14 247
Offset_15 203
Offset_16 233
Offset_17 173
Offset_18 155
Offset_19 267
Offset_20 145
Offset_21 235
Offset_22 416
Offset_23 241
Offset_24 347
Offset_25 117
Offset_47 92
Offset_64 1
decode_dispatch_called: 22509281 58.1822
Dispatch_width: 0 11769757 52.2885 30.4226
Dispatch_width: 1 698450 3.10294 1.80536
Dispatch_width: 2 701687 3.11732 1.81373
Dispatch_width: 3 420431 1.86781 1.08673
Dispatch_width: 4 3331962 14.8026 8.61248
Dispatch_width: 5 213197 0.947152 0.551073
Dispatch_width: 6 5373797 23.8737 13.8902
Empty_decode_cycles: 16178303 41.8178
ROB_full_cycles: 5402897 13.9655
Starvation_cycles_per_kilo_instr: 279.109
Starvation_cycles_per_kilo_instr_3: 243.657
Starvation_cycles_per_kilo_instr_0: 225.452
Branch_type_1  (3,1)  (4,9)  (5,39)  (6,76)  (7,126)  (8,152)  (9,139)  (10,110)  (11,78)  (12,55)  (13,11)  (14,2)  (15,3)  (16,4)  (18,1)  (19,5)  (20,2)  (21,1)  (22,3)  (23,2)  (24,10)  (25,12) 
Branch_type_2  (3,1)  (4,1)  (5,1)  (8,4)  (9,4)  (10,1)  (12,1)  (13,1)  (14,1)  (16,3)  (17,2)  (20,2)  (21,2)  (23,5)  (24,1)  (47,41) 
Branch_type_3  (3,4496)  (4,253)  (5,446)  (6,459)  (7,486)  (8,365)  (9,288)  (10,176)  (11,140)  (12,62)  (13,10)  (64,1) 
Branch_type_4  (6,4)  (7,8)  (8,26)  (9,58)  (10,69)  (11,70)  (12,117)  (13,102)  (14,112)  (15,97)  (16,104)  (17,80)  (18,68)  (19,129)  (20,74)  (21,124)  (22,220)  (23,136)  (24,202)  (25,101) 
Branch_type_5  (8,3)  (9,1)  (10,4)  (11,5)  (12,3)  (13,14)  (14,16)  (15,11)  (16,22)  (17,13)  (18,23)  (19,14)  (20,11)  (21,13)  (22,43)  (23,26)  (24,38) 
Branch_type_6  (5,4)  (6,13)  (7,24)  (8,40)  (9,38)  (10,72)  (11,61)  (12,89)  (13,102)  (14,116)  (15,92)  (16,100)  (17,78)  (18,63)  (19,119)  (20,56)  (21,95)  (22,150)  (23,72)  (24,96)  (25,4)  (47,51) 
aaaaab1fc620: 2ac9e77e 2aca717c 2aca8eff 2acaf6bc 2acaf9aa 2acaf9f1 2acb1abc 2acb1b7f 2acd4e22 2acdb712 2acf5f9e 2ad0ef44 2ad3f15c 2ad414e6 2ad60e42 2ad8609c 2ad99830 2ada35cc 2ada4676 2ada6612 2adf183e 2adf30e5 2adf5602 2adf785c 2ae11572 2aeb2dcf 2aee101b 2aee1ae1 2b156a8c 2b156b61 2b156bea 2b167f35 2b177656 2b17feec 2b1a3e5a 
aaaaab1fc640: 2ac9ec07 2aca656e 2aca801d 2acaea11 2acaee73 2acb13ee 2acb1470 2acd462b 2ad0ef5d 2ad3f3fe 2ad86e9b 2ada1641 2ada4115 2ada6638 2adf30d4 2ae12e57 2aee1033 2b1693ab 2b16948c 2b169491 2b17d915 2b17fa85 2b17fccd 
aaaaab1fcb00: 2acf2d72 2acf3734 2acf604c 2acfa5b7 2ad397b5 2ad3b800 2ae8af7d 2ae8aff0 2ae9aaba 2aea9fc6 2aeaa358 2aee910b 2aee91cf 2aee928e 2aee92e4 2af6fe87 2af70dfe 2b16850c 2b16c4a2 2b1765f4 2b178094 2b17d925 2b17db06 2b17ec8f 
aaaaab1fcb10: 2acf2d95 2acf3758 2acf6052 2acfa5f4 2ad397c3 2ad3b81c 2ae8af88 2ae8affe 2ae9aacf 2aeaa017 2aeaa36d 2aee9114 2aee91d8 2aee934d 2aee9353 2af6fe8c 2af70e22 2b168526 2b16c542 2b176609 2b1780a3 2b17d95d 2b17db44 2b17ecac 
aaaaac68f310: 2ac9ec8c 2ac9fb44 2ac9fbd2 2aca59ab 2acac04c 2acaf6e0 2acaf6ec 2acaf6f9 2acaf700 2acaf708 2acf2d90 2ad3cfbd 2ad3cfc4 2ad3d000 2ad3f35f 2ad4955d 2ad49571 2ad4f3f2 2ad4f400 2ad5f240 2ad5f37c 2ad5f86a 2ad5f86f 2ad5f880 2ad5fc0d 2ad5fc14 2ad5fc21 2ad5fe1b 2ad873bb 2ad873e3 2ad8a6b2 2ad9086e 2ad93096 2ad9bbb2 2ada152c 2ada1554 2ada3332 2ada5522 2adf3130 2adf313c 2adf3a3f 2adf3bd9 2adf5788 2adf7a8d 2ae07f6b 2ae0857a 2ae0857e 2ae08630 2ae08634 2ae08637 2ae08642 2ae0866f 2ae086e4 2ae086ec 2ae08717 2ae0871b 2aee0170 2aee1d38 2aee75f4 2aee7662 2aee85ca 2aee85e4 2aee8eef 2af70b84 2af74e8f 2b17d843 
aaaaac690ef0: 2aca598b 2acb111b 2acb175f 2acb1772 2acbfaf4 2acbfb00 2acf374f 2acf6d43 2acfa5c8 2ad3baf1 2ad3d4ac 2ad3d4b8 2ad3f1cf 2ad486b2 2ad5a59b 2ad5fc64 2ad5fcf9 2ad6121c 2ad906e9 2ad907bf 2ad9bada 2ada16ce 2ada1ad5 2ada43df 2ada64c0 2ada72ee 2adeb71a 2adf3bcb 2adf7a38 2adf7c6a 2adf8872 2adf8880 2adf9959 2adf9abe 2ae07f78 2ae08503 2ae08754 2ae12e80 2aea3bea 2aecb509 2aee00b0 2aee2bdd 2aee5467 2aee5601 2aee8f20 2af703fd 2af7048b 2af74e74 
Unique trigger count: 
1 10357
2 573
3 97
4 31
5 13
6 13
7 7
8 2
9 3
10 3
11 1
12 1
13 1
14 3
16 2
19 2
23 1
24 2
35 1
48 1
66 1
BTB PER SET UNIQUE ADDR: 6 7 6 5 3 4 7 9 10 2 5 2 8 5 4 4 6 4 8 9 6 8 8 8 8 11 2 7 6 7 10 10 6 5 8 4 4 7 8 3 8 5 7 10 9 9 6 12 11 6 5 3 13 2 2 7 5 5 9 8 4 11 5 8 6 10 8 9 6 7 6 2 6 5 6 7 6 15 6 5 9 6 7 6 6 8 7 8 8 11 10 9 9 6 8 5 11 8 5 6 8 7 9 9 7 8 8 8 7 5 7 7 4 8 6 11 3 8 6 2 8 9 4 3 6 4 4 7 11 9 11 3 11 6 9 7 5 3 6 8 8 8 7 6 5 11 5 8 12 7 7 14 6 10 6 9 8 9 8 11 11 8 11 5 12 8 3 4 13 7 6 4 8 7 4 3 6 8 10 5 6 8 10 8 9 12 6 7 6 8 6 8 6 7 6 10 12 4 11 6 4 6 9 4 8 4 5 8 7 2 3 6 9 9 7 6 4 9 8 6 6 4 6 7 7 8 14 7 3 11 14 9 4 5 7 9 11 6 4 5 5 3 11 8 16 11 2 7 6 7 9 10 6 7 5 13 4 8 10 6 8 5 7 4 9 16 7 5 7 5 7 7 4 9 11 9 8 4 4 8 8 5 10 5 9 9 8 7 8 4 5 7 4 12 7 4 6 10 6 6 6 6 5 4 7 5 6 4 13 10 7 4 8 4 6 5 10 14 7 6 7 10 5 9 5 6 6 10 3 3 9 2 6 7 10 5 8 9 8 1 6 6 2 9 7 7 3 10 11 6 5 13 11 6 8 7 7 2 8 5 7 11 6 8 11 8 4 4 4 5 8 4 7 5 8 4 11 8 7 10 10 7 7 13 6 5 8 5 8 4 9 6 8 4 7 4 5 5 2 10 7 5 7 7 5 6 8 5 4 3 5 4 11 7 2 6 10 4 2 7 2 6 7 8 11 9 5 2 4 9 3 4 15 5 8 10 6 6 7 4 5 6 10 3 7 9 6 6 5 5 6 3 5 3 9 3 6 7 10 6 5 4 6 12 6 5 13 3 6 7 2 6 10 8 5 3 10 5 3 3 5 2 3 4 3 7 8 4 7 2 13 5 4 8 3 12 4 7 5 5 11 3 5 3 3 5 5 3 5 6 9 4 8 11 3 4 2 10 6 9 7 5 8 6 11 9 6 10 9 8 8 6 6 8 5 7 7 1 6 4 5 8 11 4 9 5 10 14 14 11 7 8 7 7 2 6 9 3 7 4 10 5 9 5 5 6 10 9 11 7 8 4 11 12 7 7 7 12 3 9 13 5 2 6 5 3 3 14 7 5 8 8 4 7 5 5 9 6 7 6 13 6 11 12 9 5 5 9 8 5 8 8 7 7 8 5 7 5 5 7 9 7 11 4 5 11 8 8 4 6 8 7 8 7 7 8 6 7 6 4 11 8 4 6 3 3 7 8 8 8 8 5 11 3 5 3 11 5 6 8 13 3 6 11 7 8 7 6 6 11 7 8 6 9 12 10 8 6 7 6 9 12 9 6 9 8 7 9 8 6 3 8 3 5 5 7 10 7 7 9 3 11 5 6 7 12 4 4 5 5 7 8 7 6 5 7 12 6 1 8 5 3 5 4 4 3 4 9 2 11 8 12 8 3 7 8 11 3 7 5 5 9 5 10 4 5 6 4 7 7 8 3 5 7 2 5 5 10 10 4 5 7 6 7 7 6 14 6 6 3 9 7 0 5 7 5 6 10 4 3 8 6 4 6 10 9 9 8 3 9 4 9 6 7 6 13 12 5 6 4 13 4 9 4 8 7 7 9 5 7 3 5 6 5 5 7 1 5 5 10 7 4 9 4 5 6 6 4 7 6 7 3 7 4 10 5 4 5 6 5 5 5 7 6 5 9 9 6 7 4 8 8 6 9 6 11 7 5 7 7 7 7 4 4 14 7 6 8 10 10 5 7 6 10 7 2 2 6 8 4 5 7 6 7 10 5 7 5 5 7 9 3 5 8 6 3 9 13 5 3 12 9 4 6 10 7 7 11 6 9 9 7 5 4 3 10 6 7 8 6 9 7 10 6 9 8 7 5 5 12 6 4 11 10 6 8 10 10 4 11 8 9 6 4 6 8 9 8 10 6 9 4 13 8 4 7 9 14 6 9 6 7 10 5 3 9 9 9 10 5 3 6 3 10 13 6 8 5 4 7 13 6 5 6 5 8 4 5 9 8 8 7 7 11 5 11 7 11 5 6 5 5 6 4 7 6 7 6 7 7 9 4 9 7 11 4 9 5 3 8 11 6 14 5 
BTB PER SET COUNT: 6 7 7 5 4 4 7 24 2960 3 5 2 8 5 4 5 6 4 8 1475 6 8 10 8 8 2476 2 7 1470 7 4423 398 6 5 9 6 2931 8 10 3 9 6 10 36 1964 12 6 5419 3208 7 5 3 11711 2 2 7 6 5 12 99 4 2583 5 10 6 1367 8 13 7 7 6 2 6 5 7 7 499 3595 7 5 11 7 7 6 498 8 7 10 8 488 2131 490 32 6 10 7 3450 9 5 6 10 7 16 2196 8 8 8 8 8 5 7 9 4 9 7 4057 3 9 6 2 8 15 4 3 498 4 4 7 1983 13 544 3 5024 6 11 7 5 3 6 8 8 9 7 6 5 23 5 8 3085 7 7 3204 6 3451 6 12 8 12 8 783 1204 8 2962 6 41 1951 3 5 9710 8 6 4 8 145 4 3 6 500 988 5 7 8 19 8 10 1981 6 10 6 8 6 8 7 7 6 36 1000 4 18 6 4 6 9 8 11 4 5 2456 9 2 3 7 14 12 8 6 4 13 8 6 6 4 6 7 7 9 5467 1978 3 3936 8162 13 4 5 10 13 3450 7 4 5 5 3 1491 8 12201 110 2 7 6 7 11 509 6 7 9 2763 4 9 31 6 9 5 7 4 2193 9753 978 6 8 5 7 7 4 14 34 16 8 4 4 9 8 5 23 5 1486 3449 8 7 8 4 5 7 496 2967 7 9 7 4505 6 6 6 7 5 5 8 5 6 4 1500 1488 7 4 8 4 6 6 20 4687 8 7 7 346 6 11 5 6 6 11 4 4 994 2 6 8 994 8 995 12 8 1 6 6 3 994 991 8 3 13 19 6 6 144 21 977 8 8 10 2 8 48 7 24 6 9 38 9 4 4 4 5 10 4 7 5 9 4 4240 8 7 2246 49 7 7 5927 9 5 8 5 8 4 33 7 8 6 7 6 1469 7 4 10 8 5 8 8 5 8 2936 6 4 2318 5 4 532 7 973 6 123 4 2 1439 2 6 7 8 45 15 11 2 4 10 134 4 5683 5 8 2051 8 6 7 4 7 6 16 4 10 15 6 978 5 5 6 3 7 3 366 3 6 7 508 7 989 4 19 62 26 5 1276 3 6 8 2 6 39 502 115 3 20583 6 3 3 5 2 3 496 4 7 274 381 7 2 63 5 5 9 3 2487 4 7 5 5 3927 9 5 3 3 5 7 3 5 6 10 4 9 33 5 4 2 6780 6 501 11 1469 9 448 230 13 6 19 36 8 8 6 6 12 5 499 8 1 6 4 6 8 30 6 10 5 16 4194 4932 4918 7 8 10 8 2 6 988 3 7 4 4317 5 14 5 5 6 43 11 2960 8 8 4 1490 3468 8 8 7 3458 3 30 7125 43 2 7 1470 3 3 5407 9 7 9 8 5 978 976 8 14 6 8 6 24 8 1243 42 13 2955 5 1740 9 6 10 10 7 7 8 5 968 5 5 8 10 749 2961 4 1470 34 8 70 7 6 500 1471 9 8 7 8 8 7 6 4 2480 9 4 6 3 4 8 9 501 9 9 5 1005 3 5 4 2475 5 1481 8 11292 5 7 5791 7 992 2937 992 7 33 500 9 9 12 3942 997 503 6 628 6 10 1449 9 990 14651 992 10 1852 1472 7 5 993 3 5 5 7 2962 7 7 39 3 1983 5 7 172 4436 4 1468 5 1469 206 8 9 7 989 7 1488 772 1 9 6 4 5 4 4 3 4 669 2 3460 9 1251 979 3 10 9 12 4 7 5 7 12 6 6317 4 6 498 4 7 991 9 3 5 560 2 5 5 2973 2477 975 5 7 977 7 7 6 8253 6 7 3 28 8 0 99 8 1469 6 3566 4 3 8 9 4 6 1868 30 28 9 413 15 4 2855 7 8 218 3964 3465 5 6 4 3703 5 207 5 1977 1472 8 24 5 11 3 7 6 483 7 8 1 5 6 1337 9 4 1248 413 6 12 977 4 7 85 7 3 7 4 1144 7 4 5 6 5 199 5 9 1474 5 12 9 6 11 5 8 8 7 11 6 6308 8 5 9 11 7 7 4 4 6294 978 7 994 2467 14 5 7 6 24 7 2 3 8 11 4 5 8 7 7 119 9 7 6 5 8 14 3 5 9 6 4 12 1493 6 3 5517 9 135 41 14 8 7 1858 6 9 102 7 5 4 3 14 6 991 8 6 10 7 65 6 11 9 7 5 5 151 6 497 3451 2454 6 9 4998 1248 5 18 8 16 6 975 6 9 17 257 12 6 16 4 5558 10 4 8 38 4441 11 2710 6 499 2963 6 3 14 24 11 12 5 3 6 3 383 56 6 980 5 5 7 3469 8 497 6 5 9 4 5 10 8 9 9 7 3452 5 55 7 3945 5 8 5 6 6 4 7 7 7 8 7 7 1981 4 2452 379 1235 4 34 7 3 9 1502 8 3958 5 
