
*** ChampSim Multicore Out-of-Order Simulator ***

Warmup Instructions: 50000000
Simulation Instructions: 50000000
Number of CPUs: 1
LLC sets: 2048
LLC ways: 16
Off-chip DRAM Size: 4096 MB Channels: 1 Width: 64-bit Data Rate: 6400 MT/s
CPU 0 runs ./micro_traces/srv274.trace.gz
.gz
ITLB has LRU replacement policy
DTLB has LRU replacement policy
STLB has LRU replacement policy
FDIP Prefetcher at L1I
L1I has LRU replacement policy
L1D has LRU replacement policy
Initialize SRRIP state for L2C
Initialize DRRIP state for LLC
Heartbeat_Variant_0 : 1279 0.156128 per_variant_size: 0 1279 0 0 0 0 0 0 0 
Heartbeat_Variant_1 : 1370 0.167236 per_variant_size: 0 941 429 0 0 0 0 0 0 
Heartbeat_Variant_2 : 1484 0.181152 per_variant_size: 0 831 439 186 28 0 0 0 0 
Heartbeat_Variant_3 : 0 0 per_variant_size: 0 0 0 0 0 0 0 0 0 
Heartbeat_Variant_0_evicts 0 : 7276 1 : 721 2 : 1579 3 : 0 
Heartbeat_Variant_1_evicts 0 : 712 1 : 0 2 : 814 3 : 0 
Heartbeat_Variant_2_evicts 0 : 1486 1 : 646 2 : 0 3 : 0 
Heartbeat_Variant_3_evicts 0 : 0 1 : 0 2 : 0 3 : 0 
Heartbeat CPU 0 instructions: 10000001 cycles: 2796994 heartbeat IPC: 3.57527 cumulative IPC: 3.57527 (Simulation time: 0 hr 1 min 37 sec) 
Heartbeat_Variant_0 : 1319 0.161011 per_variant_size: 0 1319 0 0 0 0 0 0 0 
Heartbeat_Variant_1 : 1415 0.172729 per_variant_size: 0 957 458 0 0 0 0 0 0 
Heartbeat_Variant_2 : 1510 0.184326 per_variant_size: 0 820 450 205 35 0 0 0 0 
Heartbeat_Variant_3 : 0 0 per_variant_size: 0 0 0 0 0 0 0 0 0 
Heartbeat_Variant_0_evicts 0 : 7364 1 : 743 2 : 1539 3 : 0 
Heartbeat_Variant_1_evicts 0 : 721 1 : 0 2 : 679 3 : 0 
Heartbeat_Variant_2_evicts 0 : 1552 1 : 645 2 : 0 3 : 0 
Heartbeat_Variant_3_evicts 0 : 0 1 : 0 2 : 0 3 : 0 
Heartbeat CPU 0 instructions: 20000000 cycles: 5592835 heartbeat IPC: 3.57674 cumulative IPC: 3.576 (Simulation time: 0 hr 3 min 11 sec) 
Heartbeat_Variant_0 : 1362 0.16626 per_variant_size: 0 1362 0 0 0 0 0 0 0 
Heartbeat_Variant_1 : 1460 0.178223 per_variant_size: 0 976 484 0 0 0 0 0 0 
Heartbeat_Variant_2 : 1534 0.187256 per_variant_size: 0 808 467 220 39 0 0 0 0 
Heartbeat_Variant_3 : 0 0 per_variant_size: 0 0 0 0 0 0 0 0 0 
Heartbeat_Variant_0_evicts 0 : 7307 1 : 763 2 : 1510 3 : 0 
Heartbeat_Variant_1_evicts 0 : 775 1 : 0 2 : 654 3 : 0 
Heartbeat_Variant_2_evicts 0 : 1484 1 : 658 2 : 0 3 : 0 
Heartbeat_Variant_3_evicts 0 : 0 1 : 0 2 : 0 3 : 0 
Heartbeat CPU 0 instructions: 30000002 cycles: 8389930 heartbeat IPC: 3.57514 cumulative IPC: 3.57572 (Simulation time: 0 hr 4 min 44 sec) 
Heartbeat_Variant_0 : 1363 0.166382 per_variant_size: 0 1363 0 0 0 0 0 0 0 
Heartbeat_Variant_1 : 1465 0.178833 per_variant_size: 0 982 483 0 0 0 0 0 0 
Heartbeat_Variant_2 : 1529 0.186646 per_variant_size: 0 794 473 224 38 0 0 0 0 
Heartbeat_Variant_3 : 0 0 per_variant_size: 0 0 0 0 0 0 0 0 0 
Heartbeat_Variant_0_evicts 0 : 7207 1 : 765 2 : 1489 3 : 0 
Heartbeat_Variant_1_evicts 0 : 804 1 : 0 2 : 630 3 : 0 
Heartbeat_Variant_2_evicts 0 : 1449 1 : 665 2 : 0 3 : 0 
Heartbeat_Variant_3_evicts 0 : 0 1 : 0 2 : 0 3 : 0 
Heartbeat CPU 0 instructions: 40000002 cycles: 11186638 heartbeat IPC: 3.57563 cumulative IPC: 3.57569 (Simulation time: 0 hr 6 min 19 sec) 
Heartbeat_Variant_0 : 1362 0.16626 per_variant_size: 0 1362 0 0 0 0 0 0 0 
Heartbeat_Variant_1 : 1466 0.178955 per_variant_size: 0 978 488 0 0 0 0 0 0 
Heartbeat_Variant_2 : 1538 0.187744 per_variant_size: 0 795 480 225 38 0 0 0 0 
Heartbeat_Variant_3 : 0 0 per_variant_size: 0 0 0 0 0 0 0 0 0 
Heartbeat_Variant_0_evicts 0 : 7397 1 : 810 2 : 1543 3 : 0 
Heartbeat_Variant_1_evicts 0 : 831 1 : 0 2 : 671 3 : 0 
Heartbeat_Variant_2_evicts 0 : 1526 1 : 692 2 : 0 3 : 0 
Heartbeat_Variant_3_evicts 0 : 0 1 : 0 2 : 0 3 : 0 
Heartbeat CPU 0 instructions: 50000000 cycles: 13983708 heartbeat IPC: 3.57517 cumulative IPC: 3.57559 (Simulation time: 0 hr 7 min 55 sec) 

Warmup complete CPU 0 instructions: 50000004 cycles: 13983709 (Simulation time: 0 hr 7 min 55 sec) 

Cycle: 20000000 FTQ IN: 58105847 FTQ occupancy: 19.1264 DECODE IN: 58105718 DECODE occupancy: 49.59 ROB IN: 58105658 ROB occupancy: 303.925 ROB OUT: 58105308
Heartbeat_Variant_0 : 1366 0.166748 per_variant_size: 0 1366 0 0 0 0 0 0 0 
Heartbeat_Variant_1 : 1468 0.179199 per_variant_size: 0 983 485 0 0 0 0 0 0 
Heartbeat_Variant_2 : 1534 0.187256 per_variant_size: 0 794 478 225 37 0 0 0 0 
Heartbeat_Variant_3 : 0 0 per_variant_size: 0 0 0 0 0 0 0 0 0 
Heartbeat_Variant_0_evicts 0 : 7100 1 : 708 2 : 1454 3 : 0 
Heartbeat_Variant_1_evicts 0 : 780 1 : 0 2 : 550 3 : 0 
Heartbeat_Variant_2_evicts 0 : 1378 1 : 622 2 : 0 3 : 0 
Heartbeat_Variant_3_evicts 0 : 0 1 : 0 2 : 0 3 : 0 
Heartbeat CPU 0 instructions: 60000003 cycles: 21434622 heartbeat IPC: 1.34212 cumulative IPC: 1.34212 (Simulation time: 0 hr 9 min 32 sec) 
Heartbeat_Variant_0 : 1368 0.166992 per_variant_size: 0 1368 0 0 0 0 0 0 0 
Heartbeat_Variant_1 : 1475 0.180054 per_variant_size: 0 986 489 0 0 0 0 0 0 
Heartbeat_Variant_2 : 1538 0.187744 per_variant_size: 0 795 479 226 38 0 0 0 0 
Heartbeat_Variant_3 : 0 0 per_variant_size: 0 0 0 0 0 0 0 0 0 
Heartbeat_Variant_0_evicts 0 : 7349 1 : 788 2 : 1539 3 : 0 
Heartbeat_Variant_1_evicts 0 : 825 1 : 0 2 : 640 3 : 0 
Heartbeat_Variant_2_evicts 0 : 1501 1 : 678 2 : 0 3 : 0 
Heartbeat_Variant_3_evicts 0 : 0 1 : 0 2 : 0 3 : 0 
Heartbeat CPU 0 instructions: 70000000 cycles: 28922640 heartbeat IPC: 1.33547 cumulative IPC: 1.33878 (Simulation time: 0 hr 11 min 13 sec) 
Cycle: 30000000 FTQ IN: 13351819 FTQ occupancy: 10.3431 DECODE IN: 13351932 DECODE occupancy: 25.4379 ROB IN: 13351992 ROB occupancy: 198.341 ROB OUT: 13352338
Heartbeat_Variant_0 : 1374 0.167725 per_variant_size: 0 1374 0 0 0 0 0 0 0 
Heartbeat_Variant_1 : 1488 0.181641 per_variant_size: 0 997 491 0 0 0 0 0 0 
Heartbeat_Variant_2 : 1543 0.188354 per_variant_size: 0 802 478 223 40 0 0 0 0 
Heartbeat_Variant_3 : 0 0 per_variant_size: 0 0 0 0 0 0 0 0 0 
Heartbeat_Variant_0_evicts 0 : 7525 1 : 822 2 : 1543 3 : 0 
Heartbeat_Variant_1_evicts 0 : 808 1 : 0 2 : 710 3 : 0 
Heartbeat_Variant_2_evicts 0 : 1556 1 : 691 2 : 0 3 : 0 
Heartbeat_Variant_3_evicts 0 : 0 1 : 0 2 : 0 3 : 0 
Heartbeat CPU 0 instructions: 80000000 cycles: 36408896 heartbeat IPC: 1.33578 cumulative IPC: 1.33778 (Simulation time: 0 hr 12 min 53 sec) 
Cycle: 40000000 FTQ IN: 13331184 FTQ occupancy: 10.3458 DECODE IN: 13331161 DECODE occupancy: 25.3951 ROB IN: 13331161 ROB occupancy: 195.753 ROB OUT: 13331033
Heartbeat_Variant_0 : 1450 0.177002 per_variant_size: 0 1450 0 0 0 0 0 0 0 
Heartbeat_Variant_1 : 1612 0.196777 per_variant_size: 0 1038 574 0 0 0 0 0 0 
Heartbeat_Variant_2 : 1589 0.19397 per_variant_size: 0 776 519 246 48 0 0 0 0 
Heartbeat_Variant_3 : 0 0 per_variant_size: 0 0 0 0 0 0 0 0 0 
Heartbeat_Variant_0_evicts 0 : 7311 1 : 781 2 : 1508 3 : 0 
Heartbeat_Variant_1_evicts 0 : 796 1 : 0 2 : 684 3 : 0 
Heartbeat_Variant_2_evicts 0 : 1492 1 : 657 2 : 0 3 : 0 
Heartbeat_Variant_3_evicts 0 : 0 1 : 0 2 : 0 3 : 0 
Heartbeat CPU 0 instructions: 90000003 cycles: 44035772 heartbeat IPC: 1.31115 cumulative IPC: 1.33102 (Simulation time: 0 hr 14 min 32 sec) 
Cycle: 50000000 FTQ IN: 13251767 FTQ occupancy: 10.1614 DECODE IN: 13251806 DECODE occupancy: 25.1096 ROB IN: 13251806 ROB occupancy: 196.304 ROB OUT: 13251805
Heartbeat_Variant_0 : 1454 0.17749 per_variant_size: 0 1454 0 0 0 0 0 0 0 
Heartbeat_Variant_1 : 1611 0.196655 per_variant_size: 0 1044 567 0 0 0 0 0 0 
Heartbeat_Variant_2 : 1587 0.193726 per_variant_size: 0 776 513 250 48 0 0 0 0 
Heartbeat_Variant_3 : 0 0 per_variant_size: 0 0 0 0 0 0 0 0 0 
Heartbeat_Variant_0_evicts 0 : 7311 1 : 773 2 : 1496 3 : 0 
Heartbeat_Variant_1_evicts 0 : 803 1 : 0 2 : 634 3 : 0 
Heartbeat_Variant_2_evicts 0 : 1462 1 : 665 2 : 0 3 : 0 
Heartbeat_Variant_3_evicts 0 : 0 1 : 0 2 : 0 3 : 0 
Heartbeat CPU 0 instructions: 100000003 cycles: 51463499 heartbeat IPC: 1.34631 cumulative IPC: 1.33405 (Simulation time: 0 hr 16 min 8 sec) 
Finished CPU 0 instructions: 50000003 cycles: 37479791 cumulative IPC: 1.33405 (Simulation time: 0 hr 16 min 8 sec) 

ChampSim completed all CPUs

Region of Interest Statistics

CPU 0 cumulative IPC: 1.33405 instructions: 50000003 cycles: 37479791
 Fetch stage stalled: 60.8865  Sim cycles: 37479791 fetch stall cycle: 22820123
 Empty decode stage: 48.3848  Sim cycles: 37479791 fetch stall cycle: 18134521
ITLB TOTAL     ACCESS:    5814115  HIT:    5318548  MISS:     495567  HIT %:    91.4765  MISS %:    8.52352   MPKI: 9.91134
ITLB LOAD TRANSLATION INSTRUCTION	ACCESS:    5697845  HIT:    5202278  MISS:     495567  HIT %:    91.3026  MISS %:    8.69745  MPKI: 9.91134
ITLB TRANSLATION FROM L1D PREFETCHER INSTRUCTION	ACCESS:     116270  HIT:     116270  MISS:          0  HIT %:        100  MISS %:          0  MPKI: 0

ITLB AVERAGE MISS LATENCY: 9.05885 cycles
ITLB RQ	ACCESS:    7898288	FORWARD:          0	MERGED:    1635062	TO_CACHE:    6263226

DTLB TOTAL     ACCESS:    9045539  HIT:    8572802  MISS:     472737  HIT %:    94.7738  MISS %:    5.22619   MPKI: 9.45474
DTLB LOAD TRANSLATION DATA	ACCESS:    9045539  HIT:    8572802  MISS:     472737  HIT %:    94.7738  MISS %:    5.22619  MPKI: 9.45474

DTLB AVERAGE MISS LATENCY: 9.34365 cycles
DTLB RQ	ACCESS:   13402970	FORWARD:          0	MERGED:    4320398	TO_CACHE:    9082572

STLB TOTAL     ACCESS:    1215545  HIT:    1213484  MISS:       2061  HIT %:    99.8304  MISS %:   0.169554   MPKI: 0.04122
STLB LOAD TRANSLATION INSTRUCTION	ACCESS:     495567  HIT:     495316  MISS:        251  HIT %:    99.9494  MISS %:  0.0506491  MPKI: 0.00502
STLB LOAD TRANSLATION DATA	ACCESS:     472543  HIT:     470747  MISS:       1796  HIT %:    99.6199  MISS %:   0.380071  MPKI: 0.03592
STLB TRANSLATION FROM L1D PREFETCHER DATA	ACCESS:     247435  HIT:     247421  MISS:         14  HIT %:    99.9943  MISS %: 0.00565805  MPKI: 0.00028

STLB AVERAGE MISS LATENCY: 78.3236 cycles
STLB RQ	ACCESS:    1334082	FORWARD:          0	MERGED:     118498	TO_CACHE:    1215584

STLB Hit, L1D data hit: 0
STLB Hit, L2C data hit: 0
STLB Hit, LLC data hit: 0
STLB Hit, LLC data miss: 0
STLB STLB hints to L2: 0
L1D TOTAL     ACCESS:   13155529  HIT:   12033152  MISS:    1122377  HIT %:    91.4684  MISS %:     8.5316   MPKI: 22.4475
L1D LOAD DATA	ACCESS:    6607955  HIT:    5866896  MISS:     741059  HIT %:    88.7854  MISS %:    11.2146  MPKI: 14.8212
L1D RFO DATA	ACCESS:    6222291  HIT:    5935861  MISS:     286430  HIT %:    95.3967  MISS %:    4.60329  MPKI: 5.7286
L1D PREFETCH DATA	ACCESS:     325283  HIT:     230395  MISS:      94888  HIT %:    70.8291  MISS %:    29.1709  MPKI: 1.89776

L1D PREFETCH  REQUESTED:     731819  ISSUED:     731819  USEFUL:      33904  USELESS:      68807
L1D USEFUL LOAD PREFETCHES:      33904 PREFETCH ISSUED TO LOWER LEVEL:     102786  ACCURACY: 32.985
 TIMELY PREFETCHES:      33904 LATE PREFETCHES: 7825 DROPPED PREFETCHES: 3
L1D AVERAGE MISS LATENCY: 226347 cycles
L1D RQ	ACCESS:   10726247	FORWARD:          0	MERGED:    3919968	TO_CACHE:    6641816
L1D WQ	ACCESS:    6952233	FORWARD:     164726	MERGED:     191079	TO_CACHE:    6761154
L1D PQ	ACCESS:     366041	FORWARD:          0	MERGED:          0	TO_CACHE:     365778

L1D UNIQUE REGIONS ACCESSED: 0
L1D REGIONS CONFLICTS: 0
L1D Cross Page Prefetch Requests: 5184
L1D Same Page Prefetch Requests: 743577
L1D ROI Sum of L1D PQ occupancy: 4649302
L1D PREFETCHES PUSHED FROM L2C: 0
L1I TOTAL     ACCESS:    7148434  HIT:    4377416  MISS:    2771018  HIT %:     61.236  MISS %:     38.764   MPKI: 55.4204
L1I LOAD INSTRUCTION	ACCESS:    6518529  HIT:    3747511  MISS:    2771018  HIT %:    57.4901  MISS %:    42.5099  MPKI: 55.4204
L1I PREFETCH INSTRUCTION	ACCESS:     629905  HIT:     629905  MISS:          0  HIT %:        100  MISS %:          0  MPKI: 0

L1I PREFETCH  REQUESTED:    1478704  ISSUED:    1478704  USEFUL:          0  USELESS:          0
L1I USEFUL LOAD PREFETCHES:          0 PREFETCH ISSUED TO LOWER LEVEL:          0  ACCURACY: -nan
 TIMELY PREFETCHES:          0 LATE PREFETCHES: 0 DROPPED PREFETCHES: 0
L1I AVERAGE MISS LATENCY: 17.0803 cycles
L1I RQ	ACCESS:    9480947	FORWARD:          0	MERGED:    2663497	TO_CACHE:    6817450
L1I PQ	ACCESS:    1478704	FORWARD:          0	MERGED:     397866	TO_CACHE:    1080838

L1BTB TOTAL     ACCESS:    5671169  HIT:    2033318  MISS:    3637851  HIT %:    35.8536  MISS %:    64.1464   MPKI: 72.757
L1BTB BRANCH_DIRECT_JUMP	ACCESS:     548831  HIT:     144096  MISS:     404735	AVERAGE STALL: 45.4497
L1BTB BRANCH_INDIRECT	ACCESS:     182711  HIT:      65735  MISS:     116976	AVERAGE STALL: 97.5792
L1BTB BRANCH_CONDITIONAL	ACCESS:    2703673  HIT:    1407444  MISS:    1296229	AVERAGE STALL: 48.5818
L1BTB BRANCH_DIRECT_CALL	ACCESS:     946160  HIT:     105326  MISS:     840834	AVERAGE STALL: 51.4107
L1BTB BRANCH_INDIRECT_CALL	ACCESS:     171815  HIT:      21104  MISS:     150711	AVERAGE STALL: 122.788
L1BTB BRANCH_RETURN	ACCESS:    1117979  HIT:     289613  MISS:     828366	AVERAGE STALL: 44.5563
L1BTB BRANCH_OTHER ACCESS:          0  HIT:          0  MISS:          0	AVERAGE STALL: -nan
L1BTB TOTAL ROB OCCUPANCY AT BTB MISS: 6.69834

L2BTB TOTAL     ACCESS:    3612515  HIT:    3460423  MISS:     152092  HIT %:    95.7899  MISS %:    4.21014   MPKI: 3.04184
L2BTB BRANCH_DIRECT_JUMP	ACCESS:     400620  HIT:     385569  MISS:      15051	AVERAGE STALL: 45.4497
L2BTB BRANCH_INDIRECT	ACCESS:     106657  HIT:     103499  MISS:       3158	AVERAGE STALL: 97.5792
L2BTB BRANCH_CONDITIONAL	ACCESS:    1296229  HIT:    1240912  MISS:      55317	AVERAGE STALL: 48.5818
L2BTB BRANCH_DIRECT_CALL	ACCESS:     840834  HIT:     820372  MISS:      20462	AVERAGE STALL: 51.4107
L2BTB BRANCH_INDIRECT_CALL	ACCESS:     141225  HIT:     129126  MISS:      12099	AVERAGE STALL: 122.788
L2BTB BRANCH_RETURN	ACCESS:     826950  HIT:     780945  MISS:      46005	AVERAGE STALL: 44.5563
L2BTB BRANCH_OTHER ACCESS:          0  HIT:          0  MISS:          0	AVERAGE STALL: -nan
L2BTB TOTAL ROB OCCUPANCY AT BTB MISS: 160.216

L2C TOTAL     ACCESS:    4499480  HIT:    4053590  MISS:     445890  HIT %:    90.0902  MISS %:    9.90981   MPKI: 8.9178
L2C LOAD INSTRUCTION	ACCESS:    2771019  HIT:    2524306  MISS:     246713  HIT %:    91.0967  MISS %:    8.90333  MPKI: 4.93426
L2C LOAD TRANSLATION INSTRUCTION	ACCESS:        283  HIT:         87  MISS:        196  HIT %:     30.742  MISS %:     69.258  MPKI: 0.00392
L2C LOAD DATA	ACCESS:     733219  HIT:     660946  MISS:      72273  HIT %:    90.1431  MISS %:    9.85695  MPKI: 1.44546
L2C RFO DATA	ACCESS:     286329  HIT:     242117  MISS:      44212  HIT %:     84.559  MISS %:     15.441  MPKI: 0.88424
L2C PREFETCH DATA	ACCESS:     183151  HIT:     114112  MISS:      69039  HIT %:    62.3049  MISS %:    37.6951  MPKI: 1.38078
L2C WRITEBACK DATA	ACCESS:     523579  HIT:     511533  MISS:      12046  HIT %:    97.6993  MISS %:     2.3007  MPKI: 0.24092
L2C LOAD TRANSLATION DATA	ACCESS:       1875  HIT:        476  MISS:       1399  HIT %:    25.3867  MISS %:    74.6133  MPKI: 0.02798
L2C TRANSLATION FROM L1D PREFETCHER DATA	ACCESS:         25  HIT:         13  MISS:         12  HIT %:         52  MISS %:         48  MPKI: 0.00024

L2C PREFETCH  REQUESTED:      87911  ISSUED:      87911  USEFUL:       7356  USELESS:      62045
L2C USEFUL LOAD PREFETCHES:       7356 PREFETCH ISSUED TO LOWER LEVEL:      69352  ACCURACY: 10.6068
 TIMELY PREFETCHES:       7356 LATE PREFETCHES: 313 DROPPED PREFETCHES: 0
L2C AVERAGE MISS LATENCY: 39.3398 cycles
L2C RQ	ACCESS:    3792795	FORWARD:          0	MERGED:          0	TO_CACHE:    3792752
L2C WQ	ACCESS:     523579	FORWARD:         43	MERGED:          0	TO_CACHE:     523579
L2C PQ	ACCESS:     190697	FORWARD:          0	MERGED:       3660	TO_CACHE:     187037

L2C Dense regions hint from L2: 0
PSCL5 TOTAL     ACCESS:       4134  HIT:       2067  MISS:       2067  HIT %:         50  MISS %:         50   MPKI: 0.04134
PSCL5 LOAD TRANSLATION INSTRUCTION	ACCESS:       4084  HIT:       2042  MISS:       2042  HIT %:         50  MISS %:         50  MPKI: 0.04084
PSCL5 TRANSLATION FROM L1D PREFETCHER INSTRUCTION	ACCESS:         50  HIT:         25  MISS:         25  HIT %:         50  MISS %:         50  MPKI: 0.0005


PSCL4 TOTAL     ACCESS:       3937  HIT:       1963  MISS:       1974  HIT %:    49.8603  MISS %:    50.1397   MPKI: 0.03948
PSCL4 LOAD TRANSLATION INSTRUCTION	ACCESS:       2690  HIT:       1940  MISS:        750  HIT %:     72.119  MISS %:     27.881  MPKI: 0.015
PSCL4 TRANSLATION FROM L1D PREFETCHER INSTRUCTION	ACCESS:         33  HIT:         23  MISS:         10  HIT %:     69.697  MISS %:     30.303  MPKI: 0.0002
PSCL4 LOAD TRANSLATION DATA	ACCESS:       1201  HIT:          0  MISS:       1201  HIT %:          0  MISS %:        100  MPKI: 0.02402
PSCL4 TRANSLATION FROM L1D PREFETCHER DATA	ACCESS:         13  HIT:          0  MISS:         13  HIT %:          0  MISS %:        100  MPKI: 0.00026


PSCL3 TOTAL     ACCESS:       4029  HIT:       2009  MISS:       2020  HIT %:    49.8635  MISS %:    50.1365   MPKI: 0.0404
PSCL3 LOAD TRANSLATION INSTRUCTION	ACCESS:       2736  HIT:       1986  MISS:        750  HIT %:    72.5877  MISS %:    27.4123  MPKI: 0.015
PSCL3 TRANSLATION FROM L1D PREFETCHER INSTRUCTION	ACCESS:         33  HIT:         23  MISS:         10  HIT %:     69.697  MISS %:     30.303  MPKI: 0.0002
PSCL3 LOAD TRANSLATION DATA	ACCESS:       1247  HIT:          0  MISS:       1247  HIT %:          0  MISS %:        100  MPKI: 0.02494
PSCL3 TRANSLATION FROM L1D PREFETCHER DATA	ACCESS:         13  HIT:          0  MISS:         13  HIT %:          0  MISS %:        100  MPKI: 0.00026


PSCL2 TOTAL     ACCESS:       4037  HIT:       1970  MISS:       2067  HIT %:    48.7986  MISS %:    51.2014   MPKI: 0.04134
PSCL2 LOAD TRANSLATION INSTRUCTION	ACCESS:       2205  HIT:       1945  MISS:        260  HIT %:    88.2086  MISS %:    11.7914  MPKI: 0.0052
PSCL2 TRANSLATION FROM L1D PREFETCHER INSTRUCTION	ACCESS:         25  HIT:         25  MISS:          0  HIT %:        100  MISS %:          0  MPKI: 0
PSCL2 LOAD TRANSLATION DATA	ACCESS:       1782  HIT:          0  MISS:       1782  HIT %:          0  MISS %:        100  MPKI: 0.03564
PSCL2 TRANSLATION FROM L1D PREFETCHER DATA	ACCESS:         25  HIT:          0  MISS:         25  HIT %:          0  MISS %:        100  MPKI: 0.0005


LLC TOTAL     ACCESS:     498219  HIT:     469453  MISS:      28766  HIT %:    94.2262  MISS %:    5.77377   MPKI: 0.57532
LLC LOAD INSTRUCTION	ACCESS:     246713  HIT:     245471  MISS:       1242  HIT %:    99.4966  MISS %:   0.503419  MPKI: 0.02484
LLC LOAD TRANSLATION INSTRUCTION	ACCESS:        196  HIT:        160  MISS:         36  HIT %:    81.6327  MISS %:    18.3673  MPKI: 0.00072
LLC LOAD DATA	ACCESS:      71983  HIT:      68244  MISS:       3739  HIT %:    94.8057  MISS %:    5.19428  MPKI: 0.07478
LLC RFO DATA	ACCESS:      44172  HIT:      30657  MISS:      13515  HIT %:    69.4037  MISS %:    30.5963  MPKI: 0.2703
LLC PREFETCH DATA	ACCESS:      69352  HIT:      59560  MISS:       9792  HIT %:    85.8807  MISS %:    14.1193  MPKI: 0.19584
LLC WRITEBACK DATA	ACCESS:      64392  HIT:      64056  MISS:        336  HIT %:    99.4782  MISS %:   0.521804  MPKI: 0.00672
LLC LOAD TRANSLATION DATA	ACCESS:       1399  HIT:       1294  MISS:        105  HIT %:    92.4946  MISS %:    7.50536  MPKI: 0.0021
LLC TRANSLATION FROM L1D PREFETCHER DATA	ACCESS:         12  HIT:         11  MISS:          1  HIT %:    91.6667  MISS %:    8.33333  MPKI: 2e-05

LLC AVERAGE MISS LATENCY: 155.947 cycles
LLC RQ	ACCESS:     364492	FORWARD:          0	MERGED:          0	TO_CACHE:     364475
LLC WQ	ACCESS:      64392	FORWARD:         17	MERGED:          0	TO_CACHE:      64392
LLC PQ	ACCESS:      69352	FORWARD:          0	MERGED:          0	TO_CACHE:      69352

LLC Dense regions hint to LLC: 0

RAW hits: 1909385
Loads Generated: 12635631
Loads sent to L1D: 10726247
Stores Generated: 6952200
Stores sent to L1D: 6952233
Major fault: 0 Minor fault: 2578
Allocated PAGES: 2578

stream: 
stream:times selected: 1179173
stream:pref_filled: 121811
stream:pref_useful: 24062
stream:pref_late: 6842
stream:misses: 8161
stream:misses_by_poll: 0

CS: 
CS:times selected: 176313
CS:pref_filled: 59194
CS:pref_useful: 35892
CS:pref_late: 6729
CS:misses: 15741
CS:misses_by_poll: 3

CPLX: 
CPLX:times selected: 1001637
CPLX:pref_filled: 20015
CPLX:pref_useful: 4899
CPLX:pref_late: 3130
CPLX:misses: 95344
CPLX:misses_by_poll: 2

NL_L1: 
NL:times selected: 13742
NL:pref_filled: 491
NL:pref_useful: 175
NL:pref_late: 334
NL:misses: 1076
NL:misses_by_poll: 0

total selections: 2370865
total_filled: 94888
total_useful: 33904
total_late: 18530
total_polluted: 5
total_misses_after_warmup: 774921
conflicts: 5550641

test: 115598

DRAM Statistics
 CHANNEL 0
 RQ ROW_BUFFER_HIT:      10330  ROW_BUFFER_MISS:      18092
 DBUS_CONGESTED:          9
 WQ ROW_BUFFER_HIT:       1496  ROW_BUFFER_MISS:      12215  FULL:          0

 AVG_CONGESTED_CYCLE: 5

CPU 0 Branch Prediction Accuracy: 99.8094% MPKI: 0.34876 Average ROB Occupancy at Mispredict: 159.621
Branch types
NOT_BRANCH: 40849757 81.6995%
BRANCH_DIRECT_JUMP: 548831 1.09766%
BRANCH_INDIRECT: 182711 0.365422%
BRANCH_CONDITIONAL: 6182656 12.3653%
BRANCH_DIRECT_CALL: 946160 1.89232%
BRANCH_INDIRECT_CALL: 171815 0.34363%
BRANCH_RETURN: 1117979 2.23596%
BRANCH_OTHER: 0 0%

DRAM PAGES: 1048576
Allocated PAGES: 2578
Average_ROB_Occupancy: 198.663
Average_Decode_Occupancy: 25.2975
Average_FTQ_Occupancy: 10.2483
Indirect max targets: 14 Average targets: 1.17516
Branch_type:  BRANCH_DIRECT_JUMP:  Count Percentage: 3.61335 6.01024 4.17052 7.78642 8.05936 6.00495 2.46472 61.8904 
Branch_type:  BRANCH_INDIRECT:  Count Percentage: 11.7685 3.44172 2.49436 17.3859 11.0485 2.81143 0.93696 50.1127 
Branch_type:  BRANCH_CONDITIONAL:  Count Percentage: 20.8605 7.18715 1.99622 5.99532 3.18713 4.26678 0.73665 55.7703 
Branch_type:  BRANCH_DIRECT_CALL:  Count Percentage: 0.90474 1.28407 0.731789 3.50292 3.20986 2.61246 0.725284 87.0289 
Branch_type:  BRANCH_INDIRECT_CALL:  Count Percentage: 9.57548 0 3.00235 0.000873622 0.907111 1.71841 0.997385 83.7984 
Branch_type:  BRANCH_RETURN:  Count Percentage: 3.54844 4.54179 2.23186 5.82571 5.09196 4.16782 1.85055 72.7419 
Branch_type:  BRANCH_DIRECT_JUMP:  Total Count: 39637 65930 45749 85414 88408 65872 27037 678914 
Branch_type:  BRANCH_INDIRECT:  Total Count: 43019 12581 9118 63553 40387 10277 3425 183184 
Branch_type:  BRANCH_CONDITIONAL:  Total Count: 2578301 888313 246727 741005 393921 527362 91048 6893055 
Branch_type:  BRANCH_DIRECT_CALL:  Total Count: 17106 24278 13836 66230 60689 49394 13713 1645462 
Branch_type:  BRANCH_INDIRECT_CALL:  Total Count: 32882 0 10310 3 3115 5901 3425 287762 
Branch_type:  BRANCH_RETURN:  Total Count: 79306 101507 49881 130202 113803 93149 41359 1625748 
Number of unique branch instructions: 10547
Upper 32 bits: 
aaaa
ffff
ffff0000
Unique upper 32 bits: 3
Unique upper 36 bits: 3
Unique upper 40 bits: 5
Unique upper 44 bits: 32
Unique upper 48 bits: 157
Variant_0 : 1454 0.17749
Variant_1 : 1611 0.196655
Variant_2 : 1587 0.193726
Variant_3 : 0 0
Offset_3 4367
Offset_4 251
Offset_5 472
Offset_6 531
Offset_7 621
Offset_8 567
Offset_9 501
Offset_10 409
Offset_11 335
Offset_12 303
Offset_13 238
Offset_14 240
Offset_15 194
Offset_16 223
Offset_17 165
Offset_18 144
Offset_19 251
Offset_20 139
Offset_21 235
Offset_22 406
Offset_23 241
Offset_24 346
Offset_25 117
Offset_47 94
decode_dispatch_called: 22885151 61.06
Dispatch_width: 0 12119076 52.9561 32.335
Dispatch_width: 1 715035 3.12445 1.90779
Dispatch_width: 2 694015 3.0326 1.8517
Dispatch_width: 3 443911 1.93973 1.1844
Dispatch_width: 4 3341338 14.6005 8.91504
Dispatch_width: 5 230803 1.00853 0.615807
Dispatch_width: 6 5340973 23.3382 14.2503
Empty_decode_cycles: 14594640 38.94
ROB_full_cycles: 5388343 14.3767
Starvation_cycles_per_kilo_instr: 267.505
Starvation_cycles_per_kilo_instr_3: 231.783
Starvation_cycles_per_kilo_instr_0: 213.254
Branch_type_1  (3,1)  (4,7)  (5,38)  (6,72)  (7,123)  (8,147)  (9,133)  (10,109)  (11,74)  (12,47)  (13,11)  (14,2)  (15,3)  (16,4)  (18,1)  (19,5)  (20,2)  (21,1)  (22,3)  (23,2)  (24,10)  (25,12) 
Branch_type_2  (3,1)  (4,1)  (5,1)  (8,4)  (9,4)  (10,1)  (12,1)  (13,1)  (14,1)  (16,3)  (17,2)  (20,2)  (21,2)  (23,5)  (24,1)  (47,43) 
Branch_type_3  (3,4365)  (4,243)  (5,429)  (6,443)  (7,470)  (8,354)  (9,274)  (10,164)  (11,127)  (12,54)  (13,10) 
Branch_type_4  (6,3)  (7,8)  (8,24)  (9,53)  (10,64)  (11,68)  (12,111)  (13,101)  (14,108)  (15,92)  (16,97)  (17,76)  (18,61)  (19,122)  (20,71)  (21,124)  (22,213)  (23,136)  (24,202)  (25,101) 
Branch_type_5  (8,3)  (9,1)  (10,4)  (11,5)  (12,3)  (13,14)  (14,16)  (15,11)  (16,22)  (17,11)  (18,23)  (19,14)  (20,11)  (21,13)  (22,43)  (23,26)  (24,37) 
Branch_type_6  (5,4)  (6,13)  (7,20)  (8,35)  (9,36)  (10,67)  (11,61)  (12,87)  (13,101)  (14,113)  (15,88)  (16,97)  (17,76)  (18,59)  (19,110)  (20,53)  (21,95)  (22,147)  (23,72)  (24,96)  (25,4)  (47,51) 
Unique trigger count: 
Variant_0_evicts_0 : 0
Variant_0_evicts_1 : 0
Variant_0_evicts_2 : 0
Variant_0_evicts_3 : 0
Variant_1_evicts_0 : 0
Variant_1_evicts_1 : 0
Variant_1_evicts_2 : 0
Variant_1_evicts_3 : 0
Variant_2_evicts_0 : 0
Variant_2_evicts_1 : 0
Variant_2_evicts_2 : 0
Variant_2_evicts_3 : 0
Variant_3_evicts_0 : 0
Variant_3_evicts_1 : 0
Variant_3_evicts_2 : 0
Variant_3_evicts_3 : 0
BTB PER SET UNIQUE ADDR: 3 4 3 3 1 1 3 2 4 0 2 0 5 3 1 3 3 2 3 5 2 4 2 3 4 5 1 4 3 2 6 5 4 3 5 2 1 5 5 2 4 4 4 6 6 4 4 4 6 3 3 2 3 1 0 3 4 3 3 3 1 4 2 3 1 4 5 4 3 5 5 1 1 4 2 3 3 6 1 4 2 2 1 4 3 3 2 5 3 3 6 5 3 5 2 0 3 4 2 3 3 4 3 3 3 2 1 2 3 2 2 2 3 6 2 6 2 4 4 1 5 4 2 0 1 2 2 2 7 4 6 2 4 2 6 4 2 2 3 3 4 4 4 2 3 5 3 5 4 5 3 9 3 5 4 1 4 4 3 3 5 6 4 4 6 5 2 2 8 3 3 3 4 3 1 2 4 3 6 1 3 4 7 4 7 6 4 1 2 3 5 3 3 4 4 4 3 3 3 5 3 2 4 2 3 3 2 5 3 1 2 3 5 4 4 2 3 5 4 0 1 3 2 4 3 2 4 3 0 4 7 3 3 4 4 4 5 2 2 3 1 0 6 4 11 8 1 3 4 4 2 2 1 4 2 7 3 5 4 3 4 4 4 2 3 7 3 2 4 2 3 2 2 3 4 2 1 1 2 3 4 3 6 2 5 5 3 3 1 1 0 3 1 5 2 1 5 3 2 2 3 3 2 2 3 2 4 2 8 5 4 1 3 2 5 2 6 6 2 3 4 5 3 4 2 3 2 7 1 2 5 0 2 4 5 1 3 3 6 0 3 0 1 5 5 3 1 3 4 5 4 7 6 3 5 3 2 0 5 1 2 5 2 4 7 5 1 1 2 1 3 2 2 4 4 4 3 4 3 3 5 3 1 5 3 2 5 2 6 1 5 4 4 2 3 1 5 0 1 3 4 2 5 2 2 4 4 3 1 1 1 3 6 4 2 3 6 3 1 3 1 1 4 4 4 6 2 0 2 5 2 2 9 3 5 5 3 2 4 0 3 4 5 4 5 6 2 4 3 2 4 3 1 3 5 1 1 4 7 3 3 3 4 6 1 3 5 2 2 3 0 4 5 2 2 1 4 5 2 1 2 1 2 2 0 4 3 0 6 1 5 2 3 4 0 6 3 3 3 1 5 1 1 1 1 2 2 2 2 3 3 2 5 8 2 1 2 5 4 6 4 5 4 3 6 6 1 7 6 4 5 3 4 6 3 4 2 1 4 1 2 5 6 3 6 2 8 3 7 9 4 6 3 5 1 3 3 1 4 4 8 3 5 3 2 1 4 3 3 7 3 2 3 7 2 2 3 4 1 5 5 2 2 0 1 0 0 9 5 3 6 8 2 2 3 3 6 2 4 2 6 2 6 7 2 4 3 4 3 2 5 3 3 2 2 3 2 0 3 1 4 3 8 2 2 4 3 5 2 3 5 4 3 3 4 5 3 4 3 3 8 1 4 4 1 0 4 4 3 4 3 2 5 2 3 0 4 3 2 3 6 2 5 4 6 3 5 3 2 3 5 5 4 3 5 6 3 3 3 2 3 2 5 2 5 3 5 3 4 3 1 5 2 3 3 3 6 4 5 5 0 6 0 3 3 3 3 1 3 1 3 3 3 1 2 1 8 2 0 3 2 0 1 1 1 3 1 4 2 4 5 4 2 1 3 4 8 3 2 2 2 3 2 4 2 2 4 2 3 2 0 2 1 4 2 2 3 6 4 1 3 3 1 5 4 4 8 2 2 2 3 3 0 3 3 3 5 2 1 3 4 4 0 3 8 6 3 4 0 3 2 4 2 1 4 6 7 2 2 2 5 3 4 3 4 3 3 3 2 3 1 3 4 0 5 3 1 2 0 4 5 2 4 2 2 2 3 2 4 4 3 1 3 2 5 2 2 2 5 3 2 2 3 4 2 4 7 5 5 2 6 3 5 4 5 4 3 2 4 4 2 6 2 1 8 3 3 4 5 3 1 3 3 6 4 0 2 3 5 4 3 6 4 5 5 3 2 3 3 4 4 2 3 4 2 1 6 4 2 1 5 2 1 4 5 5 4 5 3 5 5 4 1 3 1 5 0 2 6 2 6 4 5 3 4 1 3 2 5 8 5 4 9 7 6 4 6 4 2 6 4 2 1 4 4 6 5 5 4 4 6 1 5 4 2 4 6 6 4 2 3 2 4 5 2 6 9 5 6 3 3 3 0 5 6 1 7 5 1 3 7 5 3 4 2 1 2 4 4 2 5 4 2 7 4 5 4 5 3 5 3 3 4 2 2 5 4 3 3 3 5 3 4 3 6 2 5 3 2 5 5 2 10 5 3 3 3 2 2 3 3 7 6 2 3 2 3 2 2 1 3 2 4 4 2 4 5 5 4 6 0 3 3 4 4 4 2 1 2 2 3 1 0 1 4 1 2 3 3 4 1 8 5 3 2 1 9 1 2 4 1 2 6 5 3 7 2 4 4 5 3 5 3 1 1 1 5 1 4 4 3 8 4 1 6 4 6 2 3 4 5 3 5 7 4 4 6 1 4 5 7 4 3 2 4 3 6 6 3 6 6 6 4 3 4 5 1 2 3 5 1 3 2 1 3 5 2 3 5 2 2 5 4 2 5 1 7 3 3 2 3 1 3 5 3 4 3 4 2 6 2 3 7 3 3 5 3 5 2 8 3 5 3 8 6 2 6 1 5 2 1 2 4 3 3 1 3 4 3 1 2 3 4 4 3 2 3 4 2 5 2 5 4 5 0 5 3 3 2 6 7 1 7 0 1 4 4 2 5 1 3 3 4 1 1 2 4 5 3 4 1 4 3 6 5 1 4 3 3 6 9 4 3 7 5 5 1 1 3 5 6 3 2 2 3 3 4 4 5 3 1 4 2 3 6 8 5 3 3 6 1 2 6 3 4 1 3 2 6 8 2 3 3 3 4 5 2 5 5 6 5 2 1 5 4 2 4 3 4 3 3 4 6 3 5 4 3 5 5 2 1 7 4 4 3 3 3 2 3 3 2 2 5 4 2 3 5 2 1 3 3 7 4 2 3 4 2 4 3 3 4 3 2 1 4 2 4 2 5 3 3 4 2 1 2 6 1 4 2 4 2 4 6 1 1 5 4 3 3 3 5 2 3 4 5 5 4 4 4 3 3 3 2 3 5 2 4 1 4 0 8 3 3 5 4 4 5 7 3 2 3 3 2 3 4 1 4 2 4 2 0 5 1 5 2 3 3 4 3 2 5 3 4 2 4 1 6 3 0 3 3 1 1 4 1 5 3 3 6 3 2 2 2 3 2 2 7 2 3 5 3 3 3 3 2 2 5 0 2 3 4 3 2 1 2 0 3 0 4 2 3 3 2 3 2 1 2 5 4 2 6 1 3 3 2 2 5 5 2 2 6 0 1 2 3 1 1 2 3 3 5 3 1 1 7 2 1 4 1 6 1 4 2 3 6 2 3 2 1 3 3 1 2 3 4 2 3 3 1 3 0 5 2 3 3 0 4 3 5 3 5 3 3 4 1 3 2 1 2 2 5 0 2 3 3 3 4 1 3 3 2 9 7 2 3 2 4 1 1 3 6 2 3 0 3 2 4 2 3 5 6 5 8 0 4 1 8 4 4 5 3 7 2 4 8 3 0 6 4 3 3 5 3 3 2 1 1 5 2 2 3 3 2 3 6 3 5 4 6 1 1 5 4 3 3 5 5 3 6 2 5 5 2 6 4 3 3 1 3 6 5 3 2 3 3 3 4 4 2 2 3 2 3 1 3 7 0 2 2 3 3 3 5 3 4 2 5 1 2 2 5 2 4 5 6 1 1 7 2 4 2 3 4 7 2 3 2 4 6 2 5 3 5 3 5 9 3 4 3 5 1 5 3 3 2 3 0 2 2 4 4 3 2 4 3 5 4 2 4 9 0 3 2 4 4 3 3 4 3 6 3 4 1 5 3 3 4 3 3 0 2 5 0 7 2 6 5 1 4 3 2 0 4 2 3 5 3 6 2 3 2 2 3 5 6 1 3 3 0 3 2 3 5 3 2 3 5 2 3 2 6 4 3 1 4 3 0 2 4 1 1 8 2 0 4 2 4 3 2 3 6 3 2 6 1 5 4 6 2 6 5 3 3 2 7 1 4 1 3 3 4 4 3 4 2 1 2 5 0 3 0 3 4 6 2 2 5 2 3 3 3 1 2 2 4 2 4 2 5 3 2 3 1 1 3 2 3 2 3 3 2 1 1 2 2 5 1 5 1 6 4 3 3 2 5 1 2 3 4 4 2 4 5 6 3 3 3 3 3 2 0 3 2 0 0 1 2 2 4 2 5 2 2 3 4 1 1 3 3 2 2 7 3 2 7 6 4 2 3 2 3 5 3 3 5 3 4 1 2 4 5 4 2 4 3 2 4 3 5 7 2 3 0 4 1 0 2 3 0 4 4 6 1 3 3 7 5 0 2 2 4 2 5 2 3 2 8 3 2 2 3 7 2 7 3 4 7 0 1 3 1 4 4 2 0 2 3 4 6 4 1 0 3 4 6 1 1 1 3 6 2 1 5 5 3 3 4 4 1 6 2 6 2 1 2 2 2 2 6 1 3 3 3 3 4 1 4 3 5 3 4 2 1 3 6 4 3 0 
BTB PER SET COUNT: 3 4 3 3 1 2 4 2 6 0 2 0 8 3 1 5 3 3 3 1479 2 6 3 3 4 7 1 6 1475 2 10 5 6 4 7 2 2946 5 11 3 5 4 8 1276 4934 6 4 5 7 4 3 2 3 1 0 3 5 3 3 3 1 4 2 4 1 378 431 6 3 5 939 1 1 4 2 4 483 777 1 4 3 2 3 5 3 3 2 6 3 3 14 516 3 5 3 0 3 6 2 3 3 4 5 3 4 2 1 2 3 2 2 2 4 6 2 8 2 4 4 1 5 4 2 0 1 2 2 2 10 5 966 2 4 3 13 4 3 2 3 3 5 7 4 2 4 951 5 5 4 6 3 62 3 5 14 1 4 4 962 5 7 8 964 5 11 1994 3 2 3441 3 3 3 4 3 1 6 4 3 1001 1 3 4 16 4 9 8 5 1 2 4 6 3 3 4 4 13 3 3 4 5 3 4 5 2 4 3 2 1481 3 1 5 6 6 4 4 2 5 9 4 0 1 3 2 4 3 2 11 35 0 4 1153 3 3 5 4 4 8 2 2 3 2 0 11 4 20 15 1 3 4 4 2 2 1 4 2 7 4 5 5 4 8 4 4 3 1477 7 5 2 4 2 3 2 3 3 5 2 1 1 2 3 7 961 7 2 6 1444 3 3 1 1 0 1988 1 6 6 1 11 3 3 2 3 3 2 2 4 2 4 2 1927 6 5 1 3 2 5 6 6 11 2 4 5 5 3 4 2 4 2 10 1 2 967 0 2 4 1991 1 963 3 9 0 3 0 1 965 965 3 1 3 5 9 4 11 7 4 6 6 2 0 7 1 3 5 2 6 13 6 1 2 4 2 4 2 2 7 4 4 6 4 3 4 24 3 1 6 6 2 12 2 6 1 5 4 4 2 4 1 1481 0 1 3 5 2 6 2 2 4 1476 3 1 993 1 3 6 5 994 3 193 3 1 89 1 1 7 6 4 7 5 0 2 7 133 2 2668 3 8 5 4 2 5 0 3 5 8 4 6 34 2 5 3 2 5 3 1 4 5 2 1 4 981 3 3 4 4 8 1 4 7 2 2 3 0 5 2978 481 2 1 5 5 3 1 3 1 2 481 0 6 3 0 6 1 6 2 4 5 0 11 3 3 3 1 5 16 1 1 1 2 2 2 2 3 3 2 5 10 5 1 2 5 6 972 5 1478 6 3 8 8 1 7 6 7 5 3 4 9 3 964 2 1 9 1 3 5 10 8 968 2 13 3 8 2886 6 13 5 5 1 3 8 1 4 4 15 1989 5 4 2 1 6 3 3 970 3 3 3 1926 2 2 3 5 1 6 5 42 2 0 1 0 0 2286 6 3 9 22 4 2 995 4 6 2 5 2 7 2 6 7 2 4 3 4 7 2 5 3 5 2 2 3 1026 0 3 1 5 484 15 3 2 4 4 9 2 3 485 1476 3 6 4 6 5 4 3 3 1945 1 4 4 1 0 6 4 3 6 5 2 8 2 5 0 6 3 2 5 7788 4 15 5 10 7 2955 963 3 3 1027 5 6 5 5 968 3 4 8 2 4 5 6 962 6 4 6 1475 4 3 1 970 2 3 3 3 8 10 16 38 0 6 0 3 4 964 4 1 3 2 3 4 5 1 962 1 1490 2 0 4 2 0 1 1 1 5 1 955 2 4 1989 4 994 1 5 5 16 3 2 2 2 3 2 4 2 2 484 2 3 962 0 2 1 5 2 2 3 6 4 2 3 3 1 5 4 4 18 2 2 2 3 20 0 123 4 4 8 4 1 3 4 23 0 1989 733 16 3 4 0 3 3 1324 21 1 5 8 1098 2 2 2 5 3 5 964 1925 5 5 3 3 5 1 4 4 0 6 4 3 2 0 4 11 2 4 2 2 2 3 2 6 94 3 1 3 2 8 965 2 3 5 3 2 2 4 1478 2 6 2961 7 6 2 9 3 5 4 10 7 3 3 6 7 2 8 3 1 2987 995 3 4 7 7 1 5 3 14 4 0 3 4 5 4 3 7 5 7 8 3 2 4 3 4 6 2 3 4 2 2 8 4 2 1 5 2 1 48 10 8 4 5 4 12 5 4 1 3 1 5 0 2 8 2 10 4 5 3 8 1 3 2 5 967 8 485 2967 1545 8 4 58 5 3 8 4 2 1 997 6 9 5 247 6 4 6 1 7 4 2 4 16 10 5 3 3 482 4 7 3 10 33 9 6 3 3 3 0 379 8 1 1001 5 1 3 968 9 483 5 2 4 2 6 4 2 5 963 2 966 4 7 4 1920 3 5 5 5 4 3 2 7 5 3 5 5 1927 4 2469 376 1734 4 10 5 2 6 654 5 2130 9 3 962 4 2 2 3 3 27 6 3 4 1985 3 2 2 4 962 2 4 4 2 4 7 7 4 6 0 3 3 4 1476 380 2 2 2 5 4 1 0 1 7 1 3 3 4 7 1 13 8 4 2 2 1994 1 2 4 1 2 8 112 4 12 2 4 4 7 4 5 3 1 1 1 9 1 966 4 3 21 4 1 6 4 17 2 484 4 9 4 6 599 4 4 10 1 5 8 11 5 4 2 5 3 6 947 3 6 6 1785 6 3 4 9 1 3 3 5 1 3 2 1 3 9 2 5 1744 2 3 6 4 2 5 1 27 4 3 2 3 1 3 11 4 4 3 4 2 9 2 3 13 3 5 10 4 5 2 14 5 964 3 969 8 2 999 1 14 2 1 2 484 961 3 1 4 166 4 1 2 483 5 4 3 2 24 4 2 1444 2 5 4 6 0 9 3 3 2 8 1004 1 11 0 1 8 5 2 8 1 3 1442 6 1 1 2 5 4902 3 5 1 5 5 6 5 1 5 3 3 8 4112 2003 5 1684 6 5 1 1 3 5 8 3 2 2 3 4 4 4 5 3 1 4 2 3 6 328 8 4 3 9 1 2 6 3 4 1 3 2 6 1493 994 5 4 3 4 7 2 6 5 7 5 2 1 24 4 2 7 3 2948 3 3 4 7 5 5 4 963 5 2401 968 1 2107 4 4 3 3 3 3 3 3 2 2 6 4 2 3 5 2 1 3 4 1932 9 3 3 4 2 4 3 3 7 3 3 1 4 2 5 3 5 3 963 4 2 1 2 6 1 4 2 4 4 6 9 1 1 5 4 995 3 4 7 3 4 45 8 6 5 4 4 3 4 3 3 4 7 2 6 1 6 0 9 3 3 5 6 4 5 2707 4 2 3 3 2 3 5 1 6 4 963 4 0 5 1 6 2 3 3 7 4 2 1477 3 4 1368 13 1 522 4 0 3 4 1 1 1370 1 965 3 3 7 5 3 2 2 4 2 2 3441 2 4 15 4 3 3 5 2 2 9 0 5 966 6 997 2 1 2 0 4 0 4 2 5 3 2 4 962 1 13 18 30 2 2404 1 3 3 2 2 5 969 121 2 20634 0 1 2 3 1 1 2 3 3 264 356 1 1 41 2 1 4 1 13 1 4 2 3 33 3 13 2 1 3 3 1 2 3 4 3 3 3 1 3 0 4005 2 3 6 0 6 462 5 3 8 3 3 5 1 5 2 1 2 2 7 0 2 3 4 3 16 1 1023 3 2 86 7 2 4 2 4 1 1 6 1000 2 3 0 3 2 4 2 3 5 6 8 17 0 1025 1 11 4 5 6 4 2405 2 6 4880 3 0 965 1476 3 3 8 6 5 2 1 1 1002 4 2 3 3 2 4 7 4 5 4 2953 2879 1 5 4 4 6 12 5 3 8 3 963 5 2 6 7 1218 378 1 1475 16 5 165 14 3 3 3 4 4 2 11 5 2 4 1 4 8 0 3 2 4 3 3 485 3 4 2 5 1 2 2 9 2 1448 8 7 1 1 7 2 964 2 3 4 8 482 3 2 962 6 2 486 5 1011 3 1924 6577 3 4 14734 969 1 1936 1475 4 2 962 0 2 2 4 4 3 2 5 3 5 5 2 166 13 0 2468 2 1476 86 3 3 4 5 7 3 795 1 5 6 4 5 3 1987 0 961 616 0 2445 2 16 8 1 4 3 2 0 4 2 6 5 3 8 2 3 4 3 3 5 9 1 4 547 0 3 2 3 965 1987 2 3 998 2 3 2 1398 4 3 1 6 3 0 2 19 1473 1 2654 2 0 4 3 4 3 4 5 9 4 437 9 1 5 4 9 199 968 125 3 3 2 902 3 436 1 5 2947 5 5 3 6 2 2 2 515 0 4 0 3 10 13 2 2 1988 387 3 6 996 1 2 2 5 2 4 2 33 3 961 3 1 1 439 2 5 2 3 3 2 1 1 2 3 5 1 8 1 4008 4 3 3 11 8 1 2 3 4 4 2 965 9 8 3 4 3 3 3 2 0 3 2 0 0 1 2 2 4 4 5 2 2 3 7 1 1 3 3 2 2 12 4 2 1512 11 127 2 3 3 3 6 3 6 7 7 6 1 3 5 7 965 2 6 3 2 4 3 7 13 2 5 0 1988 3 0 2 4 0 4 2948 743 1 3 3 917 6 0 3 2 9 3 5 2 5 2 4130 3 3 3 3 505 7 966 3 5 5194 0 1 4 1 4 4 2 0 2 3 2948 8 4 3 0 6 5 8 1 1 1 3 9 2 1 5 7 3 6 4 4 1 25 2 6 6 1 2 2 2 2 12 1 3 3 3 4 4 1 4 4 358 3 5 2 2 3 1500 4 4 0 
To predecode: 0
Predecoding something: 0
Predecode request dropped: 0
sizeofblock_0 0
sizeofblock_1 117877
sizeofblock_2 85476
sizeofblock_3 62023
sizeofblock_4 5649
sizeofblock_5 0
sizeofblock_6 0
sizeofblock_7 0
sizeofblock_8 0
