
*** ChampSim Multicore Out-of-Order Simulator ***

Warmup Instructions: 50000000
Simulation Instructions: 50000000
Number of CPUs: 1
LLC sets: 2048
LLC ways: 16
Off-chip DRAM Size: 4096 MB Channels: 1 Width: 64-bit Data Rate: 6400 MT/s
CPU 0 runs ./micro_traces/srv274.trace.gz
.gz
ITLB has LRU replacement policy
DTLB has LRU replacement policy
STLB has LRU replacement policy
FDIP Prefetcher at L1I
L1I has LRU replacement policy
L1D has LRU replacement policy
Initialize SRRIP state for L2C
Initialize DRRIP state for LLC
Heartbeat_Variant_0 : 1296 0.316406 per_variant_size: 0 1296 0 0 0 0 0 0 0 
Heartbeat_Variant_1 : 1193 0.29126 per_variant_size: 0 601 592 0 0 0 0 0 0 
Heartbeat_Variant_2 : 1261 0.307861 per_variant_size: 0 513 353 224 171 0 0 0 0 
Heartbeat_Variant_3 : 0 0 per_variant_size: 0 0 0 0 0 0 0 0 0 
Heartbeat_Variant_0_evicts 0 : 5703 1 : 137 2 : 175 3 : 0 
Heartbeat_Variant_1_evicts 0 : 144 1 : 0 2 : 319 3 : 0 
Heartbeat_Variant_2_evicts 0 : 144 1 : 322 2 : 0 3 : 0 
Heartbeat_Variant_3_evicts 0 : 0 1 : 0 2 : 0 3 : 0 
Heartbeat CPU 0 instructions: 10000001 cycles: 2796975 heartbeat IPC: 3.57529 cumulative IPC: 3.57529 (Simulation time: 0 hr 1 min 57 sec) 
Heartbeat_Variant_0 : 1330 0.324707 per_variant_size: 0 1330 0 0 0 0 0 0 0 
Heartbeat_Variant_1 : 1222 0.29834 per_variant_size: 0 599 623 0 0 0 0 0 0 
Heartbeat_Variant_2 : 1293 0.315674 per_variant_size: 0 505 367 233 188 0 0 0 0 
Heartbeat_Variant_3 : 0 0 per_variant_size: 0 0 0 0 0 0 0 0 0 
Heartbeat_Variant_0_evicts 0 : 5619 1 : 56 2 : 69 3 : 0 
Heartbeat_Variant_1_evicts 0 : 49 1 : 0 2 : 257 3 : 0 
Heartbeat_Variant_2_evicts 0 : 70 1 : 256 2 : 0 3 : 0 
Heartbeat_Variant_3_evicts 0 : 0 1 : 0 2 : 0 3 : 0 
Heartbeat CPU 0 instructions: 20000000 cycles: 5592874 heartbeat IPC: 3.57667 cumulative IPC: 3.57598 (Simulation time: 0 hr 3 min 34 sec) 
Heartbeat_Variant_0 : 1354 0.330566 per_variant_size: 0 1354 0 0 0 0 0 0 0 
Heartbeat_Variant_1 : 1249 0.304932 per_variant_size: 0 597 652 0 0 0 0 0 0 
Heartbeat_Variant_2 : 1327 0.323975 per_variant_size: 0 517 374 231 205 0 0 0 0 
Heartbeat_Variant_3 : 0 0 per_variant_size: 0 0 0 0 0 0 0 0 0 
Heartbeat_Variant_0_evicts 0 : 5631 1 : 97 2 : 101 3 : 0 
Heartbeat_Variant_1_evicts 0 : 93 1 : 0 2 : 300 3 : 0 
Heartbeat_Variant_2_evicts 0 : 98 1 : 298 2 : 0 3 : 0 
Heartbeat_Variant_3_evicts 0 : 0 1 : 0 2 : 0 3 : 0 
Heartbeat CPU 0 instructions: 30000002 cycles: 8389970 heartbeat IPC: 3.57514 cumulative IPC: 3.5757 (Simulation time: 0 hr 5 min 13 sec) 
Heartbeat_Variant_0 : 1356 0.331055 per_variant_size: 0 1356 0 0 0 0 0 0 0 
Heartbeat_Variant_1 : 1261 0.307861 per_variant_size: 0 623 638 0 0 0 0 0 0 
Heartbeat_Variant_2 : 1333 0.325439 per_variant_size: 0 531 363 227 212 0 0 0 0 
Heartbeat_Variant_3 : 0 0 per_variant_size: 0 0 0 0 0 0 0 0 0 
Heartbeat_Variant_0_evicts 0 : 5575 1 : 72 2 : 73 3 : 0 
Heartbeat_Variant_1_evicts 0 : 75 1 : 0 2 : 252 3 : 0 
Heartbeat_Variant_2_evicts 0 : 71 1 : 250 2 : 0 3 : 0 
Heartbeat_Variant_3_evicts 0 : 0 1 : 0 2 : 0 3 : 0 
Heartbeat CPU 0 instructions: 40000002 cycles: 11186774 heartbeat IPC: 3.57551 cumulative IPC: 3.57565 (Simulation time: 0 hr 6 min 51 sec) 
Heartbeat_Variant_0 : 1369 0.334229 per_variant_size: 0 1369 0 0 0 0 0 0 0 
Heartbeat_Variant_1 : 1265 0.308838 per_variant_size: 0 613 652 0 0 0 0 0 0 
Heartbeat_Variant_2 : 1329 0.324463 per_variant_size: 0 518 360 251 200 0 0 0 0 
Heartbeat_Variant_3 : 0 0 per_variant_size: 0 0 0 0 0 0 0 0 0 
Heartbeat_Variant_0_evicts 0 : 5679 1 : 57 2 : 36 3 : 0 
Heartbeat_Variant_1_evicts 0 : 50 1 : 0 2 : 239 3 : 0 
Heartbeat_Variant_2_evicts 0 : 34 1 : 232 2 : 0 3 : 0 
Heartbeat_Variant_3_evicts 0 : 0 1 : 0 2 : 0 3 : 0 
Heartbeat CPU 0 instructions: 50000000 cycles: 13983789 heartbeat IPC: 3.57524 cumulative IPC: 3.57557 (Simulation time: 0 hr 8 min 28 sec) 

Warmup complete CPU 0 instructions: 50000004 cycles: 13983790 (Simulation time: 0 hr 8 min 28 sec) 

Cycle: 20000000 FTQ IN: 58194078 FTQ occupancy: 19.1851 DECODE IN: 58194078 DECODE occupancy: 50.0405 ROB IN: 58194078 ROB occupancy: 307.247 ROB OUT: 58194000
Heartbeat_Variant_0 : 1366 0.333496 per_variant_size: 0 1366 0 0 0 0 0 0 0 
Heartbeat_Variant_1 : 1267 0.309326 per_variant_size: 0 623 644 0 0 0 0 0 0 
Heartbeat_Variant_2 : 1331 0.324951 per_variant_size: 0 514 368 246 203 0 0 0 0 
Heartbeat_Variant_3 : 0 0 per_variant_size: 0 0 0 0 0 0 0 0 0 
Heartbeat_Variant_0_evicts 0 : 5434 1 : 9 2 : 6 3 : 0 
Heartbeat_Variant_1_evicts 0 : 10 1 : 0 2 : 200 3 : 0 
Heartbeat_Variant_2_evicts 0 : 9 1 : 199 2 : 0 3 : 0 
Heartbeat_Variant_3_evicts 0 : 0 1 : 0 2 : 0 3 : 0 
Heartbeat CPU 0 instructions: 60000003 cycles: 21357954 heartbeat IPC: 1.35609 cumulative IPC: 1.35609 (Simulation time: 0 hr 10 min 5 sec) 
Heartbeat_Variant_0 : 1370 0.334473 per_variant_size: 0 1370 0 0 0 0 0 0 0 
Heartbeat_Variant_1 : 1270 0.310059 per_variant_size: 0 608 662 0 0 0 0 0 0 
Heartbeat_Variant_2 : 1332 0.325195 per_variant_size: 0 518 358 260 196 0 0 0 0 
Heartbeat_Variant_3 : 0 0 per_variant_size: 0 0 0 0 0 0 0 0 0 
Heartbeat_Variant_0_evicts 0 : 5632 1 : 23 2 : 39 3 : 0 
Heartbeat_Variant_1_evicts 0 : 20 1 : 0 2 : 224 3 : 0 
Heartbeat_Variant_2_evicts 0 : 38 1 : 223 2 : 0 3 : 0 
Heartbeat_Variant_3_evicts 0 : 0 1 : 0 2 : 0 3 : 0 
Heartbeat CPU 0 instructions: 70000000 cycles: 28744753 heartbeat IPC: 1.35377 cumulative IPC: 1.35492 (Simulation time: 0 hr 11 min 44 sec) 
Cycle: 30000000 FTQ IN: 13531409 FTQ occupancy: 10.6544 DECODE IN: 13531409 DECODE occupancy: 27.4423 ROB IN: 13531409 ROB occupancy: 211.15 ROB OUT: 13531479
Heartbeat_Variant_0 : 1379 0.33667 per_variant_size: 0 1379 0 0 0 0 0 0 0 
Heartbeat_Variant_1 : 1273 0.310791 per_variant_size: 0 614 659 0 0 0 0 0 0 
Heartbeat_Variant_2 : 1337 0.326416 per_variant_size: 0 517 368 238 214 0 0 0 0 
Heartbeat_Variant_3 : 0 0 per_variant_size: 0 0 0 0 0 0 0 0 0 
Heartbeat_Variant_0_evicts 0 : 5769 1 : 64 2 : 41 3 : 0 
Heartbeat_Variant_1_evicts 0 : 61 1 : 0 2 : 248 3 : 0 
Heartbeat_Variant_2_evicts 0 : 40 1 : 250 2 : 0 3 : 0 
Heartbeat_Variant_3_evicts 0 : 0 1 : 0 2 : 0 3 : 0 
Heartbeat CPU 0 instructions: 80000000 cycles: 36132421 heartbeat IPC: 1.35361 cumulative IPC: 1.35449 (Simulation time: 0 hr 13 min 22 sec) 
Cycle: 40000000 FTQ IN: 13497155 FTQ occupancy: 10.6386 DECODE IN: 13497122 DECODE occupancy: 27.2883 ROB IN: 13497106 ROB occupancy: 209.265 ROB OUT: 13497090
Heartbeat_Variant_0 : 1394 0.340332 per_variant_size: 0 1394 0 0 0 0 0 0 0 
Heartbeat_Variant_1 : 1300 0.317383 per_variant_size: 0 593 707 0 0 0 0 0 0 
Heartbeat_Variant_2 : 1359 0.331787 per_variant_size: 0 525 359 246 229 0 0 0 0 
Heartbeat_Variant_3 : 0 0 per_variant_size: 0 0 0 0 0 0 0 0 0 
Heartbeat_Variant_0_evicts 0 : 5932 1 : 378 2 : 388 3 : 0 
Heartbeat_Variant_1_evicts 0 : 386 1 : 0 2 : 557 3 : 0 
Heartbeat_Variant_2_evicts 0 : 380 1 : 561 2 : 0 3 : 0 
Heartbeat_Variant_3_evicts 0 : 0 1 : 0 2 : 0 3 : 0 
Heartbeat CPU 0 instructions: 90000003 cycles: 43718208 heartbeat IPC: 1.31826 cumulative IPC: 1.34524 (Simulation time: 0 hr 15 min 0 sec) 
Cycle: 50000000 FTQ IN: 13335665 FTQ occupancy: 10.0355 DECODE IN: 13335698 DECODE occupancy: 25.6153 ROB IN: 13335714 ROB occupancy: 202.111 ROB OUT: 13335733
Heartbeat_Variant_0 : 1393 0.340088 per_variant_size: 0 1393 0 0 0 0 0 0 0 
Heartbeat_Variant_1 : 1311 0.320068 per_variant_size: 0 609 702 0 0 0 0 0 0 
Heartbeat_Variant_2 : 1359 0.331787 per_variant_size: 0 516 370 252 221 0 0 0 0 
Heartbeat_Variant_3 : 0 0 per_variant_size: 0 0 0 0 0 0 0 0 0 
Heartbeat_Variant_0_evicts 0 : 5721 1 : 143 2 : 152 3 : 0 
Heartbeat_Variant_1_evicts 0 : 145 1 : 0 2 : 337 3 : 0 
Heartbeat_Variant_2_evicts 0 : 153 1 : 329 2 : 0 3 : 0 
Heartbeat_Variant_3_evicts 0 : 0 1 : 0 2 : 0 3 : 0 
Heartbeat CPU 0 instructions: 100000003 cycles: 51063135 heartbeat IPC: 1.36148 cumulative IPC: 1.34846 (Simulation time: 0 hr 16 min 37 sec) 
Finished CPU 0 instructions: 50000003 cycles: 37079346 cumulative IPC: 1.34846 (Simulation time: 0 hr 16 min 37 sec) 

ChampSim completed all CPUs

Region of Interest Statistics

CPU 0 cumulative IPC: 1.34846 instructions: 50000003 cycles: 37079346
 Fetch stage stalled: 60.399  Sim cycles: 37079346 fetch stall cycle: 22395568
 Empty decode stage: 49.76  Sim cycles: 37079346 fetch stall cycle: 18450666
ITLB TOTAL     ACCESS:    5872588  HIT:    5376931  MISS:     495657  HIT %:    91.5598  MISS %:    8.44018   MPKI: 9.91314
ITLB LOAD TRANSLATION INSTRUCTION	ACCESS:    5750448  HIT:    5254791  MISS:     495657  HIT %:    91.3805  MISS %:    8.61945  MPKI: 9.91314
ITLB TRANSLATION FROM L1D PREFETCHER INSTRUCTION	ACCESS:     122140  HIT:     122140  MISS:          0  HIT %:        100  MISS %:          0  MPKI: 0

ITLB AVERAGE MISS LATENCY: 9.06126 cycles
ITLB RQ	ACCESS:    8014787	FORWARD:          0	MERGED:    1715645	TO_CACHE:    6299142

DTLB TOTAL     ACCESS:    9026561  HIT:    8553456  MISS:     473105  HIT %:    94.7587  MISS %:    5.24125   MPKI: 9.4621
DTLB LOAD TRANSLATION DATA	ACCESS:    9026561  HIT:    8553456  MISS:     473105  HIT %:    94.7587  MISS %:    5.24125  MPKI: 9.4621

DTLB AVERAGE MISS LATENCY: 9.33302 cycles
DTLB RQ	ACCESS:   13389136	FORWARD:          0	MERGED:    4326371	TO_CACHE:    9062765

STLB TOTAL     ACCESS:    1214800  HIT:    1212740  MISS:       2060  HIT %:    99.8304  MISS %:   0.169575   MPKI: 0.0412
STLB LOAD TRANSLATION INSTRUCTION	ACCESS:     495657  HIT:     495406  MISS:        251  HIT %:    99.9494  MISS %:  0.0506399  MPKI: 0.00502
STLB LOAD TRANSLATION DATA	ACCESS:     473091  HIT:     471300  MISS:       1791  HIT %:    99.6214  MISS %:   0.378574  MPKI: 0.03582
STLB TRANSLATION FROM L1D PREFETCHER DATA	ACCESS:     246052  HIT:     246034  MISS:         18  HIT %:    99.9927  MISS %: 0.00731553  MPKI: 0.00036

STLB AVERAGE MISS LATENCY: 75.2146 cycles
STLB RQ	ACCESS:    1332967	FORWARD:          0	MERGED:     118131	TO_CACHE:    1214836

STLB Hit, L1D data hit: 0
STLB Hit, L2C data hit: 0
STLB Hit, LLC data hit: 0
STLB Hit, LLC data miss: 0
STLB STLB hints to L2: 0
L1D TOTAL     ACCESS:   13137677  HIT:   12015853  MISS:    1121824  HIT %:     91.461  MISS %:    8.53898   MPKI: 22.4365
L1D LOAD DATA	ACCESS:    6595503  HIT:    5854464  MISS:     741039  HIT %:    88.7645  MISS %:    11.2355  MPKI: 14.8208
L1D RFO DATA	ACCESS:    6219012  HIT:    5932489  MISS:     286523  HIT %:    95.3928  MISS %:    4.60721  MPKI: 5.73046
L1D PREFETCH DATA	ACCESS:     323162  HIT:     228900  MISS:      94262  HIT %:    70.8313  MISS %:    29.1687  MPKI: 1.88524

L1D PREFETCH  REQUESTED:     728752  ISSUED:     728752  USEFUL:      33959  USELESS:      68330
L1D USEFUL LOAD PREFETCHES:      33959 PREFETCH ISSUED TO LOWER LEVEL:     102369  ACCURACY: 33.1731
 TIMELY PREFETCHES:      33959 LATE PREFETCHES: 8022 DROPPED PREFETCHES: 2
L1D AVERAGE MISS LATENCY: 232374 cycles
L1D RQ	ACCESS:   10717325	FORWARD:          0	MERGED:    3922756	TO_CACHE:    6630025
L1D WQ	ACCESS:    6952233	FORWARD:     164886	MERGED:     193122	TO_CACHE:    6759111
L1D PQ	ACCESS:     364547	FORWARD:          0	MERGED:          0	TO_CACHE:     364205

L1D UNIQUE REGIONS ACCESSED: 0
L1D REGIONS CONFLICTS: 0
L1D Cross Page Prefetch Requests: 5199
L1D Same Page Prefetch Requests: 742471
L1D ROI Sum of L1D PQ occupancy: 4640687
L1D PREFETCHES PUSHED FROM L2C: 0
L1I TOTAL     ACCESS:    7225906  HIT:    4454370  MISS:    2771536  HIT %:    61.6444  MISS %:    38.3556   MPKI: 55.4307
L1I LOAD INSTRUCTION	ACCESS:    6571741  HIT:    3800205  MISS:    2771536  HIT %:    57.8265  MISS %:    42.1735  MPKI: 55.4307
L1I PREFETCH INSTRUCTION	ACCESS:     654165  HIT:     654165  MISS:          0  HIT %:        100  MISS %:          0  MPKI: 0

L1I PREFETCH  REQUESTED:    1579249  ISSUED:    1579249  USEFUL:          0  USELESS:          0
L1I USEFUL LOAD PREFETCHES:          0 PREFETCH ISSUED TO LOWER LEVEL:          0  ACCURACY: -nan
 TIMELY PREFETCHES:          0 LATE PREFETCHES: 0 DROPPED PREFETCHES: 0
L1I AVERAGE MISS LATENCY: 16.948 cycles
L1I RQ	ACCESS:    9467807	FORWARD:          0	MERGED:    2598720	TO_CACHE:    6869087
L1I PQ	ACCESS:    1579249	FORWARD:          0	MERGED:     433549	TO_CACHE:    1145700

L1BTB TOTAL     ACCESS:    5671167  HIT:    2033329  MISS:    3637838  HIT %:    35.8538  MISS %:    64.1462   MPKI: 72.7568
L1BTB BRANCH_DIRECT_JUMP	ACCESS:     548829  HIT:     144094  MISS:     404735	AVERAGE STALL: 41.5903
L1BTB BRANCH_INDIRECT	ACCESS:     182711  HIT:      65740  MISS:     116971	AVERAGE STALL: 93.6714
L1BTB BRANCH_CONDITIONAL	ACCESS:    2703677  HIT:    1407453  MISS:    1296224	AVERAGE STALL: 52.2407
L1BTB BRANCH_DIRECT_CALL	ACCESS:     946160  HIT:     105326  MISS:     840834	AVERAGE STALL: 58.556
L1BTB BRANCH_INDIRECT_CALL	ACCESS:     171813  HIT:      21107  MISS:     150706	AVERAGE STALL: 120.008
L1BTB BRANCH_RETURN	ACCESS:    1117977  HIT:     289609  MISS:     828368	AVERAGE STALL: 43.0357
L1BTB BRANCH_OTHER ACCESS:          0  HIT:          0  MISS:          0	AVERAGE STALL: -nan
L1BTB TOTAL ROB OCCUPANCY AT BTB MISS: 2.43897

L2BTB TOTAL     ACCESS:    3612499  HIT:    3542958  MISS:      69541  HIT %:     98.075  MISS %:    1.92501   MPKI: 1.39082
L2BTB BRANCH_DIRECT_JUMP	ACCESS:     400620  HIT:     395806  MISS:       4814	AVERAGE STALL: 41.5903
L2BTB BRANCH_INDIRECT	ACCESS:     106645  HIT:     103927  MISS:       2718	AVERAGE STALL: 93.6714
L2BTB BRANCH_CONDITIONAL	ACCESS:    1296224  HIT:    1290553  MISS:       5671	AVERAGE STALL: 52.2407
L2BTB BRANCH_DIRECT_CALL	ACCESS:     840834  HIT:     838658  MISS:       2176	AVERAGE STALL: 58.556
L2BTB BRANCH_INDIRECT_CALL	ACCESS:     141224  HIT:     130949  MISS:      10275	AVERAGE STALL: 120.008
L2BTB BRANCH_RETURN	ACCESS:     826952  HIT:     783065  MISS:      43887	AVERAGE STALL: 43.0357
L2BTB BRANCH_OTHER ACCESS:          0  HIT:          0  MISS:          0	AVERAGE STALL: -nan
L2BTB TOTAL ROB OCCUPANCY AT BTB MISS: 127.588

L2C TOTAL     ACCESS:    4499143  HIT:    4055189  MISS:     443954  HIT %:    90.1325  MISS %:    9.86752   MPKI: 8.87908
L2C LOAD INSTRUCTION	ACCESS:    2771536  HIT:    2533168  MISS:     238368  HIT %:    91.3994  MISS %:    8.60057  MPKI: 4.76736
L2C LOAD TRANSLATION INSTRUCTION	ACCESS:        285  HIT:         87  MISS:        198  HIT %:    30.5263  MISS %:    69.4737  MPKI: 0.00396
L2C LOAD DATA	ACCESS:     733000  HIT:     658854  MISS:      74146  HIT %:    89.8846  MISS %:    10.1154  MPKI: 1.48292
L2C RFO DATA	ACCESS:     286419  HIT:     239792  MISS:      46627  HIT %:    83.7207  MISS %:    16.2793  MPKI: 0.93254
L2C PREFETCH DATA	ACCESS:     182403  HIT:     111906  MISS:      70497  HIT %:     61.351  MISS %:     38.649  MPKI: 1.40994
L2C WRITEBACK DATA	ACCESS:     523603  HIT:     510914  MISS:      12689  HIT %:    97.5766  MISS %:     2.4234  MPKI: 0.25378
L2C LOAD TRANSLATION DATA	ACCESS:       1867  HIT:        448  MISS:       1419  HIT %:    23.9957  MISS %:    76.0043  MPKI: 0.02838
L2C TRANSLATION FROM L1D PREFETCHER DATA	ACCESS:         30  HIT:         20  MISS:         10  HIT %:    66.6667  MISS %:    33.3333  MPKI: 0.0002

L2C PREFETCH  REQUESTED:      87982  ISSUED:      87982  USEFUL:       7883  USELESS:      63023
L2C USEFUL LOAD PREFETCHES:       7883 PREFETCH ISSUED TO LOWER LEVEL:      70849  ACCURACY: 11.1265
 TIMELY PREFETCHES:       7883 LATE PREFETCHES: 352 DROPPED PREFETCHES: 0
L2C AVERAGE MISS LATENCY: 39.2831 cycles
L2C RQ	ACCESS:    3793174	FORWARD:          0	MERGED:          0	TO_CACHE:    3793138
L2C WQ	ACCESS:     523603	FORWARD:         36	MERGED:          0	TO_CACHE:     523603
L2C PQ	ACCESS:     190351	FORWARD:          0	MERGED:       3889	TO_CACHE:     186462

L2C Dense regions hint from L2: 0
PSCL5 TOTAL     ACCESS:       4132  HIT:       2066  MISS:       2066  HIT %:         50  MISS %:         50   MPKI: 0.04132
PSCL5 LOAD TRANSLATION INSTRUCTION	ACCESS:       4072  HIT:       2036  MISS:       2036  HIT %:         50  MISS %:         50  MPKI: 0.04072
PSCL5 TRANSLATION FROM L1D PREFETCHER INSTRUCTION	ACCESS:         60  HIT:         30  MISS:         30  HIT %:         50  MISS %:         50  MPKI: 0.0006


PSCL4 TOTAL     ACCESS:       3937  HIT:       1963  MISS:       1974  HIT %:    49.8603  MISS %:    50.1397   MPKI: 0.03948
PSCL4 LOAD TRANSLATION INSTRUCTION	ACCESS:       3167  HIT:       1935  MISS:       1232  HIT %:    61.0988  MISS %:    38.9012  MPKI: 0.02464
PSCL4 TRANSLATION FROM L1D PREFETCHER INSTRUCTION	ACCESS:         44  HIT:         28  MISS:         16  HIT %:    63.6364  MISS %:    36.3636  MPKI: 0.00032
PSCL4 LOAD TRANSLATION DATA	ACCESS:        714  HIT:          0  MISS:        714  HIT %:          0  MISS %:        100  MPKI: 0.01428
PSCL4 TRANSLATION FROM L1D PREFETCHER DATA	ACCESS:         12  HIT:          0  MISS:         12  HIT %:          0  MISS %:        100  MPKI: 0.00024


PSCL3 TOTAL     ACCESS:       4029  HIT:       2009  MISS:       2020  HIT %:    49.8635  MISS %:    50.1365   MPKI: 0.0404
PSCL3 LOAD TRANSLATION INSTRUCTION	ACCESS:       3213  HIT:       1981  MISS:       1232  HIT %:    61.6558  MISS %:    38.3442  MPKI: 0.02464
PSCL3 TRANSLATION FROM L1D PREFETCHER INSTRUCTION	ACCESS:         44  HIT:         28  MISS:         16  HIT %:    63.6364  MISS %:    36.3636  MPKI: 0.00032
PSCL3 LOAD TRANSLATION DATA	ACCESS:        760  HIT:          0  MISS:        760  HIT %:          0  MISS %:        100  MPKI: 0.0152
PSCL3 TRANSLATION FROM L1D PREFETCHER DATA	ACCESS:         12  HIT:          0  MISS:         12  HIT %:          0  MISS %:        100  MPKI: 0.00024


PSCL2 TOTAL     ACCESS:       4035  HIT:       1969  MISS:       2066  HIT %:     48.798  MISS %:     51.202   MPKI: 0.04132
PSCL2 LOAD TRANSLATION INSTRUCTION	ACCESS:       2199  HIT:       1939  MISS:        260  HIT %:    88.1764  MISS %:    11.8236  MPKI: 0.0052
PSCL2 TRANSLATION FROM L1D PREFETCHER INSTRUCTION	ACCESS:         30  HIT:         30  MISS:          0  HIT %:        100  MISS %:          0  MPKI: 0
PSCL2 LOAD TRANSLATION DATA	ACCESS:       1776  HIT:          0  MISS:       1776  HIT %:          0  MISS %:        100  MPKI: 0.03552
PSCL2 TRANSLATION FROM L1D PREFETCHER DATA	ACCESS:         30  HIT:          0  MISS:         30  HIT %:          0  MISS %:        100  MPKI: 0.0006


LLC TOTAL     ACCESS:     498520  HIT:     469797  MISS:      28723  HIT %:    94.2383  MISS %:    5.76165   MPKI: 0.57446
LLC LOAD INSTRUCTION	ACCESS:     238368  HIT:     237212  MISS:       1156  HIT %:     99.515  MISS %:   0.484964  MPKI: 0.02312
LLC LOAD TRANSLATION INSTRUCTION	ACCESS:        198  HIT:        162  MISS:         36  HIT %:    81.8182  MISS %:    18.1818  MPKI: 0.00072
LLC LOAD DATA	ACCESS:      73828  HIT:      70140  MISS:       3688  HIT %:    95.0046  MISS %:    4.99539  MPKI: 0.07376
LLC RFO DATA	ACCESS:      46587  HIT:      33114  MISS:      13473  HIT %:    71.0799  MISS %:    28.9201  MPKI: 0.26946
LLC PREFETCH DATA	ACCESS:      70848  HIT:      60903  MISS:       9945  HIT %:    85.9629  MISS %:    14.0371  MPKI: 0.1989
LLC WRITEBACK DATA	ACCESS:      67262  HIT:      66922  MISS:        340  HIT %:    99.4945  MISS %:   0.505486  MPKI: 0.0068
LLC LOAD TRANSLATION DATA	ACCESS:       1419  HIT:       1335  MISS:         84  HIT %:    94.0803  MISS %:    5.91966  MPKI: 0.00168
LLC TRANSLATION FROM L1D PREFETCHER DATA	ACCESS:         10  HIT:          9  MISS:          1  HIT %:         90  MISS %:         10  MPKI: 2e-05

LLC AVERAGE MISS LATENCY: 155.191 cycles
LLC RQ	ACCESS:     360416	FORWARD:          0	MERGED:          0	TO_CACHE:     360410
LLC WQ	ACCESS:      67262	FORWARD:          7	MERGED:          0	TO_CACHE:      67262
LLC PQ	ACCESS:      70849	FORWARD:          0	MERGED:          0	TO_CACHE:      70848

LLC Dense regions hint to LLC: 0

RAW hits: 1918307
Loads Generated: 12635631
Loads sent to L1D: 10717325
Stores Generated: 6952200
Stores sent to L1D: 6952233
Major fault: 0 Minor fault: 2578
Allocated PAGES: 2578

stream: 
stream:times selected: 1179192
stream:pref_filled: 121230
stream:pref_useful: 23943
stream:pref_late: 6849
stream:misses: 8318
stream:misses_by_poll: 0

CS: 
CS:times selected: 177514
CS:pref_filled: 59071
CS:pref_useful: 35753
CS:pref_late: 6644
CS:misses: 15874
CS:misses_by_poll: 12

CPLX: 
CPLX:times selected: 1000494
CPLX:pref_filled: 19801
CPLX:pref_useful: 4821
CPLX:pref_late: 3214
CPLX:misses: 95239
CPLX:misses_by_poll: 0

NL_L1: 
NL:times selected: 13733
NL:pref_filled: 465
NL:pref_useful: 172
NL:pref_late: 335
NL:misses: 1088
NL:misses_by_poll: 0

total selections: 2370933
total_filled: 94262
total_useful: 33959
total_late: 18734
total_polluted: 12
total_misses_after_warmup: 775562
conflicts: 5545468

test: 115983

DRAM Statistics
 CHANNEL 0
 RQ ROW_BUFFER_HIT:      10598  ROW_BUFFER_MISS:      17766
 DBUS_CONGESTED:          7
 WQ ROW_BUFFER_HIT:       1563  ROW_BUFFER_MISS:      11946  FULL:          0

 AVG_CONGESTED_CYCLE: 5

CPU 0 Branch Prediction Accuracy: 99.8094% MPKI: 0.34876 Average ROB Occupancy at Mispredict: 161.655
Branch types
NOT_BRANCH: 40849732 81.6995%
BRANCH_DIRECT_JUMP: 548829 1.09766%
BRANCH_INDIRECT: 182711 0.365422%
BRANCH_CONDITIONAL: 6182653 12.3653%
BRANCH_DIRECT_CALL: 946160 1.89232%
BRANCH_INDIRECT_CALL: 171813 0.343626%
BRANCH_RETURN: 1117977 2.23595%
BRANCH_OTHER: 0 0%

DRAM PAGES: 1048576
Allocated PAGES: 2578
Average_ROB_Occupancy: 209.365
Average_Decode_Occupancy: 26.7664
Average_FTQ_Occupancy: 10.4135
Indirect max targets: 14 Average targets: 1.17516
Branch_type:  BRANCH_DIRECT_JUMP:  Count Percentage: 3.61335 6.01025 4.17053 7.78644 8.05937 6.00496 2.46472 61.8904 
Branch_type:  BRANCH_INDIRECT:  Count Percentage: 11.7685 3.44172 2.49436 17.3859 11.0485 2.81143 0.93696 50.1127 
Branch_type:  BRANCH_CONDITIONAL:  Count Percentage: 20.8605 7.18716 1.99622 5.99532 3.18713 4.26678 0.73665 55.7703 
Branch_type:  BRANCH_DIRECT_CALL:  Count Percentage: 0.90474 1.28407 0.731789 3.50292 3.20986 2.61246 0.725284 87.0289 
Branch_type:  BRANCH_INDIRECT_CALL:  Count Percentage: 9.57553 0 3.00236 0.000873627 0.907116 1.71842 0.997391 83.7983 
Branch_type:  BRANCH_RETURN:  Count Percentage: 3.54844 4.5418 1.02289 5.82572 5.09196 4.16783 1.85055 73.9508 
Branch_type:  BRANCH_DIRECT_JUMP:  Total Count: 39637 65930 45749 85414 88408 65872 27037 678912 
Branch_type:  BRANCH_INDIRECT:  Total Count: 43019 12581 9118 63553 40387 10277 3425 183184 
Branch_type:  BRANCH_CONDITIONAL:  Total Count: 2578301 888313 246727 741005 393921 527362 91048 6893052 
Branch_type:  BRANCH_DIRECT_CALL:  Total Count: 17106 24278 13836 66230 60689 49394 13713 1645462 
Branch_type:  BRANCH_INDIRECT_CALL:  Total Count: 32882 0 10310 3 3115 5901 3425 287760 
Branch_type:  BRANCH_RETURN:  Total Count: 79306 101507 22861 130202 113803 93149 41359 1652766 
Number of unique branch instructions: 10547
Upper 32 bits: 
aaaa
ffff
ffff0000
Unique upper 32 bits: 3
Unique upper 36 bits: 3
Unique upper 40 bits: 5
Unique upper 44 bits: 32
Unique upper 48 bits: 157
Variant_0 : 1393 0.340088
Variant_1 : 1311 0.320068
Variant_2 : 1359 0.331787
Variant_3 : 0 0
Offset_3 4367
Offset_4 251
Offset_5 472
Offset_6 531
Offset_7 621
Offset_8 567
Offset_9 501
Offset_10 409
Offset_11 335
Offset_12 303
Offset_13 238
Offset_14 240
Offset_15 194
Offset_16 223
Offset_17 165
Offset_18 144
Offset_19 251
Offset_20 139
Offset_21 235
Offset_22 406
Offset_23 241
Offset_24 346
Offset_25 117
Offset_47 94
decode_dispatch_called: 23565754 63.5549
Dispatch_width: 0 12435519 52.7695 33.5376
Dispatch_width: 1 816695 3.4656 2.20256
Dispatch_width: 2 741941 3.14839 2.00095
Dispatch_width: 3 472044 2.00309 1.27306
Dispatch_width: 4 4045217 17.1657 10.9096
Dispatch_width: 5 223602 0.948843 0.603037
Dispatch_width: 6 4830736 20.499 13.0281
Empty_decode_cycles: 13513592 36.4451
ROB_full_cycles: 6412134 17.293
Starvation_cycles_per_kilo_instr: 258.365
Starvation_cycles_per_kilo_instr_3: 215.677
Starvation_cycles_per_kilo_instr_0: 195.37
Branch_type_1  (3,1)  (4,7)  (5,38)  (6,72)  (7,123)  (8,147)  (9,133)  (10,109)  (11,74)  (12,47)  (13,11)  (14,2)  (15,3)  (16,4)  (18,1)  (19,5)  (20,2)  (21,1)  (22,3)  (23,2)  (24,10)  (25,12) 
Branch_type_2  (3,1)  (4,1)  (5,1)  (8,4)  (9,4)  (10,1)  (12,1)  (13,1)  (14,1)  (16,3)  (17,2)  (20,2)  (21,2)  (23,5)  (24,1)  (47,43) 
Branch_type_3  (3,4365)  (4,243)  (5,429)  (6,443)  (7,470)  (8,354)  (9,274)  (10,164)  (11,127)  (12,54)  (13,10) 
Branch_type_4  (6,3)  (7,8)  (8,24)  (9,53)  (10,64)  (11,68)  (12,111)  (13,101)  (14,108)  (15,92)  (16,97)  (17,76)  (18,61)  (19,122)  (20,71)  (21,124)  (22,213)  (23,136)  (24,202)  (25,101) 
Branch_type_5  (8,3)  (9,1)  (10,4)  (11,5)  (12,3)  (13,14)  (14,16)  (15,11)  (16,22)  (17,11)  (18,23)  (19,14)  (20,11)  (21,13)  (22,43)  (23,26)  (24,37) 
Branch_type_6  (5,4)  (6,13)  (7,20)  (8,35)  (9,36)  (10,67)  (11,61)  (12,87)  (13,101)  (14,113)  (15,88)  (16,97)  (17,76)  (18,59)  (19,110)  (20,53)  (21,95)  (22,147)  (23,72)  (24,96)  (25,4)  (47,51) 
Unique trigger count: 
Variant_0_evicts_0 : 0
Variant_0_evicts_1 : 0
Variant_0_evicts_2 : 0
Variant_0_evicts_3 : 0
Variant_1_evicts_0 : 0
Variant_1_evicts_1 : 0
Variant_1_evicts_2 : 0
Variant_1_evicts_3 : 0
Variant_2_evicts_0 : 0
Variant_2_evicts_1 : 0
Variant_2_evicts_2 : 0
Variant_2_evicts_3 : 0
Variant_3_evicts_0 : 0
Variant_3_evicts_1 : 0
Variant_3_evicts_2 : 0
Variant_3_evicts_3 : 0
BTB PER SET UNIQUE ADDR: 14 10 11 15 7 9 8 11 9 13 8 14 13 16 12 10 11 9 9 12 12 12 14 10 10 17 10 11 10 11 15 16 16 9 8 14 10 8 8 12 10 7 15 11 9 11 12 7 12 11 18 13 11 14 12 6 12 12 12 14 11 11 11 12 13 12 7 11 17 12 8 12 11 10 9 8 10 14 10 12 17 9 11 11 10 13 11 10 10 15 8 7 11 11 6 16 11 11 15 12 16 14 14 7 16 12 10 6 6 8 11 14 15 12 12 5 13 13 11 11 12 11 9 10 14 13 8 13 18 11 14 13 9 17 11 17 10 10 11 10 8 14 8 13 12 16 19 10 7 10 10 11 10 11 11 18 18 17 13 9 14 7 13 18 13 15 12 6 10 8 10 13 12 15 11 8 9 12 8 14 8 13 10 14 12 16 8 12 13 13 11 15 13 13 9 11 11 10 11 17 12 9 9 9 10 9 12 17 12 9 7 14 15 12 12 13 10 11 12 17 10 16 10 8 8 10 13 16 9 15 9 5 14 11 14 15 19 14 10 9 16 11 12 10 5 10 12 7 12 9 19 9 16 11 11 13 8 11 7 10 12 7 4 10 13 11 10 12 11 8 10 12 10 12 7 11 12 13 15 10 13 12 6 8 10 10 10 13 24 13 14 13 8 12 9 23 13 12 15 14 11 11 13 9 15 13 10 12 15 11 12 15 6 18 14 5 15 14 9 15 12 13 8 12 10 11 13 10 6 8 13 15 12 13 12 15 8 10 6 20 9 11 7 13 12 10 10 10 12 13 12 9 10 10 14 18 9 14 11 10 7 15 13 10 14 11 7 13 14 17 10 5 12 11 9 14 12 14 13 14 15 11 13 8 10 15 12 13 14 13 15 10 11 14 8 11 10 13 17 13 7 8 14 10 11 16 12 12 12 14 19 10 13 14 10 11 13 17 14 17 9 14 14 11 13 14 13 11 14 11 12 12 15 12 12 13 21 7 13 11 15 10 9 16 19 9 10 14 14 9 13 16 13 9 20 14 10 11 11 11 12 13 12 15 18 10 11 8 13 14 16 14 14 12 12 16 12 17 11 11 15 16 14 10 6 10 15 12 13 13 17 13 12 9 10 12 11 11 11 12 15 15 14 17 11 13 9 20 10 12 16 15 14 9 12 15 10 15 6 10 11 12 11 9 15 12 14 8 10 15 10 13 14 11 11 12 5 8 11 14 13 10 16 10 13 17 9 7 8 14 14 15 13 11 8 13 12 11 17 20 14 13 12 17 12 18 13 13 8 14 13 14 13 14 10 13 11 13 10 12 10 10 8 11 13 11 14 9 15 11 9 11 12 11 15 9 7 14 7 8 13 8 13 6 11 12 14 9 11 11 16 12 13 13 5 13 13 13 14 13 19 10 9 9 12 16 12 20 13 12 10 15 15 10 12 14 13 17 9 18 10 15 17 12 11 12 13 12 15 15 9 13 10 14 20 9 11 12 7 12 14 9 18 16 12 13 9 11 11 12 12 13 14 14 14 8 13 17 11 13 12 17 10 16 14 12 8 14 18 12 15 14 13 9 11 10 11 14 12 15 6 12 19 15 8 12 9 14 12 6 9 13 11 12 11 8 17 12 6 13 21 15 13 14 11 9 8 9 15 12 17 11 14 10 9 15 13 18 19 18 8 9 13 10 15 15 15 10 9 11 16 10 10 11 11 7 18 11 8 10 9 11 13 12 12 17 10 13 9 11 8 14 13 8 12 12 8 12 15 13 7 16 14 12 13 10 11 14 9 10 11 9 17 11 14 19 13 12 15 12 15 12 19 14 20 12 8 12 15 11 12 21 6 11 14 13 18 12 10 13 12 14 8 13 17 13 11 14 11 11 9 10 12 12 13 13 12 15 7 11 11 18 8 8 9 17 9 14 10 10 13 12 11 13 13 15 14 10 15 15 13 13 12 11 18 8 12 7 13 8 9 15 14 13 11 6 13 10 12 9 13 8 12 13 17 13 19 9 15 15 12 9 17 13 13 13 21 14 11 9 15 9 11 11 8 17 10 12 12 15 10 14 8 12 16 11 15 12 13 13 12 15 8 9 10 12 6 18 12 13 13 16 17 12 14 15 11 10 14 18 12 12 13 13 13 10 12 15 13 13 11 11 13 12 9 18 10 12 11 16 8 11 12 14 13 9 12 13 9 10 11 16 8 9 14 11 16 17 14 24 11 11 14 10 7 17 18 13 16 10 19 14 8 15 13 13 10 13 19 11 14 18 11 12 13 17 10 14 14 18 15 12 10 11 9 11 7 11 6 7 14 16 13 9 
BTB PER SET COUNT: 21 14 1936 18 13 21 145 11 19 14 13 21 20265 577 22 13 1373 11 476 16 20 14 738 56 18 23 11 15 15 14 22 546 17 12 12 84 11 8 8 155 12 7 18 369 1483 122 13 7 911 375 24 17 14 15 19 380 19 20 19 19 13 13 17 15 16 51 9 1341 28 15 11 896 13 19 13 9 15 18 14 21 22 13 15 14 10 74 17 15 1136 22 9 867 493 136 6 21 17 1010 16 16 22 18 15 7 2320 14 19 7 8 12 14 20 1041 15 20 6 17 20 651 873 20 16 10 14 15 20 11 18 35 859 23 18 17 24 14 28 155 13 16 10 8 19 10 16 16 24 611 17 12 23 11 11 631 14 18 32 61 23 18 9 20 204 15 19 89 18 15 6 10 253 15 22 14 18 14 10 11 17 14 378 11 265 907 16 18 667 10 25 23 891 18 16 20 21 11 52 14 12 12 22 17 15 152 9 13 11 12 310 21 974 8 15 16 15 17 3005 12 16 2209 28 18 29 14 13 10 28 17 154 10 17 13 6 23 16 860 92 40 438 22 9 34 16 70 970 5 971 183 8 14 12 24 16 22 13 15 568 9 477 9 14 17 12 4 13 20 13 17 27 1685 8 13 16 13 13 7 20 14 15 21 11 24 17 999 968 10 11 10 1034 41 16 19 16 9 12 11 35 933 18 23 526 11 13 14 11 26 69 96 19 145 15 28 19 6 24 1508 966 17 28 12 28 15 1031 10 18 11 19 22 11 6 11 16 16 19 22 14 24 9 22 7 334 9 728 7 19 485 14 12 10 16 18 21 95 15 15 18 24 17 22 529 12 8 19 19 15 20 16 8 20 21 34 10 7 15 15 613 180 13 21 15 572 1143 12 863 8 16 20 177 25 18 26 32 14 13 374 11 115 10 15 22 46 9 8 19 14 19 26 20 205 19 16 24 12 15 20 12 21 16 208 22 25 17 18 21 15 21 20 392 14 38 20 15 15 17 20 14 13 39 10 15 15 208 12 17 22 613 15 15 20 19 14 2406 2732 15 10 487 118 12 11 17 14 13 16 15 17 24 11 14742 12 19 20 26 31 18 18 14 25 13 67 17 13 21 1563 18 11 7 16 194 17 20 41 225 27 212 17 12 14 1490 13 19 26 26 24 19 180 16 16 10 30 15 16 20 91 280 14 15 21 11 26 14 11 12 23 15 455 24 252 209 10 17 907 15 117 80 11 17 21 5 972 18 18 13 11 26 11 17 33 12 7 17 1000 17 17 1012 33 10 24 16 11 31 36 18 15 13 24 121 40 99 20 11 20 192 20 16 23 2471 16 12 18 15 19 16 16 10 4199 19 12 122 11 27 18 18 19 18 11 18 9 8 398 53 8 16 13 15 10 18 15 23 811 11 20 21 17 263 18 6 19 256 18 219 1319 27 14 14 15 14 24 16 37 13 14 14 26 18 11 21 18 17 978 11 33 25 25 34 14 14 29 14 19 24 22 13 19 14 17 55 498 16 24 8 144 18 10 23 28 977 28 10 94 1486 26 15 19 18 21 26 12 14 27 16 22 20 24 13 72 29 15 15 25 55 17 17 15 17 10 2043 18 16 500 16 24 7 27 577 25 10 492 14 16 13 10 12 82 978 20 13 117 83 26 9 407 53 683 16 1576 11 11 9 10 18 1892 43 18 21 15 12 273 31 37 28 33 16 9 17 71 18 23 322 12 11 13 371 13 959 1966 1006 8 23 728 8 13 14 15 16 104 21 19 10 169 12 16 8 20 19 9 21 13 10 18 22 16 10 16 593 16 15 230 15 18 13 13 14 140 19 11 30 393 49 16 21 506 44 14 34 18 71 16 14 12 19 64 15 7843 12 153 27 17 889 1491 14 1253 19 139 10 24 1261 36 16 18 16 14 15 19 15 12 71 1842 12 853 237 14 13 173 11 12 11 27 15 18 14 12 16 305 22 15 1495 18 18 18 25 21 49 19 14 11 20 8 18 9 21 10 9 47 18 15 12 8 14 10 183 10 20 14 140 56 903 524 28 11 22 21 14 12 269 16 16 21 40 19 1718 9 24 10 15 848 11 27 13 16 14 345 16 500 11 14 20 999 18 311 22 15 19 983 968 209 12 744 10 35 14 23 21 19 21 18 24 27 12 14 941 23 13 1799 19 16 16 16 18 23 19 21 502 813 1466 3503 13 22 10 12 12 572 12 13 845 14 22 16 209 17 18 10 19 1437 10 10 2126 15 23 26 18 1700 14 19 15 211 10 1754 166 495 27 15 23 600 14 25 25 30 11 1491 34 20 20 381 19 13 13 22 15 16 17 20 136 17 11 13 12 25 7 387 7 7 25 132 22 10 
To predecode: 0
Predecoding something: 0
Predecode request dropped: 0
sizeofblock_0 0
sizeofblock_1 36645
sizeofblock_2 38490
sizeofblock_3 46730
sizeofblock_4 19344
sizeofblock_5 0
sizeofblock_6 0
sizeofblock_7 0
sizeofblock_8 0
Variant_0 Correct: 1615789 Incorrect: 0 Accuracy: 1
Variant_1 Correct: 2095026 Incorrect: 0 Accuracy: 1
Variant_2 Correct: 3651917 Incorrect: 0 Accuracy: 1
Variant_3 Correct: 0 Incorrect: 0 Accuracy: -nan
