
*** ChampSim Multicore Out-of-Order Simulator ***

Warmup Instructions: 50000000
Simulation Instructions: 50000000
Number of CPUs: 1
LLC sets: 2048
LLC ways: 16
Off-chip DRAM Size: 4096 MB Channels: 1 Width: 64-bit Data Rate: 6400 MT/s
CPU 0 runs ./micro_traces/srv231.trace.gz
.gz
ITLB has LRU replacement policy
DTLB has LRU replacement policy
STLB has LRU replacement policy
FDIP Prefetcher at L1I
L1I has LRU replacement policy
L1D has LRU replacement policy
Initialize SRRIP state for L2C
Initialize DRRIP state for LLC
Heartbeat_Variant_0 : 643 0.313965 per_variant_size: 0 643 0 0 0 0 0 0 0 
Heartbeat_Variant_1 : 1405 0.686035 per_variant_size: 0 137 1268 0 0 0 0 0 0 
Heartbeat_Variant_2 : 0 0 per_variant_size: 0 0 0 0 0 0 0 0 0 
Heartbeat_Variant_3 : 0 0 per_variant_size: 0 0 0 0 0 0 0 0 0 
Heartbeat_Variant_0_evicts 0 : 31275 1 : 59829 2 : 0 3 : 0 
Heartbeat_Variant_1_evicts 0 : 59878 1 : 0 2 : 0 3 : 0 
Heartbeat_Variant_2_evicts 0 : 0 1 : 0 2 : 0 3 : 0 
Heartbeat_Variant_3_evicts 0 : 0 1 : 0 2 : 0 3 : 0 
Heartbeat CPU 0 instructions: 10000001 cycles: 2797682 heartbeat IPC: 3.57439 cumulative IPC: 3.57439 (Simulation time: 0 hr 2 min 14 sec) 
Heartbeat_Variant_0 : 621 0.303223 per_variant_size: 0 621 0 0 0 0 0 0 0 
Heartbeat_Variant_1 : 1427 0.696777 per_variant_size: 0 139 1288 0 0 0 0 0 0 
Heartbeat_Variant_2 : 0 0 per_variant_size: 0 0 0 0 0 0 0 0 0 
Heartbeat_Variant_3 : 0 0 per_variant_size: 0 0 0 0 0 0 0 0 0 
Heartbeat_Variant_0_evicts 0 : 31079 1 : 59828 2 : 0 3 : 0 
Heartbeat_Variant_1_evicts 0 : 59850 1 : 0 2 : 0 3 : 0 
Heartbeat_Variant_2_evicts 0 : 0 1 : 0 2 : 0 3 : 0 
Heartbeat_Variant_3_evicts 0 : 0 1 : 0 2 : 0 3 : 0 
Heartbeat CPU 0 instructions: 20000003 cycles: 5594947 heartbeat IPC: 3.57492 cumulative IPC: 3.57465 (Simulation time: 0 hr 4 min 29 sec) 
Heartbeat_Variant_0 : 642 0.313477 per_variant_size: 0 642 0 0 0 0 0 0 0 
Heartbeat_Variant_1 : 1406 0.686523 per_variant_size: 0 152 1254 0 0 0 0 0 0 
Heartbeat_Variant_2 : 0 0 per_variant_size: 0 0 0 0 0 0 0 0 0 
Heartbeat_Variant_3 : 0 0 per_variant_size: 0 0 0 0 0 0 0 0 0 
Heartbeat_Variant_0_evicts 0 : 30976 1 : 59220 2 : 0 3 : 0 
Heartbeat_Variant_1_evicts 0 : 59199 1 : 0 2 : 0 3 : 0 
Heartbeat_Variant_2_evicts 0 : 0 1 : 0 2 : 0 3 : 0 
Heartbeat_Variant_3_evicts 0 : 0 1 : 0 2 : 0 3 : 0 
Heartbeat CPU 0 instructions: 30000003 cycles: 8391204 heartbeat IPC: 3.57621 cumulative IPC: 3.57517 (Simulation time: 0 hr 6 min 34 sec) 
Heartbeat_Variant_0 : 641 0.312988 per_variant_size: 0 641 0 0 0 0 0 0 0 
Heartbeat_Variant_1 : 1407 0.687012 per_variant_size: 0 131 1276 0 0 0 0 0 0 
Heartbeat_Variant_2 : 0 0 per_variant_size: 0 0 0 0 0 0 0 0 0 
Heartbeat_Variant_3 : 0 0 per_variant_size: 0 0 0 0 0 0 0 0 0 
Heartbeat_Variant_0_evicts 0 : 30047 1 : 58099 2 : 0 3 : 0 
Heartbeat_Variant_1_evicts 0 : 58100 1 : 0 2 : 0 3 : 0 
Heartbeat_Variant_2_evicts 0 : 0 1 : 0 2 : 0 3 : 0 
Heartbeat_Variant_3_evicts 0 : 0 1 : 0 2 : 0 3 : 0 
Heartbeat CPU 0 instructions: 40000003 cycles: 11187728 heartbeat IPC: 3.57587 cumulative IPC: 3.57535 (Simulation time: 0 hr 8 min 42 sec) 
Heartbeat_Variant_0 : 612 0.298828 per_variant_size: 0 612 0 0 0 0 0 0 0 
Heartbeat_Variant_1 : 1436 0.701172 per_variant_size: 0 134 1302 0 0 0 0 0 0 
Heartbeat_Variant_2 : 0 0 per_variant_size: 0 0 0 0 0 0 0 0 0 
Heartbeat_Variant_3 : 0 0 per_variant_size: 0 0 0 0 0 0 0 0 0 
Heartbeat_Variant_0_evicts 0 : 30682 1 : 60078 2 : 0 3 : 0 
Heartbeat_Variant_1_evicts 0 : 60107 1 : 0 2 : 0 3 : 0 
Heartbeat_Variant_2_evicts 0 : 0 1 : 0 2 : 0 3 : 0 
Heartbeat_Variant_3_evicts 0 : 0 1 : 0 2 : 0 3 : 0 
Heartbeat CPU 0 instructions: 50000002 cycles: 13984716 heartbeat IPC: 3.57527 cumulative IPC: 3.57533 (Simulation time: 0 hr 10 min 54 sec) 

Warmup complete CPU 0 instructions: 50000002 cycles: 13984716 (Simulation time: 0 hr 10 min 54 sec) 

Cycle: 20000000 FTQ IN: 54557219 FTQ occupancy: 17.1201 DECODE IN: 54557219 DECODE occupancy: 43.8712 ROB IN: 54557219 ROB occupancy: 260.672 ROB OUT: 54557141
Heartbeat_Variant_0 : 617 0.30127 per_variant_size: 0 617 0 0 0 0 0 0 0 
Heartbeat_Variant_1 : 1431 0.69873 per_variant_size: 0 131 1300 0 0 0 0 0 0 
Heartbeat_Variant_2 : 0 0 per_variant_size: 0 0 0 0 0 0 0 0 0 
Heartbeat_Variant_3 : 0 0 per_variant_size: 0 0 0 0 0 0 0 0 0 
Heartbeat_Variant_0_evicts 0 : 31092 1 : 58886 2 : 0 3 : 0 
Heartbeat_Variant_1_evicts 0 : 58881 1 : 0 2 : 0 3 : 0 
Heartbeat_Variant_2_evicts 0 : 0 1 : 0 2 : 0 3 : 0 
Heartbeat_Variant_3_evicts 0 : 0 1 : 0 2 : 0 3 : 0 
Heartbeat CPU 0 instructions: 60000001 cycles: 27455778 heartbeat IPC: 0.742332 cumulative IPC: 0.742332 (Simulation time: 0 hr 12 min 33 sec) 
Cycle: 30000000 FTQ IN: 7366642 FTQ occupancy: 3.64206 DECODE IN: 7366640 DECODE occupancy: 6.72299 ROB IN: 7366640 ROB occupancy: 57.1651 ROB OUT: 7366656
Cycle: 40000000 FTQ IN: 7395791 FTQ occupancy: 3.45862 DECODE IN: 7395772 DECODE occupancy: 6.31491 ROB IN: 7395772 ROB occupancy: 55.3525 ROB OUT: 7395802
Heartbeat_Variant_0 : 624 0.304688 per_variant_size: 0 624 0 0 0 0 0 0 0 
Heartbeat_Variant_1 : 1424 0.695312 per_variant_size: 0 135 1289 0 0 0 0 0 0 
Heartbeat_Variant_2 : 0 0 per_variant_size: 0 0 0 0 0 0 0 0 0 
Heartbeat_Variant_3 : 0 0 per_variant_size: 0 0 0 0 0 0 0 0 0 
Heartbeat_Variant_0_evicts 0 : 30959 1 : 59986 2 : 0 3 : 0 
Heartbeat_Variant_1_evicts 0 : 59979 1 : 0 2 : 0 3 : 0 
Heartbeat_Variant_2_evicts 0 : 0 1 : 0 2 : 0 3 : 0 
Heartbeat_Variant_3_evicts 0 : 0 1 : 0 2 : 0 3 : 0 
Heartbeat CPU 0 instructions: 70000001 cycles: 40923771 heartbeat IPC: 0.742501 cumulative IPC: 0.742417 (Simulation time: 0 hr 14 min 13 sec) 
Cycle: 50000000 FTQ IN: 7418808 FTQ occupancy: 3.47562 DECODE IN: 7418823 DECODE occupancy: 6.39749 ROB IN: 7418800 ROB occupancy: 55.2968 ROB OUT: 7418801
Heartbeat_Variant_0 : 648 0.316406 per_variant_size: 0 648 0 0 0 0 0 0 0 
Heartbeat_Variant_1 : 1400 0.683594 per_variant_size: 0 132 1268 0 0 0 0 0 0 
Heartbeat_Variant_2 : 0 0 per_variant_size: 0 0 0 0 0 0 0 0 0 
Heartbeat_Variant_3 : 0 0 per_variant_size: 0 0 0 0 0 0 0 0 0 
Heartbeat_Variant_0_evicts 0 : 30715 1 : 59560 2 : 0 3 : 0 
Heartbeat_Variant_1_evicts 0 : 59536 1 : 0 2 : 0 3 : 0 
Heartbeat_Variant_2_evicts 0 : 0 1 : 0 2 : 0 3 : 0 
Heartbeat_Variant_3_evicts 0 : 0 1 : 0 2 : 0 3 : 0 
Heartbeat CPU 0 instructions: 80000003 cycles: 54473981 heartbeat IPC: 0.737996 cumulative IPC: 0.740937 (Simulation time: 0 hr 15 min 48 sec) 
Cycle: 60000000 FTQ IN: 7383069 FTQ occupancy: 3.61952 DECODE IN: 7383075 DECODE occupancy: 6.65443 ROB IN: 7383078 ROB occupancy: 57.5014 ROB OUT: 7382998
Heartbeat_Variant_0 : 672 0.328125 per_variant_size: 0 672 0 0 0 0 0 0 0 
Heartbeat_Variant_1 : 1376 0.671875 per_variant_size: 0 122 1254 0 0 0 0 0 0 
Heartbeat_Variant_2 : 0 0 per_variant_size: 0 0 0 0 0 0 0 0 0 
Heartbeat_Variant_3 : 0 0 per_variant_size: 0 0 0 0 0 0 0 0 0 
Heartbeat_Variant_0_evicts 0 : 31354 1 : 59946 2 : 0 3 : 0 
Heartbeat_Variant_1_evicts 0 : 59922 1 : 0 2 : 0 3 : 0 
Heartbeat_Variant_2_evicts 0 : 0 1 : 0 2 : 0 3 : 0 
Heartbeat_Variant_3_evicts 0 : 0 1 : 0 2 : 0 3 : 0 
Heartbeat CPU 0 instructions: 90000000 cycles: 67926908 heartbeat IPC: 0.743332 cumulative IPC: 0.741535 (Simulation time: 0 hr 17 min 34 sec) 
Cycle: 70000000 FTQ IN: 7420466 FTQ occupancy: 3.46937 DECODE IN: 7420447 DECODE occupancy: 6.38257 ROB IN: 7420467 ROB occupancy: 55.6481 ROB OUT: 7420547
Cycle: 80000000 FTQ IN: 7349293 FTQ occupancy: 3.64235 DECODE IN: 7349194 DECODE occupancy: 6.74559 ROB IN: 7349194 ROB occupancy: 57.1379 ROB OUT: 7349225
Heartbeat_Variant_0 : 638 0.311523 per_variant_size: 0 638 0 0 0 0 0 0 0 
Heartbeat_Variant_1 : 1410 0.688477 per_variant_size: 0 125 1285 0 0 0 0 0 0 
Heartbeat_Variant_2 : 0 0 per_variant_size: 0 0 0 0 0 0 0 0 0 
Heartbeat_Variant_3 : 0 0 per_variant_size: 0 0 0 0 0 0 0 0 0 
Heartbeat_Variant_0_evicts 0 : 31112 1 : 60016 2 : 0 3 : 0 
Heartbeat_Variant_1_evicts 0 : 60050 1 : 0 2 : 0 3 : 0 
Heartbeat_Variant_2_evicts 0 : 0 1 : 0 2 : 0 3 : 0 
Heartbeat_Variant_3_evicts 0 : 0 1 : 0 2 : 0 3 : 0 
Heartbeat CPU 0 instructions: 100000003 cycles: 81535107 heartbeat IPC: 0.734851 cumulative IPC: 0.740188 (Simulation time: 0 hr 19 min 14 sec) 
Finished CPU 0 instructions: 50000001 cycles: 67550391 cumulative IPC: 0.740188 (Simulation time: 0 hr 19 min 14 sec) 

ChampSim completed all CPUs

Region of Interest Statistics

CPU 0 cumulative IPC: 0.740188 instructions: 50000001 cycles: 67550391
 Fetch stage stalled: 82.0942  Sim cycles: 67550391 fetch stall cycle: 55454927
 Empty decode stage: 67.7048  Sim cycles: 67550391 fetch stall cycle: 45734861
ITLB TOTAL     ACCESS:    5663525  HIT:    5171111  MISS:     492414  HIT %:    91.3055  MISS %:    8.69448   MPKI: 9.84828
ITLB LOAD TRANSLATION INSTRUCTION	ACCESS:    5588910  HIT:    5096496  MISS:     492414  HIT %:    91.1894  MISS %:    8.81056  MPKI: 9.84828
ITLB TRANSLATION FROM L1D PREFETCHER INSTRUCTION	ACCESS:      74615  HIT:      74615  MISS:          0  HIT %:        100  MISS %:          0  MPKI: 0

ITLB AVERAGE MISS LATENCY: 9.04239 cycles
ITLB RQ	ACCESS:    7135458	FORWARD:          0	MERGED:    1039651	TO_CACHE:    6095807

DTLB TOTAL     ACCESS:   10081533  HIT:    9606446  MISS:     475087  HIT %:    95.2876  MISS %:    4.71245   MPKI: 9.50174
DTLB LOAD TRANSLATION DATA	ACCESS:   10081533  HIT:    9606446  MISS:     475087  HIT %:    95.2876  MISS %:    4.71245  MPKI: 9.50174

DTLB AVERAGE MISS LATENCY: 9.30832 cycles
DTLB RQ	ACCESS:   14148401	FORWARD:          0	MERGED:    4039414	TO_CACHE:   10108987

STLB TOTAL     ACCESS:    1218893  HIT:    1216877  MISS:       2016  HIT %:    99.8346  MISS %:   0.165396   MPKI: 0.04032
STLB LOAD TRANSLATION INSTRUCTION	ACCESS:     492414  HIT:     492174  MISS:        240  HIT %:    99.9513  MISS %:  0.0487395  MPKI: 0.0048
STLB LOAD TRANSLATION DATA	ACCESS:     474722  HIT:     472964  MISS:       1758  HIT %:    99.6297  MISS %:   0.370322  MPKI: 0.03516
STLB TRANSLATION FROM L1D PREFETCHER DATA	ACCESS:     251757  HIT:     251739  MISS:         18  HIT %:    99.9929  MISS %: 0.00714975  MPKI: 0.00036

STLB AVERAGE MISS LATENCY: 73.6687 cycles
STLB RQ	ACCESS:    1343496	FORWARD:          0	MERGED:     124564	TO_CACHE:    1218932

STLB Hit, L1D data hit: 0
STLB Hit, L2C data hit: 0
STLB Hit, LLC data hit: 0
STLB Hit, LLC data miss: 0
STLB STLB hints to L2: 0
L1D TOTAL     ACCESS:   13951084  HIT:   12837265  MISS:    1113819  HIT %:    92.0163  MISS %:    7.98375   MPKI: 22.2764
L1D LOAD DATA	ACCESS:    7310669  HIT:    6580509  MISS:     730160  HIT %:    90.0124  MISS %:    9.98759  MPKI: 14.6032
L1D RFO DATA	ACCESS:    6304101  HIT:    6015926  MISS:     288175  HIT %:    95.4288  MISS %:    4.57123  MPKI: 5.7635
L1D PREFETCH DATA	ACCESS:     336314  HIT:     240830  MISS:      95484  HIT %:    71.6087  MISS %:    28.3913  MPKI: 1.90968

L1D PREFETCH  REQUESTED:     752125  ISSUED:     752125  USEFUL:      34898  USELESS:      67917
L1D USEFUL LOAD PREFETCHES:      34898 PREFETCH ISSUED TO LOWER LEVEL:     102883  ACCURACY: 33.9201
 TIMELY PREFETCHES:      34898 LATE PREFETCHES: 7349 DROPPED PREFETCHES: 2
L1D AVERAGE MISS LATENCY: 321040 cycles
L1D RQ	ACCESS:   11288110	FORWARD:          0	MERGED:    3790268	TO_CACHE:    7335885
L1D WQ	ACCESS:    6946951	FORWARD:     162092	MERGED:     134435	TO_CACHE:    6812516
L1D PQ	ACCESS:     376130	FORWARD:          0	MERGED:          0	TO_CACHE:     375995

L1D UNIQUE REGIONS ACCESSED: 0
L1D REGIONS CONFLICTS: 0
L1D Cross Page Prefetch Requests: 6774
L1D Same Page Prefetch Requests: 754092
L1D ROI Sum of L1D PQ occupancy: 4771022
L1D PREFETCHES PUSHED FROM L2C: 0
L1I TOTAL     ACCESS:    6996662  HIT:    4239916  MISS:    2756746  HIT %:    60.5991  MISS %:    39.4009   MPKI: 55.1349
L1I LOAD INSTRUCTION	ACCESS:    6681099  HIT:    3924353  MISS:    2756746  HIT %:    58.7381  MISS %:    41.2619  MPKI: 55.1349
L1I PREFETCH INSTRUCTION	ACCESS:     315563  HIT:     315563  MISS:          0  HIT %:        100  MISS %:          0  MPKI: 0

L1I PREFETCH  REQUESTED:     550167  ISSUED:     550167  USEFUL:          0  USELESS:          0
L1I USEFUL LOAD PREFETCHES:          0 PREFETCH ISSUED TO LOWER LEVEL:          0  ACCURACY: -nan
 TIMELY PREFETCHES:          0 LATE PREFETCHES: 0 DROPPED PREFETCHES: 0
L1I AVERAGE MISS LATENCY: 17.2264 cycles
L1I RQ	ACCESS:    9448181	FORWARD:          0	MERGED:    2689253	TO_CACHE:    6758928
L1I PQ	ACCESS:     550167	FORWARD:          0	MERGED:     173637	TO_CACHE:     376530

L1BTB TOTAL     ACCESS:    5670061  HIT:    2048436  MISS:    3621625  HIT %:    36.1272  MISS %:    63.8728   MPKI: 72.4325
L1BTB BRANCH_DIRECT_JUMP	ACCESS:     549110 HIT:     145395 MISS:     403715 AVERAGE STALL: 28.0565 AVERAGE FETCH STALL: 19.1669 AVERAGE FETCH QUEUE STALL: 2.93045 AVERAGE DECODE STALL: 5.11258 AVERAGE EXECUTE STALL: 1.10299e+14
L1BTB BRANCH_INDIRECT	ACCESS:     183191 HIT:      66214 MISS:     116977 AVERAGE STALL: 68.9011 AVERAGE FETCH STALL: 16.5876 AVERAGE FETCH QUEUE STALL: 3.29084 AVERAGE DECODE STALL: 5.16253 AVERAGE EXECUTE STALL: 42.9162
L1BTB BRANCH_CONDITIONAL	ACCESS:    2711645 HIT:    1420232 MISS:    1291413 AVERAGE STALL: 28.6121 AVERAGE FETCH STALL: 20.0776 AVERAGE FETCH QUEUE STALL: 2.69862 AVERAGE DECODE STALL: 5.08925 AVERAGE EXECUTE STALL: 3.6088e+13
L1BTB BRANCH_DIRECT_CALL	ACCESS:     941875 HIT:     105677 MISS:     836198 AVERAGE STALL: 29.5386 AVERAGE FETCH STALL: 20.8669 AVERAGE FETCH QUEUE STALL: 2.72655 AVERAGE DECODE STALL: 5.1917 AVERAGE EXECUTE STALL: 3.9853e+13
L1BTB BRANCH_INDIRECT_CALL	ACCESS:     171183 HIT:      21160 MISS:     150023 AVERAGE STALL: 89.4854 AVERAGE FETCH STALL: 19.0495 AVERAGE FETCH QUEUE STALL: 2.90012 AVERAGE DECODE STALL: 5.28945 AVERAGE EXECUTE STALL: 61.6873
L1BTB BRANCH_RETURN	ACCESS:    1113057 HIT:     289758 MISS:     823299 AVERAGE STALL: 29.1786 AVERAGE FETCH STALL: 18.7137 AVERAGE FETCH QUEUE STALL: 2.91929 AVERAGE DECODE STALL: 5.23678 AVERAGE EXECUTE STALL: 6.22658e+13
L1BTB BRANCH_OTHER ACCESS:          0 HIT:          0 MISS:          0 AVERAGE STALL: -nan AVERAGE FETCH STALL: -nan AVERAGE FETCH QUEUE STALL: -nan AVERAGE DECODE STALL: -nan AVERAGE EXECUTE STALL: -nan
L1BTB TOTAL ROB OCCUPANCY AT BTB MISS: 20.1873

L2BTB TOTAL     ACCESS:    3596191  HIT:    2059605  MISS:    1536586  HIT %:    57.2718  MISS %:    42.7282   MPKI: 30.7317
L2BTB BRANCH_DIRECT_JUMP	ACCESS:     399519 HIT:     236449 MISS:     163070 AVERAGE STALL: 28.0565 AVERAGE FETCH STALL: 19.1669 AVERAGE FETCH QUEUE STALL: 2.93045 AVERAGE DECODE STALL: 5.11258 AVERAGE EXECUTE STALL: 1.10299e+14
L2BTB BRANCH_INDIRECT	ACCESS:     106716 HIT:      82809 MISS:      23907 AVERAGE STALL: 68.9011 AVERAGE FETCH STALL: 16.5876 AVERAGE FETCH QUEUE STALL: 3.29084 AVERAGE DECODE STALL: 5.16253 AVERAGE EXECUTE STALL: 42.9162
L2BTB BRANCH_CONDITIONAL	ACCESS:    1291413 HIT:     778038 MISS:     513375 AVERAGE STALL: 28.6121 AVERAGE FETCH STALL: 20.0776 AVERAGE FETCH QUEUE STALL: 2.69862 AVERAGE DECODE STALL: 5.08925 AVERAGE EXECUTE STALL: 3.6088e+13
L2BTB BRANCH_DIRECT_CALL	ACCESS:     836198 HIT:     373257 MISS:     462941 AVERAGE STALL: 29.5386 AVERAGE FETCH STALL: 20.8669 AVERAGE FETCH QUEUE STALL: 2.72655 AVERAGE DECODE STALL: 5.1917 AVERAGE EXECUTE STALL: 3.9853e+13
L2BTB BRANCH_INDIRECT_CALL	ACCESS:     140447 HIT:      62077 MISS:      78370 AVERAGE STALL: 89.4854 AVERAGE FETCH STALL: 19.0495 AVERAGE FETCH QUEUE STALL: 2.90012 AVERAGE DECODE STALL: 5.28945 AVERAGE EXECUTE STALL: 61.6873
L2BTB BRANCH_RETURN	ACCESS:     821898 HIT:     526975 MISS:     294923 AVERAGE STALL: 29.1786 AVERAGE FETCH STALL: 18.7137 AVERAGE FETCH QUEUE STALL: 2.91929 AVERAGE DECODE STALL: 5.23678 AVERAGE EXECUTE STALL: 6.22658e+13
L2BTB BRANCH_OTHER ACCESS:          0 HIT:          0 MISS:          0 AVERAGE STALL: -nan AVERAGE FETCH STALL: -nan AVERAGE FETCH QUEUE STALL: -nan AVERAGE DECODE STALL: -nan AVERAGE EXECUTE STALL: -nan
L2BTB TOTAL ROB OCCUPANCY AT BTB MISS: 47.5801

L2C TOTAL     ACCESS:    4476186  HIT:    4013071  MISS:     463115  HIT %:    89.6538  MISS %:    10.3462   MPKI: 9.2623
L2C LOAD INSTRUCTION	ACCESS:    2756746  HIT:    2494840  MISS:     261906  HIT %:    90.4995  MISS %:    9.50055  MPKI: 5.23812
L2C LOAD TRANSLATION INSTRUCTION	ACCESS:        280  HIT:         67  MISS:        213  HIT %:    23.9286  MISS %:    76.0714  MPKI: 0.00426
L2C LOAD DATA	ACCESS:     722790  HIT:     651964  MISS:      70826  HIT %:     90.201  MISS %:    9.79897  MPKI: 1.41652
L2C RFO DATA	ACCESS:     288119  HIT:     240482  MISS:      47637  HIT %:    83.4662  MISS %:    16.5338  MPKI: 0.95274
L2C PREFETCH DATA	ACCESS:     186212  HIT:     116594  MISS:      69618  HIT %:    62.6136  MISS %:    37.3864  MPKI: 1.39236
L2C WRITEBACK DATA	ACCESS:     520180  HIT:     508658  MISS:      11522  HIT %:     97.785  MISS %:      2.215  MPKI: 0.23044
L2C LOAD TRANSLATION DATA	ACCESS:       1830  HIT:        444  MISS:       1386  HIT %:    24.2623  MISS %:    75.7377  MPKI: 0.02772
L2C TRANSLATION FROM L1D PREFETCHER DATA	ACCESS:         29  HIT:         22  MISS:          7  HIT %:    75.8621  MISS %:    24.1379  MPKI: 0.00014

L2C PREFETCH  REQUESTED:      90488  ISSUED:      90488  USEFUL:       8606  USELESS:      61842
L2C USEFUL LOAD PREFETCHES:       8606 PREFETCH ISSUED TO LOWER LEVEL:      70215  ACCURACY: 12.2566
 TIMELY PREFETCHES:       8606 LATE PREFETCHES: 597 DROPPED PREFETCHES: 0
L2C AVERAGE MISS LATENCY: 39.3158 cycles
L2C RQ	ACCESS:    3769821	FORWARD:          0	MERGED:          0	TO_CACHE:    3769794
L2C WQ	ACCESS:     520180	FORWARD:         27	MERGED:          0	TO_CACHE:     520180
L2C PQ	ACCESS:     193371	FORWARD:          0	MERGED:       3699	TO_CACHE:     189672

L2C Dense regions hint from L2: 0
PSCL5 TOTAL     ACCESS:       4040  HIT:       2020  MISS:       2020  HIT %:         50  MISS %:         50   MPKI: 0.0404
PSCL5 LOAD TRANSLATION INSTRUCTION	ACCESS:       3982  HIT:       1991  MISS:       1991  HIT %:         50  MISS %:         50  MPKI: 0.03982
PSCL5 TRANSLATION FROM L1D PREFETCHER INSTRUCTION	ACCESS:         58  HIT:         29  MISS:         29  HIT %:         50  MISS %:         50  MPKI: 0.00058


PSCL4 TOTAL     ACCESS:       3959  HIT:       1976  MISS:       1983  HIT %:    49.9116  MISS %:    50.0884   MPKI: 0.03966
PSCL4 LOAD TRANSLATION INSTRUCTION	ACCESS:       2168  HIT:       1952  MISS:        216  HIT %:    90.0369  MISS %:     9.9631  MPKI: 0.00432
PSCL4 TRANSLATION FROM L1D PREFETCHER INSTRUCTION	ACCESS:         24  HIT:         24  MISS:          0  HIT %:        100  MISS %:          0  MPKI: 0
PSCL4 LOAD TRANSLATION DATA	ACCESS:       1743  HIT:          0  MISS:       1743  HIT %:          0  MISS %:        100  MPKI: 0.03486
PSCL4 TRANSLATION FROM L1D PREFETCHER DATA	ACCESS:         24  HIT:          0  MISS:         24  HIT %:          0  MISS %:        100  MPKI: 0.00048


PSCL3 TOTAL     ACCESS:       3987  HIT:       1990  MISS:       1997  HIT %:    49.9122  MISS %:    50.0878   MPKI: 0.03994
PSCL3 LOAD TRANSLATION INSTRUCTION	ACCESS:       2182  HIT:       1966  MISS:        216  HIT %:    90.1008  MISS %:    9.89918  MPKI: 0.00432
PSCL3 TRANSLATION FROM L1D PREFETCHER INSTRUCTION	ACCESS:         24  HIT:         24  MISS:          0  HIT %:        100  MISS %:          0  MPKI: 0
PSCL3 LOAD TRANSLATION DATA	ACCESS:       1757  HIT:          0  MISS:       1757  HIT %:          0  MISS %:        100  MPKI: 0.03514
PSCL3 TRANSLATION FROM L1D PREFETCHER DATA	ACCESS:         24  HIT:          0  MISS:         24  HIT %:          0  MISS %:        100  MPKI: 0.00048


PSCL2 TOTAL     ACCESS:       3933  HIT:       1913  MISS:       2020  HIT %:    48.6397  MISS %:    51.3603   MPKI: 0.0404
PSCL2 LOAD TRANSLATION INSTRUCTION	ACCESS:       2124  HIT:       1884  MISS:        240  HIT %:    88.7006  MISS %:    11.2994  MPKI: 0.0048
PSCL2 TRANSLATION FROM L1D PREFETCHER INSTRUCTION	ACCESS:         29  HIT:         29  MISS:          0  HIT %:        100  MISS %:          0  MPKI: 0
PSCL2 LOAD TRANSLATION DATA	ACCESS:       1751  HIT:          0  MISS:       1751  HIT %:          0  MISS %:        100  MPKI: 0.03502
PSCL2 TRANSLATION FROM L1D PREFETCHER DATA	ACCESS:         29  HIT:          0  MISS:         29  HIT %:          0  MISS %:        100  MPKI: 0.00058


LLC TOTAL     ACCESS:     519555  HIT:     489652  MISS:      29903  HIT %:    94.2445  MISS %:     5.7555   MPKI: 0.59806
LLC LOAD INSTRUCTION	ACCESS:     261906  HIT:     260805  MISS:       1101  HIT %:    99.5796  MISS %:    0.42038  MPKI: 0.02202
LLC LOAD TRANSLATION INSTRUCTION	ACCESS:        213  HIT:        173  MISS:         40  HIT %:    81.2207  MISS %:    18.7793  MPKI: 0.0008
LLC LOAD DATA	ACCESS:      70234  HIT:      66926  MISS:       3308  HIT %:      95.29  MISS %:    4.70997  MPKI: 0.06616
LLC RFO DATA	ACCESS:      47631  HIT:      32070  MISS:      15561  HIT %:    67.3301  MISS %:    32.6699  MPKI: 0.31122
LLC PREFETCH DATA	ACCESS:      70215  HIT:      60753  MISS:       9462  HIT %:    86.5242  MISS %:    13.4758  MPKI: 0.18924
LLC WRITEBACK DATA	ACCESS:      67963  HIT:      67603  MISS:        360  HIT %:    99.4703  MISS %:     0.5297  MPKI: 0.0072
LLC LOAD TRANSLATION DATA	ACCESS:       1386  HIT:       1316  MISS:         70  HIT %:    94.9495  MISS %:    5.05051  MPKI: 0.0014
LLC TRANSLATION FROM L1D PREFETCHER DATA	ACCESS:          7  HIT:          6  MISS:          1  HIT %:    85.7143  MISS %:    14.2857  MPKI: 2e-05

LLC AVERAGE MISS LATENCY: 154.625 cycles
LLC RQ	ACCESS:     381378	FORWARD:          0	MERGED:          0	TO_CACHE:     381377
LLC WQ	ACCESS:      67963	FORWARD:          1	MERGED:          0	TO_CACHE:      67963
LLC PQ	ACCESS:      70215	FORWARD:          0	MERGED:          0	TO_CACHE:      70215

LLC Dense regions hint to LLC: 0

RAW hits: 1351564
Loads Generated: 12639674
Loads sent to L1D: 11288110
Stores Generated: 6946934
Stores sent to L1D: 6946951
Major fault: 0 Minor fault: 2558
Allocated PAGES: 2558

stream: 
stream:times selected: 1184648
stream:pref_filled: 120712
stream:pref_useful: 24080
stream:pref_late: 6574
stream:misses: 8030
stream:misses_by_poll: 0

CS: 
CS:times selected: 178403
CS:pref_filled: 61203
CS:pref_useful: 37171
CS:pref_late: 6608
CS:misses: 16387
CS:misses_by_poll: 7

CPLX: 
CPLX:times selected: 1005150
CPLX:pref_filled: 20179
CPLX:pref_useful: 4964
CPLX:pref_late: 3129
CPLX:misses: 91867
CPLX:misses_by_poll: 1

NL_L1: 
NL:times selected: 19743
NL:pref_filled: 713
NL:pref_useful: 312
NL:pref_late: 285
NL:misses: 1653
NL:misses_by_poll: 0

total selections: 2387944
total_filled: 95484
total_useful: 34898
total_late: 17773
total_polluted: 8
total_misses_after_warmup: 755377
conflicts: 5886983

test: 117534

DRAM Statistics
 CHANNEL 0
 RQ ROW_BUFFER_HIT:      11445  ROW_BUFFER_MISS:      18086
 DBUS_CONGESTED:          4
 WQ ROW_BUFFER_HIT:       1386  ROW_BUFFER_MISS:      12426  FULL:          0

 AVG_CONGESTED_CYCLE: 5

CPU 0 Branch Prediction Accuracy: 99.8233% MPKI: 0.32296 Average ROB Occupancy at Mispredict: 98.0442
Branch types
NOT_BRANCH: 40859041 81.7181%
BRANCH_DIRECT_JUMP: 549110 1.09822%
BRANCH_INDIRECT: 183191 0.366382%
BRANCH_CONDITIONAL: 6182167 12.3643%
BRANCH_DIRECT_CALL: 941875 1.88375%
BRANCH_INDIRECT_CALL: 171183 0.342366%
BRANCH_RETURN: 1113057 2.22611%
BRANCH_OTHER: 0 0%

DRAM PAGES: 1048576
Allocated PAGES: 2558
Average_ROB_Occupancy: 57.0135
Average_Decode_Occupancy: 6.50878
Average_FTQ_Occupancy: 3.54256
Indirect max targets: 14 Average targets: 1.15282
Branch_type:  BRANCH_DIRECT_JUMP:  Count Percentage: 2.90184 6.19419 3.72231 8.5733 2.78802 6.28013 1.35295 68.1872 
Branch_type:  BRANCH_INDIRECT:  Count Percentage: 11.7352 3.41967 2.54357 0 1.3371 9.69826 19.238 52.0282 
Branch_type:  BRANCH_CONDITIONAL:  Count Percentage: 20.7873 3.22327 1.91341 8.20171 1.41671 5.12533 2.05179 57.2805 
Branch_type:  BRANCH_DIRECT_CALL:  Count Percentage: 0.259769 1.77396 1.44617 4.26488 2.80381 2.9856 0.890372 85.5754 
Branch_type:  BRANCH_INDIRECT_CALL:  Count Percentage: 9.56288 0.571053 2.99621 4.85468 0.000583601 2.62854 1.28538 78.1007 
Branch_type:  BRANCH_RETURN:  Count Percentage: 3.20296 1.29331 1.27291 8.70862 3.51201 6.86409 3.35307 71.793 
Branch_type:  BRANCH_DIRECT_JUMP:  Total Count: 31842 67969 40845 94075 30593 68912 14846 748220 
Branch_type:  BRANCH_INDIRECT:  Total Count: 42944 12514 9308 0 4893 35490 70400 190393 
Branch_type:  BRANCH_CONDITIONAL:  Total Count: 2569220 398383 236489 1013698 175099 633470 253593 7079634 
Branch_type:  BRANCH_DIRECT_CALL:  Total Count: 4900 33462 27279 80448 52888 56317 16795 1614201 
Branch_type:  BRANCH_INDIRECT_CALL:  Total Count: 32772 1957 10268 16637 2 9008 4405 267651 
Branch_type:  BRANCH_RETURN:  Total Count: 71419 28838 28383 194183 78310 153054 74766 1600827 
Number of unique branch instructions: 10016
Upper 32 bits: 
aaaa
ffff
ffff0000
Unique upper 32 bits: 3
Unique upper 36 bits: 3
Unique upper 40 bits: 5
Unique upper 44 bits: 32
Unique upper 48 bits: 157
Variant_0 : 638 0.311523
Variant_1 : 1410 0.688477
Variant_2 : 0 0
Variant_3 : 0 0
Offset_3 4100
Offset_4 264
Offset_5 463
Offset_6 506
Offset_7 585
Offset_8 517
Offset_9 484
Offset_10 389
Offset_11 303
Offset_12 280
Offset_13 205
Offset_14 227
Offset_15 183
Offset_16 225
Offset_17 152
Offset_18 118
Offset_19 242
Offset_20 139
Offset_21 261
Offset_22 391
Offset_23 243
Offset_24 341
Offset_25 88
Offset_47 84
decode_dispatch_called: 20208386 29.916
Dispatch_width: 0 9817171 48.5797 14.5331
Dispatch_width: 1 643098 3.18233 0.952027
Dispatch_width: 2 932185 4.61286 1.37998
Dispatch_width: 3 636742 3.15088 0.942618
Dispatch_width: 4 1510378 7.47402 2.23593
Dispatch_width: 5 472334 2.33732 0.699232
Dispatch_width: 6 6196478 30.6629 9.17312
Empty_decode_cycles: 47342005 70.084
ROB_full_cycles: 1227705 1.81747
Starvation_cycles_per_kilo_instr: 601.262
Starvation_cycles_per_kilo_instr_3: 581.435
Starvation_cycles_per_kilo_instr_0: 559.315
Branch_type_1  (3,1)  (4,10)  (5,39)  (6,70)  (7,114)  (8,133)  (9,128)  (10,99)  (11,67)  (12,43)  (13,8)  (14,2)  (15,3)  (16,4)  (18,1)  (19,4)  (20,2)  (21,1)  (22,3)  (23,2)  (24,10)  (25,12) 
Branch_type_2  (3,1)  (5,1)  (8,3)  (9,3)  (12,1)  (13,1)  (14,1)  (16,3)  (17,2)  (20,2)  (21,2)  (23,5)  (24,1)  (47,38) 
Branch_type_3  (3,4098)  (4,254)  (5,419)  (6,421)  (7,440)  (8,319)  (9,267)  (10,156)  (11,122)  (12,50)  (13,7) 
Branch_type_4  (6,3)  (7,8)  (8,25)  (9,54)  (10,63)  (11,58)  (12,101)  (13,86)  (14,100)  (15,85)  (16,101)  (17,69)  (18,53)  (19,116)  (20,72)  (21,141)  (22,208)  (23,137)  (24,192)  (25,72) 
Branch_type_5  (8,2)  (9,1)  (10,4)  (11,5)  (12,3)  (13,14)  (14,16)  (15,11)  (16,20)  (17,11)  (18,16)  (19,13)  (20,11)  (21,13)  (22,42)  (23,26)  (24,41) 
Branch_type_6  (5,4)  (6,12)  (7,23)  (8,35)  (9,31)  (10,67)  (11,51)  (12,82)  (13,89)  (14,108)  (15,84)  (16,97)  (17,70)  (18,48)  (19,109)  (20,52)  (21,104)  (22,138)  (23,73)  (24,97)  (25,4)  (47,46) 
Unique trigger count: 
Variant_0_evicts_0 : 0
Variant_0_evicts_1 : 0
Variant_0_evicts_2 : 0
Variant_0_evicts_3 : 0
Variant_1_evicts_0 : 0
Variant_1_evicts_1 : 0
Variant_1_evicts_2 : 0
Variant_1_evicts_3 : 0
Variant_2_evicts_0 : 0
Variant_2_evicts_1 : 0
Variant_2_evicts_2 : 0
Variant_2_evicts_3 : 0
Variant_3_evicts_0 : 0
Variant_3_evicts_1 : 0
Variant_3_evicts_2 : 0
Variant_3_evicts_3 : 0
BTB PER SET UNIQUE ADDR: 44 50 49 49 50 42 52 42 40 43 59 42 42 47 44 37 37 40 46 44 51 52 35 39 47 36 57 49 49 40 47 44 45 36 44 45 47 39 43 47 49 42 38 53 39 50 47 37 42 38 58 53 48 42 49 52 44 48 46 39 48 44 44 56 49 54 47 46 50 34 43 56 47 49 57 47 41 41 50 49 50 35 48 31 38 56 52 53 60 55 52 40 58 41 47 55 40 49 55 57 60 53 43 44 44 46 49 39 50 39 47 43 50 60 41 56 54 35 48 55 60 49 47 58 47 50 59 48 49 47 59 41 53 42 44 46 49 53 45 58 46 39 43 50 47 54 44 47 41 39 53 41 50 48 52 40 44 32 51 54 52 40 43 46 45 52 54 43 43 35 44 36 46 42 53 55 59 48 47 56 37 51 43 42 40 48 48 50 46 46 46 40 37 41 48 48 59 45 45 45 54 40 57 45 38 39 54 47 43 48 50 43 49 48 35 59 46 37 45 34 37 46 50 40 47 43 47 48 55 45 31 43 65 57 42 41 38 43 48 45 42 57 57 48 41 60 40 42 47 37 47 41 59 39 53 30 50 51 49 44 52 45 55 50 43 41 49 49 52 55 42 40 51 43 57 49 48 43 44 48 50 39 48 56 42 37 26 51 43 52 64 43 37 45 39 50 47 51 50 42 52 45 53 49 51 48 49 42 39 47 41 45 32 48 44 49 41 45 41 44 35 46 43 50 52 66 56 64 43 62 50 40 54 43 59 40 41 56 55 53 51 42 46 44 49 45 50 56 43 48 49 48 42 60 55 47 44 57 48 46 45 34 41 41 52 51 35 44 43 48 59 48 48 50 54 43 49 43 42 39 48 53 56 44 42 47 49 49 35 54 48 54 53 49 49 39 40 44 61 52 36 44 44 43 50 53 47 46 42 43 46 37 53 39 54 48 51 44 51 55 52 57 56 56 58 40 47 50 58 47 46 59 44 41 45 50 49 51 54 52 48 45 49 44 38 53 42 45 48 51 56 41 49 52 47 59 61 38 43 40 36 43 60 44 69 33 56 47 56 60 51 51 36 46 48 42 36 40 46 53 44 53 51 69 44 40 52 48 57 38 40 39 43 43 44 49 38 40 35 31 46 47 52 36 45 51 61 36 52 56 46 43 
BTB PER SET COUNT: 5226 5437 5654 7243 5987 5237 6846 5157 3776 6218 8788 5142 4823 5987 5641 3766 4044 5801 5927 5183 5447 6086 3647 4181 6593 5740 7775 7057 6216 4589 6144 5359 6025 8377 5768 5735 5454 3296 5306 6476 6171 5190 5198 6683 4594 6976 6353 4229 4922 5080 7644 5965 5252 4915 5712 7158 4145 6737 6349 3682 6836 5339 5021 7328 5964 6920 6295 6337 8051 3357 5028 6885 5649 4820 6364 6436 5406 4659 6756 7073 7093 3603 5271 3939 4618 6808 6976 7714 7935 6755 6135 4643 7872 5039 5678 7486 4228 6290 7491 7918 7117 7973 6267 6977 5014 5191 7129 4815 5566 5815 6772 6023 6567 7614 4969 7001 7403 4424 6113 7490 6384 5459 7495 11484 6962 7393 7119 5606 6791 7322 8694 9265 7191 4798 5792 7036 5904 6620 4822 7836 6471 5828 5951 5876 6434 7397 6900 6511 5221 3877 7797 5098 5910 5309 6946 4426 5951 3587 6139 7768 5903 3750 4970 10409 4921 8313 8141 6625 3660 4238 4935 3639 6131 4406 7933 7298 7161 6378 6728 6729 4951 6730 5273 4654 5459 5476 6116 6487 6291 6417 7339 4880 5128 5184 7147 6488 8113 5304 5941 4693 7646 4374 8915 5244 4372 4298 7387 6038 4920 6048 6445 4660 7310 5460 4519 8174 5369 5485 4226 3992 5259 5823 6878 4888 6720 5023 6041 5825 8103 6300 4307 5595 8385 6556 5295 5677 4804 5215 6936 5165 4507 8004 5979 6863 5185 9306 4189 6035 7374 5479 5956 4129 7140 4107 6517 3131 7800 6519 5932 6044 7348 6114 6201 6582 5682 5301 6316 5780 7546 7912 5388 4485 7049 5646 7354 6015 5907 5263 5770 6459 5662 4172 5773 8936 5447 4371 2275 6792 5742 5874 7325 6258 3874 5816 4300 7292 5992 6408 6921 5926 7235 4873 6156 5753 5724 6209 13850 3908 5279 5639 5947 7246 4441 6646 4972 7075 4861 4901 5544 5911 4170 5903 5593 10760 4855 10007 9271 9980 4192 7181 6490 4522 6231 5737 8832 5566 5100 7417 8152 5984 7747 5192 5783 5566 7080 6101 7059 6969 5343 6484 6936 5955 5061 9640 8437 5734 5801 8307 7030 5742 5038 3872 5114 4446 7985 6359 5393 6106 5493 7055 9166 6621 5822 5619 7238 4659 7548 5004 5149 4402 6864 7287 6921 6190 5153 5437 6205 7597 3983 6614 6544 6514 5632 5257 5939 5338 5446 4883 7597 7084 3933 5516 5386 4278 6170 6783 6273 5870 4613 5425 5663 3945 5808 3622 7295 5430 5592 6241 7711 7594 6246 7328 7086 11098 7430 3996 4922 6389 7732 5537 10918 7844 6311 5897 6560 5813 6219 6657 7311 7339 5911 6753 5632 5454 5947 7017 5353 5869 6792 7026 6519 5033 7254 6443 4829 7849 8544 5217 4765 4449 4282 5707 7300 5852 13084 3064 7524 6733 7056 8208 6364 6606 3721 6013 6399 8163 6023 4491 5947 6614 7609 6689 6808 9667 4758 5450 6961 5121 7398 4806 5208 4104 4842 5143 5158 6312 4531 4969 4092 3423 5552 5270 5841 4062 5822 6603 7647 4805 6923 6345 6113 6618 
To predecode: 0
Predecoding something: 0
Predecode request dropped: 0
sizeofblock_0 0
sizeofblock_1 627286
sizeofblock_2 1589396
sizeofblock_3 0
sizeofblock_4 0
sizeofblock_5 0
sizeofblock_6 0
sizeofblock_7 0
sizeofblock_8 0
Variant_0 Correct: 749429 Incorrect: 0 Accuracy: 1
Variant_1 Correct: 3575216 Incorrect: 0 Accuracy: 1
Variant_2 Correct: 0 Incorrect: 0 Accuracy: -nan
Variant_3 Correct: 0 Incorrect: 0 Accuracy: -nan
