
*** ChampSim Multicore Out-of-Order Simulator ***

Warmup Instructions: 50000000
Simulation Instructions: 50000000
Number of CPUs: 1
LLC sets: 2048
LLC ways: 16
Off-chip DRAM Size: 4096 MB Channels: 1 Width: 64-bit Data Rate: 6400 MT/s
CPU 0 runs ./micro_traces/srv286.trace.gz
.gz
ITLB has LRU replacement policy
DTLB has LRU replacement policy
STLB has LRU replacement policy
L1I has LRU replacement policy
L1D has LRU replacement policy
Initialize SRRIP state for L2C
Initialize DRRIP state for LLC
Heartbeat_Variant_0 : 1296 0.316406 per_variant_size: 0 1296 0 0 0 0 0 0 0 
Heartbeat_Variant_1 : 1196 0.291992 per_variant_size: 0 607 589 0 0 0 0 0 0 
Heartbeat_Variant_2 : 1273 0.310791 per_variant_size: 0 530 348 216 179 0 0 0 0 
Heartbeat_Variant_3 : 0 0 per_variant_size: 0 0 0 0 0 0 0 0 0 
Heartbeat_Variant_0_evicts 0 : 5851 1 : 200 2 : 199 3 : 0 
Heartbeat_Variant_1_evicts 0 : 189 1 : 0 2 : 361 3 : 0 
Heartbeat_Variant_2_evicts 0 : 180 1 : 344 2 : 0 3 : 0 
Heartbeat_Variant_3_evicts 0 : 0 1 : 0 2 : 0 3 : 0 
Heartbeat CPU 0 instructions: 10000003 cycles: 2797631 heartbeat IPC: 3.57445 cumulative IPC: 3.57445 (Simulation time: 0 hr 1 min 22 sec) 
Heartbeat_Variant_0 : 1350 0.32959 per_variant_size: 0 1350 0 0 0 0 0 0 0 
Heartbeat_Variant_1 : 1235 0.301514 per_variant_size: 0 577 658 0 0 0 0 0 0 
Heartbeat_Variant_2 : 1320 0.322266 per_variant_size: 0 507 360 250 203 0 0 0 0 
Heartbeat_Variant_3 : 0 0 per_variant_size: 0 0 0 0 0 0 0 0 0 
Heartbeat_Variant_0_evicts 0 : 5728 1 : 183 2 : 160 3 : 0 
Heartbeat_Variant_1_evicts 0 : 165 1 : 0 2 : 354 3 : 0 
Heartbeat_Variant_2_evicts 0 : 168 1 : 348 2 : 0 3 : 0 
Heartbeat_Variant_3_evicts 0 : 0 1 : 0 2 : 0 3 : 0 
Heartbeat CPU 0 instructions: 20000000 cycles: 5596288 heartbeat IPC: 3.57314 cumulative IPC: 3.5738 (Simulation time: 0 hr 2 min 40 sec) 
Heartbeat_Variant_0 : 1352 0.330078 per_variant_size: 0 1352 0 0 0 0 0 0 0 
Heartbeat_Variant_1 : 1250 0.305176 per_variant_size: 0 596 654 0 0 0 0 0 0 
Heartbeat_Variant_2 : 1325 0.323486 per_variant_size: 0 516 363 246 200 0 0 0 0 
Heartbeat_Variant_3 : 0 0 per_variant_size: 0 0 0 0 0 0 0 0 0 
Heartbeat_Variant_0_evicts 0 : 5618 1 : 50 2 : 30 3 : 0 
Heartbeat_Variant_1_evicts 0 : 55 1 : 0 2 : 238 3 : 0 
Heartbeat_Variant_2_evicts 0 : 29 1 : 234 2 : 0 3 : 0 
Heartbeat_Variant_3_evicts 0 : 0 1 : 0 2 : 0 3 : 0 
Heartbeat CPU 0 instructions: 30000001 cycles: 8392537 heartbeat IPC: 3.57622 cumulative IPC: 3.5746 (Simulation time: 0 hr 3 min 57 sec) 
Heartbeat_Variant_0 : 1362 0.33252 per_variant_size: 0 1362 0 0 0 0 0 0 0 
Heartbeat_Variant_1 : 1249 0.304932 per_variant_size: 0 590 659 0 0 0 0 0 0 
Heartbeat_Variant_2 : 1337 0.326416 per_variant_size: 0 522 378 227 210 0 0 0 0 
Heartbeat_Variant_3 : 0 0 per_variant_size: 0 0 0 0 0 0 0 0 0 
Heartbeat_Variant_0_evicts 0 : 5574 1 : 81 2 : 99 3 : 0 
Heartbeat_Variant_1_evicts 0 : 71 1 : 0 2 : 283 3 : 0 
Heartbeat_Variant_2_evicts 0 : 101 1 : 281 2 : 0 3 : 0 
Heartbeat_Variant_3_evicts 0 : 0 1 : 0 2 : 0 3 : 0 
Heartbeat CPU 0 instructions: 40000000 cycles: 11190232 heartbeat IPC: 3.57437 cumulative IPC: 3.57455 (Simulation time: 0 hr 5 min 16 sec) 
Heartbeat_Variant_0 : 1370 0.334473 per_variant_size: 0 1370 0 0 0 0 0 0 0 
Heartbeat_Variant_1 : 1251 0.30542 per_variant_size: 0 578 673 0 0 0 0 0 0 
Heartbeat_Variant_2 : 1341 0.327393 per_variant_size: 0 515 381 244 201 0 0 0 0 
Heartbeat_Variant_3 : 0 0 per_variant_size: 0 0 0 0 0 0 0 0 0 
Heartbeat_Variant_0_evicts 0 : 5624 1 : 52 2 : 52 3 : 0 
Heartbeat_Variant_1_evicts 0 : 50 1 : 0 2 : 246 3 : 0 
Heartbeat_Variant_2_evicts 0 : 50 1 : 245 2 : 0 3 : 0 
Heartbeat_Variant_3_evicts 0 : 0 1 : 0 2 : 0 3 : 0 
Heartbeat CPU 0 instructions: 50000003 cycles: 13986826 heartbeat IPC: 3.57578 cumulative IPC: 3.57479 (Simulation time: 0 hr 6 min 33 sec) 

Warmup complete CPU 0 instructions: 50000003 cycles: 13986826 (Simulation time: 0 hr 6 min 33 sec) 

Cycle: 20000000 FTQ IN: 55016138 FTQ occupancy: 15.5974 DECODE IN: 55016120 DECODE occupancy: 9.43506 ROB IN: 55016120 ROB occupancy: 258.481 ROB OUT: 55016120
Heartbeat_Variant_0 : 1377 0.336182 per_variant_size: 0 1377 0 0 0 0 0 0 0 
Heartbeat_Variant_1 : 1260 0.307617 per_variant_size: 0 593 667 0 0 0 0 0 0 
Heartbeat_Variant_2 : 1339 0.326904 per_variant_size: 0 505 385 243 206 0 0 0 0 
Heartbeat_Variant_3 : 0 0 per_variant_size: 0 0 0 0 0 0 0 0 0 
Heartbeat_Variant_0_evicts 0 : 5683 1 : 31 2 : 31 3 : 0 
Heartbeat_Variant_1_evicts 0 : 33 1 : 0 2 : 231 3 : 0 
Heartbeat_Variant_2_evicts 0 : 25 1 : 232 2 : 0 3 : 0 
Heartbeat_Variant_3_evicts 0 : 0 1 : 0 2 : 0 3 : 0 
Heartbeat CPU 0 instructions: 60000000 cycles: 25873712 heartbeat IPC: 0.841263 cumulative IPC: 0.841263 (Simulation time: 0 hr 7 min 43 sec) 
Cycle: 30000000 FTQ IN: 8488551 FTQ occupancy: 13.843 DECODE IN: 8488551 DECODE occupancy: 4.64342 ROB IN: 8488551 ROB occupancy: 47.6318 ROB OUT: 8488536
Heartbeat_Variant_0 : 1389 0.339111 per_variant_size: 0 1389 0 0 0 0 0 0 0 
Heartbeat_Variant_1 : 1278 0.312012 per_variant_size: 0 562 716 0 0 0 0 0 0 
Heartbeat_Variant_2 : 1350 0.32959 per_variant_size: 0 488 381 280 201 0 0 0 0 
Heartbeat_Variant_3 : 0 0 per_variant_size: 0 0 0 0 0 0 0 0 0 
Heartbeat_Variant_0_evicts 0 : 5917 1 : 161 2 : 159 3 : 0 
Heartbeat_Variant_1_evicts 0 : 160 1 : 0 2 : 329 3 : 0 
Heartbeat_Variant_2_evicts 0 : 159 1 : 324 2 : 0 3 : 0 
Heartbeat_Variant_3_evicts 0 : 0 1 : 0 2 : 0 3 : 0 
Heartbeat CPU 0 instructions: 70000001 cycles: 37746093 heartbeat IPC: 0.842291 cumulative IPC: 0.841777 (Simulation time: 0 hr 8 min 54 sec) 
Cycle: 40000000 FTQ IN: 8396006 FTQ occupancy: 13.741 DECODE IN: 8396006 DECODE occupancy: 4.60522 ROB IN: 8396006 ROB occupancy: 46.7563 ROB OUT: 8396021
Heartbeat_Variant_0 : 1397 0.341064 per_variant_size: 0 1397 0 0 0 0 0 0 0 
Heartbeat_Variant_1 : 1271 0.310303 per_variant_size: 0 546 725 0 0 0 0 0 0 
Heartbeat_Variant_2 : 1355 0.330811 per_variant_size: 0 490 377 275 213 0 0 0 0 
Heartbeat_Variant_3 : 0 0 per_variant_size: 0 0 0 0 0 0 0 0 0 
Heartbeat_Variant_0_evicts 0 : 5609 1 : 37 2 : 31 3 : 0 
Heartbeat_Variant_1_evicts 0 : 29 1 : 0 2 : 215 3 : 0 
Heartbeat_Variant_2_evicts 0 : 32 1 : 217 2 : 0 3 : 0 
Heartbeat_Variant_3_evicts 0 : 0 1 : 0 2 : 0 3 : 0 
Heartbeat CPU 0 instructions: 80000000 cycles: 49686662 heartbeat IPC: 0.837481 cumulative IPC: 0.84034 (Simulation time: 0 hr 10 min 6 sec) 
Cycle: 50000000 FTQ IN: 8363438 FTQ occupancy: 13.8904 DECODE IN: 8363438 DECODE occupancy: 4.65504 ROB IN: 8363438 ROB occupancy: 49.5439 ROB OUT: 8363418
Cycle: 60000000 FTQ IN: 8499471 FTQ occupancy: 13.8344 DECODE IN: 8499480 DECODE occupancy: 4.6496 ROB IN: 8499473 ROB occupancy: 47.0975 ROB OUT: 8499451
Heartbeat_Variant_0 : 1397 0.341064 per_variant_size: 0 1397 0 0 0 0 0 0 0 
Heartbeat_Variant_1 : 1272 0.310547 per_variant_size: 0 539 733 0 0 0 0 0 0 
Heartbeat_Variant_2 : 1354 0.330566 per_variant_size: 0 489 378 276 211 0 0 0 0 
Heartbeat_Variant_3 : 0 0 per_variant_size: 0 0 0 0 0 0 0 0 0 
Heartbeat_Variant_0_evicts 0 : 5642 1 : 1 2 : 1 3 : 0 
Heartbeat_Variant_1_evicts 0 : 2 1 : 0 2 : 198 3 : 0 
Heartbeat_Variant_2_evicts 0 : 0 1 : 198 2 : 0 3 : 0 
Heartbeat_Variant_3_evicts 0 : 0 1 : 0 2 : 0 3 : 0 
Heartbeat CPU 0 instructions: 90000002 cycles: 61445363 heartbeat IPC: 0.850434 cumulative IPC: 0.842841 (Simulation time: 0 hr 11 min 15 sec) 
Cycle: 70000000 FTQ IN: 8339882 FTQ occupancy: 13.8732 DECODE IN: 8339886 DECODE occupancy: 4.65022 ROB IN: 8339882 ROB occupancy: 49.2416 ROB OUT: 8339873
Heartbeat_Variant_0 : 1396 0.34082 per_variant_size: 0 1396 0 0 0 0 0 0 0 
Heartbeat_Variant_1 : 1278 0.312012 per_variant_size: 0 550 728 0 0 0 0 0 0 
Heartbeat_Variant_2 : 1354 0.330566 per_variant_size: 0 495 378 257 224 0 0 0 0 
Heartbeat_Variant_3 : 0 0 per_variant_size: 0 0 0 0 0 0 0 0 0 
Heartbeat_Variant_0_evicts 0 : 5594 1 : 86 2 : 101 3 : 0 
Heartbeat_Variant_1_evicts 0 : 94 1 : 0 2 : 266 3 : 0 
Heartbeat_Variant_2_evicts 0 : 96 1 : 268 2 : 0 3 : 0 
Heartbeat_Variant_3_evicts 0 : 0 1 : 0 2 : 0 3 : 0 
Heartbeat CPU 0 instructions: 100000000 cycles: 73412823 heartbeat IPC: 0.835599 cumulative IPC: 0.841383 (Simulation time: 0 hr 12 min 32 sec) 
Finished CPU 0 instructions: 50000002 cycles: 59426000 cumulative IPC: 0.841383 (Simulation time: 0 hr 12 min 32 sec) 

ChampSim completed all CPUs

Region of Interest Statistics

CPU 0 cumulative IPC: 0.841383 instructions: 50000002 cycles: 59426000
 Fetch stage stalled: 37.5087  Sim cycles: 59426000 fetch stall cycle: 22289942
 Empty decode stage: 70.8168  Sim cycles: 59426000 fetch stall cycle: 42083584
ITLB TOTAL     ACCESS:    7252146  HIT:    6760054  MISS:     492092  HIT %:    93.2145  MISS %:    6.78547   MPKI: 9.84184
ITLB LOAD TRANSLATION INSTRUCTION	ACCESS:    7252146  HIT:    6760054  MISS:     492092  HIT %:    93.2145  MISS %:    6.78547  MPKI: 9.84184

ITLB AVERAGE MISS LATENCY: 9.0513 cycles
ITLB RQ	ACCESS:    8393314	FORWARD:          0	MERGED:     937385	TO_CACHE:    7455929

DTLB TOTAL     ACCESS:   10483786  HIT:   10008518  MISS:     475268  HIT %:    95.4666  MISS %:    4.53336   MPKI: 9.50536
DTLB LOAD TRANSLATION DATA	ACCESS:   10483786  HIT:   10008518  MISS:     475268  HIT %:    95.4666  MISS %:    4.53336  MPKI: 9.50536

DTLB AVERAGE MISS LATENCY: 9.32246 cycles
DTLB RQ	ACCESS:   14547298	FORWARD:          0	MERGED:    4035381	TO_CACHE:   10511917

STLB TOTAL     ACCESS:    1228700  HIT:    1226530  MISS:       2170  HIT %:    99.8234  MISS %:   0.176609   MPKI: 0.0434
STLB LOAD TRANSLATION INSTRUCTION	ACCESS:     492091  HIT:     491792  MISS:        299  HIT %:    99.9392  MISS %:  0.0607611  MPKI: 0.00598
STLB LOAD TRANSLATION DATA	ACCESS:     475266  HIT:     473419  MISS:       1847  HIT %:    99.6114  MISS %:   0.388624  MPKI: 0.03694
STLB TRANSLATION FROM L1D PREFETCHER DATA	ACCESS:     261343  HIT:     261319  MISS:         24  HIT %:    99.9908  MISS %: 0.00918333  MPKI: 0.00048

STLB AVERAGE MISS LATENCY: 72.641 cycles
STLB RQ	ACCESS:    1346732	FORWARD:          0	MERGED:     117995	TO_CACHE:    1228737

STLB Hit, L1D data hit: 0
STLB Hit, L2C data hit: 0
STLB Hit, LLC data hit: 0
STLB Hit, LLC data miss: 0
STLB STLB hints to L2: 0
L1D TOTAL     ACCESS:   14344047  HIT:   13231900  MISS:    1112147  HIT %:    92.2466  MISS %:    7.75337   MPKI: 22.2429
L1D LOAD DATA	ACCESS:    7688487  HIT:    6960098  MISS:     728389  HIT %:    90.5262  MISS %:    9.47376  MPKI: 14.5678
L1D RFO DATA	ACCESS:    6318088  HIT:    6028950  MISS:     289138  HIT %:    95.4236  MISS %:    4.57635  MPKI: 5.78276
L1D PREFETCH DATA	ACCESS:     337472  HIT:     242852  MISS:      94620  HIT %:    71.9621  MISS %:    28.0379  MPKI: 1.8924

L1D PREFETCH  REQUESTED:     758932  ISSUED:     758932  USEFUL:      35915  USELESS:      67575
L1D USEFUL LOAD PREFETCHES:      35915 PREFETCH ISSUED TO LOWER LEVEL:     103595  ACCURACY: 34.6687
 TIMELY PREFETCHES:      35915 LATE PREFETCHES: 8898 DROPPED PREFETCHES: 8
L1D AVERAGE MISS LATENCY: 352053 cycles
L1D RQ	ACCESS:   11500419	FORWARD:          0	MERGED:    3630027	TO_CACHE:    7720916
L1D WQ	ACCESS:    6941569	FORWARD:     149662	MERGED:     115187	TO_CACHE:    6826382
L1D PQ	ACCESS:     379559	FORWARD:          0	MERGED:          0	TO_CACHE:     379373

L1D UNIQUE REGIONS ACCESSED: 0
L1D REGIONS CONFLICTS: 0
L1D Cross Page Prefetch Requests: 6752
L1D Same Page Prefetch Requests: 755735
L1D ROI Sum of L1D PQ occupancy: 4819814
L1D PREFETCHES PUSHED FROM L2C: 0
L1I TOTAL     ACCESS:    7898814  HIT:    5146583  MISS:    2752231  HIT %:    65.1564  MISS %:    34.8436   MPKI: 55.0446
L1I LOAD INSTRUCTION	ACCESS:    7898814  HIT:    5146583  MISS:    2752231  HIT %:    65.1564  MISS %:    34.8436  MPKI: 55.0446

L1I AVERAGE MISS LATENCY: 17.0264 cycles
L1I RQ	ACCESS:   15246095	FORWARD:          0	MERGED:    6852781	TO_CACHE:    8393314

L1BTB TOTAL     ACCESS:    5670045  HIT:    2053587  MISS:    3616458  HIT %:    36.2182  MISS %:    63.7818   MPKI: 72.3292
L1BTB BRANCH_DIRECT_JUMP	ACCESS:     548067  HIT:     145508  MISS:     402559	AVERAGE STALL: 20.5336
L1BTB BRANCH_INDIRECT	ACCESS:     183282  HIT:      66500  MISS:     116782	AVERAGE STALL: 48.5403
L1BTB BRANCH_CONDITIONAL	ACCESS:    2712367  HIT:    1423500  MISS:    1288867	AVERAGE STALL: 29.2029
L1BTB BRANCH_DIRECT_CALL	ACCESS:     941937  HIT:     105863  MISS:     836074	AVERAGE STALL: 37.9871
L1BTB BRANCH_INDIRECT_CALL	ACCESS:     171233  HIT:      21367  MISS:     149866	AVERAGE STALL: 63.5514
L1BTB BRANCH_RETURN	ACCESS:    1113159  HIT:     290849  MISS:     822310	AVERAGE STALL: 33.4284
L1BTB BRANCH_OTHER ACCESS:          0  HIT:          0  MISS:          0	AVERAGE STALL: -nan
L1BTB TOTAL ROB OCCUPANCY AT BTB MISS: 0.557516

L2BTB TOTAL     ACCESS:    3591033  HIT:    3524352  MISS:      66681  HIT %:    98.1431  MISS %:    1.85688   MPKI: 1.33362
L2BTB BRANCH_DIRECT_JUMP	ACCESS:     398350  HIT:     393602  MISS:       4748	AVERAGE STALL: 20.5336
L2BTB BRANCH_INDIRECT	ACCESS:     106538  HIT:     103853  MISS:       2685	AVERAGE STALL: 48.5403
L2BTB BRANCH_CONDITIONAL	ACCESS:    1288867  HIT:    1284511  MISS:       4356	AVERAGE STALL: 29.2029
L2BTB BRANCH_DIRECT_CALL	ACCESS:     836074  HIT:     834489  MISS:       1585	AVERAGE STALL: 37.9871
L2BTB BRANCH_INDIRECT_CALL	ACCESS:     140290  HIT:     129828  MISS:      10462	AVERAGE STALL: 63.5514
L2BTB BRANCH_RETURN	ACCESS:     820914  HIT:     778069  MISS:      42845	AVERAGE STALL: 33.4284
L2BTB BRANCH_OTHER ACCESS:          0  HIT:          0  MISS:          0	AVERAGE STALL: -nan
L2BTB TOTAL ROB OCCUPANCY AT BTB MISS: 30.237

L2C TOTAL     ACCESS:    4477667  HIT:    3979672  MISS:     497995  HIT %:    88.8782  MISS %:    11.1218   MPKI: 9.9599
L2C LOAD INSTRUCTION	ACCESS:    2752230  HIT:    2491978  MISS:     260252  HIT %:     90.544  MISS %:    9.45604  MPKI: 5.20504
L2C LOAD TRANSLATION INSTRUCTION	ACCESS:        345  HIT:         61  MISS:        284  HIT %:    17.6812  MISS %:    82.3188  MPKI: 0.00568
L2C LOAD DATA	ACCESS:     719482  HIT:     636760  MISS:      82722  HIT %:    88.5026  MISS %:    11.4974  MPKI: 1.65444
L2C RFO DATA	ACCESS:     289048  HIT:     230715  MISS:      58333  HIT %:    79.8189  MISS %:    20.1811  MPKI: 1.16666
L2C PREFETCH DATA	ACCESS:     194887  HIT:     116390  MISS:      78497  HIT %:    59.7218  MISS %:    40.2782  MPKI: 1.56994
L2C WRITEBACK DATA	ACCESS:     519691  HIT:     503170  MISS:      16521  HIT %:     96.821  MISS %:      3.179  MPKI: 0.33042
L2C LOAD TRANSLATION DATA	ACCESS:       1940  HIT:        566  MISS:       1374  HIT %:    29.1753  MISS %:    70.8247  MPKI: 0.02748
L2C TRANSLATION FROM L1D PREFETCHER DATA	ACCESS:         44  HIT:         32  MISS:         12  HIT %:    72.7273  MISS %:    27.2727  MPKI: 0.00024

L2C PREFETCH  REQUESTED:      98474  ISSUED:      98474  USEFUL:       8712  USELESS:      70217
L2C USEFUL LOAD PREFETCHES:       8712 PREFETCH ISSUED TO LOWER LEVEL:      78906  ACCURACY: 11.041
 TIMELY PREFETCHES:       8712 LATE PREFETCHES: 409 DROPPED PREFETCHES: 0
L2C AVERAGE MISS LATENCY: 38.7606 cycles
L2C RQ	ACCESS:    3763111	FORWARD:          0	MERGED:          0	TO_CACHE:    3763089
L2C WQ	ACCESS:     519691	FORWARD:         22	MERGED:          0	TO_CACHE:     519691
L2C PQ	ACCESS:     202069	FORWARD:          0	MERGED:       3404	TO_CACHE:     198665

L2C Dense regions hint from L2: 0
PSCL5 TOTAL     ACCESS:       4362  HIT:       2181  MISS:       2181  HIT %:         50  MISS %:         50   MPKI: 0.04362
PSCL5 LOAD TRANSLATION INSTRUCTION	ACCESS:       4274  HIT:       2137  MISS:       2137  HIT %:         50  MISS %:         50  MPKI: 0.04274
PSCL5 TRANSLATION FROM L1D PREFETCHER INSTRUCTION	ACCESS:         88  HIT:         44  MISS:         44  HIT %:         50  MISS %:         50  MPKI: 0.00088


PSCL4 TOTAL     ACCESS:       4230  HIT:       2109  MISS:       2121  HIT %:    49.8582  MISS %:    50.1418   MPKI: 0.04242
PSCL4 LOAD TRANSLATION INSTRUCTION	ACCESS:       2406  HIT:       2065  MISS:        341  HIT %:    85.8271  MISS %:    14.1729  MPKI: 0.00682
PSCL4 TRANSLATION FROM L1D PREFETCHER INSTRUCTION	ACCESS:         51  HIT:         44  MISS:          7  HIT %:    86.2745  MISS %:    13.7255  MPKI: 0.00014
PSCL4 LOAD TRANSLATION DATA	ACCESS:       1736  HIT:          0  MISS:       1736  HIT %:          0  MISS %:        100  MPKI: 0.03472
PSCL4 TRANSLATION FROM L1D PREFETCHER DATA	ACCESS:         37  HIT:          0  MISS:         37  HIT %:          0  MISS %:        100  MPKI: 0.00074


PSCL3 TOTAL     ACCESS:       4318  HIT:       2153  MISS:       2165  HIT %:     49.861  MISS %:     50.139   MPKI: 0.0433
PSCL3 LOAD TRANSLATION INSTRUCTION	ACCESS:       2450  HIT:       2109  MISS:        341  HIT %:    86.0816  MISS %:    13.9184  MPKI: 0.00682
PSCL3 TRANSLATION FROM L1D PREFETCHER INSTRUCTION	ACCESS:         51  HIT:         44  MISS:          7  HIT %:    86.2745  MISS %:    13.7255  MPKI: 0.00014
PSCL3 LOAD TRANSLATION DATA	ACCESS:       1780  HIT:          0  MISS:       1780  HIT %:          0  MISS %:        100  MPKI: 0.0356
PSCL3 TRANSLATION FROM L1D PREFETCHER DATA	ACCESS:         37  HIT:          0  MISS:         37  HIT %:          0  MISS %:        100  MPKI: 0.00074


PSCL2 TOTAL     ACCESS:       4234  HIT:       2053  MISS:       2181  HIT %:    48.4884  MISS %:    51.5116   MPKI: 0.04362
PSCL2 LOAD TRANSLATION INSTRUCTION	ACCESS:       2309  HIT:       2009  MISS:        300  HIT %:    87.0074  MISS %:    12.9926  MPKI: 0.006
PSCL2 TRANSLATION FROM L1D PREFETCHER INSTRUCTION	ACCESS:         44  HIT:         44  MISS:          0  HIT %:        100  MISS %:          0  MPKI: 0
PSCL2 LOAD TRANSLATION DATA	ACCESS:       1837  HIT:          0  MISS:       1837  HIT %:          0  MISS %:        100  MPKI: 0.03674
PSCL2 TRANSLATION FROM L1D PREFETCHER DATA	ACCESS:         44  HIT:          0  MISS:         44  HIT %:          0  MISS %:        100  MPKI: 0.00088


LLC TOTAL     ACCESS:     562782  HIT:     532476  MISS:      30306  HIT %:     94.615  MISS %:    5.38503   MPKI: 0.60612
LLC LOAD INSTRUCTION	ACCESS:     260252  HIT:     259098  MISS:       1154  HIT %:    99.5566  MISS %:   0.443416  MPKI: 0.02308
LLC LOAD TRANSLATION INSTRUCTION	ACCESS:        284  HIT:        253  MISS:         31  HIT %:    89.0845  MISS %:    10.9155  MPKI: 0.00062
LLC LOAD DATA	ACCESS:      82323  HIT:      78774  MISS:       3549  HIT %:    95.6889  MISS %:    4.31107  MPKI: 0.07098
LLC RFO DATA	ACCESS:      58319  HIT:      42907  MISS:      15412  HIT %:    73.5729  MISS %:    26.4271  MPKI: 0.30824
LLC PREFETCH DATA	ACCESS:      78905  HIT:      69189  MISS:       9716  HIT %:    87.6865  MISS %:    12.3135  MPKI: 0.19432
LLC WRITEBACK DATA	ACCESS:      81313  HIT:      80959  MISS:        354  HIT %:    99.5646  MISS %:   0.435355  MPKI: 0.00708
LLC LOAD TRANSLATION DATA	ACCESS:       1374  HIT:       1285  MISS:         89  HIT %:    93.5226  MISS %:    6.47744  MPKI: 0.00178
LLC TRANSLATION FROM L1D PREFETCHER DATA	ACCESS:         12  HIT:         11  MISS:          1  HIT %:    91.6667  MISS %:    8.33333  MPKI: 2e-05

LLC AVERAGE MISS LATENCY: 159.16 cycles
LLC RQ	ACCESS:     402568	FORWARD:          0	MERGED:          0	TO_CACHE:     402564
LLC WQ	ACCESS:      81313	FORWARD:          5	MERGED:          0	TO_CACHE:      81313
LLC PQ	ACCESS:      78906	FORWARD:          0	MERGED:          0	TO_CACHE:      78905

LLC Dense regions hint to LLC: 0

RAW hits: 1136786
Loads Generated: 12637205
Loads sent to L1D: 11500419
Stores Generated: 6941569
Stores sent to L1D: 6941569
Major fault: 0 Minor fault: 2562
Allocated PAGES: 2562

stream: 
stream:times selected: 1187465
stream:pref_filled: 121873
stream:pref_useful: 25127
stream:pref_late: 6596
stream:misses: 7372
stream:misses_by_poll: 0

CS: 
CS:times selected: 180322
CS:pref_filled: 58298
CS:pref_useful: 35848
CS:pref_late: 7535
CS:misses: 17548
CS:misses_by_poll: 3

CPLX: 
CPLX:times selected: 1006019
CPLX:pref_filled: 21896
CPLX:pref_useful: 4791
CPLX:pref_late: 3027
CPLX:misses: 92125
CPLX:misses_by_poll: 1

NL_L1: 
NL:times selected: 20396
NL:pref_filled: 637
NL:pref_useful: 309
NL:pref_late: 322
NL:misses: 1537
NL:misses_by_poll: 0

total selections: 2394202
total_filled: 94620
total_useful: 35915
total_late: 19004
total_polluted: 4
total_misses_after_warmup: 760818
conflicts: 6037523

test: 119079

DRAM Statistics
 CHANNEL 0
 RQ ROW_BUFFER_HIT:      11174  ROW_BUFFER_MISS:      18773
 DBUS_CONGESTED:          5
 WQ ROW_BUFFER_HIT:       1569  ROW_BUFFER_MISS:      13007  FULL:          0

 AVG_CONGESTED_CYCLE: 4

CPU 0 Branch Prediction Accuracy: 99.8145% MPKI: 0.339 Average ROB Occupancy at Mispredict: 65.827
Branch types
NOT_BRANCH: 40860658 81.7213%
BRANCH_DIRECT_JUMP: 548067 1.09613%
BRANCH_INDIRECT: 183282 0.366564%
BRANCH_CONDITIONAL: 6181359 12.3627%
BRANCH_DIRECT_CALL: 941937 1.88387%
BRANCH_INDIRECT_CALL: 171233 0.342466%
BRANCH_RETURN: 1113159 2.22632%
BRANCH_OTHER: 0 0%

DRAM PAGES: 1048576
Allocated PAGES: 2562
Average_ROB_Occupancy: 48.9968
Average_Decode_Occupancy: 4.64077
Average_FTQ_Occupancy: 13.8371
Indirect max targets: 14 Average targets: 1.15512
Branch_type:  BRANCH_DIRECT_JUMP:  Count Percentage: 2.90143 7.5637 3.70446 8.67973 2.40218 5.96739 0.993393 67.7877 
Branch_type:  BRANCH_INDIRECT:  Count Percentage: 11.7418 3.4892 2.53946 0 1.33657 9.68025 19.2208 51.9919 
Branch_type:  BRANCH_CONDITIONAL:  Count Percentage: 21.0718 3.16388 1.72308 8.67062 1.57308 4.79696 1.82363 57.1769 
Branch_type:  BRANCH_DIRECT_CALL:  Count Percentage: 0.759336 1.296 1.43871 4.21002 3.32107 2.35744 0.731303 85.8861 
Branch_type:  BRANCH_INDIRECT_CALL:  Count Percentage: 9.55031 0.569946 2.99346 4.84731 1.03465 1.71042 1.28274 78.0112 
Branch_type:  BRANCH_RETURN:  Count Percentage: 3.98547 0.696497 1.27129 9.26402 3.10398 6.1894 2.96919 72.5201 
Branch_type:  BRANCH_DIRECT_JUMP:  Total Count: 31795 82886 40595 95116 26324 65393 10886 742845 
Branch_type:  BRANCH_INDIRECT:  Total Count: 42950 12763 9289 0 4889 35409 70307 190179 
Branch_type:  BRANCH_CONDITIONAL:  Total Count: 2603894 390968 212925 1071448 194389 592772 225350 7065485 
Branch_type:  BRANCH_DIRECT_CALL:  Total Count: 14329 24456 27149 79445 62670 44486 13800 1620709 
Branch_type:  BRANCH_INDIRECT_CALL:  Total Count: 32759 1955 10268 16627 3549 5867 4400 267590 
Branch_type:  BRANCH_RETURN:  Total Count: 88911 15538 28361 206669 69246 138078 66239 1617836 
Number of unique branch instructions: 10227
Upper 32 bits: 
aaaa
ffff
ffff0000
Unique upper 32 bits: 3
Unique upper 36 bits: 3
Unique upper 40 bits: 5
Unique upper 44 bits: 32
Unique upper 48 bits: 157
Variant_0 : 1396 0.34082
Variant_1 : 1278 0.312012
Variant_2 : 1354 0.330566
Variant_3 : 0 0
Offset_3 4203
Offset_4 265
Offset_5 469
Offset_6 514
Offset_7 602
Offset_8 528
Offset_9 488
Offset_10 399
Offset_11 324
Offset_12 296
Offset_13 212
Offset_14 231
Offset_15 193
Offset_16 227
Offset_17 154
Offset_18 126
Offset_19 245
Offset_20 144
Offset_21 261
Offset_22 394
Offset_23 241
Offset_24 354
Offset_25 88
Offset_47 86
Offset_64 1
decode_dispatch_called: 30648355 51.574
Dispatch_width: 0 18545822 60.5116 31.2083
Dispatch_width: 1 2313630 7.54895 3.8933
Dispatch_width: 2 1127116 3.67757 1.89667
Dispatch_width: 3 1086348 3.54456 1.82807
Dispatch_width: 4 1010217 3.29615 1.69996
Dispatch_width: 5 1259415 4.10924 2.1193
Dispatch_width: 6 5305807 17.3119 8.92843
Empty_decode_cycles: 28777645 48.426
ROB_full_cycles: 497877 0.83781
Starvation_cycles_per_kilo_instr: 536.223
Starvation_cycles_per_kilo_instr_3: 513.527
Starvation_cycles_per_kilo_instr_0: 468.256
Branch_type_1  (3,1)  (4,10)  (5,39)  (6,70)  (7,118)  (8,130)  (9,129)  (10,101)  (11,72)  (12,51)  (13,8)  (14,2)  (15,3)  (16,4)  (18,1)  (19,4)  (20,2)  (21,1)  (22,3)  (23,2)  (24,10)  (25,12) 
Branch_type_2  (3,1)  (5,1)  (8,3)  (9,3)  (12,1)  (13,1)  (14,1)  (16,3)  (17,2)  (20,2)  (21,2)  (23,5)  (24,1)  (47,40) 
Branch_type_3  (3,4201)  (4,255)  (5,425)  (6,428)  (7,451)  (8,333)  (9,269)  (10,162)  (11,133)  (12,58)  (13,7) 
Branch_type_4  (6,4)  (7,8)  (8,26)  (9,55)  (10,63)  (11,62)  (12,102)  (13,90)  (14,103)  (15,92)  (16,102)  (17,70)  (18,57)  (19,118)  (20,74)  (21,141)  (22,209)  (23,136)  (24,204)  (25,72) 
Branch_type_5  (8,2)  (9,1)  (10,4)  (11,5)  (12,3)  (13,14)  (14,16)  (15,11)  (16,20)  (17,11)  (18,16)  (19,13)  (20,11)  (21,13)  (22,42)  (23,26)  (24,41) 
Branch_type_6  (5,4)  (6,12)  (7,25)  (8,34)  (9,31)  (10,69)  (11,52)  (12,81)  (13,92)  (14,109)  (15,87)  (16,98)  (17,71)  (18,52)  (19,110)  (20,55)  (21,104)  (22,140)  (23,72)  (24,98)  (25,4)  (47,46)  (64,1) 
Unique trigger count: 
Variant_0_evicts_0 : 0
Variant_0_evicts_1 : 0
Variant_0_evicts_2 : 0
Variant_0_evicts_3 : 0
Variant_1_evicts_0 : 0
Variant_1_evicts_1 : 0
Variant_1_evicts_2 : 0
Variant_1_evicts_3 : 0
Variant_2_evicts_0 : 0
Variant_2_evicts_1 : 0
Variant_2_evicts_2 : 0
Variant_2_evicts_3 : 0
Variant_3_evicts_0 : 0
Variant_3_evicts_1 : 0
Variant_3_evicts_2 : 0
Variant_3_evicts_3 : 0
BTB PER SET UNIQUE ADDR: 10 12 8 10 12 12 7 14 9 9 10 11 17 7 10 8 6 13 10 11 11 10 13 10 10 8 12 17 13 9 10 14 18 9 10 9 16 16 6 11 10 6 9 10 9 9 12 7 9 13 10 12 10 10 7 5 11 9 13 8 10 12 11 15 15 13 11 8 14 12 12 15 11 13 11 6 7 9 11 15 14 9 8 14 10 15 13 10 4 18 8 8 14 9 7 11 8 7 10 14 13 18 11 10 12 8 9 13 11 10 8 14 11 12 7 7 12 15 11 10 14 8 10 10 9 9 5 10 16 11 9 10 9 14 9 19 11 7 11 21 9 11 12 13 10 12 15 12 8 9 13 11 12 10 10 12 14 15 9 7 14 11 10 11 12 13 11 7 9 9 11 12 12 11 10 8 12 10 12 6 8 15 13 12 15 14 8 14 15 10 11 11 14 15 13 13 7 15 10 12 11 14 10 6 8 12 9 10 9 10 9 13 13 17 8 13 13 11 11 14 9 11 11 7 9 13 15 12 10 13 6 6 13 14 6 12 12 11 10 7 12 10 14 9 9 10 12 11 11 8 19 10 10 10 11 10 9 10 9 9 14 9 4 10 15 5 10 9 7 7 9 10 8 5 8 11 8 15 11 10 9 11 9 9 11 8 11 15 16 14 10 5 15 15 6 13 14 10 11 10 10 6 7 17 13 13 10 10 12 10 11 16 13 14 10 10 12 9 8 18 5 13 9 12 11 9 9 6 11 9 13 11 8 8 7 11 13 10 9 20 11 10 6 11 14 12 10 13 11 7 14 12 10 6 12 13 9 14 9 13 10 11 11 11 9 11 6 11 14 17 12 10 10 9 12 11 10 14 14 16 12 11 7 12 9 12 10 11 9 14 11 9 15 14 9 6 11 10 13 8 13 13 11 8 14 13 15 6 12 14 11 8 7 14 15 12 13 10 14 12 9 15 13 12 12 11 10 9 11 11 11 13 11 9 11 10 12 7 7 7 13 11 8 12 20 6 7 9 16 13 12 12 16 10 16 16 16 11 11 13 9 14 13 11 12 12 7 13 9 15 9 13 7 6 15 20 12 12 7 12 19 15 12 10 10 10 12 10 16 17 9 14 10 6 8 14 13 15 13 12 10 18 10 19 9 8 8 17 14 11 10 16 11 7 10 14 15 16 7 9 12 10 12 8 11 11 19 7 9 14 9 10 9 10 10 16 10 11 13 12 14 9 14 10 16 13 14 15 8 14 10 13 14 12 13 10 11 13 13 12 12 16 12 11 13 11 9 7 11 14 14 13 13 16 12 11 14 11 12 13 19 8 11 11 14 10 14 8 15 13 7 15 8 6 13 12 7 13 10 11 8 8 10 5 8 11 16 8 10 10 20 10 12 11 5 7 13 13 12 13 18 15 7 8 10 14 11 18 10 12 8 12 13 11 11 13 13 14 5 15 11 17 10 10 12 15 10 15 12 11 8 13 11 11 15 11 10 11 8 8 10 7 15 10 12 15 8 9 9 13 10 9 11 12 20 11 11 19 13 15 15 14 11 13 12 15 10 11 15 15 14 12 14 10 11 9 12 11 5 12 6 12 18 13 8 15 11 7 7 8 10 15 8 7 6 8 17 11 9 10 10 10 12 10 10 10 10 8 9 14 15 9 15 9 14 12 17 12 16 12 11 11 12 11 10 19 10 16 14 9 9 11 9 10 11 11 11 10 8 3 8 8 9 5 8 14 11 12 11 10 13 14 12 5 6 5 18 9 14 16 6 15 10 9 10 14 8 11 9 6 6 8 9 10 15 10 7 12 12 7 14 10 17 10 17 10 9 8 9 12 12 15 12 14 12 18 19 12 6 12 12 21 8 10 13 11 8 11 9 11 9 12 12 13 9 13 15 11 7 9 14 14 9 12 8 15 6 16 12 11 11 13 9 12 7 17 13 11 11 12 11 9 11 12 16 7 12 7 18 8 8 10 11 13 16 6 14 8 9 15 11 9 12 11 13 15 16 12 14 12 13 8 11 13 6 11 15 11 10 9 10 8 9 11 6 12 11 7 9 13 11 13 12 15 11 7 14 9 10 12 11 14 12 10 8 13 8 12 11 5 9 22 19 11 6 15 11 14 15 11 8 12 9 9 12 10 12 13 12 14 13 10 10 15 11 16 13 12 12 11 16 11 9 16 11 12 14 9 6 17 14 12 14 9 13 12 10 10 16 14 10 13 12 9 9 17 10 11 16 13 15 13 8 12 11 9 6 5 12 9 15 17 11 8 12 11 8 9 6 14 9 13 13 6 10 10 9 10 5 7 11 15 9 8 
BTB PER SET COUNT: 765 17 1963 11 13 30 7 927 1475 9 13 14 16719 8 11 10 988 2427 493 17 15 11 764 37 13 8 14 23 380 11 14 18 27 9 13 12 20 39 6 18 10 6 10 14 12 175 16 8 779 495 11 421 28 12 10 5 15 10 167 11 13 18 366 24 17 17 11 8 22 16 16 329 13 22 13 7 11 12 14 22 20 10 13 24 13 809 21 14 4 28 12 822 347 16 7 12 497 7 13 1966 21 681 11 10 1868 9 16 14 14 1881 8 20 500 14 7 229 13 18 1476 611 381 8 12 13 9 61 6 15 26 664 10 10 9 22 13 34 987 8 12 37 14 686 17 18 17 335 1240 15 9 12 21 179 1597 15 10 15 1229 23 20 795 20 16 543 11 14 1614 14 7 10 385 17 19 18 13 20 15 17 16 331 985 415 253 1875 22 21 41 10 21 22 992 11 11 19 29 16 45 7 573 15 12 17 24 660 6 10 20 9 14 10 13 12 14 16 24 9 1947 13 19 2938 24 10 26 13 16 10 20 22 46 12 16 10 6 16 21 6 3912 14 18 14 9 1180 14 16 13 13 11 19 13 11 12 23 18 13 10 11 14 9 214 14 20 124 10 4 14 17 6 11 10 79 7 11 388 8 9 452 14 11 21 17 10 15 23 652 10 13 10 12 17 19 18 13 7 18 518 8 18 325 16 15 30 11 11 7 21 15 150 56 10 218 17 11 28 21 15 1476 14 23 10 8 27 8 5881 13 17 13 82 425 7 17 19 19 15 14 10 7 12 16 437 9 28 11 386 7 15 354 15 12 20 13 8 17 15 14 12 17 15 11 21 499 17 11 17 15 15 9 25 6 14 19 22 18 201 12 11 13 11 14 20 18 516 312 14 988 16 12 13 17 16 10 28 29 9 19 30 9 7 19 15 387 10 18 18 14 8 24 16 19 495 26 21 129 9 7 25 22 12 22 54 22 13 12 28 20 14 18 15 1158 12 12 15 14 17 15 16 12 17 15 12 9 10 469 18 36 15 1681 6 7 10 30 16 707 2008 25 15 111 271 24 13 16 16 35 15 17 424 13 13 9 16 13 20 12 21 7 7 21 35 13 332 7 16 28 418 14 13 12 631 15 13 26 28 352 23 1092 7 10 17 991 28 17 24 16 21 10 281 14 9 12 25 17 17 20 24 227 1142 13 18 25 21 11 448 18 11 13 264 11 11 42 1305 16 21 10 10 19 18 13 243 17 991 15 511 20 11 35 11 23 24 22 25 10 868 10 17 667 246 19 14 12 17 15 15 13 33 16 12 382 16 143 8 18 23 21 21 21 17 2459 15 21 13 17 23 24 8 14 1452 14 17 508 9 19 16 13 24 10 8 19 19 7 387 10 16 8 9 10 5 16 14 18 1154 11 11 31 1477 27 21 6 7 178 15 14 301 23 15 10 988 12 21 15 28 10 19 11 17 458 21 15 16 18 17 5 16 13 22 11 11 1479 23 952 17 545 12 10 18 15 11 20 502 10 24 10 92 13 7 22 12 57 25 12 987 1917 15 14 15 599 19 24 14 16 24 17 23 18 15 16 38 18 24 15 12 18 18 21 17 18 22 63 10 14 624 8 15 7 15 24 19 12 24 13 7 7 9 14 353 134 7 6 8 33 22 13 13 12 19 16 1793 14 13 12 8 971 24 16 15 17 116 15 677 36 15 22 18 720 14 22 74 16 29 10 21 23 12 1475 18 9 1965 1403 12 13 11 8 3 13 10 13 147 9 22 11 17 14 11 70 19 14 6 6 6 25 14 17 17 1476 20 703 10 12 19 12 14 12 6 6 797 9 15 110 11 9 15 15 676 18 11 27 11 23 13 12 8 10 42 12 18 24 14 15 616 398 1593 8 2287 16 100 9 11 70 11 9 13 11 14 10 19 18 16 10 1234 17 12 23 47 25 21 13 14 9 24 6 21 21 14682 308 239 11 16 1473 23 23 16 17 14 200 11 11 15 33 11 16 7 26 13 8 14 12 14 18 6 18 9 11 23 13 9 18 19 621 885 23 19 18 424 15 9 19 4820 6 18 22 16 665 11 12 8 12 471 7 20 15 7 12 17 438 629 19 17 17 325 2157 806 13 14 15 374 12 676 12 16 11 17 16 5 11 27 648 16 11 961 15 21 25 13 8 1657 11 11 17 12 14 32 19 18 19 104 1476 2183 13 20 17 13 14 26 390 15 825 19 15 13 1483 12 6 32 30 2334 18 9 58 20 10 11 175 19 122 27 18 219 9 466 13 89 19 27 26 20 9 16 17 15 11 1472 16 11 104 1484 19 12 14 14 16 11 6 995 16 253 17 11 12 12 10 287 5 7 14 265 9 8 
To predecode: 0
Predecoding something: 0
Predecode request dropped: 0
sizeofblock_0 0
sizeofblock_1 44988
sizeofblock_2 30781
sizeofblock_3 43943
sizeofblock_4 20760
sizeofblock_5 0
sizeofblock_6 0
sizeofblock_7 0
sizeofblock_8 0
Variant_0 Correct: 1612646 Incorrect: 0 Accuracy: 1
Variant_1 Correct: 2090881 Incorrect: 0 Accuracy: 1
Variant_2 Correct: 3641627 Incorrect: 0 Accuracy: 1
Variant_3 Correct: 0 Incorrect: 0 Accuracy: -nan
