
*** ChampSim Multicore Out-of-Order Simulator ***

Warmup Instructions: 50000000
Simulation Instructions: 50000000
Number of CPUs: 1
LLC sets: 2048
LLC ways: 16
Off-chip DRAM Size: 4096 MB Channels: 1 Width: 64-bit Data Rate: 6400 MT/s
CPU 0 runs ./micro_traces/srv296.trace.gz
.gz
ITLB has LRU replacement policy
DTLB has LRU replacement policy
STLB has LRU replacement policy
FDIP Prefetcher at L1I
L1I has LRU replacement policy
L1D has LRU replacement policy
Initialize SRRIP state for L2C
Initialize DRRIP state for LLC
Heartbeat_Variant_0 : 1354 0.330566 per_variant_size: 0 1354 0 0 0 0 0 0 0 
Heartbeat_Variant_1 : 1034 0.252441 per_variant_size: 0 170 864 0 0 0 0 0 0 
Heartbeat_Variant_2 : 866 0.211426 per_variant_size: 0 148 101 110 507 0 0 0 0 
Heartbeat_Variant_3 : 0 0 per_variant_size: 0 0 0 0 0 0 0 0 0 
Heartbeat_Variant_0_evicts 0 : 5589 1 : 0 2 : 0 3 : 0 
Heartbeat_Variant_1_evicts 0 : 0 1 : 0 2 : 197 3 : 0 
Heartbeat_Variant_2_evicts 0 : 0 1 : 195 2 : 0 3 : 0 
Heartbeat_Variant_3_evicts 0 : 0 1 : 0 2 : 0 3 : 0 
Heartbeat CPU 0 instructions: 10000002 cycles: 2798356 heartbeat IPC: 3.57353 cumulative IPC: 3.57353 (Simulation time: 0 hr 2 min 5 sec) 
Heartbeat_Variant_0 : 1354 0.330566 per_variant_size: 0 1354 0 0 0 0 0 0 0 
Heartbeat_Variant_1 : 1038 0.253418 per_variant_size: 0 172 866 0 0 0 0 0 0 
Heartbeat_Variant_2 : 868 0.211914 per_variant_size: 0 150 101 100 517 0 0 0 0 
Heartbeat_Variant_3 : 0 0 per_variant_size: 0 0 0 0 0 0 0 0 0 
Heartbeat_Variant_0_evicts 0 : 5478 1 : 0 2 : 0 3 : 0 
Heartbeat_Variant_1_evicts 0 : 0 1 : 0 2 : 194 3 : 0 
Heartbeat_Variant_2_evicts 0 : 0 1 : 194 2 : 0 3 : 0 
Heartbeat_Variant_3_evicts 0 : 0 1 : 0 2 : 0 3 : 0 
Heartbeat CPU 0 instructions: 20000003 cycles: 5593866 heartbeat IPC: 3.57717 cumulative IPC: 3.57535 (Simulation time: 0 hr 4 min 12 sec) 
Heartbeat_Variant_0 : 1355 0.330811 per_variant_size: 0 1355 0 0 0 0 0 0 0 
Heartbeat_Variant_1 : 1042 0.254395 per_variant_size: 0 173 869 0 0 0 0 0 0 
Heartbeat_Variant_2 : 871 0.212646 per_variant_size: 0 146 106 97 522 0 0 0 0 
Heartbeat_Variant_3 : 0 0 per_variant_size: 0 0 0 0 0 0 0 0 0 
Heartbeat_Variant_0_evicts 0 : 5568 1 : 0 2 : 0 3 : 0 
Heartbeat_Variant_1_evicts 0 : 0 1 : 0 2 : 194 3 : 0 
Heartbeat_Variant_2_evicts 0 : 0 1 : 195 2 : 0 3 : 0 
Heartbeat_Variant_3_evicts 0 : 0 1 : 0 2 : 0 3 : 0 
Heartbeat CPU 0 instructions: 30000000 cycles: 8390041 heartbeat IPC: 3.57631 cumulative IPC: 3.57567 (Simulation time: 0 hr 6 min 15 sec) 
Heartbeat_Variant_0 : 1398 0.341309 per_variant_size: 0 1398 0 0 0 0 0 0 0 
Heartbeat_Variant_1 : 1081 0.263916 per_variant_size: 0 175 906 0 0 0 0 0 0 
Heartbeat_Variant_2 : 894 0.218262 per_variant_size: 0 131 125 93 545 0 0 0 0 
Heartbeat_Variant_3 : 0 0 per_variant_size: 0 0 0 0 0 0 0 0 0 
Heartbeat_Variant_0_evicts 0 : 5557 1 : 0 2 : 0 3 : 0 
Heartbeat_Variant_1_evicts 0 : 0 1 : 0 2 : 196 3 : 0 
Heartbeat_Variant_2_evicts 0 : 0 1 : 195 2 : 0 3 : 0 
Heartbeat_Variant_3_evicts 0 : 0 1 : 0 2 : 0 3 : 0 
Heartbeat CPU 0 instructions: 40000000 cycles: 11186414 heartbeat IPC: 3.57606 cumulative IPC: 3.57577 (Simulation time: 0 hr 8 min 10 sec) 
Heartbeat_Variant_0 : 1398 0.341309 per_variant_size: 0 1398 0 0 0 0 0 0 0 
Heartbeat_Variant_1 : 1083 0.264404 per_variant_size: 0 176 907 0 0 0 0 0 0 
Heartbeat_Variant_2 : 894 0.218262 per_variant_size: 0 129 127 99 539 0 0 0 0 
Heartbeat_Variant_3 : 0 0 per_variant_size: 0 0 0 0 0 0 0 0 0 
Heartbeat_Variant_0_evicts 0 : 5657 1 : 0 2 : 0 3 : 0 
Heartbeat_Variant_1_evicts 0 : 0 1 : 0 2 : 197 3 : 0 
Heartbeat_Variant_2_evicts 0 : 0 1 : 197 2 : 0 3 : 0 
Heartbeat_Variant_3_evicts 0 : 0 1 : 0 2 : 0 3 : 0 
Heartbeat CPU 0 instructions: 50000001 cycles: 13982954 heartbeat IPC: 3.57585 cumulative IPC: 3.57578 (Simulation time: 0 hr 10 min 11 sec) 

Warmup complete CPU 0 instructions: 50000001 cycles: 13982954 (Simulation time: 0 hr 10 min 11 sec) 

Cycle: 20000000 FTQ IN: 58242059 FTQ occupancy: 19.8677 DECODE IN: 58241937 DECODE occupancy: 51.8908 ROB IN: 58241877 ROB occupancy: 314.85 ROB OUT: 58241568
Heartbeat_Variant_0 : 1412 0.344727 per_variant_size: 0 1412 0 0 0 0 0 0 0 
Heartbeat_Variant_1 : 1095 0.267334 per_variant_size: 0 192 903 0 0 0 0 0 0 
Heartbeat_Variant_2 : 904 0.220703 per_variant_size: 0 131 121 105 547 0 0 0 0 
Heartbeat_Variant_3 : 0 0 per_variant_size: 0 0 0 0 0 0 0 0 0 
Heartbeat_Variant_0_evicts 0 : 5526 1 : 0 2 : 0 3 : 0 
Heartbeat_Variant_1_evicts 0 : 0 1 : 0 2 : 193 3 : 0 
Heartbeat_Variant_2_evicts 0 : 0 1 : 194 2 : 0 3 : 0 
Heartbeat_Variant_3_evicts 0 : 0 1 : 0 2 : 0 3 : 0 
Heartbeat CPU 0 instructions: 60000003 cycles: 21251973 heartbeat IPC: 1.3757 cumulative IPC: 1.3757 (Simulation time: 0 hr 12 min 26 sec) 
Heartbeat_Variant_0 : 1412 0.344727 per_variant_size: 0 1412 0 0 0 0 0 0 0 
Heartbeat_Variant_1 : 1097 0.267822 per_variant_size: 0 192 905 0 0 0 0 0 0 
Heartbeat_Variant_2 : 903 0.220459 per_variant_size: 0 131 120 115 537 0 0 0 0 
Heartbeat_Variant_3 : 0 0 per_variant_size: 0 0 0 0 0 0 0 0 0 
Heartbeat_Variant_0_evicts 0 : 5576 1 : 0 2 : 0 3 : 0 
Heartbeat_Variant_1_evicts 0 : 0 1 : 0 2 : 197 3 : 0 
Heartbeat_Variant_2_evicts 0 : 0 1 : 196 2 : 0 3 : 0 
Heartbeat_Variant_3_evicts 0 : 0 1 : 0 2 : 0 3 : 0 
Heartbeat CPU 0 instructions: 70000003 cycles: 28422126 heartbeat IPC: 1.39467 cumulative IPC: 1.38512 (Simulation time: 0 hr 14 min 47 sec) 
Cycle: 30000000 FTQ IN: 13860258 FTQ occupancy: 12.5363 DECODE IN: 13860264 DECODE occupancy: 32.8284 ROB IN: 13860322 ROB occupancy: 235.486 ROB OUT: 13860324
Heartbeat_Variant_0 : 1412 0.344727 per_variant_size: 0 1412 0 0 0 0 0 0 0 
Heartbeat_Variant_1 : 1096 0.267578 per_variant_size: 0 188 908 0 0 0 0 0 0 
Heartbeat_Variant_2 : 904 0.220703 per_variant_size: 0 131 121 107 545 0 0 0 0 
Heartbeat_Variant_3 : 0 0 per_variant_size: 0 0 0 0 0 0 0 0 0 
Heartbeat_Variant_0_evicts 0 : 5575 1 : 0 2 : 0 3 : 0 
Heartbeat_Variant_1_evicts 0 : 0 1 : 0 2 : 194 3 : 0 
Heartbeat_Variant_2_evicts 0 : 0 1 : 195 2 : 0 3 : 0 
Heartbeat_Variant_3_evicts 0 : 0 1 : 0 2 : 0 3 : 0 
Heartbeat CPU 0 instructions: 80000002 cycles: 35658786 heartbeat IPC: 1.38185 cumulative IPC: 1.38403 (Simulation time: 0 hr 17 min 6 sec) 
Cycle: 40000000 FTQ IN: 13915827 FTQ occupancy: 12.4896 DECODE IN: 13915876 DECODE occupancy: 32.9327 ROB IN: 13915818 ROB occupancy: 236.199 ROB OUT: 13915777
Heartbeat_Variant_0 : 1412 0.344727 per_variant_size: 0 1412 0 0 0 0 0 0 0 
Heartbeat_Variant_1 : 1097 0.267822 per_variant_size: 0 189 908 0 0 0 0 0 0 
Heartbeat_Variant_2 : 903 0.220459 per_variant_size: 0 131 119 115 538 0 0 0 0 
Heartbeat_Variant_3 : 0 0 per_variant_size: 0 0 0 0 0 0 0 0 0 
Heartbeat_Variant_0_evicts 0 : 5589 1 : 0 2 : 0 3 : 0 
Heartbeat_Variant_1_evicts 0 : 0 1 : 0 2 : 197 3 : 0 
Heartbeat_Variant_2_evicts 0 : 0 1 : 196 2 : 0 3 : 0 
Heartbeat_Variant_3_evicts 0 : 0 1 : 0 2 : 0 3 : 0 
Heartbeat CPU 0 instructions: 90000000 cycles: 42850702 heartbeat IPC: 1.39045 cumulative IPC: 1.38563 (Simulation time: 0 hr 19 min 24 sec) 
Cycle: 50000000 FTQ IN: 13838530 FTQ occupancy: 12.608 DECODE IN: 13838529 DECODE occupancy: 32.9556 ROB IN: 13838529 ROB occupancy: 235.626 ROB OUT: 13838529
Heartbeat_Variant_0 : 1412 0.344727 per_variant_size: 0 1412 0 0 0 0 0 0 0 
Heartbeat_Variant_1 : 1097 0.267822 per_variant_size: 0 189 908 0 0 0 0 0 0 
Heartbeat_Variant_2 : 903 0.220459 per_variant_size: 0 131 119 114 539 0 0 0 0 
Heartbeat_Variant_3 : 0 0 per_variant_size: 0 0 0 0 0 0 0 0 0 
Heartbeat_Variant_0_evicts 0 : 5596 1 : 0 2 : 0 3 : 0 
Heartbeat_Variant_1_evicts 0 : 0 1 : 0 2 : 196 3 : 0 
Heartbeat_Variant_2_evicts 0 : 0 1 : 196 2 : 0 3 : 0 
Heartbeat_Variant_3_evicts 0 : 0 1 : 0 2 : 0 3 : 0 
Heartbeat CPU 0 instructions: 100000001 cycles: 50100892 heartbeat IPC: 1.37927 cumulative IPC: 1.38435 (Simulation time: 0 hr 21 min 29 sec) 
Finished CPU 0 instructions: 50000000 cycles: 36117938 cumulative IPC: 1.38435 (Simulation time: 0 hr 21 min 29 sec) 

ChampSim completed all CPUs

Region of Interest Statistics

CPU 0 cumulative IPC: 1.38435 instructions: 50000000 cycles: 36117938
 Fetch stage stalled: 54.528  Sim cycles: 36117938 fetch stall cycle: 19694405
 Empty decode stage: 36.6411  Sim cycles: 36117938 fetch stall cycle: 13234026
ITLB TOTAL     ACCESS:    5847582  HIT:    5353698  MISS:     493884  HIT %:     91.554  MISS %:    8.44595   MPKI: 9.87768
ITLB LOAD TRANSLATION INSTRUCTION	ACCESS:    5725319  HIT:    5231435  MISS:     493884  HIT %:    91.3737  MISS %:    8.62631  MPKI: 9.87768
ITLB TRANSLATION FROM L1D PREFETCHER INSTRUCTION	ACCESS:     122263  HIT:     122263  MISS:          0  HIT %:        100  MISS %:          0  MPKI: 0

ITLB AVERAGE MISS LATENCY: 9.06253 cycles
ITLB RQ	ACCESS:    7976138	FORWARD:          0	MERGED:    1684639	TO_CACHE:    6291499

DTLB TOTAL     ACCESS:    8976401  HIT:    8502673  MISS:     473728  HIT %:    94.7225  MISS %:    5.27748   MPKI: 9.47456
DTLB LOAD TRANSLATION DATA	ACCESS:    8976401  HIT:    8502673  MISS:     473728  HIT %:    94.7225  MISS %:    5.27748  MPKI: 9.47456

DTLB AVERAGE MISS LATENCY: 9.32347 cycles
DTLB RQ	ACCESS:   13344036	FORWARD:          0	MERGED:    4331234	TO_CACHE:    9012802

STLB TOTAL     ACCESS:    1216104  HIT:    1213940  MISS:       2164  HIT %:    99.8221  MISS %:   0.177945   MPKI: 0.04328
STLB LOAD TRANSLATION INSTRUCTION	ACCESS:     493884  HIT:     493579  MISS:        305  HIT %:    99.9382  MISS %:  0.0617554  MPKI: 0.0061
STLB LOAD TRANSLATION DATA	ACCESS:     473728  HIT:     471902  MISS:       1826  HIT %:    99.6145  MISS %:   0.385453  MPKI: 0.03652
STLB TRANSLATION FROM L1D PREFETCHER DATA	ACCESS:     248492  HIT:     248459  MISS:         33  HIT %:    99.9867  MISS %:  0.0132801  MPKI: 0.00066

STLB AVERAGE MISS LATENCY: 71.2856 cycles
STLB RQ	ACCESS:    1337181	FORWARD:          0	MERGED:     121054	TO_CACHE:    1216127

STLB Hit, L1D data hit: 0
STLB Hit, L2C data hit: 0
STLB Hit, LLC data hit: 0
STLB Hit, LLC data miss: 0
STLB STLB hints to L2: 0
L1D TOTAL     ACCESS:   13091562  HIT:   11971522  MISS:    1120040  HIT %:    91.4446  MISS %:    8.55543   MPKI: 22.4008
L1D LOAD DATA	ACCESS:    6554857  HIT:    5818320  MISS:     736537  HIT %:    88.7635  MISS %:    11.2365  MPKI: 14.7307
L1D RFO DATA	ACCESS:    6208045  HIT:    5920634  MISS:     287411  HIT %:    95.3703  MISS %:    4.62965  MPKI: 5.74822
L1D PREFETCH DATA	ACCESS:     328660  HIT:     232568  MISS:      96092  HIT %:    70.7625  MISS %:    29.2375  MPKI: 1.92184

L1D PREFETCH  REQUESTED:     739470  ISSUED:     739470  USEFUL:      35291  USELESS:      68687
L1D USEFUL LOAD PREFETCHES:      35291 PREFETCH ISSUED TO LOWER LEVEL:     104065  ACCURACY: 33.9125
 TIMELY PREFETCHES:      35291 LATE PREFETCHES: 7908 DROPPED PREFETCHES: 2
L1D AVERAGE MISS LATENCY: 222541 cycles
L1D RQ	ACCESS:   10700163	FORWARD:          0	MERGED:    3946050	TO_CACHE:    6589251
L1D WQ	ACCESS:    6950533	FORWARD:     165194	MERGED:     195748	TO_CACHE:    6754785
L1D PQ	ACCESS:     369901	FORWARD:          0	MERGED:          0	TO_CACHE:     369569

L1D UNIQUE REGIONS ACCESSED: 0
L1D REGIONS CONFLICTS: 0
L1D Cross Page Prefetch Requests: 6977
L1D Same Page Prefetch Requests: 749888
L1D ROI Sum of L1D PQ occupancy: 4701618
L1D PREFETCHES PUSHED FROM L2C: 0
L1I TOTAL     ACCESS:    7164686  HIT:    4403874  MISS:    2760812  HIT %:    61.4664  MISS %:    38.5336   MPKI: 55.2162
L1I LOAD INSTRUCTION	ACCESS:    6506765  HIT:    3745953  MISS:    2760812  HIT %:    57.5701  MISS %:    42.4299  MPKI: 55.2162
L1I PREFETCH INSTRUCTION	ACCESS:     657921  HIT:     657921  MISS:          0  HIT %:        100  MISS %:          0  MPKI: 0

L1I PREFETCH  REQUESTED:    1593553  ISSUED:    1593553  USEFUL:          0  USELESS:          0
L1I USEFUL LOAD PREFETCHES:          0 PREFETCH ISSUED TO LOWER LEVEL:          0  ACCURACY: -nan
 TIMELY PREFETCHES:          0 LATE PREFETCHES: 0 DROPPED PREFETCHES: 0
L1I AVERAGE MISS LATENCY: 16.6978 cycles
L1I RQ	ACCESS:    9506014	FORWARD:          0	MERGED:    2687736	TO_CACHE:    6818278
L1I PQ	ACCESS:    1593553	FORWARD:          0	MERGED:     435693	TO_CACHE:    1157860

L1BTB TOTAL     ACCESS:    5668127  HIT:    2040044  MISS:    3628083  HIT %:    35.9915  MISS %:    64.0085   MPKI: 72.5617
L1BTB BRANCH_DIRECT_JUMP	ACCESS:     546980  HIT:     144160  MISS:     402820	AVERAGE STALL: 45.5653
L1BTB BRANCH_INDIRECT	ACCESS:     182413  HIT:      65665  MISS:     116748	AVERAGE STALL: 103.788
L1BTB BRANCH_CONDITIONAL	ACCESS:    2700945  HIT:    1409578  MISS:    1291367	AVERAGE STALL: 63.4116
L1BTB BRANCH_DIRECT_CALL	ACCESS:     946670  HIT:     106581  MISS:     840089	AVERAGE STALL: 52.5809
L1BTB BRANCH_INDIRECT_CALL	ACCESS:     172227  HIT:      21850  MISS:     150377	AVERAGE STALL: 128.783
L1BTB BRANCH_RETURN	ACCESS:    1118892  HIT:     292210  MISS:     826682	AVERAGE STALL: 44.838
L1BTB BRANCH_OTHER ACCESS:          0  HIT:          0  MISS:          0	AVERAGE STALL: -nan
L1BTB TOTAL ROB OCCUPANCY AT BTB MISS: 3.19872

L2BTB TOTAL     ACCESS:    3602754  HIT:    3527266  MISS:      75488  HIT %:    97.9047  MISS %:    2.09529   MPKI: 1.50976
L2BTB BRANCH_DIRECT_JUMP	ACCESS:     398674  HIT:     394754  MISS:       3920	AVERAGE STALL: 45.5653
L2BTB BRANCH_INDIRECT	ACCESS:     106481  HIT:     103834  MISS:       2647	AVERAGE STALL: 103.788
L2BTB BRANCH_CONDITIONAL	ACCESS:    1291367  HIT:    1280063  MISS:      11304	AVERAGE STALL: 63.4116
L2BTB BRANCH_DIRECT_CALL	ACCESS:     840089  HIT:     839396  MISS:        693	AVERAGE STALL: 52.5809
L2BTB BRANCH_INDIRECT_CALL	ACCESS:     140868  HIT:     130854  MISS:      10014	AVERAGE STALL: 128.783
L2BTB BRANCH_RETURN	ACCESS:     825275  HIT:     778365  MISS:      46910	AVERAGE STALL: 44.838
L2BTB BRANCH_OTHER ACCESS:          0  HIT:          0  MISS:          0	AVERAGE STALL: -nan
L2BTB TOTAL ROB OCCUPANCY AT BTB MISS: 153.736

L2C TOTAL     ACCESS:    4483106  HIT:    4076304  MISS:     406802  HIT %:    90.9259  MISS %:    9.07411   MPKI: 8.13604
L2C LOAD INSTRUCTION	ACCESS:    2760812  HIT:    2547928  MISS:     212884  HIT %:    92.2891  MISS %:    7.71092  MPKI: 4.25768
L2C LOAD TRANSLATION INSTRUCTION	ACCESS:        342  HIT:         91  MISS:        251  HIT %:    26.6082  MISS %:    73.3918  MPKI: 0.00502
L2C LOAD DATA	ACCESS:     728610  HIT:     663400  MISS:      65210  HIT %:    91.0501  MISS %:    8.94992  MPKI: 1.3042
L2C RFO DATA	ACCESS:     287331  HIT:     238788  MISS:      48543  HIT %:    83.1055  MISS %:    16.8945  MPKI: 0.97086
L2C PREFETCH DATA	ACCESS:     181259  HIT:     114256  MISS:      67003  HIT %:    63.0347  MISS %:    36.9653  MPKI: 1.34006
L2C WRITEBACK DATA	ACCESS:     522790  HIT:     511293  MISS:      11497  HIT %:    97.8008  MISS %:    2.19916  MPKI: 0.22994
L2C LOAD TRANSLATION DATA	ACCESS:       1917  HIT:        516  MISS:       1401  HIT %:    26.9171  MISS %:    73.0829  MPKI: 0.02802
L2C TRANSLATION FROM L1D PREFETCHER DATA	ACCESS:         45  HIT:         32  MISS:         13  HIT %:    71.1111  MISS %:    28.8889  MPKI: 0.00026

L2C PREFETCH  REQUESTED:      84496  ISSUED:      84496  USEFUL:       7147  USELESS:      60169
L2C USEFUL LOAD PREFETCHES:       7147 PREFETCH ISSUED TO LOWER LEVEL:      67272  ACCURACY: 10.624
 TIMELY PREFETCHES:       7147 LATE PREFETCHES: 269 DROPPED PREFETCHES: 0
L2C AVERAGE MISS LATENCY: 41.0119 cycles
L2C RQ	ACCESS:    3779091	FORWARD:          0	MERGED:          0	TO_CACHE:    3779057
L2C WQ	ACCESS:     522790	FORWARD:         34	MERGED:          0	TO_CACHE:     522790
L2C PQ	ACCESS:     188561	FORWARD:          0	MERGED:       3619	TO_CACHE:     184942

L2C Dense regions hint from L2: 0
PSCL5 TOTAL     ACCESS:       4336  HIT:       2168  MISS:       2168  HIT %:         50  MISS %:         50   MPKI: 0.04336
PSCL5 LOAD TRANSLATION INSTRUCTION	ACCESS:       4246  HIT:       2123  MISS:       2123  HIT %:         50  MISS %:         50  MPKI: 0.04246
PSCL5 TRANSLATION FROM L1D PREFETCHER INSTRUCTION	ACCESS:         90  HIT:         45  MISS:         45  HIT %:         50  MISS %:         50  MPKI: 0.0009


PSCL4 TOTAL     ACCESS:       3993  HIT:       1990  MISS:       2003  HIT %:    49.8372  MISS %:    50.1628   MPKI: 0.04006
PSCL4 LOAD TRANSLATION INSTRUCTION	ACCESS:       2607  HIT:       1948  MISS:        659  HIT %:    74.7219  MISS %:    25.2781  MPKI: 0.01318
PSCL4 TRANSLATION FROM L1D PREFETCHER INSTRUCTION	ACCESS:         68  HIT:         42  MISS:         26  HIT %:    61.7647  MISS %:    38.2353  MPKI: 0.00052
PSCL4 LOAD TRANSLATION DATA	ACCESS:       1302  HIT:          0  MISS:       1302  HIT %:          0  MISS %:        100  MPKI: 0.02604
PSCL4 TRANSLATION FROM L1D PREFETCHER DATA	ACCESS:         16  HIT:          0  MISS:         16  HIT %:          0  MISS %:        100  MPKI: 0.00032


PSCL3 TOTAL     ACCESS:       4073  HIT:       2030  MISS:       2043  HIT %:    49.8404  MISS %:    50.1596   MPKI: 0.04086
PSCL3 LOAD TRANSLATION INSTRUCTION	ACCESS:       2647  HIT:       1988  MISS:        659  HIT %:    75.1039  MISS %:    24.8961  MPKI: 0.01318
PSCL3 TRANSLATION FROM L1D PREFETCHER INSTRUCTION	ACCESS:         68  HIT:         42  MISS:         26  HIT %:    61.7647  MISS %:    38.2353  MPKI: 0.00052
PSCL3 LOAD TRANSLATION DATA	ACCESS:       1342  HIT:          0  MISS:       1342  HIT %:          0  MISS %:        100  MPKI: 0.02684
PSCL3 TRANSLATION FROM L1D PREFETCHER DATA	ACCESS:         16  HIT:          0  MISS:         16  HIT %:          0  MISS %:        100  MPKI: 0.00032


PSCL2 TOTAL     ACCESS:       4226  HIT:       2058  MISS:       2168  HIT %:    48.6985  MISS %:    51.3015   MPKI: 0.04336
PSCL2 LOAD TRANSLATION INSTRUCTION	ACCESS:       2317  HIT:       2013  MISS:        304  HIT %:    86.8796  MISS %:    13.1204  MPKI: 0.00608
PSCL2 TRANSLATION FROM L1D PREFETCHER INSTRUCTION	ACCESS:         45  HIT:         45  MISS:          0  HIT %:        100  MISS %:          0  MPKI: 0
PSCL2 LOAD TRANSLATION DATA	ACCESS:       1819  HIT:          0  MISS:       1819  HIT %:          0  MISS %:        100  MPKI: 0.03638
PSCL2 TRANSLATION FROM L1D PREFETCHER DATA	ACCESS:         45  HIT:          0  MISS:         45  HIT %:          0  MISS %:        100  MPKI: 0.0009


LLC TOTAL     ACCESS:     464004  HIT:     433858  MISS:      30146  HIT %:    93.5031  MISS %:    6.49693   MPKI: 0.60292
LLC LOAD INSTRUCTION	ACCESS:     212884  HIT:     211952  MISS:        932  HIT %:    99.5622  MISS %:   0.437797  MPKI: 0.01864
LLC LOAD TRANSLATION INSTRUCTION	ACCESS:        251  HIT:        216  MISS:         35  HIT %:    86.0558  MISS %:    13.9442  MPKI: 0.0007
LLC LOAD DATA	ACCESS:      64958  HIT:      61418  MISS:       3540  HIT %:    94.5503  MISS %:    5.44968  MPKI: 0.0708
LLC RFO DATA	ACCESS:      48521  HIT:      33263  MISS:      15258  HIT %:    68.5538  MISS %:    31.4462  MPKI: 0.30516
LLC PREFETCH DATA	ACCESS:      67272  HIT:      57330  MISS:       9942  HIT %:    85.2212  MISS %:    14.7788  MPKI: 0.19884
LLC WRITEBACK DATA	ACCESS:      68704  HIT:      68326  MISS:        378  HIT %:    99.4498  MISS %:   0.550186  MPKI: 0.00756
LLC LOAD TRANSLATION DATA	ACCESS:       1401  HIT:       1341  MISS:         60  HIT %:    95.7173  MISS %:    4.28266  MPKI: 0.0012
LLC TRANSLATION FROM L1D PREFETCHER DATA	ACCESS:         13  HIT:         12  MISS:          1  HIT %:    92.3077  MISS %:    7.69231  MPKI: 2e-05

LLC AVERAGE MISS LATENCY: 158.489 cycles
LLC RQ	ACCESS:     328033	FORWARD:          0	MERGED:          0	TO_CACHE:     328028
LLC WQ	ACCESS:      68704	FORWARD:          5	MERGED:          0	TO_CACHE:      68704
LLC PQ	ACCESS:      67272	FORWARD:          0	MERGED:          0	TO_CACHE:      67272

LLC Dense regions hint to LLC: 0

RAW hits: 1937311
Loads Generated: 12637474
Loads sent to L1D: 10700163
Stores Generated: 6950515
Stores sent to L1D: 6950533
Major fault: 0 Minor fault: 2577
Allocated PAGES: 2577

stream: 
stream:times selected: 1184348
stream:pref_filled: 122841
stream:pref_useful: 24390
stream:pref_late: 6650
stream:misses: 8087
stream:misses_by_poll: 0

CS: 
CS:times selected: 179244
CS:pref_filled: 60328
CS:pref_useful: 36974
CS:pref_late: 7019
CS:misses: 16723
CS:misses_by_poll: 4

CPLX: 
CPLX:times selected: 1003908
CPLX:pref_filled: 19313
CPLX:pref_useful: 4713
CPLX:pref_late: 2988
CPLX:misses: 92833
CPLX:misses_by_poll: 0

NL_L1: 
NL:times selected: 21342
NL:pref_filled: 765
NL:pref_useful: 372
NL:pref_late: 289
NL:misses: 1839
NL:misses_by_poll: 0

total selections: 2388842
total_filled: 96092
total_useful: 35291
total_late: 18269
total_polluted: 4
total_misses_after_warmup: 770930
conflicts: 5521282

test: 118100

DRAM Statistics
 CHANNEL 0
 RQ ROW_BUFFER_HIT:      11364  ROW_BUFFER_MISS:      18395
 DBUS_CONGESTED:         10
 WQ ROW_BUFFER_HIT:       1573  ROW_BUFFER_MISS:      12751  FULL:          0

 AVG_CONGESTED_CYCLE: 6

CPU 0 Branch Prediction Accuracy: 99.8232% MPKI: 0.32328 Average ROB Occupancy at Mispredict: 182.946
Branch types
NOT_BRANCH: 40855741 81.7115%
BRANCH_DIRECT_JUMP: 546980 1.09396%
BRANCH_INDIRECT: 182413 0.364826%
BRANCH_CONDITIONAL: 6176679 12.3534%
BRANCH_DIRECT_CALL: 946670 1.89334%
BRANCH_INDIRECT_CALL: 172227 0.344454%
BRANCH_RETURN: 1118892 2.23778%
BRANCH_OTHER: 0 0%

DRAM PAGES: 1048576
Allocated PAGES: 2577
Average_ROB_Occupancy: 237.065
Average_Decode_Occupancy: 32.8938
Average_FTQ_Occupancy: 12.5484
Indirect max targets: 14 Average targets: 1.14966
Branch_type:  BRANCH_DIRECT_JUMP:  Count Percentage: 3.24604 6.67624 3.95083 8.43024 1.69722 6.83195 1.16022 68.0073 
Branch_type:  BRANCH_INDIRECT:  Count Percentage: 11.7452 3.43234 10.5294 28.7079 3.34712 4.81886 2.00937 35.4098 
Branch_type:  BRANCH_CONDITIONAL:  Count Percentage: 20.9535 2.9195 2.88683 4.7076 1.45331 5.4417 0.648641 60.9889 
Branch_type:  BRANCH_DIRECT_CALL:  Count Percentage: 0.257983 1.26951 1.42541 2.12862 2.75634 2.97986 0.613819 88.5685 
Branch_type:  BRANCH_INDIRECT_CALL:  Count Percentage: 9.51475 0.565535 2.98249 4.82549 1.4346 2.98046 0.993389 76.7033 
Branch_type:  BRANCH_RETURN:  Count Percentage: 3.77363 0.568521 2.25245 6.32093 2.92523 5.44968 1.02683 77.6827 
Branch_type:  BRANCH_DIRECT_JUMP:  Total Count: 35501 73016 43209 92199 18562 74719 12689 743775 
Branch_type:  BRANCH_INDIRECT:  Total Count: 42863 12526 38426 104767 12215 17586 7333 129225 
Branch_type:  BRANCH_CONDITIONAL:  Total Count: 2587886 360576 356540 581416 179492 672082 80111 7532485 
Branch_type:  BRANCH_DIRECT_CALL:  Total Count: 4880 24014 26963 40265 52139 56367 11611 1675362 
Branch_type:  BRANCH_INDIRECT_CALL:  Total Count: 32757 1947 10268 16613 4939 10261 3420 264071 
Branch_type:  BRANCH_RETURN:  Total Count: 84404 12716 50380 141379 65428 121892 22967 1737514 
Number of unique branch instructions: 9897
Upper 32 bits: 
aaaa
ffff
ffff0000
Unique upper 32 bits: 3
Unique upper 36 bits: 3
Unique upper 40 bits: 5
Unique upper 44 bits: 32
Unique upper 48 bits: 154
Variant_0 : 1412 0.344727
Variant_1 : 1097 0.267822
Variant_2 : 903 0.220459
Variant_3 : 0 0
Offset_3 4062
Offset_4 241
Offset_5 454
Offset_6 502
Offset_7 581
Offset_8 509
Offset_9 463
Offset_10 378
Offset_11 313
Offset_12 287
Offset_13 203
Offset_14 227
Offset_15 189
Offset_16 225
Offset_17 144
Offset_18 126
Offset_19 240
Offset_20 141
Offset_21 235
Offset_22 393
Offset_23 241
Offset_24 327
Offset_25 88
Offset_47 80
Offset_64 1
decode_dispatch_called: 25238507 69.878
Dispatch_width: 0 13471541 53.3769 37.2988
Dispatch_width: 1 952844 3.77536 2.63815
Dispatch_width: 2 829081 3.28498 2.29548
Dispatch_width: 3 502556 1.99123 1.39143
Dispatch_width: 4 5422047 21.4832 15.0121
Dispatch_width: 5 169707 0.672413 0.469869
Dispatch_width: 6 3890731 15.4159 10.7723
Empty_decode_cycles: 10879431 30.122
ROB_full_cycles: 8562446 23.7069
Starvation_cycles_per_kilo_instr: 236.648
Starvation_cycles_per_kilo_instr_3: 180.73
Starvation_cycles_per_kilo_instr_0: 157.885
Branch_type_1  (3,1)  (4,9)  (5,37)  (6,69)  (7,114)  (8,129)  (9,122)  (10,96)  (11,70)  (12,51)  (13,5)  (14,2)  (15,3)  (16,4)  (18,1)  (19,4)  (20,2)  (21,1)  (22,3)  (23,2)  (24,10)  (25,12) 
Branch_type_2  (3,1)  (5,1)  (8,3)  (9,3)  (12,1)  (13,1)  (14,1)  (16,3)  (17,2)  (20,2)  (21,2)  (23,5)  (24,1)  (47,36) 
Branch_type_3  (3,4060)  (4,232)  (5,412)  (6,417)  (7,436)  (8,314)  (9,253)  (10,153)  (11,128)  (12,58)  (13,4)  (64,1) 
Branch_type_4  (6,4)  (7,8)  (8,26)  (9,53)  (10,61)  (11,59)  (12,98)  (13,88)  (14,102)  (15,89)  (16,101)  (17,64)  (18,57)  (19,117)  (20,73)  (21,124)  (22,210)  (23,136)  (24,188)  (25,72) 
Branch_type_5  (8,2)  (9,1)  (10,3)  (11,5)  (12,3)  (13,14)  (14,16)  (15,11)  (16,20)  (17,11)  (18,16)  (19,12)  (20,10)  (21,13)  (22,42)  (23,26)  (24,37) 
Branch_type_6  (5,4)  (6,12)  (7,23)  (8,35)  (9,31)  (10,65)  (11,51)  (12,76)  (13,91)  (14,106)  (15,86)  (16,97)  (17,67)  (18,52)  (19,107)  (20,54)  (21,95)  (22,138)  (23,72)  (24,91)  (25,4)  (47,44) 
Unique trigger count: 
Variant_0_evicts_0 : 0
Variant_0_evicts_1 : 0
Variant_0_evicts_2 : 0
Variant_0_evicts_3 : 0
Variant_1_evicts_0 : 0
Variant_1_evicts_1 : 0
Variant_1_evicts_2 : 0
Variant_1_evicts_3 : 0
Variant_2_evicts_0 : 0
Variant_2_evicts_1 : 0
Variant_2_evicts_2 : 0
Variant_2_evicts_3 : 0
Variant_3_evicts_0 : 0
Variant_3_evicts_1 : 0
Variant_3_evicts_2 : 0
Variant_3_evicts_3 : 0
BTB PER SET UNIQUE ADDR: 27 25 23 25 25 22 25 25 23 25 35 28 29 27 24 22 29 29 26 26 22 24 25 27 32 21 25 31 28 25 30 29 25 25 36 26 26 24 23 27 28 32 28 18 19 24 21 28 26 18 25 25 20 26 26 25 22 29 17 28 28 30 20 26 24 24 22 27 20 28 20 24 33 22 33 32 24 24 28 25 23 27 28 27 25 22 17 23 21 24 22 25 24 24 25 29 27 22 24 27 22 21 20 22 27 28 17 28 22 21 27 25 24 26 30 28 24 24 25 18 19 21 20 30 22 23 21 21 22 26 18 25 32 21 26 26 23 21 22 25 25 28 27 28 29 24 25 21 25 28 26 22 27 25 17 25 29 23 28 23 33 20 23 26 27 25 38 32 22 22 23 24 24 27 24 25 32 22 32 25 24 22 21 25 22 27 22 28 22 25 26 27 18 30 28 26 20 28 24 14 26 22 26 28 29 25 20 25 30 25 24 25 23 21 26 27 24 33 29 26 26 20 25 26 24 35 26 26 27 18 27 24 25 30 23 25 24 20 23 17 25 27 29 36 22 21 24 29 25 27 26 23 24 21 17 26 
BTB PER SET COUNT: 27 1007 30 29 31 249 27 1493 23 29 1529 1633 29 28 25 22 398 1009 397 28 22 999 2471 28 1976 24 26 1005 1984 397 31 4447 78 889 68 1005 207 1491 23 31 33 3453 466 81 20 30 21 1982 29 2464 539 236 20 26 32 27 25 571 24 23493 31 849 22 28 1006 25 24 28 994 37 20 24 520 27 4447 32 25 26 31 27 26 27 29 28 26 25 17 24 238 14694 2381 27 29 2477 512 2954 29 22 28 29 517 22 22 23 27 31 17 1001 1500 23 1980 35 29 28 33 895 27 1000 27 1155 19 24 39 927 35 24 3437 23 24 27 20 26 1013 22 26 28 24 24 23 25 85 3457 1884 52 31 1093 168 29 26 439 28 22 28 484 18 2478 31 25 515 28 667 2939 24 516 49 2473 589 35 23 22 998 819 2950 1009 763 2492 2968 24 1258 26 26 4249 2466 1400 2088 30 1979 611 24 523 202 300 18 1168 768 516 1115 2705 24 17 1578 1001 69 2149 1541 1528 33 25 36 521 374 29 1434 1481 29 72 1253 40 3411 653 37 401 26 27 1006 75 2375 72 1877 18 392 998 999 6878 1004 25 1971 20 7839 1964 1379 2966 1017 2486 30 24 1999 32 27 1008 38 24 248 27 17 175 
To predecode: 0
Predecoding something: 0
Predecode request dropped: 0
sizeofblock_0 0
sizeofblock_1 17949
sizeofblock_2 23476
sizeofblock_3 61731
sizeofblock_4 53137
sizeofblock_5 0
sizeofblock_6 0
sizeofblock_7 0
sizeofblock_8 0
Variant_0 Correct: 1615245 Incorrect: 0 Accuracy: 1
Variant_1 Correct: 2089663 Incorrect: 0 Accuracy: 1
Variant_2 Correct: 3620901 Incorrect: 6994 Accuracy: 0.998072
Variant_3 Correct: 0 Incorrect: 0 Accuracy: -nan
