
*** ChampSim Multicore Out-of-Order Simulator ***

Warmup Instructions: 50000000
Simulation Instructions: 50000000
Number of CPUs: 1
LLC sets: 2048
LLC ways: 16
Off-chip DRAM Size: 4096 MB Channels: 1 Width: 64-bit Data Rate: 6400 MT/s
CPU 0 runs ./micro_traces/srv231.trace.gz
.gz
ITLB has LRU replacement policy
DTLB has LRU replacement policy
STLB has LRU replacement policy
L1I has LRU replacement policy
L1D has LRU replacement policy
Initialize SRRIP state for L2C
Initialize DRRIP state for LLC
Heartbeat_Variant_0 : 1328 0.324219 per_variant_size: 0 1328 0 0 0 0 0 0 0 
Heartbeat_Variant_1 : 1201 0.293213 per_variant_size: 0 558 643 0 0 0 0 0 0 
Heartbeat_Variant_2 : 1289 0.314697 per_variant_size: 0 502 369 220 198 0 0 0 0 
Heartbeat_Variant_3 : 0 0 per_variant_size: 0 0 0 0 0 0 0 0 0 
Heartbeat_Variant_0_evicts 0 : 5883 1 : 180 2 : 188 3 : 0 
Heartbeat_Variant_1_evicts 0 : 191 1 : 0 2 : 390 3 : 0 
Heartbeat_Variant_2_evicts 0 : 157 1 : 388 2 : 0 3 : 0 
Heartbeat_Variant_3_evicts 0 : 0 1 : 0 2 : 0 3 : 0 
Heartbeat CPU 0 instructions: 10000001 cycles: 2798152 heartbeat IPC: 3.57379 cumulative IPC: 3.57379 (Simulation time: 0 hr 1 min 17 sec) 
Heartbeat_Variant_0 : 1353 0.330322 per_variant_size: 0 1353 0 0 0 0 0 0 0 
Heartbeat_Variant_1 : 1235 0.301514 per_variant_size: 0 569 666 0 0 0 0 0 0 
Heartbeat_Variant_2 : 1307 0.319092 per_variant_size: 0 480 392 226 209 0 0 0 0 
Heartbeat_Variant_3 : 0 0 per_variant_size: 0 0 0 0 0 0 0 0 0 
Heartbeat_Variant_0_evicts 0 : 5686 1 : 75 2 : 86 3 : 0 
Heartbeat_Variant_1_evicts 0 : 71 1 : 0 2 : 269 3 : 0 
Heartbeat_Variant_2_evicts 0 : 85 1 : 256 2 : 0 3 : 0 
Heartbeat_Variant_3_evicts 0 : 0 1 : 0 2 : 0 3 : 0 
Heartbeat CPU 0 instructions: 20000003 cycles: 5595581 heartbeat IPC: 3.57471 cumulative IPC: 3.57425 (Simulation time: 0 hr 2 min 34 sec) 
Heartbeat_Variant_0 : 1354 0.330566 per_variant_size: 0 1354 0 0 0 0 0 0 0 
Heartbeat_Variant_1 : 1249 0.304932 per_variant_size: 0 581 668 0 0 0 0 0 0 
Heartbeat_Variant_2 : 1333 0.325439 per_variant_size: 0 509 378 239 207 0 0 0 0 
Heartbeat_Variant_3 : 0 0 per_variant_size: 0 0 0 0 0 0 0 0 0 
Heartbeat_Variant_0_evicts 0 : 5572 1 : 67 2 : 57 3 : 0 
Heartbeat_Variant_1_evicts 0 : 64 1 : 0 2 : 259 3 : 0 
Heartbeat_Variant_2_evicts 0 : 66 1 : 254 2 : 0 3 : 0 
Heartbeat_Variant_3_evicts 0 : 0 1 : 0 2 : 0 3 : 0 
Heartbeat CPU 0 instructions: 30000003 cycles: 8392123 heartbeat IPC: 3.57584 cumulative IPC: 3.57478 (Simulation time: 0 hr 3 min 47 sec) 
Heartbeat_Variant_0 : 1364 0.333008 per_variant_size: 0 1364 0 0 0 0 0 0 0 
Heartbeat_Variant_1 : 1254 0.306152 per_variant_size: 0 590 664 0 0 0 0 0 0 
Heartbeat_Variant_2 : 1333 0.325439 per_variant_size: 0 508 389 222 214 0 0 0 0 
Heartbeat_Variant_3 : 0 0 per_variant_size: 0 0 0 0 0 0 0 0 0 
Heartbeat_Variant_0_evicts 0 : 5471 1 : 47 2 : 49 3 : 0 
Heartbeat_Variant_1_evicts 0 : 54 1 : 0 2 : 221 3 : 0 
Heartbeat_Variant_2_evicts 0 : 35 1 : 228 2 : 0 3 : 0 
Heartbeat_Variant_3_evicts 0 : 0 1 : 0 2 : 0 3 : 0 
Heartbeat CPU 0 instructions: 40000003 cycles: 11188994 heartbeat IPC: 3.57542 cumulative IPC: 3.57494 (Simulation time: 0 hr 5 min 7 sec) 
Heartbeat_Variant_0 : 1365 0.333252 per_variant_size: 0 1365 0 0 0 0 0 0 0 
Heartbeat_Variant_1 : 1263 0.30835 per_variant_size: 0 589 674 0 0 0 0 0 0 
Heartbeat_Variant_2 : 1347 0.328857 per_variant_size: 0 515 389 231 212 0 0 0 0 
Heartbeat_Variant_3 : 0 0 per_variant_size: 0 0 0 0 0 0 0 0 0 
Heartbeat_Variant_0_evicts 0 : 5657 1 : 32 2 : 48 3 : 0 
Heartbeat_Variant_1_evicts 0 : 29 1 : 0 2 : 239 3 : 0 
Heartbeat_Variant_2_evicts 0 : 54 1 : 234 2 : 0 3 : 0 
Heartbeat_Variant_3_evicts 0 : 0 1 : 0 2 : 0 3 : 0 
Heartbeat CPU 0 instructions: 50000002 cycles: 13986342 heartbeat IPC: 3.57481 cumulative IPC: 3.57492 (Simulation time: 0 hr 6 min 24 sec) 

Warmup complete CPU 0 instructions: 50000002 cycles: 13986342 (Simulation time: 0 hr 6 min 24 sec) 

Cycle: 20000000 FTQ IN: 55083083 FTQ occupancy: 15.5629 DECODE IN: 55083065 DECODE occupancy: 9.41919 ROB IN: 55083065 ROB occupancy: 257.34 ROB OUT: 55083045
Heartbeat_Variant_0 : 1379 0.33667 per_variant_size: 0 1379 0 0 0 0 0 0 0 
Heartbeat_Variant_1 : 1270 0.310059 per_variant_size: 0 614 656 0 0 0 0 0 0 
Heartbeat_Variant_2 : 1337 0.326416 per_variant_size: 0 497 394 239 207 0 0 0 0 
Heartbeat_Variant_3 : 0 0 per_variant_size: 0 0 0 0 0 0 0 0 0 
Heartbeat_Variant_0_evicts 0 : 5616 1 : 79 2 : 65 3 : 0 
Heartbeat_Variant_1_evicts 0 : 74 1 : 0 2 : 244 3 : 0 
Heartbeat_Variant_2_evicts 0 : 60 1 : 236 2 : 0 3 : 0 
Heartbeat_Variant_3_evicts 0 : 0 1 : 0 2 : 0 3 : 0 
Heartbeat CPU 0 instructions: 60000001 cycles: 25959944 heartbeat IPC: 0.835171 cumulative IPC: 0.835171 (Simulation time: 0 hr 7 min 37 sec) 
Cycle: 30000000 FTQ IN: 8341411 FTQ occupancy: 13.8819 DECODE IN: 8341411 DECODE occupancy: 4.64146 ROB IN: 8341411 ROB occupancy: 48.7335 ROB OUT: 8341128
Heartbeat_Variant_0 : 1389 0.339111 per_variant_size: 0 1389 0 0 0 0 0 0 0 
Heartbeat_Variant_1 : 1267 0.309326 per_variant_size: 0 590 677 0 0 0 0 0 0 
Heartbeat_Variant_2 : 1359 0.331787 per_variant_size: 0 506 382 259 212 0 0 0 0 
Heartbeat_Variant_3 : 0 0 per_variant_size: 0 0 0 0 0 0 0 0 0 
Heartbeat_Variant_0_evicts 0 : 5764 1 : 104 2 : 105 3 : 0 
Heartbeat_Variant_1_evicts 0 : 99 1 : 0 2 : 291 3 : 0 
Heartbeat_Variant_2_evicts 0 : 106 1 : 303 2 : 0 3 : 0 
Heartbeat_Variant_3_evicts 0 : 0 1 : 0 2 : 0 3 : 0 
Heartbeat CPU 0 instructions: 70000001 cycles: 37792592 heartbeat IPC: 0.845119 cumulative IPC: 0.840115 (Simulation time: 0 hr 8 min 53 sec) 
Cycle: 40000000 FTQ IN: 8445531 FTQ occupancy: 13.7956 DECODE IN: 8445531 DECODE occupancy: 4.62677 ROB IN: 8445531 ROB occupancy: 46.5843 ROB OUT: 8445824
Heartbeat_Variant_0 : 1386 0.338379 per_variant_size: 0 1386 0 0 0 0 0 0 0 
Heartbeat_Variant_1 : 1287 0.314209 per_variant_size: 0 613 674 0 0 0 0 0 0 
Heartbeat_Variant_2 : 1355 0.330811 per_variant_size: 0 496 400 252 207 0 0 0 0 
Heartbeat_Variant_3 : 0 0 per_variant_size: 0 0 0 0 0 0 0 0 0 
Heartbeat_Variant_0_evicts 0 : 5741 1 : 162 2 : 187 3 : 0 
Heartbeat_Variant_1_evicts 0 : 174 1 : 0 2 : 369 3 : 0 
Heartbeat_Variant_2_evicts 0 : 180 1 : 367 2 : 0 3 : 0 
Heartbeat_Variant_3_evicts 0 : 0 1 : 0 2 : 0 3 : 0 
Heartbeat CPU 0 instructions: 80000002 cycles: 49758138 heartbeat IPC: 0.835733 cumulative IPC: 0.83865 (Simulation time: 0 hr 10 min 6 sec) 
Cycle: 50000000 FTQ IN: 8331304 FTQ occupancy: 13.8721 DECODE IN: 8331322 DECODE occupancy: 4.63807 ROB IN: 8331322 ROB occupancy: 48.7325 ROB OUT: 8331299
Cycle: 60000000 FTQ IN: 8464143 FTQ occupancy: 13.8475 DECODE IN: 8464130 DECODE occupancy: 4.64533 ROB IN: 8464118 ROB occupancy: 47.4431 ROB OUT: 8464133
Heartbeat_Variant_0 : 1386 0.338379 per_variant_size: 0 1386 0 0 0 0 0 0 0 
Heartbeat_Variant_1 : 1287 0.314209 per_variant_size: 0 611 676 0 0 0 0 0 0 
Heartbeat_Variant_2 : 1355 0.330811 per_variant_size: 0 496 400 254 205 0 0 0 0 
Heartbeat_Variant_3 : 0 0 per_variant_size: 0 0 0 0 0 0 0 0 0 
Heartbeat_Variant_0_evicts 0 : 5641 1 : 10 2 : 10 3 : 0 
Heartbeat_Variant_1_evicts 0 : 10 1 : 0 2 : 206 3 : 0 
Heartbeat_Variant_2_evicts 0 : 10 1 : 206 2 : 0 3 : 0 
Heartbeat_Variant_3_evicts 0 : 0 1 : 0 2 : 0 3 : 0 
Heartbeat CPU 0 instructions: 90000000 cycles: 61570768 heartbeat IPC: 0.846551 cumulative IPC: 0.840611 (Simulation time: 0 hr 11 min 16 sec) 
Cycle: 70000000 FTQ IN: 8496253 FTQ occupancy: 13.8556 DECODE IN: 8496248 DECODE occupancy: 4.65435 ROB IN: 8496248 ROB occupancy: 47.3068 ROB OUT: 8496243
Heartbeat_Variant_0 : 1387 0.338623 per_variant_size: 0 1387 0 0 0 0 0 0 0 
Heartbeat_Variant_1 : 1291 0.315186 per_variant_size: 0 618 673 0 0 0 0 0 0 
Heartbeat_Variant_2 : 1358 0.331543 per_variant_size: 0 497 392 260 209 0 0 0 0 
Heartbeat_Variant_3 : 0 0 per_variant_size: 0 0 0 0 0 0 0 0 0 
Heartbeat_Variant_0_evicts 0 : 5667 1 : 70 2 : 71 3 : 0 
Heartbeat_Variant_1_evicts 0 : 66 1 : 0 2 : 241 3 : 0 
Heartbeat_Variant_2_evicts 0 : 75 1 : 234 2 : 0 3 : 0 
Heartbeat_Variant_3_evicts 0 : 0 1 : 0 2 : 0 3 : 0 
Heartbeat CPU 0 instructions: 100000003 cycles: 73502519 heartbeat IPC: 0.8381 cumulative IPC: 0.840108 (Simulation time: 0 hr 12 min 29 sec) 
Finished CPU 0 instructions: 50000001 cycles: 59516177 cumulative IPC: 0.840108 (Simulation time: 0 hr 12 min 29 sec) 

ChampSim completed all CPUs

Region of Interest Statistics

CPU 0 cumulative IPC: 0.840108 instructions: 50000001 cycles: 59516177
 Fetch stage stalled: 37.4425  Sim cycles: 59516177 fetch stall cycle: 22284320
 Empty decode stage: 70.8195  Sim cycles: 59516177 fetch stall cycle: 42149087
ITLB TOTAL     ACCESS:    7250550  HIT:    6757560  MISS:     492990  HIT %:    93.2007  MISS %:    6.79935   MPKI: 9.8598
ITLB LOAD TRANSLATION INSTRUCTION	ACCESS:    7250550  HIT:    6757560  MISS:     492990  HIT %:    93.2007  MISS %:    6.79935  MPKI: 9.8598

ITLB AVERAGE MISS LATENCY: 9.04592 cycles
ITLB RQ	ACCESS:    8394032	FORWARD:          0	MERGED:     939327	TO_CACHE:    7454705

DTLB TOTAL     ACCESS:   10494995  HIT:   10018900  MISS:     476095  HIT %:    95.4636  MISS %:     4.5364   MPKI: 9.5219
DTLB LOAD TRANSLATION DATA	ACCESS:   10494995  HIT:   10018900  MISS:     476095  HIT %:    95.4636  MISS %:     4.5364  MPKI: 9.5219

DTLB AVERAGE MISS LATENCY: 9.31004 cycles
DTLB RQ	ACCESS:   14551634	FORWARD:          0	MERGED:    4028906	TO_CACHE:   10522728

STLB TOTAL     ACCESS:    1230357  HIT:    1228340  MISS:       2017  HIT %:    99.8361  MISS %:   0.163936   MPKI: 0.04034
STLB LOAD TRANSLATION INSTRUCTION	ACCESS:     492990  HIT:     492751  MISS:        239  HIT %:    99.9515  MISS %:  0.0484797  MPKI: 0.00478
STLB LOAD TRANSLATION DATA	ACCESS:     476091  HIT:     474339  MISS:       1752  HIT %:     99.632  MISS %:   0.367997  MPKI: 0.03504
STLB TRANSLATION FROM L1D PREFETCHER DATA	ACCESS:     261276  HIT:     261250  MISS:         26  HIT %:      99.99  MISS %: 0.00995116  MPKI: 0.00052

STLB AVERAGE MISS LATENCY: 73.5825 cycles
STLB RQ	ACCESS:    1347517	FORWARD:          0	MERGED:     117128	TO_CACHE:    1230389

STLB Hit, L1D data hit: 0
STLB Hit, L2C data hit: 0
STLB Hit, LLC data hit: 0
STLB Hit, LLC data miss: 0
STLB STLB hints to L2: 0
L1D TOTAL     ACCESS:   14349786  HIT:   13236421  MISS:    1113365  HIT %:    92.2412  MISS %:    7.75876   MPKI: 22.2673
L1D LOAD DATA	ACCESS:    7690480  HIT:    6959446  MISS:     731034  HIT %:    90.4943  MISS %:     9.5057  MPKI: 14.6207
L1D RFO DATA	ACCESS:    6322843  HIT:    6034214  MISS:     288629  HIT %:    95.4351  MISS %:    4.56486  MPKI: 5.77258
L1D PREFETCH DATA	ACCESS:     336463  HIT:     242761  MISS:      93702  HIT %:    72.1509  MISS %:    27.8491  MPKI: 1.87404

L1D PREFETCH  REQUESTED:     757028  ISSUED:     757028  USEFUL:      36116  USELESS:      67110
L1D USEFUL LOAD PREFETCHES:      36116 PREFETCH ISSUED TO LOWER LEVEL:     103323  ACCURACY: 34.9545
 TIMELY PREFETCHES:      36116 LATE PREFETCHES: 9553 DROPPED PREFETCHES: 3
L1D AVERAGE MISS LATENCY: 379963 cycles
L1D RQ	ACCESS:   11501236	FORWARD:          0	MERGED:    3631033	TO_CACHE:    7720375
L1D WQ	ACCESS:    6946951	FORWARD:     149992	MERGED:     115692	TO_CACHE:    6831259
L1D PQ	ACCESS:     378596	FORWARD:          0	MERGED:          0	TO_CACHE:     378432

L1D UNIQUE REGIONS ACCESSED: 0
L1D REGIONS CONFLICTS: 0
L1D Cross Page Prefetch Requests: 6728
L1D Same Page Prefetch Requests: 758242
L1D ROI Sum of L1D PQ occupancy: 4805450
L1D PREFETCHES PUSHED FROM L2C: 0
L1I TOTAL     ACCESS:    7894480  HIT:    5136744  MISS:    2757736  HIT %:    65.0675  MISS %:    34.9325   MPKI: 55.1547
L1I LOAD INSTRUCTION	ACCESS:    7894480  HIT:    5136744  MISS:    2757736  HIT %:    65.0675  MISS %:    34.9325  MPKI: 55.1547

L1I AVERAGE MISS LATENCY: 17.0358 cycles
L1I RQ	ACCESS:   15232069	FORWARD:          0	MERGED:    6838037	TO_CACHE:    8394032

L1BTB TOTAL     ACCESS:    5670146  HIT:    2048639  MISS:    3621507  HIT %:    36.1303  MISS %:    63.8697   MPKI: 72.4301
L1BTB BRANCH_DIRECT_JUMP	ACCESS:     549111  HIT:     145395  MISS:     403716	AVERAGE STALL: 20.4602
L1BTB BRANCH_INDIRECT	ACCESS:     183191  HIT:      66261  MISS:     116930	AVERAGE STALL: 49.9493
L1BTB BRANCH_CONDITIONAL	ACCESS:    2711726  HIT:    1420384  MISS:    1291342	AVERAGE STALL: 25.7794
L1BTB BRANCH_DIRECT_CALL	ACCESS:     941877  HIT:     105678  MISS:     836199	AVERAGE STALL: 35.4391
L1BTB BRANCH_INDIRECT_CALL	ACCESS:     171183  HIT:      21161  MISS:     150022	AVERAGE STALL: 64.7153
L1BTB BRANCH_RETURN	ACCESS:    1113058  HIT:     289760  MISS:     823298	AVERAGE STALL: 32.2048
L1BTB BRANCH_OTHER ACCESS:          0  HIT:          0  MISS:          0	AVERAGE STALL: -nan
L1BTB TOTAL ROB OCCUPANCY AT BTB MISS: 0.621061

L2BTB TOTAL     ACCESS:    3596068  HIT:    3527931  MISS:      68137  HIT %:    98.1052  MISS %:    1.89476   MPKI: 1.36274
L2BTB BRANCH_DIRECT_JUMP	ACCESS:     399516  HIT:     395625  MISS:       3891	AVERAGE STALL: 20.4602
L2BTB BRANCH_INDIRECT	ACCESS:     106667  HIT:     103966  MISS:       2701	AVERAGE STALL: 49.9493
L2BTB BRANCH_CONDITIONAL	ACCESS:    1291342  HIT:    1284994  MISS:       6348	AVERAGE STALL: 25.7794
L2BTB BRANCH_DIRECT_CALL	ACCESS:     836199  HIT:     834465  MISS:       1734	AVERAGE STALL: 35.4391
L2BTB BRANCH_INDIRECT_CALL	ACCESS:     140447  HIT:     130148  MISS:      10299	AVERAGE STALL: 64.7153
L2BTB BRANCH_RETURN	ACCESS:     821897  HIT:     778733  MISS:      43164	AVERAGE STALL: 32.2048
L2BTB BRANCH_OTHER ACCESS:          0  HIT:          0  MISS:          0	AVERAGE STALL: -nan
L2BTB TOTAL ROB OCCUPANCY AT BTB MISS: 33.0096

L2C TOTAL     ACCESS:    4475750  HIT:    3997063  MISS:     478687  HIT %:    89.3049  MISS %:    10.6951   MPKI: 9.57374
L2C LOAD INSTRUCTION	ACCESS:    2757736  HIT:    2496322  MISS:     261414  HIT %:    90.5207  MISS %:     9.4793  MPKI: 5.22828
L2C LOAD TRANSLATION INSTRUCTION	ACCESS:        279  HIT:         77  MISS:        202  HIT %:    27.5986  MISS %:    72.4014  MPKI: 0.00404
L2C LOAD DATA	ACCESS:     721473  HIT:     649890  MISS:      71583  HIT %:    90.0782  MISS %:    9.92179  MPKI: 1.43166
L2C RFO DATA	ACCESS:     288554  HIT:     233534  MISS:      55020  HIT %:    80.9325  MISS %:    19.0675  MPKI: 1.1004
L2C PREFETCH DATA	ACCESS:     185748  HIT:     110249  MISS:      75499  HIT %:    59.3541  MISS %:    40.6459  MPKI: 1.50998
L2C WRITEBACK DATA	ACCESS:     520099  HIT:     506363  MISS:      13736  HIT %:     97.359  MISS %:    2.64104  MPKI: 0.27472
L2C LOAD TRANSLATION DATA	ACCESS:       1822  HIT:        602  MISS:       1220  HIT %:    33.0406  MISS %:    66.9594  MPKI: 0.0244
L2C TRANSLATION FROM L1D PREFETCHER DATA	ACCESS:         39  HIT:         26  MISS:         13  HIT %:    66.6667  MISS %:    33.3333  MPKI: 0.00026

L2C PREFETCH  REQUESTED:      88819  ISSUED:      88819  USEFUL:       7620  USELESS:      68386
L2C USEFUL LOAD PREFETCHES:       7620 PREFETCH ISSUED TO LOWER LEVEL:      75764  ACCURACY: 10.0575
 TIMELY PREFETCHES:       7620 LATE PREFETCHES: 265 DROPPED PREFETCHES: 0
L2C AVERAGE MISS LATENCY: 39.0407 cycles
L2C RQ	ACCESS:    3769918	FORWARD:          0	MERGED:          0	TO_CACHE:    3769904
L2C WQ	ACCESS:     520099	FORWARD:         14	MERGED:          0	TO_CACHE:     520099
L2C PQ	ACCESS:     192142	FORWARD:          0	MERGED:       3520	TO_CACHE:     188622

L2C Dense regions hint from L2: 0
PSCL5 TOTAL     ACCESS:       4042  HIT:       2021  MISS:       2021  HIT %:         50  MISS %:         50   MPKI: 0.04042
PSCL5 LOAD TRANSLATION INSTRUCTION	ACCESS:       3964  HIT:       1982  MISS:       1982  HIT %:         50  MISS %:         50  MPKI: 0.03964
PSCL5 TRANSLATION FROM L1D PREFETCHER INSTRUCTION	ACCESS:         78  HIT:         39  MISS:         39  HIT %:         50  MISS %:         50  MPKI: 0.00078


PSCL4 TOTAL     ACCESS:       3961  HIT:       1977  MISS:       1984  HIT %:    49.9116  MISS %:    50.0884   MPKI: 0.03968
PSCL4 LOAD TRANSLATION INSTRUCTION	ACCESS:       2159  HIT:       1942  MISS:        217  HIT %:    89.9491  MISS %:    10.0509  MPKI: 0.00434
PSCL4 TRANSLATION FROM L1D PREFETCHER INSTRUCTION	ACCESS:         35  HIT:         35  MISS:          0  HIT %:        100  MISS %:          0  MPKI: 0
PSCL4 LOAD TRANSLATION DATA	ACCESS:       1732  HIT:          0  MISS:       1732  HIT %:          0  MISS %:        100  MPKI: 0.03464
PSCL4 TRANSLATION FROM L1D PREFETCHER DATA	ACCESS:         35  HIT:          0  MISS:         35  HIT %:          0  MISS %:        100  MPKI: 0.0007


PSCL3 TOTAL     ACCESS:       3989  HIT:       1991  MISS:       1998  HIT %:    49.9123  MISS %:    50.0877   MPKI: 0.03996
PSCL3 LOAD TRANSLATION INSTRUCTION	ACCESS:       2173  HIT:       1956  MISS:        217  HIT %:    90.0138  MISS %:    9.98619  MPKI: 0.00434
PSCL3 TRANSLATION FROM L1D PREFETCHER INSTRUCTION	ACCESS:         35  HIT:         35  MISS:          0  HIT %:        100  MISS %:          0  MPKI: 0
PSCL3 LOAD TRANSLATION DATA	ACCESS:       1746  HIT:          0  MISS:       1746  HIT %:          0  MISS %:        100  MPKI: 0.03492
PSCL3 TRANSLATION FROM L1D PREFETCHER DATA	ACCESS:         35  HIT:          0  MISS:         35  HIT %:          0  MISS %:        100  MPKI: 0.0007


PSCL2 TOTAL     ACCESS:       3935  HIT:       1914  MISS:       2021  HIT %:    48.6404  MISS %:    51.3596   MPKI: 0.04042
PSCL2 LOAD TRANSLATION INSTRUCTION	ACCESS:       2114  HIT:       1875  MISS:        239  HIT %:    88.6944  MISS %:    11.3056  MPKI: 0.00478
PSCL2 TRANSLATION FROM L1D PREFETCHER INSTRUCTION	ACCESS:         39  HIT:         39  MISS:          0  HIT %:        100  MISS %:          0  MPKI: 0
PSCL2 LOAD TRANSLATION DATA	ACCESS:       1743  HIT:          0  MISS:       1743  HIT %:          0  MISS %:        100  MPKI: 0.03486
PSCL2 TRANSLATION FROM L1D PREFETCHER DATA	ACCESS:         39  HIT:          0  MISS:         39  HIT %:          0  MISS %:        100  MPKI: 0.00078


LLC TOTAL     ACCESS:     540241  HIT:     510155  MISS:      30086  HIT %:     94.431  MISS %:      5.569   MPKI: 0.60172
LLC LOAD INSTRUCTION	ACCESS:     261414  HIT:     260221  MISS:       1193  HIT %:    99.5436  MISS %:   0.456364  MPKI: 0.02386
LLC LOAD TRANSLATION INSTRUCTION	ACCESS:        202  HIT:        164  MISS:         38  HIT %:    81.1881  MISS %:    18.8119  MPKI: 0.00076
LLC LOAD DATA	ACCESS:      71318  HIT:      67938  MISS:       3380  HIT %:    95.2607  MISS %:    4.73934  MPKI: 0.0676
LLC RFO DATA	ACCESS:      55008  HIT:      39452  MISS:      15556  HIT %:    71.7205  MISS %:    28.2795  MPKI: 0.31112
LLC PREFETCH DATA	ACCESS:      75764  HIT:      66343  MISS:       9421  HIT %:    87.5653  MISS %:    12.4347  MPKI: 0.18842
LLC WRITEBACK DATA	ACCESS:      75302  HIT:      74894  MISS:        408  HIT %:    99.4582  MISS %:   0.541818  MPKI: 0.00816
LLC LOAD TRANSLATION DATA	ACCESS:       1220  HIT:       1131  MISS:         89  HIT %:    92.7049  MISS %:    7.29508  MPKI: 0.00178
LLC TRANSLATION FROM L1D PREFETCHER DATA	ACCESS:         13  HIT:         12  MISS:          1  HIT %:    92.3077  MISS %:    7.69231  MPKI: 2e-05

LLC AVERAGE MISS LATENCY: 156.177 cycles
LLC RQ	ACCESS:     389187	FORWARD:          0	MERGED:          0	TO_CACHE:     389175
LLC WQ	ACCESS:      75302	FORWARD:         12	MERGED:          0	TO_CACHE:      75302
LLC PQ	ACCESS:      75764	FORWARD:          0	MERGED:          0	TO_CACHE:      75764

LLC Dense regions hint to LLC: 0

RAW hits: 1138438
Loads Generated: 12639674
Loads sent to L1D: 11501236
Stores Generated: 6946934
Stores sent to L1D: 6946951
Major fault: 0 Minor fault: 2558
Allocated PAGES: 2558

stream: 
stream:times selected: 1187123
stream:pref_filled: 122224
stream:pref_useful: 24970
stream:pref_late: 6723
stream:misses: 7481
stream:misses_by_poll: 0

CS: 
CS:times selected: 180491
CS:pref_filled: 57991
CS:pref_useful: 35474
CS:pref_late: 8180
CS:misses: 17962
CS:misses_by_poll: 1

CPLX: 
CPLX:times selected: 1005567
CPLX:pref_filled: 21568
CPLX:pref_useful: 4836
CPLX:pref_late: 3224
CPLX:misses: 91260
CPLX:misses_by_poll: 0

NL_L1: 
NL:times selected: 18940
NL:pref_filled: 523
NL:pref_useful: 231
NL:pref_late: 397
NL:misses: 1420
NL:misses_by_poll: 0

total selections: 2392121
total_filled: 93702
total_useful: 36116
total_late: 19868
total_polluted: 1
total_misses_after_warmup: 760929
conflicts: 6039053

test: 119655

DRAM Statistics
 CHANNEL 0
 RQ ROW_BUFFER_HIT:      11395  ROW_BUFFER_MISS:      18256
 DBUS_CONGESTED:          5
 WQ ROW_BUFFER_HIT:       1508  ROW_BUFFER_MISS:      12610  FULL:          0

 AVG_CONGESTED_CYCLE: 3

CPU 0 Branch Prediction Accuracy: 99.8233% MPKI: 0.32296 Average ROB Occupancy at Mispredict: 67.6284
Branch types
NOT_BRANCH: 40859108 81.7182%
BRANCH_DIRECT_JUMP: 549111 1.09822%
BRANCH_INDIRECT: 183191 0.366382%
BRANCH_CONDITIONAL: 6182173 12.3643%
BRANCH_DIRECT_CALL: 941877 1.88375%
BRANCH_INDIRECT_CALL: 171183 0.342366%
BRANCH_RETURN: 1113058 2.22612%
BRANCH_OTHER: 0 0%

DRAM PAGES: 1048576
Allocated PAGES: 2558
Average_ROB_Occupancy: 48.6775
Average_Decode_Occupancy: 4.63845
Average_FTQ_Occupancy: 13.8477
Indirect max targets: 14 Average targets: 1.15282
Branch_type:  BRANCH_DIRECT_JUMP:  Count Percentage: 2.90184 6.19419 3.72231 8.5733 2.78802 6.28013 1.35295 68.1872 
Branch_type:  BRANCH_INDIRECT:  Count Percentage: 11.7352 3.41967 2.54357 0 1.3371 9.69826 19.238 52.0282 
Branch_type:  BRANCH_CONDITIONAL:  Count Percentage: 20.7872 3.22328 1.91341 8.20173 1.41671 5.12534 2.05179 57.2806 
Branch_type:  BRANCH_DIRECT_CALL:  Count Percentage: 0.259769 1.77396 1.44617 4.26488 2.80381 2.9856 0.890372 85.5754 
Branch_type:  BRANCH_INDIRECT_CALL:  Count Percentage: 9.56288 0.571053 2.99621 4.85468 0.000583601 2.62854 1.28538 78.1007 
Branch_type:  BRANCH_RETURN:  Count Percentage: 3.20296 1.29331 1.27291 8.70862 3.51201 6.86409 3.35307 71.793 
Branch_type:  BRANCH_DIRECT_JUMP:  Total Count: 31842 67969 40845 94075 30593 68912 14846 748220 
Branch_type:  BRANCH_INDIRECT:  Total Count: 42944 12514 9308 0 4893 35490 70400 190393 
Branch_type:  BRANCH_CONDITIONAL:  Total Count: 2569203 398383 236489 1013698 175099 633470 253593 7079634 
Branch_type:  BRANCH_DIRECT_CALL:  Total Count: 4900 33462 27279 80448 52888 56317 16795 1614201 
Branch_type:  BRANCH_INDIRECT_CALL:  Total Count: 32772 1957 10268 16637 2 9008 4405 267651 
Branch_type:  BRANCH_RETURN:  Total Count: 71419 28838 28383 194183 78310 153054 74766 1600827 
Number of unique branch instructions: 10016
Upper 32 bits: 
aaaa
ffff
ffff0000
Unique upper 32 bits: 3
Unique upper 36 bits: 3
Unique upper 40 bits: 5
Unique upper 44 bits: 32
Unique upper 48 bits: 157
Variant_0 : 1387 0.338623
Variant_1 : 1291 0.315186
Variant_2 : 1358 0.331543
Variant_3 : 0 0
Offset_3 4100
Offset_4 264
Offset_5 463
Offset_6 506
Offset_7 585
Offset_8 517
Offset_9 484
Offset_10 389
Offset_11 303
Offset_12 280
Offset_13 205
Offset_14 227
Offset_15 183
Offset_16 225
Offset_17 152
Offset_18 118
Offset_19 242
Offset_20 139
Offset_21 261
Offset_22 391
Offset_23 243
Offset_24 341
Offset_25 88
Offset_47 84
decode_dispatch_called: 30676071 51.5424
Dispatch_width: 0 18553543 60.4821 31.1739
Dispatch_width: 1 2326150 7.58295 3.90843
Dispatch_width: 2 1139394 3.71428 1.91443
Dispatch_width: 3 1088559 3.54856 1.82901
Dispatch_width: 4 1006688 3.28167 1.69145
Dispatch_width: 5 1268093 4.13382 2.13067
Dispatch_width: 6 5293644 17.2566 8.89446
Empty_decode_cycles: 28840106 48.4576
ROB_full_cycles: 501581 0.842764
Starvation_cycles_per_kilo_instr: 537.21
Starvation_cycles_per_kilo_instr_3: 514.462
Starvation_cycles_per_kilo_instr_0: 468.921
Branch_type_1  (3,1)  (4,10)  (5,39)  (6,70)  (7,114)  (8,133)  (9,128)  (10,99)  (11,67)  (12,43)  (13,8)  (14,2)  (15,3)  (16,4)  (18,1)  (19,4)  (20,2)  (21,1)  (22,3)  (23,2)  (24,10)  (25,12) 
Branch_type_2  (3,1)  (5,1)  (8,3)  (9,3)  (12,1)  (13,1)  (14,1)  (16,3)  (17,2)  (20,2)  (21,2)  (23,5)  (24,1)  (47,38) 
Branch_type_3  (3,4098)  (4,254)  (5,419)  (6,421)  (7,440)  (8,319)  (9,267)  (10,156)  (11,122)  (12,50)  (13,7) 
Branch_type_4  (6,3)  (7,8)  (8,25)  (9,54)  (10,63)  (11,58)  (12,101)  (13,86)  (14,100)  (15,85)  (16,101)  (17,69)  (18,53)  (19,116)  (20,72)  (21,141)  (22,208)  (23,137)  (24,192)  (25,72) 
Branch_type_5  (8,2)  (9,1)  (10,4)  (11,5)  (12,3)  (13,14)  (14,16)  (15,11)  (16,20)  (17,11)  (18,16)  (19,13)  (20,11)  (21,13)  (22,42)  (23,26)  (24,41) 
Branch_type_6  (5,4)  (6,12)  (7,23)  (8,35)  (9,31)  (10,67)  (11,51)  (12,82)  (13,89)  (14,108)  (15,84)  (16,97)  (17,70)  (18,48)  (19,109)  (20,52)  (21,104)  (22,138)  (23,73)  (24,97)  (25,4)  (47,46) 
Unique trigger count: 
Variant_0_evicts_0 : 0
Variant_0_evicts_1 : 0
Variant_0_evicts_2 : 0
Variant_0_evicts_3 : 0
Variant_1_evicts_0 : 0
Variant_1_evicts_1 : 0
Variant_1_evicts_2 : 0
Variant_1_evicts_3 : 0
Variant_2_evicts_0 : 0
Variant_2_evicts_1 : 0
Variant_2_evicts_2 : 0
Variant_2_evicts_3 : 0
Variant_3_evicts_0 : 0
Variant_3_evicts_1 : 0
Variant_3_evicts_2 : 0
Variant_3_evicts_3 : 0
BTB PER SET UNIQUE ADDR: 13 12 10 12 14 13 12 11 7 14 7 16 15 10 9 11 9 14 9 10 11 8 12 12 15 10 14 13 10 8 15 17 9 7 8 8 11 15 8 9 8 9 8 15 8 11 11 11 12 11 10 11 11 12 12 5 9 10 7 14 9 12 7 9 11 15 11 9 10 10 8 12 16 7 8 8 6 14 9 14 14 6 11 17 11 14 14 8 9 15 5 7 10 10 8 10 11 10 12 16 14 11 13 9 12 7 8 14 9 4 6 16 8 13 10 7 15 10 9 12 15 9 7 9 14 9 5 8 15 13 8 14 14 13 10 12 9 9 9 14 8 13 12 9 11 12 5 9 6 10 12 10 11 9 6 11 8 10 10 12 11 8 11 16 10 10 13 6 8 10 9 11 14 12 10 7 7 13 14 11 10 8 12 10 17 11 3 15 10 10 9 11 10 12 11 15 5 11 10 10 12 17 9 12 8 9 9 11 9 10 6 14 11 12 8 13 14 12 12 13 5 12 11 7 12 10 16 9 5 14 7 5 7 10 6 10 12 12 12 7 12 8 13 13 10 14 11 10 9 14 8 12 15 11 15 13 6 9 13 11 12 7 4 8 12 9 7 11 8 10 8 13 8 5 8 9 8 17 10 10 9 14 6 11 9 9 12 16 16 12 10 10 11 9 8 10 7 15 11 10 10 12 10 15 9 17 12 8 15 9 13 15 8 14 8 4 14 8 12 13 10 12 6 12 12 13 15 7 6 11 12 11 8 9 9 10 6 13 6 13 10 9 8 11 9 12 11 15 11 12 13 11 11 14 12 7 12 9 8 11 7 14 4 13 10 14 8 9 9 8 11 10 13 11 10 9 10 16 14 8 15 11 7 7 9 9 7 12 12 10 18 10 17 18 10 10 11 9 11 9 11 13 8 14 17 7 16 18 13 8 14 11 8 14 11 9 11 9 12 13 8 13 9 9 15 7 7 14 8 11 14 11 5 9 13 12 16 8 11 9 12 7 10 11 16 7 9 12 8 15 15 8 16 7 8 15 16 12 9 16 9 10 14 6 13 12 7 10 9 12 9 11 11 16 11 16 9 13 10 8 12 13 10 15 5 17 14 11 13 11 6 10 10 6 10 7 14 13 11 7 15 16 12 11 13 11 10 13 11 10 13 12 9 14 13 12 9 19 7 10 7 9 14 4 10 13 21 6 9 17 11 15 14 13 9 13 11 12 7 12 16 7 9 10 16 13 6 17 8 11 12 9 15 11 11 12 15 10 13 14 11 14 12 11 12 10 7 10 14 14 7 10 14 12 12 12 14 13 10 13 12 11 8 7 14 11 13 13 13 15 9 11 11 8 18 10 9 11 10 11 14 12 8 7 6 15 22 8 12 11 10 7 10 10 5 14 10 10 10 12 12 8 10 7 10 15 9 18 6 12 11 13 13 11 10 9 10 16 9 17 9 12 13 15 8 11 9 15 13 10 7 12 11 6 8 11 10 9 9 12 12 6 7 13 8 10 9 7 8 8 10 12 10 13 23 10 13 14 10 16 12 15 14 10 9 17 10 12 11 9 12 13 14 12 9 8 9 13 12 14 9 10 12 12 6 10 10 11 10 8 11 13 7 10 8 13 9 13 9 14 13 6 11 16 11 8 10 10 8 9 12 6 7 4 11 17 15 12 13 13 10 10 12 10 12 15 13 13 13 5 16 11 9 13 10 11 13 7 8 8 16 5 5 10 10 14 7 10 14 14 14 8 7 7 10 8 13 10 13 12 9 14 9 11 9 7 8 9 9 8 8 6 14 10 15 17 10 12 15 8 16 17 14 14 16 8 12 12 13 12 9 14 5 13 14 11 26 11 5 15 10 18 6 10 10 14 10 11 10 12 7 17 12 12 7 16 15 10 10 12 17 9 7 8 13 20 7 9 9 10 12 13 8 9 7 15 11 15 13 12 14 5 8 11 17 6 10 8 13 9 8 8 14 10 16 5 7 10 9 9 9 11 15 9 10 13 13 9 14 15 14 11 9 12 11 8 16 13 6 9 9 10 12 17 7 10 10 9 10 17 13 11 13 10 11 16 14 13 14 10 7 12 14 11 11 7 7 15 13 6 14 14 17 11 6 13 7 10 10 16 7 16 10 14 9 8 14 11 6 12 14 15 8 14 9 14 11 12 13 10 12 9 12 12 12 7 13 9 7 10 15 12 12 10 12 8 13 13 16 13 10 11 9 15 8 16 16 10 12 10 14 9 12 11 13 7 14 10 14 12 17 11 8 9 13 14 10 15 7 12 14 11 9 6 9 10 5 7 9 8 7 11 9 12 
BTB PER SET COUNT: 631 14 1970 19 1489 21 990 13 398 14 8 704 37 824 9 14 988 1477 14 15 15 11 722 72 21 13 18 13 125 11 222 818 10 8 10 8 11 21 8 2312 10 14 10 37 1474 14 13 17 24 323 14 148 13 18 12 5 9 11 15 19 11 19 8 12 12 103 16 2931 14 10 13 20 29 9 10 11 12 729 10 15 409 8 19 126 13 1471 18 9 10 23 7 10 15 10 11 12 941 12 16 20 21 11 22 496 16 7 17 19 271 5 6 31 11 16 11 1476 25 13 1476 40 745 10 9 9 17 10 5 12 22 993 11 4425 24 16 14 23 990 17 11 22 10 14 18 9 14 333 5 12 10 14 12 171 934 14 7 14 8 18 13 18 14 12 236 26 1674 18 15 6 12 136 17 12 19 20 11 7 7 19 59 11 20 284 3434 16 41 55 3 20 1080 327 11 15 12 14 14 43 6 628 16 10 16 112 986 13 8 9 9 149 12 14 9 51 12 34 8 261 21 15 1481 17 7 20 165 9 14 22 27 9 5 21 12 5 9 12 6 7805 444 270 21 9 21 8 26 442 11 277 15 10 10 18 10 17 18 11 17 904 52 16 14 16 249 8 4 499 12 10 7 13 40 17 13 18 8 6 9 11 8 23 12 740 11 18 7 14 11 12 13 17 29 20 12 13 21 493 10 10 7 18 13 33 16 16 13 21 10 203 21 8 18 991 16 20 10 15 1961 981 21 8 17 23 11 21 6 23 1175 271 22 9 6 14 16 12 10 14 11 18 6 997 7 15 12 1105 9 15 14 12 11 25 13 17 917 102 11 19 13 7 16 11 498 14 8 17 4 17 10 1021 11 11 13 8 14 129 23 423 734 9 12 20 369 13 1138 16 11 8 15 9 10 20 12 10 27 11 27 58 16 161 14 9 1477 21 15 17 8 16 23 8 20 50 18 9 15 11 9 285 12 13 12 62 14 17 8 17 12 9 18 11 1408 18 9 12 16 13 5 11 192 16 21 158 16 9 18 9 56 12 1824 7 11 13 8 24 24 12 29 8 10 1484 21 17 9 30 11 11 27 6 19 58 7 14 12 20 15 12 11 32 17 20 15 18 13 14 17 20 12 17 6 22 25 13 13 15 9 12 21 11 14 10 892 18 15 7 15 23 13 171 16 13 13 16 13 13 14 36 971 34 21 18 13 29 10 16 10 9 17 4 12 17 96 6 9 23 19 17 19 28 12 16 20 19 12 429 24 7 9 17 31 508 6 21 12 15 18 14 24 27 12 13 26 14 18 23 12 18 15 11 12 16 10 11 25 18 8 12 23 17 2459 16 18 19 10 15 14 13 9 4211 14 23 16 15 14 19 14 11 11 9 31 13 9 384 99 13 17 15 11 9 6 23 29 13 14 17 13 8 329 10 6 17 10 11 10 26 15 8 13 7 10 17 12 25 6 12 15 17 18 17 10 9 11 37 14 382 10 17 16 24 8 21 987 19 1966 10 8 23 18 6 10 501 12 17 775 990 269 6 7 16 13693 11 9 9 1479 13 11 15 993 21 57 499 18 16 15 21 15 16 17 15 16 23 12 22 259 13 15 19 17 21 718 11 16 938 21 19 630 20 1479 16 6 11 11 15 13 8 266 127 1014 12 12 160 13 14 10 432 24 6 18 578 14 8 18 12 989 657 214 14655 7 4 16 963 997 12 346 16 11 28 13 12 18 21 142 16 16 6 1488 15 11 1974 15 11 14 1473 8 10 19 6 6 161 937 22 11 2747 18 21 20 8 8 7 13 9 18 12 17 16 990 18 384 12 9 7 14 11 11 9 12 745 20 13 1058 410 10 13 19 12 21 26 227 22 157 8 15 16 18 18 9 7853 6 17 20 275 733 418 5 19 13 790 7 10 11 40 12 17 12 16 8 28 16 15 497 308 17 432 12 15 29 986 7 11 995 36 9 13 14 11 23 1232 18 15 9 20 11 25 24 15 999 5 950 16 238 7 10 11 17 13 10 10 15 14 16 5 9 11 13 10 12 18 122 13 499 384 13 9 17 24 14 1123 1684 43 11 8 20 21 7 15 13 12 17 88 10 13 11 12 11 276 184 632 15 10 14 379 766 50 22 13 7 17 18 18 21 8 8 26 22 14 54 15 94 15 6 2029 7 11 16 16 8 511 16 20 14 11 105 11 7 13 35 1658 8 1276 10 17 110 21 14 13 15 10 13 13 14 7 1483 9 60 99 18 667 15 10 1092 10 13 17 302 13 15 12 12 19 9 339 898 14 19 12 21 12 14 998 17 7 22 1488 18 18 29 15 9 19 15 19 14 29 7 991 455 440 9 8 12 15 8 7 10 11 7 17 9 15 
To predecode: 0
Predecoding something: 0
Predecode request dropped: 0
sizeofblock_0 0
sizeofblock_1 35216
sizeofblock_2 38637
sizeofblock_3 43269
sizeofblock_4 22903
sizeofblock_5 0
sizeofblock_6 0
sizeofblock_7 0
sizeofblock_8 0
Variant_0 Correct: 1613069 Incorrect: 0 Accuracy: 1
Variant_1 Correct: 2091011 Incorrect: 0 Accuracy: 1
Variant_2 Correct: 3641866 Incorrect: 0 Accuracy: 1
Variant_3 Correct: 0 Incorrect: 0 Accuracy: -nan
