
*** ChampSim Multicore Out-of-Order Simulator ***

Warmup Instructions: 50000000
Simulation Instructions: 50000000
Number of CPUs: 1
LLC sets: 2048
LLC ways: 16
Off-chip DRAM Size: 4096 MB Channels: 1 Width: 64-bit Data Rate: 6400 MT/s
CPU 0 runs ./micro_traces/srv248.trace.gz
.gz
ITLB has LRU replacement policy
DTLB has LRU replacement policy
STLB has LRU replacement policy
SN4L + DIS + BTB Prefetcher for L1I CPU 0
srv248.cond
L1I has LRU replacement policy
L1D has LRU replacement policy
Initialize SRRIP state for L2C
Initialize DRRIP state for LLC
Heartbeat CPU 0 instructions: 10000000 cycles: 2797603 heartbeat IPC: 3.57449 cumulative IPC: 3.57449 (Simulation time: 0 hr 1 min 47 sec) 
Heartbeat CPU 0 instructions: 20000003 cycles: 5593885 heartbeat IPC: 3.57618 cumulative IPC: 3.57533 (Simulation time: 0 hr 3 min 26 sec) 
Heartbeat CPU 0 instructions: 30000000 cycles: 8388852 heartbeat IPC: 3.57786 cumulative IPC: 3.57617 (Simulation time: 0 hr 5 min 8 sec) 
Heartbeat CPU 0 instructions: 40000003 cycles: 11185144 heartbeat IPC: 3.57617 cumulative IPC: 3.57617 (Simulation time: 0 hr 6 min 48 sec) 
Heartbeat CPU 0 instructions: 50000001 cycles: 13982268 heartbeat IPC: 3.5751 cumulative IPC: 3.57596 (Simulation time: 0 hr 8 min 30 sec) 

Warmup complete CPU 0 instructions: 50000001 cycles: 13982268 (Simulation time: 0 hr 8 min 30 sec) 

Cycle: 20000000 FTQ IN: 57165843 FTQ occupancy: 18.4297 DECODE IN: 57165836 DECODE occupancy: 47.3862 ROB IN: 57165836 ROB occupancy: 288.612 ROB OUT: 57165829
Heartbeat CPU 0 instructions: 60000001 cycles: 22374343 heartbeat IPC: 1.1916 cumulative IPC: 1.1916 (Simulation time: 0 hr 10 min 1 sec) 
*** Reached end of trace for Core: 0 Repeating trace: ./micro_traces/srv248.trace.gz
Cycle: 30000000 FTQ IN: 11847523 FTQ occupancy: 7.98662 DECODE IN: 11847481 DECODE occupancy: 18.457 ROB IN: 11847422 ROB occupancy: 154.825 ROB OUT: 11847207
Heartbeat CPU 0 instructions: 70000000 cycles: 30816960 heartbeat IPC: 1.18447 cumulative IPC: 1.18802 (Simulation time: 0 hr 11 min 30 sec) 
Heartbeat CPU 0 instructions: 80000001 cycles: 39132197 heartbeat IPC: 1.20261 cumulative IPC: 1.19285 (Simulation time: 0 hr 13 min 0 sec) 
Cycle: 40000000 FTQ IN: 12044408 FTQ occupancy: 7.79563 DECODE IN: 12044457 DECODE occupancy: 18.0776 ROB IN: 12044479 ROB occupancy: 153.273 ROB OUT: 12044701
Heartbeat CPU 0 instructions: 90000001 cycles: 47578780 heartbeat IPC: 1.18391 cumulative IPC: 1.1906 (Simulation time: 0 hr 14 min 31 sec) 
Cycle: 50000000 FTQ IN: 11824474 FTQ occupancy: 7.96079 DECODE IN: 11824474 DECODE occupancy: 18.2878 ROB IN: 11824511 ROB occupancy: 150.315 ROB OUT: 11824503
Heartbeat CPU 0 instructions: 100000002 cycles: 55928629 heartbeat IPC: 1.19763 cumulative IPC: 1.192 (Simulation time: 0 hr 16 min 3 sec) 
Finished CPU 0 instructions: 50000001 cycles: 41946361 cumulative IPC: 1.192 (Simulation time: 0 hr 16 min 3 sec) 

ChampSim completed all CPUs

Region of Interest Statistics

CPU 0 cumulative IPC: 1.192 instructions: 50000001 cycles: 41946361
 Fetch stage stalled: 67.1987  Sim cycles: 41946361 fetch stall cycle: 28187414
 Empty decode stage: 55.2539  Sim cycles: 41946361 fetch stall cycle: 23177002
ITLB TOTAL     ACCESS:    8094663  HIT:    7556838  MISS:     537825  HIT %:    93.3558  MISS %:    6.64419   MPKI: 10.7565
ITLB LOAD TRANSLATION INSTRUCTION	ACCESS:    5528347  HIT:    5059466  MISS:     468881  HIT %:    91.5186  MISS %:     8.4814  MPKI: 9.37762
ITLB TRANSLATION FROM L1D PREFETCHER INSTRUCTION	ACCESS:    2566316  HIT:    2497372  MISS:      68944  HIT %:    97.3135  MISS %:     2.6865  MPKI: 1.37888

ITLB AVERAGE MISS LATENCY: 347338 cycles
ITLB RQ	ACCESS:   11214999	FORWARD:          0	MERGED:    2624859	TO_CACHE:    8590140

DTLB TOTAL     ACCESS:    9167225  HIT:    8689811  MISS:     477414  HIT %:    94.7922  MISS %:    5.20784   MPKI: 9.54828
DTLB LOAD TRANSLATION DATA	ACCESS:    9167225  HIT:    8689811  MISS:     477414  HIT %:    94.7922  MISS %:    5.20784  MPKI: 9.54828

DTLB AVERAGE MISS LATENCY: 9.29624 cycles
DTLB RQ	ACCESS:   13471496	FORWARD:          0	MERGED:    4268538	TO_CACHE:    9202958

STLB TOTAL     ACCESS:    1269574  HIT:    1267514  MISS:       2060  HIT %:    99.8377  MISS %:   0.162259   MPKI: 0.0412
STLB LOAD TRANSLATION INSTRUCTION	ACCESS:     463548  HIT:     463308  MISS:        240  HIT %:    99.9482  MISS %:  0.0517746  MPKI: 0.0048
STLB TRANSLATION FROM L1D PREFETCHER INSTRUCTION	ACCESS:      74277  HIT:      74263  MISS:         14  HIT %:    99.9812  MISS %:  0.0188484  MPKI: 0.00028
STLB LOAD TRANSLATION DATA	ACCESS:     477212  HIT:     475423  MISS:       1789  HIT %:    99.6251  MISS %:   0.374886  MPKI: 0.03578
STLB TRANSLATION FROM L1D PREFETCHER DATA	ACCESS:     254537  HIT:     254520  MISS:         17  HIT %:    99.9933  MISS %: 0.00667879  MPKI: 0.00034

STLB AVERAGE MISS LATENCY: 66.5 cycles
STLB RQ	ACCESS:    1428529	FORWARD:          0	MERGED:     143443	TO_CACHE:    1285086

STLB Hit, L1D data hit: 0
STLB Hit, L2C data hit: 0
STLB Hit, LLC data hit: 0
STLB Hit, LLC data miss: 0
STLB STLB hints to L2: 0
L1D TOTAL     ACCESS:   13213371  HIT:   12047390  MISS:    1165981  HIT %:    91.1757  MISS %:    8.82425   MPKI: 23.3196
L1D LOAD DATA	ACCESS:    6708451  HIT:    5934961  MISS:     773490  HIT %:    88.4699  MISS %:    11.5301  MPKI: 15.4698
L1D RFO DATA	ACCESS:    6174499  HIT:    5884909  MISS:     289590  HIT %:    95.3099  MISS %:     4.6901  MPKI: 5.7918
L1D PREFETCH DATA	ACCESS:     330421  HIT:     227520  MISS:     102901  HIT %:    68.8576  MISS %:    31.1424  MPKI: 2.05802

L1D PREFETCH  REQUESTED:     795876  ISSUED:     795876  USEFUL:      48617  USELESS:      70402
L1D USEFUL LOAD PREFETCHES:      48617 PREFETCH ISSUED TO LOWER LEVEL:     119055  ACCURACY: 40.8357
 TIMELY PREFETCHES:      48617 LATE PREFETCHES: 16115 DROPPED PREFETCHES: 1
L1D AVERAGE MISS LATENCY: 480448 cycles
L1D RQ	ACCESS:   10794223	FORWARD:          0	MERGED:    3884947	TO_CACHE:    6746951
L1D WQ	ACCESS:    6906722	FORWARD:     162587	MERGED:     182177	TO_CACHE:    6724545
L1D PQ	ACCESS:     398069	FORWARD:          0	MERGED:          0	TO_CACHE:     397807

L1D UNIQUE REGIONS ACCESSED: 0
L1D REGIONS CONFLICTS: 0
L1D Cross Page Prefetch Requests: 5750
L1D Same Page Prefetch Requests: 810083
L1D ROI Sum of L1D PQ occupancy: 5084869
L1D PREFETCHES PUSHED FROM L2C: 0
L1I TOTAL     ACCESS:   10668969  HIT:    7114369  MISS:    3554600  HIT %:    66.6828  MISS %:    33.3172   MPKI: 71.092
L1I LOAD INSTRUCTION	ACCESS:    6479111  HIT:    4161708  MISS:    2317403  HIT %:    64.2327  MISS %:    35.7673  MPKI: 46.3481
L1I PREFETCH INSTRUCTION	ACCESS:    4189858  HIT:    2952661  MISS:    1237197  HIT %:    70.4716  MISS %:    29.5284  MPKI: 24.7439

L1I PREFETCH  REQUESTED:    4818373  ISSUED:    4818373  USEFUL:     604971  USELESS:     715161
L1I USEFUL LOAD PREFETCHES:     604971 PREFETCH ISSUED TO LOWER LEVEL:    1320101  ACCURACY: 45.8276
 TIMELY PREFETCHES:     604971 LATE PREFETCHES: 82904 DROPPED PREFETCHES: 38260
L1I AVERAGE MISS LATENCY: 814448 cycles
L1I RQ	ACCESS:    9486331	FORWARD:          0	MERGED:    2836551	TO_CACHE:    6649780
L1I PQ	ACCESS:    4818373	FORWARD:          0	MERGED:     253154	TO_CACHE:    4565219

L1BTB TOTAL     ACCESS:    5680696  HIT:    2062328  MISS:    3618368  HIT %:    36.3041  MISS %:    63.6959   MPKI: 72.3674
L1BTB BRANCH_DIRECT_JUMP	ACCESS:     543992  HIT:     142865  MISS:     401127	AVERAGE STALL: 36.307
L1BTB BRANCH_INDIRECT	ACCESS:     181037  HIT:      65113  MISS:     115924	AVERAGE STALL: 89.9864
L1BTB BRANCH_CONDITIONAL	ACCESS:    2728546  HIT:    1439834  MISS:    1288712	AVERAGE STALL: 38.6004
L1BTB BRANCH_DIRECT_CALL	ACCESS:     942511  HIT:     103863  MISS:     838648	AVERAGE STALL: 41.5371
L1BTB BRANCH_INDIRECT_CALL	ACCESS:     171049  HIT:      21263  MISS:     149786	AVERAGE STALL: 118.286
L1BTB BRANCH_RETURN	ACCESS:    1113561  HIT:     289390  MISS:     824171	AVERAGE STALL: 38.6402
L1BTB BRANCH_OTHER ACCESS:          0  HIT:          0  MISS:          0	AVERAGE STALL: -nan
L1BTB TOTAL ROB OCCUPANCY AT BTB MISS: 14.3542

L2BTB TOTAL     ACCESS:    3593381  HIT:    3177426  MISS:     415955  HIT %:    88.4244  MISS %:    11.5756   MPKI: 8.3191
L2BTB BRANCH_DIRECT_JUMP	ACCESS:     397033  HIT:     352020  MISS:      45013	AVERAGE STALL: 36.307
L2BTB BRANCH_INDIRECT	ACCESS:     105693  HIT:     100562  MISS:       5131	AVERAGE STALL: 89.9864
L2BTB BRANCH_CONDITIONAL	ACCESS:    1288712  HIT:    1151733  MISS:     136979	AVERAGE STALL: 38.6004
L2BTB BRANCH_DIRECT_CALL	ACCESS:     838648  HIT:     730258  MISS:     108390	AVERAGE STALL: 41.5371
L2BTB BRANCH_INDIRECT_CALL	ACCESS:     140368  HIT:     119516  MISS:      20852	AVERAGE STALL: 118.286
L2BTB BRANCH_RETURN	ACCESS:     822927  HIT:     723337  MISS:      99590	AVERAGE STALL: 38.6402
L2BTB BRANCH_OTHER ACCESS:          0  HIT:          0  MISS:          0	AVERAGE STALL: -nan
L2BTB TOTAL ROB OCCUPANCY AT BTB MISS: 124.866

L2C TOTAL     ACCESS:    6123339  HIT:    5151414  MISS:     971925  HIT %:    84.1275  MISS %:    15.8725   MPKI: 19.4385
L2C LOAD INSTRUCTION	ACCESS:    2234499  HIT:    1933837  MISS:     300662  HIT %:    86.5445  MISS %:    13.4555  MPKI: 6.01324
L2C PREFETCH INSTRUCTION	ACCESS:    1320101  HIT:    1130135  MISS:     189966  HIT %:    85.6097  MISS %:    14.3903  MPKI: 3.79932
L2C LOAD TRANSLATION INSTRUCTION	ACCESS:        264  HIT:         76  MISS:        188  HIT %:    28.7879  MISS %:    71.2121  MPKI: 0.00376
L2C TRANSLATION FROM L1D PREFETCHER INSTRUCTION	ACCESS:      21810  HIT:      21376  MISS:        434  HIT %:    98.0101  MISS %:    1.98991  MPKI: 0.00868
L2C LOAD DATA	ACCESS:     757346  HIT:     621816  MISS:     135530  HIT %:    82.1046  MISS %:    17.8954  MPKI: 2.7106
L2C RFO DATA	ACCESS:     289535  HIT:     206065  MISS:      83470  HIT %:     71.171  MISS %:     28.829  MPKI: 1.6694
L2C PREFETCH DATA	ACCESS:     969087  HIT:     737477  MISS:     231610  HIT %:    76.1002  MISS %:    23.8998  MPKI: 4.6322
L2C WRITEBACK DATA	ACCESS:     528828  HIT:     500320  MISS:      28508  HIT %:    94.6092  MISS %:    5.39079  MPKI: 0.57016
L2C LOAD TRANSLATION DATA	ACCESS:       1845  HIT:        294  MISS:       1551  HIT %:     15.935  MISS %:     84.065  MPKI: 0.03102
L2C TRANSLATION FROM L1D PREFETCHER DATA	ACCESS:         24  HIT:         18  MISS:          6  HIT %:         75  MISS %:         25  MPKI: 0.00012

L2C PREFETCH  REQUESTED:    1376172  ISSUED:    1376172  USEFUL:      36195  USELESS:     389460
L2C USEFUL LOAD PREFETCHES:      36195 PREFETCH ISSUED TO LOWER LEVEL:     424858  ACCURACY: 8.51932
 TIMELY PREFETCHES:      36195 LATE PREFETCHES: 3282 DROPPED PREFETCHES: 0
L2C AVERAGE MISS LATENCY: 33.8421 cycles
L2C RQ	ACCESS:    3305368	FORWARD:          0	MERGED:          0	TO_CACHE:    3305323
L2C WQ	ACCESS:     528828	FORWARD:         46	MERGED:          0	TO_CACHE:     528828
L2C PQ	ACCESS:    2815328	FORWARD:          0	MERGED:     509421	TO_CACHE:    2305906

L2C Dense regions hint from L2: 0
PSCL5 TOTAL     ACCESS:      35088  HIT:      17544  MISS:      17544  HIT %:         50  MISS %:         50   MPKI: 0.35088
PSCL5 LOAD TRANSLATION INSTRUCTION	ACCESS:       4046  HIT:       2023  MISS:       2023  HIT %:         50  MISS %:         50  MPKI: 0.04046
PSCL5 TRANSLATION FROM L1D PREFETCHER INSTRUCTION	ACCESS:      31042  HIT:      15521  MISS:      15521  HIT %:         50  MISS %:         50  MPKI: 0.31042


PSCL4 TOTAL     ACCESS:      34976  HIT:      17487  MISS:      17489  HIT %:    49.9971  MISS %:    50.0029   MPKI: 0.34978
PSCL4 LOAD TRANSLATION INSTRUCTION	ACCESS:       2142  HIT:       1966  MISS:        176  HIT %:    91.7834  MISS %:    8.21662  MPKI: 0.00352
PSCL4 TRANSLATION FROM L1D PREFETCHER INSTRUCTION	ACCESS:      20373  HIT:      15521  MISS:       4852  HIT %:    76.1842  MISS %:    23.8158  MPKI: 0.09704
PSCL4 LOAD TRANSLATION DATA	ACCESS:       1792  HIT:          0  MISS:       1792  HIT %:          0  MISS %:        100  MPKI: 0.03584
PSCL4 TRANSLATION FROM L1D PREFETCHER DATA	ACCESS:      10669  HIT:          0  MISS:      10669  HIT %:          0  MISS %:        100  MPKI: 0.21338


PSCL3 TOTAL     ACCESS:      35062  HIT:      17530  MISS:      17532  HIT %:    49.9971  MISS %:    50.0029   MPKI: 0.35064
PSCL3 LOAD TRANSLATION INSTRUCTION	ACCESS:       2185  HIT:       2009  MISS:        176  HIT %:    91.9451  MISS %:    8.05492  MPKI: 0.00352
PSCL3 TRANSLATION FROM L1D PREFETCHER INSTRUCTION	ACCESS:      20373  HIT:      15521  MISS:       4852  HIT %:    76.1842  MISS %:    23.8158  MPKI: 0.09704
PSCL3 LOAD TRANSLATION DATA	ACCESS:       1835  HIT:          0  MISS:       1835  HIT %:          0  MISS %:        100  MPKI: 0.0367
PSCL3 TRANSLATION FROM L1D PREFETCHER DATA	ACCESS:      10669  HIT:          0  MISS:      10669  HIT %:          0  MISS %:        100  MPKI: 0.21338


PSCL2 TOTAL     ACCESS:      22380  HIT:      11149  MISS:      11231  HIT %:    49.8168  MISS %:    50.1832   MPKI: 0.22462
PSCL2 LOAD TRANSLATION INSTRUCTION	ACCESS:       2180  HIT:       1941  MISS:        239  HIT %:    89.0367  MISS %:    10.9633  MPKI: 0.00478
PSCL2 TRANSLATION FROM L1D PREFETCHER INSTRUCTION	ACCESS:      18392  HIT:       9208  MISS:       9184  HIT %:    50.0652  MISS %:    49.9348  MPKI: 0.18368
PSCL2 LOAD TRANSLATION DATA	ACCESS:       1784  HIT:          0  MISS:       1784  HIT %:          0  MISS %:        100  MPKI: 0.03568
PSCL2 TRANSLATION FROM L1D PREFETCHER DATA	ACCESS:         24  HIT:          0  MISS:         24  HIT %:          0  MISS %:        100  MPKI: 0.00048


LLC TOTAL     ACCESS:    1066853  HIT:    1040440  MISS:      26413  HIT %:    97.5242  MISS %:    2.47579   MPKI: 0.52826
LLC LOAD INSTRUCTION	ACCESS:     298506  HIT:     298021  MISS:        485  HIT %:    99.8375  MISS %:   0.162476  MPKI: 0.0097
LLC PREFETCH INSTRUCTION	ACCESS:     184210  HIT:     183905  MISS:        305  HIT %:    99.8344  MISS %:   0.165572  MPKI: 0.0061
LLC LOAD TRANSLATION INSTRUCTION	ACCESS:        188  HIT:        162  MISS:         26  HIT %:    86.1702  MISS %:    13.8298  MPKI: 0.00052
LLC TRANSLATION FROM L1D PREFETCHER INSTRUCTION	ACCESS:        434  HIT:        425  MISS:          9  HIT %:    97.9263  MISS %:    2.07373  MPKI: 0.00018
LLC LOAD DATA	ACCESS:     134485  HIT:     130819  MISS:       3666  HIT %:     97.274  MISS %:    2.72595  MPKI: 0.07332
LLC RFO DATA	ACCESS:      83381  HIT:      72731  MISS:      10650  HIT %:    87.2273  MISS %:    12.7727  MPKI: 0.213
LLC PREFETCH DATA	ACCESS:     240648  HIT:     229644  MISS:      11004  HIT %:    95.4273  MISS %:    4.57265  MPKI: 0.22008
LLC WRITEBACK DATA	ACCESS:     123444  HIT:     123274  MISS:        170  HIT %:    99.8623  MISS %:   0.137714  MPKI: 0.0034
LLC LOAD TRANSLATION DATA	ACCESS:       1551  HIT:       1453  MISS:         98  HIT %:    93.6815  MISS %:     6.3185  MPKI: 0.00196
LLC TRANSLATION FROM L1D PREFETCHER DATA	ACCESS:          6  HIT:          6  MISS:          0  HIT %:        100  MISS %:          0  MPKI: 0

LLC AVERAGE MISS LATENCY: 173.843 cycles
LLC RQ	ACCESS:     518559	FORWARD:          0	MERGED:          0	TO_CACHE:     518551
LLC WQ	ACCESS:     123444	FORWARD:          8	MERGED:          0	TO_CACHE:     123444
LLC PQ	ACCESS:     424858	FORWARD:          0	MERGED:          0	TO_CACHE:     424858

LLC Dense regions hint to LLC: 0

RAW hits: 1809959
Loads Generated: 12604181
Loads sent to L1D: 10794223
Stores Generated: 6906708
Stores sent to L1D: 6906722
Major fault: 0 Minor fault: 2311
Allocated PAGES: 2311
CPU 0 L1I prefetcher final stats
USEFUL PREFETCHES 1302510
USELESS PREFETCHES 1576970
MISSES TRACKED 2231032
MISSES OMITTED 2428904
2231032 2258807 4629914BRANCHES PENDING
22760326/32472076
To predecode: 9300276 predecoding_something: 318111847

stream: 
stream:times selected: 1244689
stream:pref_filled: 124657
stream:pref_useful: 27128
stream:pref_late: 11325
stream:misses: 10800
stream:misses_by_poll: 0

CS: 
CS:times selected: 196596
CS:pref_filled: 66954
CS:pref_useful: 44017
CS:pref_late: 17008
CS:misses: 31914
CS:misses_by_poll: 0

CPLX: 
CPLX:times selected: 1046862
CPLX:pref_filled: 24821
CPLX:pref_useful: 7300
CPLX:pref_late: 4788
CPLX:misses: 135035
CPLX:misses_by_poll: 1

NL_L1: 
NL:times selected: 12472
NL:pref_filled: 1038
NL:pref_useful: 213
NL:pref_late: 597
NL:misses: 2165
NL:misses_by_poll: 0

total selections: 2500619
total_filled: 102901
total_useful: 48617
total_late: 36134
total_polluted: 1
total_misses_after_warmup: 811992
conflicts: 5571859

test: 116959

DRAM Statistics
 CHANNEL 0
 RQ ROW_BUFFER_HIT:       9302  ROW_BUFFER_MISS:      16917
 DBUS_CONGESTED:          6
 WQ ROW_BUFFER_HIT:       1408  ROW_BUFFER_MISS:      10975  FULL:          0

 AVG_CONGESTED_CYCLE: 5

CPU 0 Branch Prediction Accuracy: 99.8228% MPKI: 0.32472 Average ROB Occupancy at Mispredict: 159.1
Branch types
NOT_BRANCH: 40834982 81.67%
BRANCH_DIRECT_JUMP: 543992 1.08798%
BRANCH_INDIRECT: 181037 0.362074%
BRANCH_CONDITIONAL: 6212476 12.425%
BRANCH_DIRECT_CALL: 942511 1.88502%
BRANCH_INDIRECT_CALL: 171049 0.342098%
BRANCH_RETURN: 1113561 2.22712%
BRANCH_OTHER: 0 0%

DRAM PAGES: 1048576
Allocated PAGES: 2311
Average_ROB_Occupancy: 153.425
Average_Decode_Occupancy: 18.2233
Average_FTQ_Occupancy: 7.8883
Indirect max targets: 14 Average targets: 1.15017
Branch_type:  BRANCH_DIRECT_JUMP:  Count Percentage: 3.65263 5.78084 3.67609 8.85489 2.9217 6.32557 1.79885 66.9894 
Branch_type:  BRANCH_INDIRECT:  Count Percentage: 11.7305 7.07445 2.52835 3.75717 3.34904 24.1913 3.21842 44.1508 
Branch_type:  BRANCH_CONDITIONAL:  Count Percentage: 21.9839 3.56637 4.62747 3.64793 2.36367 5.54242 1.09336 57.1749 
Branch_type:  BRANCH_DIRECT_CALL:  Count Percentage: 0.264784 1.7892 0.723145 3.18948 2.99006 3.27947 0.88476 86.8791 
Branch_type:  BRANCH_INDIRECT_CALL:  Count Percentage: 9.53145 0 2.98828 4.26968 0 4.04011 0.994141 78.1763 
Branch_type:  BRANCH_RETURN:  Count Percentage: 3.77712 2.45166 4.11963 3.4015 5.01044 7.2645 1.18734 72.7878 
Branch_type:  BRANCH_DIRECT_JUMP:  Total Count: 39703 62836 39958 96250 31758 68757 19553 728155 
Branch_type:  BRANCH_INDIRECT:  Total Count: 42480 25619 9156 13606 12128 87605 11655 159885 
Branch_type:  BRANCH_CONDITIONAL:  Total Count: 2729703 442831 574586 452958 293493 688194 135761 7099316 
Branch_type:  BRANCH_DIRECT_CALL:  Total Count: 4979 33644 13598 59975 56225 61667 16637 1633673 
Branch_type:  BRANCH_INDIRECT_CALL:  Total Count: 32550 0 10205 14581 0 13797 3395 266973 
Branch_type:  BRANCH_RETURN:  Total Count: 83954 54493 91567 75605 111367 161468 26391 1617853 
Number of unique branch instructions: 9987
Upper 32 bits: 
aaaa
ffff
ffff0000
Unique upper 32 bits: 3
Unique upper 36 bits: 3
Unique upper 40 bits: 5
Unique upper 44 bits: 32
Unique upper 48 bits: 153
Offset_3 4135
Offset_4 248
Offset_5 452
Offset_6 515
Offset_7 589
Offset_8 520
Offset_9 468
Offset_10 391
Offset_11 330
Offset_12 265
Offset_13 200
Offset_14 225
Offset_15 191
Offset_16 227
Offset_17 146
Offset_18 127
Offset_19 235
Offset_20 139
Offset_21 235
Offset_22 398
Offset_23 241
Offset_24 328
Offset_25 88
Offset_47 80
Offset_64 2
decode_dispatch_called: 21045337 50.172
Dispatch_width: 0 10689411 50.7923 25.4835
Dispatch_width: 1 616264 2.92827 1.46917
Dispatch_width: 2 683895 3.24963 1.6304
Dispatch_width: 3 453389 2.15434 1.08088
Dispatch_width: 4 2329346 11.0682 5.55315
Dispatch_width: 5 300041 1.42569 0.715297
Dispatch_width: 6 5972991 28.3815 14.2396
Empty_decode_cycles: 20901024 49.828
ROB_full_cycles: 3586796 8.55091
Starvation_cycles_per_kilo_instr: 323.866
Starvation_cycles_per_kilo_instr_3: 297.572
Starvation_cycles_per_kilo_instr_0: 280.036
Branch_type_1  (3,1)  (4,7)  (5,36)  (6,74)  (7,116)  (8,129)  (9,123)  (10,102)  (11,80)  (12,42)  (13,4)  (14,2)  (15,3)  (16,4)  (18,1)  (19,4)  (20,2)  (21,1)  (22,3)  (23,2)  (24,10)  (25,12) 
Branch_type_2  (3,1)  (5,1)  (8,3)  (9,3)  (12,1)  (13,1)  (14,1)  (16,3)  (17,2)  (20,2)  (21,2)  (23,5)  (24,1)  (47,36) 
Branch_type_3  (3,4133)  (4,241)  (5,411)  (6,425)  (7,442)  (8,329)  (9,260)  (10,161)  (11,133)  (12,49)  (13,4)  (24,1)  (64,2) 
Branch_type_4  (6,4)  (7,8)  (8,26)  (9,50)  (10,60)  (11,59)  (12,96)  (13,87)  (14,99)  (15,92)  (16,103)  (17,66)  (18,58)  (19,114)  (20,72)  (21,124)  (22,213)  (23,136)  (24,188)  (25,72) 
Branch_type_5  (8,2)  (9,1)  (10,3)  (11,5)  (12,3)  (13,14)  (14,16)  (15,11)  (16,20)  (17,11)  (18,16)  (19,12)  (20,10)  (21,13)  (22,42)  (23,26)  (24,36) 
Branch_type_6  (5,4)  (6,12)  (7,23)  (8,31)  (9,31)  (10,65)  (11,53)  (12,74)  (13,90)  (14,107)  (15,85)  (16,97)  (17,67)  (18,52)  (19,105)  (20,53)  (21,95)  (22,140)  (23,72)  (24,92)  (25,4)  (47,44) 
Unique trigger count: 
BTB PER SET UNIQUE ADDR: 2 4 3 2 1 0 3 2 4 0 3 0 5 3 1 3 3 2 4 4 3 4 2 3 4 5 1 4 3 2 6 6 4 3 4 2 1 5 5 2 3 4 3 7 6 2 4 3 6 3 3 2 3 1 0 3 4 3 3 3 1 4 2 3 1 4 5 2 3 5 5 1 1 4 2 3 3 6 2 3 2 3 1 4 3 3 2 5 3 3 6 4 3 5 3 0 4 3 1 3 4 2 3 3 3 2 1 2 3 2 2 1 3 6 2 6 2 4 4 1 4 4 2 0 1 2 2 1 6 5 5 2 4 1 5 3 2 1 3 3 5 3 3 3 1 4 2 5 4 3 3 8 3 5 3 0 3 4 4 2 4 5 4 4 4 3 2 2 8 1 2 2 4 2 1 1 3 4 5 1 3 3 6 3 4 5 3 1 2 3 5 3 3 4 4 4 2 3 3 4 3 2 4 1 3 3 2 4 2 1 2 4 5 4 3 2 3 5 4 0 1 1 2 3 3 2 3 3 0 3 8 3 3 2 3 3 3 3 1 2 1 0 5 3 9 7 1 1 3 3 3 2 1 3 2 6 3 4 4 3 3 4 4 2 3 6 3 1 4 2 3 2 2 3 5 2 2 1 3 3 4 2 6 2 5 5 3 3 1 1 0 3 1 6 1 1 5 3 1 2 3 3 1 2 4 2 3 2 6 5 3 1 3 2 5 1 6 6 2 2 3 7 3 5 2 2 1 6 1 1 4 0 2 5 5 2 3 4 5 0 4 0 1 4 4 2 1 5 4 3 3 6 4 3 5 3 2 0 4 1 2 6 2 4 6 5 1 1 2 2 3 2 3 4 4 4 3 3 3 4 6 3 2 6 3 2 5 2 4 1 5 5 4 2 3 1 5 0 1 3 4 2 3 2 2 4 3 2 1 1 1 3 4 3 2 2 5 3 1 3 1 1 3 4 4 3 3 0 2 4 0 1 8 3 5 5 3 3 3 0 2 4 5 3 4 6 2 3 3 2 4 3 1 1 5 1 1 3 7 2 3 3 4 6 2 3 5 3 3 3 0 4 4 3 3 1 4 5 1 1 2 1 2 2 0 4 3 0 5 1 3 1 3 4 0 5 3 3 2 1 5 1 1 2 1 2 2 2 2 3 3 2 2 6 1 1 2 5 4 5 3 3 4 2 5 5 0 5 6 3 4 3 3 6 4 5 1 1 4 1 2 5 6 2 5 2 7 3 6 9 3 6 3 6 1 3 3 1 2 3 7 2 5 2 2 1 4 2 2 7 3 2 3 7 2 2 3 3 1 5 4 2 1 0 1 0 0 9 4 2 5 6 1 1 2 3 4 2 2 1 4 2 4 6 1 3 4 4 2 2 5 2 2 2 2 1 2 0 3 1 4 4 6 2 2 3 2 4 2 3 5 4 3 2 5 2 2 3 2 2 7 1 4 3 0 0 3 3 3 4 3 2 4 2 3 0 4 3 2 3 5 2 5 4 5 3 5 3 1 3 5 3 4 4 5 7 3 3 3 3 3 2 3 2 5 3 6 3 4 4 1 4 2 2 2 3 6 4 4 4 0 6 0 3 3 2 4 1 3 1 3 4 4 2 2 1 7 2 0 3 2 0 1 1 1 1 1 3 2 3 5 6 2 2 2 5 4 3 2 2 1 3 2 4 2 1 3 2 4 2 1 3 1 3 3 2 2 6 4 1 3 3 1 5 4 4 8 3 2 2 5 5 0 3 3 4 5 2 2 3 3 4 0 3 8 6 3 4 0 2 2 4 2 1 4 7 7 2 3 3 6 3 4 3 5 4 3 5 2 3 1 4 4 0 4 4 1 2 0 4 4 2 4 2 2 2 2 3 4 4 3 1 3 2 5 2 2 1 5 2 2 1 3 3 1 4 6 4 5 2 6 2 6 4 4 4 3 2 4 4 2 6 2 1 8 3 3 4 5 4 1 4 3 6 4 0 2 2 5 4 3 5 4 4 5 3 2 2 2 5 4 3 3 4 2 1 6 3 1 2 5 2 1 3 4 5 2 5 3 4 5 4 0 3 1 6 0 1 5 2 5 5 5 3 4 1 3 2 5 7 4 4 9 7 5 4 6 5 1 7 4 2 0 4 5 5 6 5 4 2 7 0 5 5 2 3 6 5 4 2 2 3 4 5 2 6 9 4 6 3 2 5 0 5 6 1 7 5 1 3 7 5 3 5 2 1 2 2 3 3 5 5 3 7 5 4 4 5 3 5 1 2 5 2 2 5 5 3 2 2 5 2 4 4 5 2 5 2 2 3 5 2 9 5 2 3 3 2 2 3 4 7 6 2 3 2 3 2 3 1 3 2 4 4 2 4 4 5 4 6 0 3 3 3 3 4 2 2 3 2 3 1 1 1 4 1 2 3 3 4 1 8 5 3 2 1 10 1 2 4 1 2 5 5 3 6 2 5 4 6 2 5 2 2 1 1 5 0 4 4 3 7 4 1 6 4 6 2 3 4 5 3 5 8 4 4 6 1 5 4 7 4 3 2 4 3 6 6 3 6 5 6 4 3 4 3 1 2 3 5 1 3 2 1 3 4 2 2 5 2 2 5 4 2 5 1 8 3 3 2 3 1 3 5 3 4 3 4 2 6 2 3 6 3 4 3 3 5 2 8 4 5 3 8 6 1 6 1 6 2 1 2 4 4 3 1 3 4 2 1 3 2 4 3 3 2 3 4 2 5 2 5 4 5 0 5 3 2 2 6 7 0 7 0 1 4 4 1 5 1 3 3 4 1 1 2 4 5 3 4 1 4 3 6 5 1 4 3 3 6 9 4 2 6 5 5 2 1 3 5 6 3 2 2 3 3 4 4 5 3 1 4 2 2 6 8 6 3 3 6 1 2 5 2 4 1 3 2 6 9 3 3 3 3 4 4 2 5 6 6 4 2 1 5 3 2 4 3 4 4 3 4 7 3 5 4 3 5 5 2 1 7 4 4 3 3 3 2 3 3 2 2 5 5 2 2 5 1 1 3 3 7 5 2 3 4 2 3 3 3 4 3 2 1 3 2 4 2 5 4 4 4 2 1 3 6 1 5 2 4 2 4 6 1 1 4 5 3 3 4 5 2 3 4 4 5 4 4 4 3 3 2 2 3 6 2 4 1 3 0 8 3 3 6 4 4 5 7 3 2 3 3 1 2 4 1 4 2 4 3 0 5 1 4 2 2 3 4 4 2 4 2 3 2 4 2 5 1 0 3 3 1 2 3 1 4 2 3 6 3 1 2 2 3 2 2 6 2 3 5 3 3 3 4 2 2 3 0 2 2 2 3 2 2 2 0 2 0 4 2 3 4 2 3 2 1 2 5 4 2 6 1 3 3 2 2 4 5 3 2 5 0 1 2 3 1 1 2 3 3 5 3 1 1 5 2 1 4 1 5 1 4 3 3 6 2 2 2 1 3 3 1 0 3 4 1 3 3 1 2 0 5 1 3 3 0 3 2 5 3 4 3 3 4 0 4 1 2 1 2 3 0 2 3 2 4 3 1 3 3 2 11 6 3 2 2 4 1 1 3 5 2 3 0 3 2 3 2 3 4 5 6 7 0 4 2 6 4 4 5 4 7 2 4 8 3 0 6 3 3 2 5 3 3 2 2 2 4 2 2 2 3 1 3 4 3 5 2 6 1 1 4 5 3 3 4 4 3 6 2 5 5 2 6 3 3 3 1 3 6 4 4 2 3 3 3 4 4 2 3 3 1 3 1 3 6 0 2 2 3 3 4 5 3 4 3 5 1 2 3 6 2 4 5 6 0 1 7 2 4 2 3 4 7 2 3 2 3 6 2 4 3 5 3 5 8 4 4 3 5 1 5 3 3 2 3 1 2 2 3 5 3 2 3 3 5 5 2 4 8 0 3 2 4 5 4 3 4 3 5 2 4 1 5 2 3 4 2 3 0 3 5 0 7 2 4 5 1 5 3 2 0 4 2 3 5 3 6 2 2 2 1 3 4 6 1 4 3 0 3 2 4 5 3 1 4 5 2 3 2 6 3 4 1 5 3 0 2 3 1 1 8 2 0 4 2 4 3 2 3 6 3 3 6 1 5 3 5 2 5 4 2 3 2 7 1 5 0 3 3 4 4 3 3 2 0 2 3 0 3 0 3 5 6 2 2 6 2 4 3 3 1 3 2 4 2 4 2 5 3 2 3 2 2 3 4 3 2 3 3 2 2 0 3 2 5 1 4 1 5 4 2 3 1 4 1 3 3 4 2 3 4 4 5 3 3 3 3 3 2 1 3 2 1 0 1 3 2 4 2 5 2 2 3 4 1 1 4 3 2 2 7 3 2 7 5 3 2 4 1 2 6 3 3 4 2 4 0 1 2 5 3 2 5 3 2 4 3 4 7 3 2 0 4 1 0 2 3 0 4 4 6 2 3 4 6 4 0 2 2 4 1 4 1 3 1 8 3 1 3 3 6 2 7 3 4 6 0 1 3 1 4 2 1 0 2 3 4 6 5 1 0 3 4 5 1 1 1 3 5 2 2 5 4 3 3 5 4 0 6 3 6 2 1 2 2 1 2 4 1 3 1 3 2 3 1 5 2 5 2 4 2 1 3 5 4 4 0 
BTB PER SET COUNT: 2 4 3 1478 1 0 870 2 4 0 4 0 3818 9 1 4 3 43 1454 5349 3 477 4 3 9 6779 1 4 1460 2 3353 2554 4 3 5446 284 2914 3169 3992 2 50 6011 5 2198 5793 2 4 3 1516 3 2139 3410 3 1 0 3 4 3 4 892 3 4 976 473 1 357 445 2 3 1007 1267 2914 1 8247 2 966 1460 750 2 6 2 3 1 4 3 4 2 10 3 3 2924 2461 3 3819 3 0 912 3 1 3 508 1671 3844 3 4 3 1 2853 426 16 2 1 125 2679 2144 2163 940 1433 4 1 6 5 12 0 2 2 13 1 2889 22 18271 3 4099 1 938 3 1872 1 12 3 4889 6 3 3 1 9 2 6477 4 3226 3 6957 3 10178 3 0 3 5 996 9871 4610 1850 5 1462 4 1954 28 2 13333 249 2 2 7200 30 1 4907 3 4 1001 38 473 76 7590 440 2153 2187 1415 1 3756 3 56 603 3 4 1459 1769 190 3 714 986 4350 3 1057 1 4 814 2 1488 1988 1 1710 7 12 12 3 1742 3 591 7580 0 1 919 3 5 4264 2 88 39 0 1202 13717 4 3 2 981 3 3 122 1 2 9302 0 2413 3 9593 5927 719 1 4 3 5620 2 1 600 2 4007 3 4 4 5 2707 810 1787 1461 1601 2180 3 13488 562 2 4 2 2 3 1897 7148 2 1 3 26 79041 2 1920 14512 748 10016 3 12 1 1 0 1856 1 60 1 4527 989 2537 1 2 3 3 1 2 4 2 3 2 1920 996 2447 7384 3 2 1850 6 2418 1244 2 2 3 2209 3 1708 2 2 1 462 1 2 3537 0 3 14 2154 6 968 991 2447 0 6 0 1 968 968 1461 1 14 3880 736 4 606 4258 13415 1043 2937 2 0 4 1 2 3179 2808 6 2785 1383 952 65 485 2 3396 2 3 4 5 2926 1555 2909 1264 4 34 246 2 88667 64 2 1240 2 4 1 2730 711 2744 516 3 1 6015 0 1 7 4 2 4 2 2 3007 2293 2 1 976 1 1189 213 4 977 1461 2566 782 1 86 1 1 3 47 1509 3 173 0 2 4 0 2924 8645 3 3326 5526 4 4 4272 0 2 486 3862 368 5 2332 2997 2370 1700 1707 978 3 1 1 1872 1 1 3 7614 2 3 3 4 2934 4 1466 1625 5 3 6013 0 1133 29 484 4 1 153 1011 1 1 2640 1 1452 4827 0 3661 12 0 833 1 3 1 2132 4945 0 23 16 2492 2 1 3474 11 1 13 1 2 2 1136 2 3 3 3 2 516 2 1773 1461 5320 7 498 3 1460 1444 15 897 4098 0 1876 4802 3 4 7410 31 1087 1460 516 1 90 12 1 3 1449 191 734 1944 8 92 3 950 13397 4356 2080 9200 2871 1 3 5 1 1456 1260 16978 2 1875 2 2 1 4 1918 2 3867 136 4 4 6359 2 2 332 1856 1 24 1568 38 1 0 2 0 0 4805 7567 2 1969 2917 1 1 977 730 1471 3 1694 1 3270 699 2956 4777 1 3 4 2919 2 2 2416 2 3 2 965 1 5334 0 2589 203 4 1250 3356 3896 5 3 2 5 4 858 4764 6280 3 8 3234 2 2 1822 2 3 3398 1 4 4 0 0 4 7 11 5 3 2 733 479 4 0 4 460 597 3 16976 910 58 4 1935 3 5168 995 1 3 6157 3 6277 5 1449 2916 477 4 9 217 4431 2475 3 966 6011 3 2146 1460 4 1491 16 3139 2 2 4060 3 5953 11 4591 28 0 4376 0 730 3 966 4 1 1731 1 3 38 5 2 966 1 2448 367 0 3 2 0 1 1 1 1 1 1865 1429 1930 5587 4840 977 23 3 475 4 326 2 2187 1 3 4170 6478 2 1 512 2 5 1900 3 3 1 6 3 21 2 7738 2407 1 3 2215 1 25 549 6 8997 4 3 1397 16 426 0 80 3 267 2872 3 6 4527 3 6 0 1524 4488 4775 5 1976 0 2 2 1576 8 2 4 3596 3338 1387 4 3 8456 2289 410 1244 2222 5 3 21 2 942 1 1415 13 0 22 10 2 4 0 4 4 4601 1960 2 1888 1484 2 3 1459 3115 45029 1 1846 2 4970 2 27 1 1528 6191 2 1 3 9173 1 8 1995 1463 37 2 3516 3709 1884 8 3327 4 7 2 11 4 2 6095 2 3 6410 978 41 4 7089 981 1 1014 1470 4405 4 0 3 1457 24 4 246 6196 4 9515 1024 3 2 235 2267 15 10 4 3 26 2 2 3889 3 3 991 1892 3 1 2678 27847 2553 2 4714 4 4 3007 4 0 3 1 5634 0 1 1460 2224 55 96 1405 50 16 1456 11 2 2334 3143 4 488 6203 3912 9019 1702 2265 184 2 77 4 644 0 979 10 6306 432 1477 85 2 824 0 2155 395 4319 3 8745 1969 11 2 980 512 486 4811 2 4805 2699 3902 7664 1467 3666 11 0 928 8809 1 7274 3548 1 29 6434 726 485 13 2 3 2 2 4 5706 2229 5790 3 3607 543 4 4 4865 3 1471 1 2 14 3216 4736 4770 26 15 2 1566 4193 2761 6053 1330 1697 2 784 7 2 3 3066 2220 6355 1475 2 58 3 2 2 3 4 5310 1876 5 947 10 3 2 3 1 3 2 548 2053 3 4 843 1933 5501 6577 0 3 3 3 1460 360 1014 3 3 3 320 1 10 1 4 1 2 3 3 5 1551 4335 2919 12265 2 2 14247 1 2 6 969 2265 3875 1092 920 5290 2373 24 4 2518 2 28 2 2 3 1 4893 0 4341 4 7 12097 1142 1 3414 2850 6304 549 485 4 950 1930 2342 2654 19 6452 2401 479 21 5337 12192 5 5 975 4 3 3875 2369 3354 4312 19139 3147 4 3 752 4 1 2 3 13224 1882 5 2 1 4 6 551 2 524 3 1964 96 4 4886 1978 2 6073 3 701 224 3 1 6 4394 3 17874 5 4 2 22 16 3 1927 4085 5 2067 3 8985 2 5872 32 2278 3 3064 11938 1 5251 7933 2216 3220 1222 3 513 1345 4 1170 2564 3089 2 1 18 484 2892 7831 3 975 2611 15 2313 1468 1985 2943 4 3961 0 2694 3 2 4 40 16520 0 3337 0 1 4 3686 1 23 1 937 943 14 1 1 2 3017 2476 3 1369 486 1610 15 14571 11215 1 4453 769 3233 2888 10640 1965 4509 8552 4885 3282 2 1 445 1882 2400 3010 2 2 2077 3 122 13 2163 3 4 1516 22189 2 3314 29080 6183 3 3 564 1 2 86 2 4 1 3 702 5086 7853 978 3 3 3 978 19 2 4461 1933 3910 1029 476 1 4206 3816 2 2685 4495 4 4 1926 1096 8068 1927 1930 2921 485 3721 2412 2 1519 23807 4 3769 3 3 3 9 3 3 2 2 20 568 2 185 994 1 1 4326 964 4359 6859 12 339 4 2 3 8 1558 4 3 2 1 3 6224 5518 2 5300 6733 775 5 2 4891 437 7061 2 9182 2 4 2 7 1634 1 1 4 50 978 3 1734 2397 2 1411 1987 5 8358 5 4 4 3 3 6680 2 1895 4349 2 4 1 2406 0 12964 1640 3 2805 291 4 2392 9273 1646 2 3 1000 1 2 3697 1 2868 1422 1470 5 0 19139 1 86 3 2 2758 249 4 2 5020 2188 3 1331 6 2 565 1 0 3 244 1 4 1332 1 15244 2 3 6052 709 1 2 2 4337 2 2 2798 2 3 913 4 5 2007 938 2 3932 1507 0 3 1489 2 1932 2 2 2 0 2 0 3397 2 3019 946 2 3842 936 479 12 9 5740 2 15480 1 3 246 2 117 5 284 4356 2 23218 0 1 2 544 4521 1 2 17121 11 1993 353 1 1 1380 2 496 4 1 7031 1 4376 3 305 1934 9 5280 134 1 336 42 1 0 6 1462 1 3 3 1 2 0 4790 1 4 4 0 5150 2173 2707 3 6276 3 3 1927 0 44 1 1453 6 2 3 0 2 3 2 4 8811 1 826 980 2 4329 2906 7057 2 1460 968 1 1 3 1722 2 959 0 2839 2 5 5 2043 1674 2338 54 5773 0 171 3 2825 4 7 7137 1449 3399 2 769 8852 475 0 5804 6233 3 4 4371 1771 239 3 2 2 980 2409 1291 2 955 1 235 1297 3 3538 506 8725 2890 1 4 37438 3 8 5829 4 1795 6444 2 2642 1922 2478 2409 3087 228 357 1 1933 2949 5 4051 7 7841 3386 4 970 11 2 25 4 1 4540 1 3 2809 0 2 2 2721 2196 4 3109 330 1089 3951 9764 1 2 9 4997 2 3233 3393 2998 0 1 7621 2 1323 2 3 968 1948 511 3 3171 3274 2848 2 486 4 6085 1208 22 9738 238 4 14583 2894 2916 1886 1460 30 2 1261 2 3 2 228 3644 1466 2 1291 3 118 1445 8893 216 3416 0 1461 2 1461 3404 4 3 4 3078 2794 40 3028 1 2413 2 5 6 2 3 0 486 3804 0 5269 386 5 2414 719 17 4 2 0 2766 2 10 9912 4 8695 2 10 4 1 3 4854 7212 1 22 10355 0 3 2 10476 3346 978 1 5 1951 2 4 2 7069 3 4 1 10084 1023 0 2 484 1458 1 6428 2 0 8347 500 5 3 2 2059 3338 4 408 4153 1 4429 6384 4846 197 1871 2304 2 3 2 10801 3222 6979 0 4 1487 408 4 3 3547 1902 0 2 539 0 4616 0 3 3011 3815 12 2 771 1054 1326 5 979 1 15701 2 4 7940 4 4037 103 3 6326 3 108 2 1900 4 3 2748 3 3 2 2 0 62 2 36 1 4 2779 9151 482 2 6788 8 3560 1 1968 4187 697 2216 485 974 1414 8160 5 17542 3 3 3 2 15 3 3 1 0 1 248 474 4 6 2412 2 2 3 4 1 1 976 3 5 1429 3469 11 513 3623 5298 1386 4 4 2 2 708 3 3 777 2 2269 0 1176 2 2476 937 10 36 3 25673 4 3 978 3739 523 2 0 4 2499 0 2442 1827 0 4 1462 989 4 3 4 2404 28 0 2067 2 7 1 480 1427 433 947 6566 2190 985 3 1845 2444 8 30963 2931 5 18076 0 1 65 1 4 12220 271 0 547 2744 5 1524 29 1 0 970 5563 3541 1 1 1 3 6405 2 5 7763 6 4435 12 3537 1906 0 2492 24 6122 7 14503 964 2 1 10 483 1 3 1 1659 954 4 2420 18 13 777 2 26012 11 2 3 1662 88 4 0 
