
*** ChampSim Multicore Out-of-Order Simulator ***

Warmup Instructions: 50000000
Simulation Instructions: 50000000
Number of CPUs: 1
LLC sets: 2048
LLC ways: 16
Off-chip DRAM Size: 4096 MB Channels: 1 Width: 64-bit Data Rate: 6400 MT/s
CPU 0 runs ./micro_traces/srv286.trace.gz
.gz
ITLB has LRU replacement policy
DTLB has LRU replacement policy
STLB has LRU replacement policy
FDIP Prefetcher at L1I
L1I has LRU replacement policy
L1D has LRU replacement policy
Initialize SRRIP state for L2C
Initialize DRRIP state for LLC
Heartbeat CPU 0 instructions: 10000003 cycles: 2797445 heartbeat IPC: 3.57469 cumulative IPC: 3.57469 (Simulation time: 0 hr 1 min 55 sec) 
Heartbeat CPU 0 instructions: 20000000 cycles: 5595554 heartbeat IPC: 3.57384 cumulative IPC: 3.57427 (Simulation time: 0 hr 3 min 35 sec) 
Heartbeat CPU 0 instructions: 30000001 cycles: 8391549 heartbeat IPC: 3.57654 cumulative IPC: 3.57503 (Simulation time: 0 hr 5 min 12 sec) 
Heartbeat CPU 0 instructions: 40000000 cycles: 11188947 heartbeat IPC: 3.57475 cumulative IPC: 3.57496 (Simulation time: 0 hr 6 min 48 sec) 
Heartbeat CPU 0 instructions: 50000003 cycles: 13985500 heartbeat IPC: 3.57583 cumulative IPC: 3.57513 (Simulation time: 0 hr 8 min 23 sec) 

Warmup complete CPU 0 instructions: 50000003 cycles: 13985500 (Simulation time: 0 hr 8 min 23 sec) 

Cycle: 20000000 FTQ IN: 57040129 FTQ occupancy: 18.4492 DECODE IN: 57040003 DECODE occupancy: 47.302 ROB IN: 57039943 ROB occupancy: 286.38 ROB OUT: 57039591
Heartbeat CPU 0 instructions: 60000000 cycles: 22514165 heartbeat IPC: 1.17252 cumulative IPC: 1.17252 (Simulation time: 0 hr 9 min 51 sec) 
Cycle: 30000000 FTQ IN: 11778541 FTQ occupancy: 7.55519 DECODE IN: 11778658 DECODE occupancy: 16.9728 ROB IN: 11778718 ROB occupancy: 139.003 ROB OUT: 11778819
Heartbeat CPU 0 instructions: 70000001 cycles: 30990385 heartbeat IPC: 1.17977 cumulative IPC: 1.17613 (Simulation time: 0 hr 11 min 19 sec) 
Heartbeat CPU 0 instructions: 80000000 cycles: 39503958 heartbeat IPC: 1.17459 cumulative IPC: 1.17562 (Simulation time: 0 hr 12 min 46 sec) 
Cycle: 40000000 FTQ IN: 11777689 FTQ occupancy: 7.75662 DECODE IN: 11777698 DECODE occupancy: 17.4158 ROB IN: 11777679 ROB occupancy: 142.752 ROB OUT: 11777885
Heartbeat CPU 0 instructions: 90000000 cycles: 47898823 heartbeat IPC: 1.1912 cumulative IPC: 1.17948 (Simulation time: 0 hr 14 min 11 sec) 
Cycle: 50000000 FTQ IN: 11906049 FTQ occupancy: 7.58683 DECODE IN: 11906048 DECODE occupancy: 17.1522 ROB IN: 11906067 ROB occupancy: 142.142 ROB OUT: 11906065
Heartbeat CPU 0 instructions: 100000001 cycles: 56354877 heartbeat IPC: 1.18258 cumulative IPC: 1.1801 (Simulation time: 0 hr 15 min 48 sec) 
Finished CPU 0 instructions: 50000001 cycles: 42369378 cumulative IPC: 1.1801 (Simulation time: 0 hr 15 min 48 sec) 

ChampSim completed all CPUs

Region of Interest Statistics

CPU 0 cumulative IPC: 1.1801 instructions: 50000001 cycles: 42369378
 Fetch stage stalled: 68.2121  Sim cycles: 42369378 fetch stall cycle: 28901037
 Empty decode stage: 57.2949  Sim cycles: 42369378 fetch stall cycle: 24275472
ITLB TOTAL     ACCESS:    5652225  HIT:    5160867  MISS:     491358  HIT %:    91.3068  MISS %:    8.69318   MPKI: 9.82716
ITLB LOAD TRANSLATION INSTRUCTION	ACCESS:    5539035  HIT:    5047677  MISS:     491358  HIT %:    91.1292  MISS %:    8.87082  MPKI: 9.82716
ITLB TRANSLATION FROM L1D PREFETCHER INSTRUCTION	ACCESS:     113190  HIT:     113190  MISS:          0  HIT %:        100  MISS %:          0  MPKI: 0

ITLB AVERAGE MISS LATENCY: 9.05498 cycles
ITLB RQ	ACCESS:    7494064	FORWARD:          0	MERGED:    1361280	TO_CACHE:    6132784

DTLB TOTAL     ACCESS:    9233236  HIT:    8761442  MISS:     471794  HIT %:    94.8903  MISS %:    5.10974   MPKI: 9.43588
DTLB LOAD TRANSLATION DATA	ACCESS:    9233236  HIT:    8761442  MISS:     471794  HIT %:    94.8903  MISS %:    5.10974  MPKI: 9.43588

DTLB AVERAGE MISS LATENCY: 9.33074 cycles
DTLB RQ	ACCESS:   13536797	FORWARD:          0	MERGED:    4268354	TO_CACHE:    9268443

STLB TOTAL     ACCESS:    1214905  HIT:    1212735  MISS:       2170  HIT %:    99.8214  MISS %:   0.178615   MPKI: 0.0434
STLB LOAD TRANSLATION INSTRUCTION	ACCESS:     491358  HIT:     491059  MISS:        299  HIT %:    99.9391  MISS %:  0.0608518  MPKI: 0.00598
STLB LOAD TRANSLATION DATA	ACCESS:     471585  HIT:     469737  MISS:       1848  HIT %:    99.6081  MISS %:    0.39187  MPKI: 0.03696
STLB TRANSLATION FROM L1D PREFETCHER DATA	ACCESS:     251962  HIT:     251939  MISS:         23  HIT %:    99.9909  MISS %: 0.00912836  MPKI: 0.00046

STLB AVERAGE MISS LATENCY: 72.0184 cycles
STLB RQ	ACCESS:    1334456	FORWARD:          0	MERGED:     119515	TO_CACHE:    1214941

STLB Hit, L1D data hit: 0
STLB Hit, L2C data hit: 0
STLB Hit, LLC data hit: 0
STLB Hit, LLC data miss: 0
STLB STLB hints to L2: 0
L1D TOTAL     ACCESS:   13299530  HIT:   12188251  MISS:    1111279  HIT %:    91.6442  MISS %:    8.35578   MPKI: 22.2256
L1D LOAD DATA	ACCESS:    6739119  HIT:    6007184  MISS:     731935  HIT %:     89.139  MISS %:     10.861  MPKI: 14.6387
L1D RFO DATA	ACCESS:    6231241  HIT:    5944902  MISS:     286339  HIT %:    95.4048  MISS %:    4.59522  MPKI: 5.72678
L1D PREFETCH DATA	ACCESS:     329170  HIT:     236165  MISS:      93005  HIT %:    71.7456  MISS %:    28.2544  MPKI: 1.8601

L1D PREFETCH  REQUESTED:     742976  ISSUED:     742976  USEFUL:      34725  USELESS:      67254
L1D USEFUL LOAD PREFETCHES:      34725 PREFETCH ISSUED TO LOWER LEVEL:     102054  ACCURACY: 34.0261
 TIMELY PREFETCHES:      34725 LATE PREFETCHES: 9004 DROPPED PREFETCHES: 7
L1D AVERAGE MISS LATENCY: 287329 cycles
L1D RQ	ACCESS:   10840668	FORWARD:          0	MERGED:    3903407	TO_CACHE:    6771290
L1D WQ	ACCESS:    6941569	FORWARD:     166339	MERGED:     176062	TO_CACHE:    6765507
L1D PQ	ACCESS:     371672	FORWARD:          0	MERGED:          0	TO_CACHE:     371304

L1D UNIQUE REGIONS ACCESSED: 0
L1D REGIONS CONFLICTS: 0
L1D Cross Page Prefetch Requests: 6941
L1D Same Page Prefetch Requests: 748036
L1D ROI Sum of L1D PQ occupancy: 4726047
L1D PREFETCHES PUSHED FROM L2C: 0
L1I TOTAL     ACCESS:    6959111  HIT:    4208178  MISS:    2750933  HIT %:    60.4701  MISS %:    39.5299   MPKI: 55.0187
L1I LOAD INSTRUCTION	ACCESS:    6436709  HIT:    3685776  MISS:    2750933  HIT %:    57.2618  MISS %:    42.7382  MPKI: 55.0187
L1I PREFETCH INSTRUCTION	ACCESS:     522402  HIT:     522402  MISS:          0  HIT %:        100  MISS %:          0  MPKI: 0

L1I PREFETCH  REQUESTED:    1142266  ISSUED:    1142266  USEFUL:          0  USELESS:          0
L1I USEFUL LOAD PREFETCHES:          0 PREFETCH ISSUED TO LOWER LEVEL:          0  ACCURACY: -nan
 TIMELY PREFETCHES:          0 LATE PREFETCHES: 0 DROPPED PREFETCHES: 0
L1I AVERAGE MISS LATENCY: 17.358 cycles
L1I RQ	ACCESS:    9470062	FORWARD:          0	MERGED:    2796219	TO_CACHE:    6673843
L1I PQ	ACCESS:    1142266	FORWARD:          0	MERGED:     322045	TO_CACHE:     820221

L1BTB TOTAL     ACCESS:    5670083  HIT:    2053527  MISS:    3616556  HIT %:    36.2169  MISS %:    63.7831   MPKI: 72.3311
L1BTB BRANCH_DIRECT_JUMP	ACCESS:     548066 HIT:     145507 MISS:     402559 AVERAGE STALL: 35.8941 AVERAGE FETCH STALL: 17.955 AVERAGE FETCH QUEUE STALL: 7.91693 AVERAGE DECODE STALL: 9.15766 AVERAGE EXECUTE STALL: 3.47252e+14
L1BTB BRANCH_INDIRECT	ACCESS:     183282 HIT:      66452 MISS:     116830 AVERAGE STALL: 87.0763 AVERAGE FETCH STALL: 13.0311 AVERAGE FETCH QUEUE STALL: 8.27121 AVERAGE DECODE STALL: 6.75711 AVERAGE EXECUTE STALL: 58.0655
L1BTB BRANCH_CONDITIONAL	ACCESS:    2712414 HIT:    1423490 MISS:    1288924 AVERAGE STALL: 37.9546 AVERAGE FETCH STALL: 21.5226 AVERAGE FETCH QUEUE STALL: 7.97155 AVERAGE DECODE STALL: 7.69879 AVERAGE EXECUTE STALL: 1.29435e+14
L1BTB BRANCH_DIRECT_CALL	ACCESS:     941935 HIT:     105864 MISS:     836071 AVERAGE STALL: 41.0418 AVERAGE FETCH STALL: 21.3241 AVERAGE FETCH QUEUE STALL: 9.90098 AVERAGE DECODE STALL: 9.03959 AVERAGE EXECUTE STALL: 1.58881e+14
L1BTB BRANCH_INDIRECT_CALL	ACCESS:     171231 HIT:      21369 MISS:     149862 AVERAGE STALL: 113.174 AVERAGE FETCH STALL: 16.1396 AVERAGE FETCH QUEUE STALL: 8.1456 AVERAGE DECODE STALL: 7.47998 AVERAGE EXECUTE STALL: 80.8589
L1BTB BRANCH_RETURN	ACCESS:    1113155 HIT:     290845 MISS:     822310 AVERAGE STALL: 37.8088 AVERAGE FETCH STALL: 18.5912 AVERAGE FETCH QUEUE STALL: 6.33456 AVERAGE DECODE STALL: 6.16488 AVERAGE EXECUTE STALL: 1.82338e+14
L1BTB BRANCH_OTHER ACCESS:          0 HIT:          0 MISS:          0 AVERAGE STALL: -nan AVERAGE FETCH STALL: -nan AVERAGE FETCH QUEUE STALL: -nan AVERAGE DECODE STALL: -nan AVERAGE EXECUTE STALL: -nan
L1BTB TOTAL ROB OCCUPANCY AT BTB MISS: 14.1791

L2BTB TOTAL     ACCESS:    3591153  HIT:    3156105  MISS:     435048  HIT %:    87.8856  MISS %:    12.1144   MPKI: 8.70096
L2BTB BRANCH_DIRECT_JUMP	ACCESS:     398358 HIT:     349413 MISS:      48945 AVERAGE STALL: 35.8941 AVERAGE FETCH STALL: 17.955 AVERAGE FETCH QUEUE STALL: 7.91693 AVERAGE DECODE STALL: 9.15766 AVERAGE EXECUTE STALL: 3.47252e+14
L2BTB BRANCH_INDIRECT	ACCESS:     106598 HIT:     101402 MISS:       5196 AVERAGE STALL: 87.0763 AVERAGE FETCH STALL: 13.0311 AVERAGE FETCH QUEUE STALL: 8.27121 AVERAGE DECODE STALL: 6.75711 AVERAGE EXECUTE STALL: 58.0655
L2BTB BRANCH_CONDITIONAL	ACCESS:    1288924 HIT:    1145536 MISS:     143388 AVERAGE STALL: 37.9546 AVERAGE FETCH STALL: 21.5226 AVERAGE FETCH QUEUE STALL: 7.97155 AVERAGE DECODE STALL: 7.69879 AVERAGE EXECUTE STALL: 1.29435e+14
L2BTB BRANCH_DIRECT_CALL	ACCESS:     836071 HIT:     719909 MISS:     116162 AVERAGE STALL: 41.0418 AVERAGE FETCH STALL: 21.3241 AVERAGE FETCH QUEUE STALL: 9.90098 AVERAGE DECODE STALL: 9.03959 AVERAGE EXECUTE STALL: 1.58881e+14
L2BTB BRANCH_INDIRECT_CALL	ACCESS:     140288 HIT:     118746 MISS:      21542 AVERAGE STALL: 113.174 AVERAGE FETCH STALL: 16.1396 AVERAGE FETCH QUEUE STALL: 8.1456 AVERAGE DECODE STALL: 7.47998 AVERAGE EXECUTE STALL: 80.8589
L2BTB BRANCH_RETURN	ACCESS:     820914 HIT:     721099 MISS:      99815 AVERAGE STALL: 37.8088 AVERAGE FETCH STALL: 18.5912 AVERAGE FETCH QUEUE STALL: 6.33456 AVERAGE DECODE STALL: 6.16488 AVERAGE EXECUTE STALL: 1.82338e+14
L2BTB BRANCH_OTHER ACCESS:          0 HIT:          0 MISS:          0 AVERAGE STALL: -nan AVERAGE FETCH STALL: -nan AVERAGE FETCH QUEUE STALL: -nan AVERAGE DECODE STALL: -nan AVERAGE EXECUTE STALL: -nan
L2BTB TOTAL ROB OCCUPANCY AT BTB MISS: 117.871

L2C TOTAL     ACCESS:    4471646  HIT:    3977388  MISS:     494258  HIT %:    88.9468  MISS %:    11.0532   MPKI: 9.88516
L2C LOAD INSTRUCTION	ACCESS:    2750932  HIT:    2483398  MISS:     267534  HIT %:    90.2748  MISS %:    9.72521  MPKI: 5.35068
L2C LOAD TRANSLATION INSTRUCTION	ACCESS:        343  HIT:         84  MISS:        259  HIT %:    24.4898  MISS %:    75.5102  MPKI: 0.00518
L2C LOAD DATA	ACCESS:     722909  HIT:     641114  MISS:      81795  HIT %:    88.6853  MISS %:    11.3147  MPKI: 1.6359
L2C RFO DATA	ACCESS:     286264  HIT:     232831  MISS:      53433  HIT %:    81.3344  MISS %:    18.6656  MPKI: 1.06866
L2C PREFETCH DATA	ACCESS:     189533  HIT:     113137  MISS:      76396  HIT %:    59.6925  MISS %:    40.3075  MPKI: 1.52792
L2C WRITEBACK DATA	ACCESS:     519681  HIT:     506214  MISS:      13467  HIT %:    97.4086  MISS %:     2.5914  MPKI: 0.26934
L2C LOAD TRANSLATION DATA	ACCESS:       1937  HIT:        580  MISS:       1357  HIT %:    29.9432  MISS %:    70.0568  MPKI: 0.02714
L2C TRANSLATION FROM L1D PREFETCHER DATA	ACCESS:         47  HIT:         30  MISS:         17  HIT %:    63.8298  MISS %:    36.1702  MPKI: 0.00034

L2C PREFETCH  REQUESTED:      94068  ISSUED:      94068  USEFUL:       7929  USELESS:      68885
L2C USEFUL LOAD PREFETCHES:       7929 PREFETCH ISSUED TO LOWER LEVEL:      76732  ACCURACY: 10.3334
 TIMELY PREFETCHES:       7929 LATE PREFETCHES: 336 DROPPED PREFETCHES: 0
L2C AVERAGE MISS LATENCY: 39.0734 cycles
L2C RQ	ACCESS:    3762486	FORWARD:          0	MERGED:          0	TO_CACHE:    3762434
L2C WQ	ACCESS:     519681	FORWARD:         52	MERGED:          0	TO_CACHE:     519681
L2C PQ	ACCESS:     196122	FORWARD:          0	MERGED:       3074	TO_CACHE:     193048

L2C Dense regions hint from L2: 0
PSCL5 TOTAL     ACCESS:       4362  HIT:       2181  MISS:       2181  HIT %:         50  MISS %:         50   MPKI: 0.04362
PSCL5 LOAD TRANSLATION INSTRUCTION	ACCESS:       4268  HIT:       2134  MISS:       2134  HIT %:         50  MISS %:         50  MPKI: 0.04268
PSCL5 TRANSLATION FROM L1D PREFETCHER INSTRUCTION	ACCESS:         94  HIT:         47  MISS:         47  HIT %:         50  MISS %:         50  MPKI: 0.00094


PSCL4 TOTAL     ACCESS:       4136  HIT:       2062  MISS:       2074  HIT %:    49.8549  MISS %:    50.1451   MPKI: 0.04148
PSCL4 LOAD TRANSLATION INSTRUCTION	ACCESS:       2279  HIT:       2018  MISS:        261  HIT %:    88.5476  MISS %:    11.4524  MPKI: 0.00522
PSCL4 TRANSLATION FROM L1D PREFETCHER INSTRUCTION	ACCESS:         53  HIT:         44  MISS:          9  HIT %:    83.0189  MISS %:    16.9811  MPKI: 0.00018
PSCL4 LOAD TRANSLATION DATA	ACCESS:       1769  HIT:          0  MISS:       1769  HIT %:          0  MISS %:        100  MPKI: 0.03538
PSCL4 TRANSLATION FROM L1D PREFETCHER DATA	ACCESS:         35  HIT:          0  MISS:         35  HIT %:          0  MISS %:        100  MPKI: 0.0007


PSCL3 TOTAL     ACCESS:       4218  HIT:       2103  MISS:       2115  HIT %:    49.8578  MISS %:    50.1422   MPKI: 0.0423
PSCL3 LOAD TRANSLATION INSTRUCTION	ACCESS:       2320  HIT:       2059  MISS:        261  HIT %:      88.75  MISS %:      11.25  MPKI: 0.00522
PSCL3 TRANSLATION FROM L1D PREFETCHER INSTRUCTION	ACCESS:         53  HIT:         44  MISS:          9  HIT %:    83.0189  MISS %:    16.9811  MPKI: 0.00018
PSCL3 LOAD TRANSLATION DATA	ACCESS:       1810  HIT:          0  MISS:       1810  HIT %:          0  MISS %:        100  MPKI: 0.0362
PSCL3 TRANSLATION FROM L1D PREFETCHER DATA	ACCESS:         35  HIT:          0  MISS:         35  HIT %:          0  MISS %:        100  MPKI: 0.0007


PSCL2 TOTAL     ACCESS:       4236  HIT:       2055  MISS:       2181  HIT %:    48.5127  MISS %:    51.4873   MPKI: 0.04362
PSCL2 LOAD TRANSLATION INSTRUCTION	ACCESS:       2308  HIT:       2008  MISS:        300  HIT %:    87.0017  MISS %:    12.9983  MPKI: 0.006
PSCL2 TRANSLATION FROM L1D PREFETCHER INSTRUCTION	ACCESS:         47  HIT:         47  MISS:          0  HIT %:        100  MISS %:          0  MPKI: 0
PSCL2 LOAD TRANSLATION DATA	ACCESS:       1834  HIT:          0  MISS:       1834  HIT %:          0  MISS %:        100  MPKI: 0.03668
PSCL2 TRANSLATION FROM L1D PREFETCHER DATA	ACCESS:         47  HIT:          0  MISS:         47  HIT %:          0  MISS %:        100  MPKI: 0.00094


LLC TOTAL     ACCESS:     556917  HIT:     526511  MISS:      30406  HIT %:    94.5403  MISS %:     5.4597   MPKI: 0.60812
LLC LOAD INSTRUCTION	ACCESS:     267534  HIT:     266369  MISS:       1165  HIT %:    99.5645  MISS %:   0.435459  MPKI: 0.0233
LLC LOAD TRANSLATION INSTRUCTION	ACCESS:        259  HIT:        224  MISS:         35  HIT %:    86.4865  MISS %:    13.5135  MPKI: 0.0007
LLC LOAD DATA	ACCESS:      81471  HIT:      77954  MISS:       3517  HIT %:    95.6831  MISS %:    4.31687  MPKI: 0.07034
LLC RFO DATA	ACCESS:      53419  HIT:      37981  MISS:      15438  HIT %:    71.1002  MISS %:    28.8998  MPKI: 0.30876
LLC PREFETCH DATA	ACCESS:      76732  HIT:      66951  MISS:       9781  HIT %:     87.253  MISS %:     12.747  MPKI: 0.19562
LLC WRITEBACK DATA	ACCESS:      76128  HIT:      75741  MISS:        387  HIT %:    99.4916  MISS %:   0.508354  MPKI: 0.00774
LLC LOAD TRANSLATION DATA	ACCESS:       1357  HIT:       1275  MISS:         82  HIT %:    93.9573  MISS %:    6.04274  MPKI: 0.00164
LLC TRANSLATION FROM L1D PREFETCHER DATA	ACCESS:         17  HIT:         16  MISS:          1  HIT %:    94.1176  MISS %:    5.88235  MPKI: 2e-05

LLC AVERAGE MISS LATENCY: 159.546 cycles
LLC RQ	ACCESS:     404059	FORWARD:          0	MERGED:          0	TO_CACHE:     404057
LLC WQ	ACCESS:      76128	FORWARD:          2	MERGED:          0	TO_CACHE:      76128
LLC PQ	ACCESS:      76732	FORWARD:          0	MERGED:          0	TO_CACHE:      76732

LLC Dense regions hint to LLC: 0

RAW hits: 1796535
Loads Generated: 12637205
Loads sent to L1D: 10840668
Stores Generated: 6941569
Stores sent to L1D: 6941569
Major fault: 0 Minor fault: 2562
Allocated PAGES: 2562

stream: 
stream:times selected: 1189194
stream:pref_filled: 122610
stream:pref_useful: 24218
stream:pref_late: 6989
stream:misses: 8113
stream:misses_by_poll: 0

CS: 
CS:times selected: 180558
CS:pref_filled: 58229
CS:pref_useful: 35150
CS:pref_late: 7979
CS:misses: 17569
CS:misses_by_poll: 1

CPLX: 
CPLX:times selected: 1007408
CPLX:pref_filled: 19469
CPLX:pref_useful: 4648
CPLX:pref_late: 3035
CPLX:misses: 93638
CPLX:misses_by_poll: 0

NL_L1: 
NL:times selected: 21366
NL:pref_filled: 738
NL:pref_useful: 337
NL:pref_late: 274
NL:misses: 1867
NL:misses_by_poll: 0

total selections: 2398526
total_filled: 93005
total_useful: 34725
total_late: 19620
total_polluted: 1
total_misses_after_warmup: 764108
conflicts: 5607636

test: 117318

DRAM Statistics
 CHANNEL 0
 RQ ROW_BUFFER_HIT:      11260  ROW_BUFFER_MISS:      18745
 DBUS_CONGESTED:          8
 WQ ROW_BUFFER_HIT:       1511  ROW_BUFFER_MISS:      12931  FULL:          0

 AVG_CONGESTED_CYCLE: 5

CPU 0 Branch Prediction Accuracy: 99.8145% MPKI: 0.339 Average ROB Occupancy at Mispredict: 144.869
Branch types
NOT_BRANCH: 40860685 81.7214%
BRANCH_DIRECT_JUMP: 548066 1.09613%
BRANCH_INDIRECT: 183282 0.366564%
BRANCH_CONDITIONAL: 6181394 12.3628%
BRANCH_DIRECT_CALL: 941935 1.88387%
BRANCH_INDIRECT_CALL: 171231 0.342462%
BRANCH_RETURN: 1113155 2.22631%
BRANCH_OTHER: 0 0%

DRAM PAGES: 1048576
Allocated PAGES: 2562
Average_ROB_Occupancy: 143.138
Average_Decode_Occupancy: 17.3417
Average_FTQ_Occupancy: 7.70844
Indirect max targets: 14 Average targets: 1.15512
Branch_type:  BRANCH_DIRECT_JUMP:  Count Percentage: 2.90143 7.5637 3.70446 8.67973 2.40218 5.96739 0.993393 67.7877 
Branch_type:  BRANCH_INDIRECT:  Count Percentage: 11.7418 3.4892 2.53946 0 1.33657 9.68025 19.2208 51.9919 
Branch_type:  BRANCH_CONDITIONAL:  Count Percentage: 21.0721 3.16387 1.72307 8.67058 1.57307 4.79695 1.82362 57.1767 
Branch_type:  BRANCH_DIRECT_CALL:  Count Percentage: 0.759335 1.29599 1.4387 4.21002 3.32107 2.35744 0.731302 85.8861 
Branch_type:  BRANCH_INDIRECT_CALL:  Count Percentage: 9.55031 0.569946 2.99346 4.84731 1.03465 1.71042 1.28274 78.0112 
Branch_type:  BRANCH_RETURN:  Count Percentage: 3.98547 0.696497 1.27129 9.26402 3.10398 6.1894 2.96919 72.5202 
Branch_type:  BRANCH_DIRECT_JUMP:  Total Count: 31795 82886 40595 95116 26324 65393 10886 742845 
Branch_type:  BRANCH_INDIRECT:  Total Count: 42950 12763 9289 0 4889 35409 70307 190179 
Branch_type:  BRANCH_CONDITIONAL:  Total Count: 2603936 390968 212925 1071448 194389 592772 225350 7065487 
Branch_type:  BRANCH_DIRECT_CALL:  Total Count: 14329 24456 27149 79445 62670 44486 13800 1620710 
Branch_type:  BRANCH_INDIRECT_CALL:  Total Count: 32759 1955 10268 16627 3549 5867 4400 267590 
Branch_type:  BRANCH_RETURN:  Total Count: 88911 15538 28361 206669 69246 138078 66239 1617837 
Number of unique branch instructions: 10227
Upper 32 bits: 
aaaa
ffff
ffff0000
Unique upper 32 bits: 3
Unique upper 36 bits: 3
Unique upper 40 bits: 5
Unique upper 44 bits: 32
Unique upper 48 bits: 157
Offset_3 4203
Offset_4 265
Offset_5 469
Offset_6 514
Offset_7 602
Offset_8 528
Offset_9 488
Offset_10 399
Offset_11 324
Offset_12 296
Offset_13 212
Offset_14 231
Offset_15 193
Offset_16 227
Offset_17 154
Offset_18 126
Offset_19 245
Offset_20 144
Offset_21 261
Offset_22 394
Offset_23 241
Offset_24 354
Offset_25 88
Offset_47 86
Offset_64 1
decode_dispatch_called: 20688303 48.8284
Dispatch_width: 0 10475982 50.6372 24.7254
Dispatch_width: 1 585110 2.82822 1.38097
Dispatch_width: 2 663303 3.20617 1.56552
Dispatch_width: 3 428425 2.07086 1.01117
Dispatch_width: 4 2063169 9.97264 4.86948
Dispatch_width: 5 283862 1.37209 0.66997
Dispatch_width: 6 6188452 29.9128 14.606
Empty_decode_cycles: 21681075 51.1716
ROB_full_cycles: 3064035 7.23172
Starvation_cycles_per_kilo_instr: 331.169
Starvation_cycles_per_kilo_instr_3: 307.699
Starvation_cycles_per_kilo_instr_0: 290.93
Branch_type_1  (3,1)  (4,10)  (5,39)  (6,70)  (7,118)  (8,130)  (9,129)  (10,101)  (11,72)  (12,51)  (13,8)  (14,2)  (15,3)  (16,4)  (18,1)  (19,4)  (20,2)  (21,1)  (22,3)  (23,2)  (24,10)  (25,12) 
Branch_type_2  (3,1)  (5,1)  (8,3)  (9,3)  (12,1)  (13,1)  (14,1)  (16,3)  (17,2)  (20,2)  (21,2)  (23,5)  (24,1)  (47,40) 
Branch_type_3  (3,4201)  (4,255)  (5,425)  (6,428)  (7,451)  (8,333)  (9,269)  (10,162)  (11,133)  (12,58)  (13,7) 
Branch_type_4  (6,4)  (7,8)  (8,26)  (9,55)  (10,63)  (11,62)  (12,102)  (13,90)  (14,103)  (15,92)  (16,102)  (17,70)  (18,57)  (19,118)  (20,74)  (21,141)  (22,209)  (23,136)  (24,204)  (25,72) 
Branch_type_5  (8,2)  (9,1)  (10,4)  (11,5)  (12,3)  (13,14)  (14,16)  (15,11)  (16,20)  (17,11)  (18,16)  (19,13)  (20,11)  (21,13)  (22,42)  (23,26)  (24,41) 
Branch_type_6  (5,4)  (6,12)  (7,25)  (8,34)  (9,31)  (10,69)  (11,52)  (12,81)  (13,92)  (14,109)  (15,87)  (16,98)  (17,71)  (18,52)  (19,110)  (20,55)  (21,104)  (22,140)  (23,72)  (24,98)  (25,4)  (47,46)  (64,1) 
aaaaab1fc620: 2ac9e77e 2aca717c 2aca8eff 2acaf6bc 2acaf9aa 2acaf9f1 2acb1abc 2acb1b7f 2acd4e22 2acdb712 2acf5f9e 2ad0ef44 2ad3f15c 2ad414e6 2ad60e42 2ad8609c 2ad99830 2ada35cc 2ada4676 2ada6612 2adf183e 2adf30e5 2adf5602 2adf785c 2ae11572 2aeb2dcf 2aee101b 2aee1ae1 2aee9456 2b156a8c 2b156b61 2b156bea 2b167f35 2b177656 2b17feec 2b1a3e5a 
aaaaab1fc740: 2aca1fb0 2aca45b3 2aca5aa1 2aca5c69 2aca66f9 2aca9426 2acaeecb 2acf3d2d 2acf3d64 2acf6089 2ad017ea 2ad5e7ef 2ad61064 2ad87373 2ad9bf84 2ad9c093 2ae9b606 2aea9ffa 2aee99f5 2aee9a2c 2aeece4b 
aaaaac68f310: 2ac9ec8c 2ac9fb44 2ac9fbd2 2aca59ab 2acac04c 2acaf6e0 2acaf6ec 2acaf6f9 2acaf700 2acaf708 2acf2d90 2ad3cfbd 2ad3cfc4 2ad3d000 2ad3f35f 2ad4955d 2ad49571 2ad4f3f2 2ad4f400 2ad5f240 2ad5f37c 2ad5f86a 2ad5f86f 2ad5f880 2ad5fc0d 2ad5fc14 2ad5fc21 2ad5fe1b 2ad873bb 2ad873e3 2ad8a6b2 2ad9086e 2ad93096 2ad9bbb2 2ada152c 2ada1554 2ada3332 2ada5522 2adf3130 2adf313c 2adf3a3f 2adf3bd9 2adf5788 2adf7a8d 2ae07f6b 2ae0857a 2ae0857e 2ae08630 2ae08634 2ae08637 2ae08642 2ae0866f 2ae086e4 2ae086ec 2ae08717 2ae0871b 2aee0170 2aee1d38 2aee75f4 2aee7662 2aee85ca 2aee85e4 2aee8eef 2aee9a0a 2af70b84 2af74e8f 2b17d843 
aaaaac690ef0: 2aca598b 2acb111b 2acb175f 2acb1772 2acbfaf4 2acbfb00 2acf374f 2acf6d43 2acfa5c8 2ad3baf1 2ad3d4ac 2ad3d4b8 2ad3f1cf 2ad486b2 2ad5a59b 2ad5fc64 2ad5fcf9 2ad6121c 2ad906e9 2ad907bf 2ad9bada 2ada16ce 2ada1ad5 2ada43df 2ada64c0 2ada72ee 2adeb71a 2adf3bcb 2adf7a38 2adf7c6a 2adf8872 2adf8880 2adf9959 2adf9abe 2ae07f78 2ae08503 2ae08754 2ae12e80 2aea3bea 2aecb509 2aee00b0 2aee2bdd 2aee5467 2aee5601 2aee8f20 2af703fd 2af7048b 2af74e74 2dfba627 
Unique trigger count: 
1 9738
2 533
3 88
4 32
5 12
6 8
7 7
9 3
10 2
11 1
12 2
13 3
16 2
18 2
19 2
21 1
36 1
49 1
67 1
BTB PER SET UNIQUE ADDR: 2 4 4 2 1 1 3 2 4 0 3 0 5 3 2 3 3 2 4 4 3 4 2 3 4 5 1 4 3 2 6 6 4 3 5 2 1 5 6 3 4 4 3 8 6 2 4 3 6 4 4 2 3 2 2 4 4 3 3 3 1 4 2 3 1 5 6 2 3 5 5 1 1 4 2 3 3 7 2 3 2 3 1 4 3 3 2 5 3 3 6 4 3 5 3 0 4 4 1 4 4 3 3 3 3 2 1 2 3 2 2 1 3 6 2 6 2 5 4 1 4 5 2 0 1 2 3 1 6 6 5 2 4 2 5 3 2 1 3 3 5 3 3 3 1 4 2 5 4 3 3 8 3 5 3 0 3 3 4 2 4 5 4 4 5 3 2 2 9 1 2 2 4 2 1 1 3 5 5 1 3 3 6 3 4 6 3 1 2 3 5 3 3 4 4 4 3 3 3 6 3 2 4 1 3 3 2 4 2 1 2 4 5 4 3 2 3 5 4 0 1 1 2 3 3 2 3 3 0 3 8 3 3 2 3 3 3 3 1 2 1 0 5 3 9 7 1 1 3 3 3 2 1 3 2 6 3 4 4 3 4 4 4 2 3 6 3 1 4 2 3 2 2 3 4 2 2 1 3 3 4 2 5 2 5 5 3 3 1 1 0 3 1 6 1 1 4 3 2 2 3 3 1 2 4 2 4 2 5 5 3 1 3 2 5 1 6 6 2 1 3 8 3 5 2 2 2 6 2 0 4 0 2 5 5 2 3 4 5 0 4 0 1 4 4 2 1 5 4 4 3 6 4 3 5 3 2 0 4 1 2 6 2 4 6 5 1 1 2 2 3 2 3 4 4 4 3 3 3 4 6 3 3 6 3 2 5 2 4 1 5 5 4 2 3 1 5 0 1 4 4 2 4 2 2 4 4 3 1 1 1 4 5 3 2 2 5 3 1 3 1 1 3 4 4 3 3 0 2 5 2 2 9 3 5 5 3 3 3 1 2 4 5 4 4 6 2 4 3 2 4 3 1 2 5 1 1 4 7 2 3 3 4 6 2 3 5 3 3 3 0 4 5 3 3 1 4 5 1 1 2 2 2 2 0 4 3 0 5 1 4 2 3 5 1 6 3 3 3 1 5 1 1 2 1 2 2 2 2 3 3 2 2 6 2 1 2 5 4 5 3 4 4 2 6 5 0 5 6 3 4 3 3 6 3 5 1 1 4 1 2 5 6 2 5 2 7 3 6 9 3 6 3 6 1 3 3 1 3 3 7 2 5 2 2 1 4 2 2 7 3 2 3 7 2 2 3 3 1 5 4 2 1 0 1 0 0 9 5 3 5 7 1 1 2 3 5 2 3 1 4 2 4 6 2 4 3 4 3 2 5 2 3 2 2 2 2 0 3 1 5 3 6 2 2 3 2 5 2 3 5 4 3 2 5 2 2 3 2 2 7 1 4 4 0 0 3 3 3 4 4 2 5 2 3 0 4 3 2 3 5 2 5 4 6 4 5 3 1 4 5 3 4 3 5 6 3 3 3 3 3 2 5 3 5 3 5 3 4 3 1 4 2 2 2 4 6 4 5 5 0 6 0 3 3 2 4 1 3 1 3 3 3 2 2 1 7 2 0 3 2 0 1 1 1 1 1 4 2 4 5 5 2 2 2 4 4 3 2 2 1 3 2 4 2 1 3 2 2 2 0 2 1 3 2 2 2 6 4 1 3 3 1 5 4 4 8 3 2 2 5 4 0 3 3 4 5 2 1 3 4 4 0 3 8 6 3 3 0 2 2 4 1 1 4 7 7 2 2 3 5 3 5 3 5 3 3 5 1 2 1 4 4 0 4 4 1 2 0 4 4 2 4 2 2 1 2 2 4 4 3 1 3 2 5 2 2 1 5 2 2 1 3 3 1 4 6 4 5 2 6 2 5 4 5 5 3 2 5 4 3 6 2 1 9 3 3 4 5 3 1 3 3 6 4 0 2 3 5 4 3 5 4 4 5 3 2 2 2 5 4 3 3 4 3 1 7 3 1 1 5 2 1 3 4 5 3 5 3 4 5 4 0 3 1 5 0 1 5 2 6 5 5 3 4 1 3 2 5 7 4 4 9 7 5 4 6 4 1 6 4 2 0 4 4 5 5 5 3 2 6 0 5 5 2 3 6 5 4 2 2 3 4 5 2 6 9 4 6 3 2 4 0 5 6 1 7 5 1 3 7 5 3 5 2 1 2 3 3 2 5 5 2 7 5 4 4 5 3 5 1 2 5 2 2 5 4 3 3 3 5 3 4 5 5 2 5 2 2 4 5 2 9 5 2 3 3 2 2 3 5 8 6 2 3 2 3 2 3 1 3 2 4 4 2 4 5 5 4 6 0 3 3 3 4 4 2 1 3 2 3 2 2 1 4 1 3 3 3 5 2 8 5 3 2 1 10 1 2 4 1 2 5 6 3 7 3 5 5 7 2 5 2 2 1 1 5 0 4 4 3 8 4 1 7 5 7 2 3 4 5 4 5 8 4 4 6 1 4 4 7 4 3 3 4 3 6 6 3 6 6 6 4 3 5 3 1 2 5 5 1 3 2 1 3 4 2 2 5 2 2 5 4 1 5 1 7 3 3 3 3 1 3 5 3 4 3 4 2 6 2 3 6 3 3 3 3 5 2 8 3 5 3 8 6 1 6 1 5 2 1 2 5 4 3 1 3 4 2 1 2 2 4 3 3 3 3 4 2 5 2 5 5 6 0 5 3 2 2 6 8 0 7 0 1 4 5 2 5 1 3 3 4 1 1 2 4 5 3 4 1 4 5 6 5 1 4 3 3 6 10 4 2 6 6 5 1 1 3 5 6 3 2 2 4 3 4 5 5 3 0 4 2 2 6 8 5 4 3 5 1 2 5 2 4 1 3 2 6 8 3 3 3 3 4 4 2 5 6 7 4 2 1 5 3 3 4 3 4 4 4 4 8 3 6 4 3 5 5 4 1 7 4 4 3 3 3 2 3 2 2 2 5 4 3 2 5 1 1 3 3 8 5 2 3 4 2 3 3 3 4 3 2 0 3 2 3 2 4 3 4 4 2 1 2 6 1 4 2 4 2 3 5 1 2 4 5 3 3 4 5 3 3 4 4 5 4 4 5 3 3 2 2 3 5 2 4 1 3 0 8 3 2 6 4 4 5 7 3 2 3 3 1 2 5 1 4 2 4 3 1 5 1 5 2 2 3 4 3 2 4 2 4 2 3 1 5 1 0 3 4 1 1 3 1 4 2 3 7 3 1 2 2 3 2 2 6 2 3 5 3 3 3 4 2 2 3 0 2 2 2 3 3 2 2 1 5 1 4 3 4 5 3 3 2 1 2 5 4 2 7 1 3 5 2 2 4 5 3 2 6 0 1 2 3 1 1 2 3 3 7 3 1 1 7 3 1 4 1 7 1 4 3 3 6 2 3 2 1 3 3 1 1 4 5 2 3 3 1 2 0 6 2 4 3 0 3 2 5 5 4 3 3 4 2 3 1 3 1 3 3 0 2 3 2 3 3 1 3 3 3 10 6 2 2 2 4 2 1 3 5 2 3 0 3 2 3 3 3 4 5 6 7 0 5 2 6 4 5 5 4 8 2 4 9 3 0 6 3 3 3 4 3 3 2 2 2 4 2 2 2 4 2 4 5 3 5 3 6 2 2 5 6 3 4 4 4 4 6 3 5 6 2 6 3 3 3 2 3 7 5 3 2 3 3 3 3 4 2 3 3 1 3 1 3 7 1 2 2 3 3 4 6 3 5 2 6 2 3 2 6 2 4 5 6 1 1 7 2 4 2 3 4 6 2 3 2 3 6 3 4 3 5 3 4 9 4 4 3 5 2 5 4 3 2 3 1 2 2 4 4 4 2 3 3 5 4 2 4 8 1 3 2 4 4 4 3 4 3 6 3 4 1 5 2 3 5 2 3 0 3 6 0 8 2 5 5 1 4 3 2 0 4 2 3 5 3 6 2 2 2 1 3 4 6 1 4 3 0 3 2 4 5 3 2 3 5 2 3 2 6 3 4 1 5 3 0 3 5 1 1 8 2 1 4 1 4 3 2 3 6 3 4 6 1 6 3 5 2 5 4 2 3 2 7 1 4 0 3 3 4 4 3 3 3 1 2 3 0 3 0 3 6 6 2 2 6 2 3 3 3 1 3 2 5 2 4 2 5 3 2 3 1 2 3 3 4 2 3 5 2 1 2 2 2 5 2 5 1 5 4 2 4 1 4 1 2 3 5 2 3 4 4 5 3 3 3 4 3 2 0 3 2 0 2 1 2 2 4 2 5 2 2 3 4 2 2 4 3 2 3 8 3 2 7 6 4 2 4 1 2 6 3 4 5 2 4 0 1 2 5 3 2 4 3 2 5 3 4 7 4 2 0 5 1 0 2 3 0 4 4 6 1 3 4 6 5 0 2 2 4 3 4 1 3 2 8 3 1 3 3 6 2 7 3 5 7 0 1 3 1 4 3 1 0 2 3 4 5 5 1 0 3 4 5 1 2 1 3 5 2 2 5 4 3 3 5 4 1 6 3 6 2 1 2 3 2 3 5 2 3 3 3 2 3 1 5 2 5 3 4 2 1 3 5 4 4 0 
BTB PER SET COUNT: 2 4 4 2 2 1 4 2 4 0 3 0 2445 3 2 3 3 3 4 1470 3 5 4 3 4 11 1 4 1469 2 2935 22 4 3 8 2 2934 713 719 3 4 4 4 2198 5387 2 4 3 1600 4 4 2 3 2 7 4 6 3 3 3 1 4 2 4 1 374 532 2 3 962 714 1 1 4 2 3 491 729 2 3 2 3 4 5 3 5 2 10 3 3 2476 492 3 3914 3 0 4 5 1 4 4 3 4 3 3 2 1 2 4 2 2 1 3 1943 2 1788 3 8 4 1 4 8 2 0 1 2 3 1 3130 12 1958 3 4 3 981 3 2 1 3 3 1513 4 3 3 1 12 2 4403 4 4 4 6805 3 2446 4 0 3 3 4 2 6 952 5 4 6 1959 2 2 8318 1 2 2 4 2 1 1 3 9 992 1 3 3 6846 3 4 11 3 1 2 3 31 3 4 4 4 8 3 4 4 9 3 3 4 1 4 3 2 1471 2 1 3 7 12 4 3 2 4 658 4 0 1 1 2 3 3 2 3 37 0 3 5821 4 3 3 3 3 3 3 1 2 2 0 2445 3 9291 2125 1 1 4 3 4 2 1 3 2 2286 4 4 4 6 5 4 4 2 1470 1457 3 1 4 2 3 2 3 3 4 2 2 1 3 3 6 2 1956 2 715 2446 3 3 1 1 0 4 1 14 1 1 9 3 3 2 3 3 1 2 5 2 4 2 1957 952 3 1 3 3 949 2 2447 1191 2 1 3 2184 4 7 2 2 5 508 2 0 981 0 2 15 1527 4 981 4 24 0 4 0 1 981 981 2 1 6 4 6 3 126 5 3 38 5 2 0 4 1 2 8 2 5 2671 1678 1 3 2 2 3 2 3 4 4 4 3 3 3 5 28 4 3 1682 4 2 14 2 5 1 18 7 4 2 3 1 3418 0 2 6 4 2 4 2 2 6 1470 3 1 978 1 4 9 3 979 2 156 3 1 90 1 1 3 5 4 3 4 0 3 6 125 2 2700 3 945 2445 3 3 3 1 4 4 1185 4 4 956 2 4 3 2 4 3 1 2 1957 2 1 4 1491 2 4 3 4 1968 2 3 8 3 4 3 0 4 42 491 3 1 4 949 1 1 2 2 2 490 0 4 3 0 23 1 4 2 4 7 1 27 3 3 3 1 1957 10 1 3 1 2 2 2 2 3 3 2 2 34 4 1 2 2446 4 500 3 1471 4 2 19 1469 0 1957 4899 3 4 3 3 22 3 498 4 1 6 1 2 1469 180 5 11 2 61 3 995 9285 3 1484 5 2930 1 3 5 1 3 3 6848 2 1958 2 2 1 4 2 2 2967 3 2 3 5390 2 2 3 3 1 24 4 44 1 0 1 0 0 3924 6 3 1957 2937 2 1 979 3 7 2 3 1 4 4 4 1423 2 4 3 4 4 2 2444 2 3 2 2 3 982 0 5 1 9 491 3424 2 4 3 2 12 2 3 1957 1470 3 4 982 2 2 3 2 2 2948 1 4 4 0 0 4 3 3 6 5 2 8 2 3 0 5 3 2 4 7826 3 25 5 1958 6 2948 980 2 4 718 3 5 4 1469 3004 3 3 4 4 3 2 6 980 1470 3 17 1469 4 3 2 984 2 2 2 4 1961 4 16 48 0 2449 0 3 3 979 4 1 3 1 3 4 4 2 979 1 2462 2 0 3 2 0 1 1 1 1 1 4 2 4 1469 9 979 2 2 4 4 3 2 2 1 3 2 4 2 1 491 2 2 979 0 2 1 4 2 2 2 2934 4 1 3 3 1 16 4 4 5877 3 4 2 7 4 0 109 3 6 2937 3 1 3 4 5 0 3 3081 4897 3 3 0 2 2 35 1 1 5 2164 1977 2 2 3 12 3 6 5 1961 3 5 19 2 5 1 4 4 0 5 5 4 2 0 4 4 2 4 2 2 1 2 2 5 94 3 1 3 2 1958 4 2 2 1469 2 2 1 3 1470 1 7 1977 4 7 3 2446 2 1960 6 9 8 3 3 6 4 3 4892 2 1 6363 980 4 5 1469 5 1 3 3 2451 4 0 4 3 24 4 4 4896 4 4 85 3 2 2 2 9 5 3 4 5 3 2 725 3 1 1 1681 2 1 47 4 2447 3 949 4 6 50 4 0 3 1 1469 0 1 981 2 44 8 1469 4 7 1 3 2 1957 99 4 494 5394 3926 1469 4 2073 6 3 28 4 2 0 981 5 2444 24 1470 4 2 742 0 362 9 2 3 1389 1959 4 2 2 492 4 4892 4 20 1075 5 1962 3 2 4 0 373 26 1 7337 19 1 3 1969 14 492 7 2 3 2 3 4 2 1701 6 2 3423 7 4 4 1956 3 30 1 2 7 2 2 20 5 3 3 3 1966 3 2449 372 1690 2 25 3 2 5 1682 5 5154 23 2 3 3 2 2 3 6 2938 1961 2 3 2 3 2 3 3 3 2 4 4 2 4 8 1958 4 1479 0 3 3 3 1470 374 2 1 4 5 4 2 4 1 4 1 3 3 3 10 2 3912 1469 4 2 1 11252 1 2 4 1 2 1957 114 3 5382 3 24 7 2447 2 28 2 2 1 1 27 0 4 4 3 1976 4 1 2044 8 2451 2 493 4 12 4 2445 1851 4 5 2450 1 6 6 4905 4 3 3 4 3 1473 1950 3 2447 1472 2104 4 3 7 3 1 2 5 1959 1 4 2 1 3 5 5 3 504 3 2 19 6 1 12 1 5608 4 3 3 3 1 3 7 3 4 4 4 2 23 2 3 1732 3 3 4 3 1958 2 5887 3 1468 3 2584 7337 1 5381 1 19 2 1 2 495 5 3 1 4 106 2 1 2 490 4 3 3 3 3 4 2 1469 2 6 7 22 0 1957 3 2 2 44 7346 0 37 0 1 4 6 3 23 1 3 980 4 1 1 2 4 19 3 4 1 4 6 7335 18 1 4 3 3 2907 10271 1973 3 7335 20 1957 1 1 4 1958 2446 4 2 2 4 3 4 6 12 3 0 4 2 2 3442 7945 3915 4 3 397 1 2 17 2 4 1 3 2 2934 6616 980 4 3 3 4 5 2 1956 1961 2447 4 2 1 17 3 3 5 3 4 4 4 4 1979 4 1959 4 492 1957 2445 12 1 3011 4 4 3 3 3 2 3 2 2 2 16 4 3 2 943 1 1 4 3 2940 8 2 3 4 2 4 3 3 4 3 3 0 4 2 3 3 4 3 8 4 2 1 2 955 1 4 2 4 3 3 353 1 2 4 9 980 3 4 2447 3 3 48 4 11 4 4 6 3 4 2 3 4 1957 4 4 1 3 0 5875 3 2 2934 4 4 2445 6860 3 2 4 3 1 2 9 1 4 3 4 5 1 3919 1 7 3 2 4 5 5 2 1470 2 4 1348 4 1 518 1 0 3 4 1 4 1348 1 4 2 3 1964 4 1 2 2 4 2 2 2933 3 3 80 3 3 3 4 2 2 3 0 4 2 3 980 3 2 2 1 8 1 4 4 4 9 3 3 979 1 12 6 27 2 2450 1 5 6 2 2 6 13 136 2 21522 0 1 2 3 1 1 2 3 3 2067 380 1 1 1381 3 1 4 1 2453 1 4 4 3 1939 2 3 2 1 3 3 1 1 6 7 2 3 3 1 2 0 3916 3 4 5 0 4 429 1960 7 4 3 3 4 2 4 1 3 1 3 3 0 2 3 2 3 12 1 3 3 3 3669 2934 2 3 2 4 2 1 3 1690 2 3 0 3 2 3 4 3 5 2445 19 5868 0 7 2 2194 4 8 18 4 3426 2 5 8421 3 0 2935 1469 3 3 4 3 3 2 2 2 982 5 2 2 4 2 4 1713 4 1957 3 997 2934 2 1237 6849 4 5 5 4 4 3425 4 1607 1959 2 1962 3 265 371 2 1469 1480 13 245 7 3 3 3 4 4 2 4 3 1 3 1 4 2568 1 2 2 3 3 5 513 3 8 2 3918 2 3 2 1471 2 1470 1469 2935 1 1 6340 2 982 2 4 4 1962 491 3 2 3 2936 3 493 3 4506 3 4 8809 5 4 14673 2934 2 1957 1470 4 2 3 1 2 2 4 4 4 2 3 3 6 4 2 160 3424 1 1469 2 1470 254 4 3 5 4 2324 3 757 1 2445 2 5 8 2 3 0 3 3049 0 5381 3 1237 2446 1 6 3 2 0 4 2 3 2437 3 4890 2 2 2 1 3 4 7335 1 4 502 0 3 2 4 1957 980 3 3 1959 2 3 2 2195 3 5 1 27 3 0 4 7 1467 1 3864 2 1 4 1 4 3 2 3 2398 4 503 2446 1 2446 3 1957 210 1957 65 2 3 2 4179 1 203 0 4 1469 4 4 3 3 3 1 2 492 0 3 0 3 10 3201 2 4 718 415 3 5 980 1 3 2 9 2 4 2 120 3 2 3 1 2 201 3 4 2 3 5 2 1 3 2 2 1461 2 8 1 3915 4 2 4 8 4 1 2 3 7 2 3 982 4 981 3 3 3 4 3 2 0 3 2 0 2 1 2 2 4 5 2444 2 2 3 4 2 2 4 3 2 3 3204 4 3 3172 2446 87 2 4 2 2 26 3 4 9 2 4 0 1 2 8 980 2 4 3 2 7 3 4 2541 4 3 0 7 2 0 2 4 0 4 1470 991 1 3 4 2425 6 0 2 2 5 3 4 1 5 2 3865 4 1 3 3 2450 3 3423 3 5 5150 0 1 3 1 4 3 1 0 2 3 4 20 8 1 0 3 4 1469 1 2 1 3 2445 2 2 15 4 3 5 1957 4 1 2450 3 1960 2 1 2 4 2 3 5 2 3 3 3 2 3 1 18 3 211 3 4 2 1 3 1485 4 5 0 
