
*** ChampSim Multicore Out-of-Order Simulator ***

Warmup Instructions: 50000000
Simulation Instructions: 50000000
Number of CPUs: 1
LLC sets: 2048
LLC ways: 16
Off-chip DRAM Size: 4096 MB Channels: 1 Width: 64-bit Data Rate: 6400 MT/s
CPU 0 runs ./micro_traces/srv212.trace.gz
.gz
ITLB has LRU replacement policy
DTLB has LRU replacement policy
STLB has LRU replacement policy
FDIP Prefetcher at L1I
L1I has LRU replacement policy
L1D has LRU replacement policy
Initialize SRRIP state for L2C
Initialize DRRIP state for LLC
Heartbeat_Variant_0 : 1327 0.323975 per_variant_size: 0 1327 0 0 0 0 0 0 0 
Heartbeat_Variant_1 : 2351 0.573975 per_variant_size: 0 203 2148 0 0 0 0 0 0 
Heartbeat_Variant_2 : 0 0 per_variant_size: 0 0 0 0 0 0 0 0 0 
Heartbeat_Variant_3 : 0 0 per_variant_size: 0 0 0 0 0 0 0 0 0 
Heartbeat_Variant_0_evicts 0 : 5548 1 : 1 2 : 0 3 : 0 
Heartbeat_Variant_1_evicts 0 : 1 1 : 0 2 : 0 3 : 0 
Heartbeat_Variant_2_evicts 0 : 0 1 : 0 2 : 0 3 : 0 
Heartbeat_Variant_3_evicts 0 : 0 1 : 0 2 : 0 3 : 0 
Heartbeat CPU 0 instructions: 10000003 cycles: 2797624 heartbeat IPC: 3.57446 cumulative IPC: 3.57446 (Simulation time: 0 hr 1 min 45 sec) 
Heartbeat_Variant_0 : 1363 0.332764 per_variant_size: 0 1363 0 0 0 0 0 0 0 
Heartbeat_Variant_1 : 2433 0.593994 per_variant_size: 0 168 2265 0 0 0 0 0 0 
Heartbeat_Variant_2 : 0 0 per_variant_size: 0 0 0 0 0 0 0 0 0 
Heartbeat_Variant_3 : 0 0 per_variant_size: 0 0 0 0 0 0 0 0 0 
Heartbeat_Variant_0_evicts 0 : 5685 1 : 3 2 : 0 3 : 0 
Heartbeat_Variant_1_evicts 0 : 6 1 : 0 2 : 0 3 : 0 
Heartbeat_Variant_2_evicts 0 : 0 1 : 0 2 : 0 3 : 0 
Heartbeat_Variant_3_evicts 0 : 0 1 : 0 2 : 0 3 : 0 
Heartbeat CPU 0 instructions: 20000000 cycles: 5594110 heartbeat IPC: 3.57592 cumulative IPC: 3.57519 (Simulation time: 0 hr 3 min 27 sec) 
Heartbeat_Variant_0 : 1414 0.345215 per_variant_size: 0 1414 0 0 0 0 0 0 0 
Heartbeat_Variant_1 : 2533 0.618408 per_variant_size: 0 175 2358 0 0 0 0 0 0 
Heartbeat_Variant_2 : 0 0 per_variant_size: 0 0 0 0 0 0 0 0 0 
Heartbeat_Variant_3 : 0 0 per_variant_size: 0 0 0 0 0 0 0 0 0 
Heartbeat_Variant_0_evicts 0 : 5555 1 : 22 2 : 0 3 : 0 
Heartbeat_Variant_1_evicts 0 : 13 1 : 0 2 : 0 3 : 0 
Heartbeat_Variant_2_evicts 0 : 0 1 : 0 2 : 0 3 : 0 
Heartbeat_Variant_3_evicts 0 : 0 1 : 0 2 : 0 3 : 0 
Heartbeat CPU 0 instructions: 30000003 cycles: 8389603 heartbeat IPC: 3.57719 cumulative IPC: 3.57586 (Simulation time: 0 hr 5 min 10 sec) 
Heartbeat_Variant_0 : 1415 0.345459 per_variant_size: 0 1415 0 0 0 0 0 0 0 
Heartbeat_Variant_1 : 2547 0.621826 per_variant_size: 0 185 2362 0 0 0 0 0 0 
Heartbeat_Variant_2 : 0 0 per_variant_size: 0 0 0 0 0 0 0 0 0 
Heartbeat_Variant_3 : 0 0 per_variant_size: 0 0 0 0 0 0 0 0 0 
Heartbeat_Variant_0_evicts 0 : 5558 1 : 8 2 : 0 3 : 0 
Heartbeat_Variant_1_evicts 0 : 10 1 : 0 2 : 0 3 : 0 
Heartbeat_Variant_2_evicts 0 : 0 1 : 0 2 : 0 3 : 0 
Heartbeat_Variant_3_evicts 0 : 0 1 : 0 2 : 0 3 : 0 
Heartbeat CPU 0 instructions: 40000002 cycles: 11187457 heartbeat IPC: 3.57417 cumulative IPC: 3.57543 (Simulation time: 0 hr 6 min 51 sec) 
Heartbeat_Variant_0 : 1418 0.346191 per_variant_size: 0 1418 0 0 0 0 0 0 0 
Heartbeat_Variant_1 : 2557 0.624268 per_variant_size: 0 179 2378 0 0 0 0 0 0 
Heartbeat_Variant_2 : 0 0 per_variant_size: 0 0 0 0 0 0 0 0 0 
Heartbeat_Variant_3 : 0 0 per_variant_size: 0 0 0 0 0 0 0 0 0 
Heartbeat_Variant_0_evicts 0 : 5527 1 : 9 2 : 0 3 : 0 
Heartbeat_Variant_1_evicts 0 : 8 1 : 0 2 : 0 3 : 0 
Heartbeat_Variant_2_evicts 0 : 0 1 : 0 2 : 0 3 : 0 
Heartbeat_Variant_3_evicts 0 : 0 1 : 0 2 : 0 3 : 0 
Heartbeat CPU 0 instructions: 50000000 cycles: 13983173 heartbeat IPC: 3.5769 cumulative IPC: 3.57573 (Simulation time: 0 hr 8 min 32 sec) 

Warmup complete CPU 0 instructions: 50000004 cycles: 13983174 (Simulation time: 0 hr 8 min 32 sec) 

Cycle: 20000000 FTQ IN: 58334685 FTQ occupancy: 20.5528 DECODE IN: 58334546 DECODE occupancy: 53.4002 ROB IN: 58334486 ROB occupancy: 319.311 ROB OUT: 58334138
Heartbeat_Variant_0 : 1419 0.346436 per_variant_size: 0 1419 0 0 0 0 0 0 0 
Heartbeat_Variant_1 : 2558 0.624512 per_variant_size: 0 197 2361 0 0 0 0 0 0 
Heartbeat_Variant_2 : 0 0 per_variant_size: 0 0 0 0 0 0 0 0 0 
Heartbeat_Variant_3 : 0 0 per_variant_size: 0 0 0 0 0 0 0 0 0 
Heartbeat_Variant_0_evicts 0 : 5682 1 : 1 2 : 0 3 : 0 
Heartbeat_Variant_1_evicts 0 : 1 1 : 0 2 : 0 3 : 0 
Heartbeat_Variant_2_evicts 0 : 0 1 : 0 2 : 0 3 : 0 
Heartbeat_Variant_3_evicts 0 : 0 1 : 0 2 : 0 3 : 0 
Heartbeat CPU 0 instructions: 60000001 cycles: 21197676 heartbeat IPC: 1.3861 cumulative IPC: 1.3861 (Simulation time: 0 hr 10 min 33 sec) 
Heartbeat_Variant_0 : 1419 0.346436 per_variant_size: 0 1419 0 0 0 0 0 0 0 
Heartbeat_Variant_1 : 2558 0.624512 per_variant_size: 0 200 2358 0 0 0 0 0 0 
Heartbeat_Variant_2 : 0 0 per_variant_size: 0 0 0 0 0 0 0 0 0 
Heartbeat_Variant_3 : 0 0 per_variant_size: 0 0 0 0 0 0 0 0 0 
Heartbeat_Variant_0_evicts 0 : 5720 1 : 0 2 : 0 3 : 0 
Heartbeat_Variant_1_evicts 0 : 0 1 : 0 2 : 0 3 : 0 
Heartbeat_Variant_2_evicts 0 : 0 1 : 0 2 : 0 3 : 0 
Heartbeat_Variant_3_evicts 0 : 0 1 : 0 2 : 0 3 : 0 
Heartbeat CPU 0 instructions: 70000002 cycles: 28312035 heartbeat IPC: 1.40561 cumulative IPC: 1.39578 (Simulation time: 0 hr 12 min 33 sec) 
Cycle: 30000000 FTQ IN: 14034608 FTQ occupancy: 14.8471 DECODE IN: 14034647 DECODE occupancy: 38.1467 ROB IN: 14034647 ROB occupancy: 251.55 ROB OUT: 14034784
Heartbeat_Variant_0 : 1421 0.346924 per_variant_size: 0 1421 0 0 0 0 0 0 0 
Heartbeat_Variant_1 : 2559 0.624756 per_variant_size: 0 191 2368 0 0 0 0 0 0 
Heartbeat_Variant_2 : 0 0 per_variant_size: 0 0 0 0 0 0 0 0 0 
Heartbeat_Variant_3 : 0 0 per_variant_size: 0 0 0 0 0 0 0 0 0 
Heartbeat_Variant_0_evicts 0 : 5601 1 : 3 2 : 0 3 : 0 
Heartbeat_Variant_1_evicts 0 : 3 1 : 0 2 : 0 3 : 0 
Heartbeat_Variant_2_evicts 0 : 0 1 : 0 2 : 0 3 : 0 
Heartbeat_Variant_3_evicts 0 : 0 1 : 0 2 : 0 3 : 0 
Heartbeat CPU 0 instructions: 80000003 cycles: 35553055 heartbeat IPC: 1.38102 cumulative IPC: 1.39083 (Simulation time: 0 hr 14 min 31 sec) 
Cycle: 40000000 FTQ IN: 13791545 FTQ occupancy: 14.8112 DECODE IN: 13791616 DECODE occupancy: 37.8999 ROB IN: 13791676 ROB occupancy: 249.149 ROB OUT: 13791632
Heartbeat_Variant_0 : 1450 0.354004 per_variant_size: 0 1450 0 0 0 0 0 0 0 
Heartbeat_Variant_1 : 2594 0.633301 per_variant_size: 0 146 2448 0 0 0 0 0 0 
Heartbeat_Variant_2 : 0 0 per_variant_size: 0 0 0 0 0 0 0 0 0 
Heartbeat_Variant_3 : 0 0 per_variant_size: 0 0 0 0 0 0 0 0 0 
Heartbeat_Variant_0_evicts 0 : 5670 1 : 61 2 : 0 3 : 0 
Heartbeat_Variant_1_evicts 0 : 55 1 : 0 2 : 0 3 : 0 
Heartbeat_Variant_2_evicts 0 : 0 1 : 0 2 : 0 3 : 0 
Heartbeat_Variant_3_evicts 0 : 0 1 : 0 2 : 0 3 : 0 
Heartbeat CPU 0 instructions: 90000003 cycles: 42737968 heartbeat IPC: 1.39181 cumulative IPC: 1.39107 (Simulation time: 0 hr 16 min 32 sec) 
Heartbeat_Variant_0 : 1456 0.355469 per_variant_size: 0 1456 0 0 0 0 0 0 0 
Heartbeat_Variant_1 : 2593 0.633057 per_variant_size: 0 153 2440 0 0 0 0 0 0 
Heartbeat_Variant_2 : 0 0 per_variant_size: 0 0 0 0 0 0 0 0 0 
Heartbeat_Variant_3 : 0 0 per_variant_size: 0 0 0 0 0 0 0 0 0 
Heartbeat_Variant_0_evicts 0 : 5664 1 : 35 2 : 0 3 : 0 
Heartbeat_Variant_1_evicts 0 : 31 1 : 0 2 : 0 3 : 0 
Heartbeat_Variant_2_evicts 0 : 0 1 : 0 2 : 0 3 : 0 
Heartbeat_Variant_3_evicts 0 : 0 1 : 0 2 : 0 3 : 0 
Heartbeat CPU 0 instructions: 100000000 cycles: 49977852 heartbeat IPC: 1.38124 cumulative IPC: 1.38909 (Simulation time: 0 hr 18 min 44 sec) 
Finished CPU 0 instructions: 50000000 cycles: 35994679 cumulative IPC: 1.38909 (Simulation time: 0 hr 18 min 44 sec) 

ChampSim completed all CPUs

Region of Interest Statistics

CPU 0 cumulative IPC: 1.38909 instructions: 50000000 cycles: 35994679
 Fetch stage stalled: 45.8413  Sim cycles: 35994679 fetch stall cycle: 16500437
 Empty decode stage: 25.2421  Sim cycles: 35994679 fetch stall cycle: 9085831
ITLB TOTAL     ACCESS:    5829005  HIT:    5339069  MISS:     489936  HIT %:    91.5949  MISS %:    8.40514   MPKI: 9.79872
ITLB LOAD TRANSLATION INSTRUCTION	ACCESS:    5692972  HIT:    5203036  MISS:     489936  HIT %:     91.394  MISS %:    8.60598  MPKI: 9.79872
ITLB TRANSLATION FROM L1D PREFETCHER INSTRUCTION	ACCESS:     136033  HIT:     136033  MISS:          0  HIT %:        100  MISS %:          0  MPKI: 0

ITLB AVERAGE MISS LATENCY: 9.06589 cycles
ITLB RQ	ACCESS:    7924055	FORWARD:          0	MERGED:    1614676	TO_CACHE:    6309379

DTLB TOTAL     ACCESS:    8955448  HIT:    8486867  MISS:     468581  HIT %:    94.7676  MISS %:    5.23236   MPKI: 9.37162
DTLB LOAD TRANSLATION DATA	ACCESS:    8955448  HIT:    8486867  MISS:     468581  HIT %:    94.7676  MISS %:    5.23236  MPKI: 9.37162

DTLB AVERAGE MISS LATENCY: 9.33906 cycles
DTLB RQ	ACCESS:   13321693	FORWARD:          0	MERGED:    4329444	TO_CACHE:    8992249

STLB TOTAL     ACCESS:    1211903  HIT:    1209963  MISS:       1940  HIT %:    99.8399  MISS %:   0.160079   MPKI: 0.0388
STLB LOAD TRANSLATION INSTRUCTION	ACCESS:     489936  HIT:     489722  MISS:        214  HIT %:    99.9563  MISS %:  0.0436792  MPKI: 0.00428
STLB LOAD TRANSLATION DATA	ACCESS:     468580  HIT:     466876  MISS:       1704  HIT %:    99.6363  MISS %:   0.363652  MPKI: 0.03408
STLB TRANSLATION FROM L1D PREFETCHER DATA	ACCESS:     253387  HIT:     253365  MISS:         22  HIT %:    99.9913  MISS %: 0.00868237  MPKI: 0.00044

STLB AVERAGE MISS LATENCY: 83.2088 cycles
STLB RQ	ACCESS:    1334536	FORWARD:          0	MERGED:     122598	TO_CACHE:    1211938

STLB Hit, L1D data hit: 0
STLB Hit, L2C data hit: 0
STLB Hit, LLC data hit: 0
STLB Hit, LLC data miss: 0
STLB STLB hints to L2: 0
L1D TOTAL     ACCESS:   13077910  HIT:   11966367  MISS:    1111543  HIT %:    91.5006  MISS %:    8.49939   MPKI: 22.2309
L1D LOAD DATA	ACCESS:    6544053  HIT:    5812817  MISS:     731236  HIT %:    88.8259  MISS %:    11.1741  MPKI: 14.6247
L1D RFO DATA	ACCESS:    6199333  HIT:    5913191  MISS:     286142  HIT %:    95.3843  MISS %:    4.61569  MPKI: 5.72284
L1D PREFETCH DATA	ACCESS:     334524  HIT:     240359  MISS:      94165  HIT %:     71.851  MISS %:     28.149  MPKI: 1.8833

L1D PREFETCH  REQUESTED:     752381  ISSUED:     752381  USEFUL:      34413  USELESS:      68346
L1D USEFUL LOAD PREFETCHES:      34413 PREFETCH ISSUED TO LOWER LEVEL:     102835  ACCURACY: 33.4643
 TIMELY PREFETCHES:      34413 LATE PREFETCHES: 8561 DROPPED PREFETCHES: 8
L1D AVERAGE MISS LATENCY: 252115 cycles
L1D RQ	ACCESS:   10701563	FORWARD:          0	MERGED:    3956115	TO_CACHE:    6579249
L1D WQ	ACCESS:    6939568	FORWARD:     166542	MERGED:     197124	TO_CACHE:    6742444
L1D PQ	ACCESS:     376362	FORWARD:          0	MERGED:          0	TO_CACHE:     376019

L1D UNIQUE REGIONS ACCESSED: 0
L1D REGIONS CONFLICTS: 0
L1D Cross Page Prefetch Requests: 7045
L1D Same Page Prefetch Requests: 755702
L1D ROI Sum of L1D PQ occupancy: 4780619
L1D PREFETCHES PUSHED FROM L2C: 0
L1I TOTAL     ACCESS:    7113904  HIT:    4368063  MISS:    2745841  HIT %:    61.4018  MISS %:    38.5982   MPKI: 54.9168
L1I LOAD INSTRUCTION	ACCESS:    6441196  HIT:    3695355  MISS:    2745841  HIT %:    57.3706  MISS %:    42.6294  MPKI: 54.9168
L1I PREFETCH INSTRUCTION	ACCESS:     672708  HIT:     672708  MISS:          0  HIT %:        100  MISS %:          0  MPKI: 0

L1I PREFETCH  REQUESTED:    1610205  ISSUED:    1610205  USEFUL:          0  USELESS:          0
L1I USEFUL LOAD PREFETCHES:          0 PREFETCH ISSUED TO LOWER LEVEL:          0  ACCURACY: -nan
 TIMELY PREFETCHES:          0 LATE PREFETCHES: 0 DROPPED PREFETCHES: 0
L1I AVERAGE MISS LATENCY: 17.1825 cycles
L1I RQ	ACCESS:    9555483	FORWARD:          0	MERGED:    2813554	TO_CACHE:    6741929
L1I PQ	ACCESS:    1610205	FORWARD:          0	MERGED:     428079	TO_CACHE:    1182126

L1BTB TOTAL     ACCESS:    5669358  HIT:    2060739  MISS:    3608619  HIT %:    36.3487  MISS %:    63.6513   MPKI: 72.1724
L1BTB BRANCH_DIRECT_JUMP	ACCESS:     549973 HIT:     146585 MISS:     403388 AVERAGE STALL: 64.1472 AVERAGE FETCH STALL: 15.5595 AVERAGE FETCH QUEUE STALL: 24.5086 AVERAGE DECODE STALL: 23.14 AVERAGE EXECUTE STALL: 2.13455e+15
L1BTB BRANCH_INDIRECT	ACCESS:     183898 HIT:      66780 MISS:     117118 AVERAGE STALL: 110.473 AVERAGE FETCH STALL: 10.8017 AVERAGE FETCH QUEUE STALL: 17.1759 AVERAGE DECODE STALL: 13.2658 AVERAGE EXECUTE STALL: 68.2698
L1BTB BRANCH_CONDITIONAL	ACCESS:    2722645 HIT:    1434750 MISS:    1287895 AVERAGE STALL: 69.1393 AVERAGE FETCH STALL: 23.4342 AVERAGE FETCH QUEUE STALL: 17.7488 AVERAGE DECODE STALL: 27.354 AVERAGE EXECUTE STALL: 3.69822e+15
L1BTB BRANCH_DIRECT_CALL	ACCESS:     936160 HIT:     104183 MISS:     831977 AVERAGE STALL: 62.634 AVERAGE FETCH STALL: 29.2511 AVERAGE FETCH QUEUE STALL: 17.7494 AVERAGE DECODE STALL: 14.9039 AVERAGE EXECUTE STALL: 9.37811e+15
L1BTB BRANCH_INDIRECT_CALL	ACCESS:     170255 HIT:      20610 MISS:     149645 AVERAGE STALL: 143.248 AVERAGE FETCH STALL: 12.1363 AVERAGE FETCH QUEUE STALL: 18.1191 AVERAGE DECODE STALL: 12.5915 AVERAGE EXECUTE STALL: 99.9169
L1BTB BRANCH_RETURN	ACCESS:    1106427 HIT:     287831 MISS:     818596 AVERAGE STALL: 48.8041 AVERAGE FETCH STALL: 16.741 AVERAGE FETCH QUEUE STALL: 5.22887 AVERAGE DECODE STALL: 5.91666 AVERAGE EXECUTE STALL: 4.32342e+14
L1BTB BRANCH_OTHER ACCESS:          0 HIT:          0 MISS:          0 AVERAGE STALL: -nan AVERAGE FETCH STALL: -nan AVERAGE FETCH QUEUE STALL: -nan AVERAGE DECODE STALL: -nan AVERAGE EXECUTE STALL: -nan
L1BTB TOTAL ROB OCCUPANCY AT BTB MISS: 2.76686

L2BTB TOTAL     ACCESS:    3583008  HIT:    3517432  MISS:      65576  HIT %:    98.1698  MISS %:    1.83019   MPKI: 1.31152
L2BTB BRANCH_DIRECT_JUMP	ACCESS:     399104 HIT:     394737 MISS:       4367 AVERAGE STALL: 64.1472 AVERAGE FETCH STALL: 15.5595 AVERAGE FETCH QUEUE STALL: 24.5086 AVERAGE DECODE STALL: 23.14 AVERAGE EXECUTE STALL: 2.13455e+15
L2BTB BRANCH_INDIRECT	ACCESS:     106876 HIT:     104253 MISS:       2623 AVERAGE STALL: 110.473 AVERAGE FETCH STALL: 10.8017 AVERAGE FETCH QUEUE STALL: 17.1759 AVERAGE DECODE STALL: 13.2658 AVERAGE EXECUTE STALL: 68.2698
L2BTB BRANCH_CONDITIONAL	ACCESS:    1287895 HIT:    1282849 MISS:       5046 AVERAGE STALL: 69.1393 AVERAGE FETCH STALL: 23.4342 AVERAGE FETCH QUEUE STALL: 17.7488 AVERAGE DECODE STALL: 27.354 AVERAGE EXECUTE STALL: 3.69822e+15
L2BTB BRANCH_DIRECT_CALL	ACCESS:     831977 HIT:     829993 MISS:       1984 AVERAGE STALL: 62.634 AVERAGE FETCH STALL: 29.2511 AVERAGE FETCH QUEUE STALL: 17.7494 AVERAGE DECODE STALL: 14.9039 AVERAGE EXECUTE STALL: 9.37811e+15
L2BTB BRANCH_INDIRECT_CALL	ACCESS:     139960 HIT:     129694 MISS:      10266 AVERAGE STALL: 143.248 AVERAGE FETCH STALL: 12.1363 AVERAGE FETCH QUEUE STALL: 18.1191 AVERAGE DECODE STALL: 12.5915 AVERAGE EXECUTE STALL: 99.9169
L2BTB BRANCH_RETURN	ACCESS:     817196 HIT:     775906 MISS:      41290 AVERAGE STALL: 48.8041 AVERAGE FETCH STALL: 16.741 AVERAGE FETCH QUEUE STALL: 5.22887 AVERAGE DECODE STALL: 5.91666 AVERAGE EXECUTE STALL: 4.32342e+14
L2BTB BRANCH_OTHER ACCESS:          0 HIT:          0 MISS:          0 AVERAGE STALL: -nan AVERAGE FETCH STALL: -nan AVERAGE FETCH QUEUE STALL: -nan AVERAGE DECODE STALL: -nan AVERAGE EXECUTE STALL: -nan
L2BTB TOTAL ROB OCCUPANCY AT BTB MISS: 152.259

L2C TOTAL     ACCESS:    4464606  HIT:    3994049  MISS:     470557  HIT %:    89.4603  MISS %:    10.5397   MPKI: 9.41114
L2C LOAD INSTRUCTION	ACCESS:    2745841  HIT:    2497244  MISS:     248597  HIT %:    90.9464  MISS %:    9.05358  MPKI: 4.97194
L2C LOAD TRANSLATION INSTRUCTION	ACCESS:        247  HIT:         61  MISS:        186  HIT %:    24.6964  MISS %:    75.3036  MPKI: 0.00372
L2C LOAD DATA	ACCESS:     722648  HIT:     642872  MISS:      79776  HIT %:    88.9606  MISS %:    11.0394  MPKI: 1.59552
L2C RFO DATA	ACCESS:     286003  HIT:     236507  MISS:      49496  HIT %:    82.6939  MISS %:    17.3061  MPKI: 0.98992
L2C PREFETCH DATA	ACCESS:     188838  HIT:     111463  MISS:      77375  HIT %:    59.0257  MISS %:    40.9743  MPKI: 1.5475
L2C WRITEBACK DATA	ACCESS:     519224  HIT:     505429  MISS:      13795  HIT %:    97.3432  MISS %:    2.65685  MPKI: 0.2759
L2C LOAD TRANSLATION DATA	ACCESS:       1760  HIT:        444  MISS:       1316  HIT %:    25.2273  MISS %:    74.7727  MPKI: 0.02632
L2C TRANSLATION FROM L1D PREFETCHER DATA	ACCESS:         45  HIT:         29  MISS:         16  HIT %:    64.4444  MISS %:    35.5556  MPKI: 0.00032

L2C PREFETCH  REQUESTED:      94641  ISSUED:      94641  USEFUL:       8539  USELESS:      69559
L2C USEFUL LOAD PREFETCHES:       8539 PREFETCH ISSUED TO LOWER LEVEL:      77966  ACCURACY: 10.9522
 TIMELY PREFETCHES:       8539 LATE PREFETCHES: 591 DROPPED PREFETCHES: 0
L2C AVERAGE MISS LATENCY: 39.7257 cycles
L2C RQ	ACCESS:    3756605	FORWARD:          0	MERGED:          0	TO_CACHE:    3756548
L2C WQ	ACCESS:     519224	FORWARD:         58	MERGED:          0	TO_CACHE:     519224
L2C PQ	ACCESS:     197476	FORWARD:          0	MERGED:       3721	TO_CACHE:     193754

L2C Dense regions hint from L2: 0
PSCL5 TOTAL     ACCESS:       3902  HIT:       1951  MISS:       1951  HIT %:         50  MISS %:         50   MPKI: 0.03902
PSCL5 LOAD TRANSLATION INSTRUCTION	ACCESS:       3812  HIT:       1906  MISS:       1906  HIT %:         50  MISS %:         50  MPKI: 0.03812
PSCL5 TRANSLATION FROM L1D PREFETCHER INSTRUCTION	ACCESS:         90  HIT:         45  MISS:         45  HIT %:         50  MISS %:         50  MPKI: 0.0009


PSCL4 TOTAL     ACCESS:       3851  HIT:       1923  MISS:       1928  HIT %:    49.9351  MISS %:    50.0649   MPKI: 0.03856
PSCL4 LOAD TRANSLATION INSTRUCTION	ACCESS:       2304  HIT:       1884  MISS:        420  HIT %:    81.7708  MISS %:    18.2292  MPKI: 0.0084
PSCL4 TRANSLATION FROM L1D PREFETCHER INSTRUCTION	ACCESS:         43  HIT:         39  MISS:          4  HIT %:    90.6977  MISS %:    9.30233  MPKI: 8e-05
PSCL4 LOAD TRANSLATION DATA	ACCESS:       1469  HIT:          0  MISS:       1469  HIT %:          0  MISS %:        100  MPKI: 0.02938
PSCL4 TRANSLATION FROM L1D PREFETCHER DATA	ACCESS:         35  HIT:          0  MISS:         35  HIT %:          0  MISS %:        100  MPKI: 0.0007


PSCL3 TOTAL     ACCESS:       3853  HIT:       1924  MISS:       1929  HIT %:    49.9351  MISS %:    50.0649   MPKI: 0.03858
PSCL3 LOAD TRANSLATION INSTRUCTION	ACCESS:       2305  HIT:       1885  MISS:        420  HIT %:    81.7787  MISS %:    18.2213  MPKI: 0.0084
PSCL3 TRANSLATION FROM L1D PREFETCHER INSTRUCTION	ACCESS:         43  HIT:         39  MISS:          4  HIT %:    90.6977  MISS %:    9.30233  MPKI: 8e-05
PSCL3 LOAD TRANSLATION DATA	ACCESS:       1470  HIT:          0  MISS:       1470  HIT %:          0  MISS %:        100  MPKI: 0.0294
PSCL3 TRANSLATION FROM L1D PREFETCHER DATA	ACCESS:         35  HIT:          0  MISS:         35  HIT %:          0  MISS %:        100  MPKI: 0.0007


PSCL2 TOTAL     ACCESS:       3809  HIT:       1858  MISS:       1951  HIT %:    48.7792  MISS %:    51.2208   MPKI: 0.03902
PSCL2 LOAD TRANSLATION INSTRUCTION	ACCESS:       2031  HIT:       1813  MISS:        218  HIT %:    89.2664  MISS %:    10.7336  MPKI: 0.00436
PSCL2 TRANSLATION FROM L1D PREFETCHER INSTRUCTION	ACCESS:         45  HIT:         45  MISS:          0  HIT %:        100  MISS %:          0  MPKI: 0
PSCL2 LOAD TRANSLATION DATA	ACCESS:       1688  HIT:          0  MISS:       1688  HIT %:          0  MISS %:        100  MPKI: 0.03376
PSCL2 TRANSLATION FROM L1D PREFETCHER DATA	ACCESS:         45  HIT:          0  MISS:         45  HIT %:          0  MISS %:        100  MPKI: 0.0009


LLC TOTAL     ACCESS:     529162  HIT:     498105  MISS:      31057  HIT %:    94.1309  MISS %:    5.86909   MPKI: 0.62114
LLC LOAD INSTRUCTION	ACCESS:     248597  HIT:     247338  MISS:       1259  HIT %:    99.4936  MISS %:   0.506442  MPKI: 0.02518
LLC LOAD TRANSLATION INSTRUCTION	ACCESS:        186  HIT:        139  MISS:         47  HIT %:    74.7312  MISS %:    25.2688  MPKI: 0.00094
LLC LOAD DATA	ACCESS:      79213  HIT:      75601  MISS:       3612  HIT %:    95.4401  MISS %:    4.55986  MPKI: 0.07224
LLC RFO DATA	ACCESS:      49456  HIT:      33685  MISS:      15771  HIT %:     68.111  MISS %:     31.889  MPKI: 0.31542
LLC PREFETCH DATA	ACCESS:      77964  HIT:      68133  MISS:       9831  HIT %:    87.3903  MISS %:    12.6097  MPKI: 0.19662
LLC WRITEBACK DATA	ACCESS:      72414  HIT:      71971  MISS:        443  HIT %:    99.3882  MISS %:    0.61176  MPKI: 0.00886
LLC LOAD TRANSLATION DATA	ACCESS:       1316  HIT:       1222  MISS:         94  HIT %:    92.8571  MISS %:    7.14286  MPKI: 0.00188
LLC TRANSLATION FROM L1D PREFETCHER DATA	ACCESS:         16  HIT:         16  MISS:          0  HIT %:        100  MISS %:          0  MPKI: 0

LLC AVERAGE MISS LATENCY: 158.954 cycles
LLC RQ	ACCESS:     378796	FORWARD:          0	MERGED:          0	TO_CACHE:     378784
LLC WQ	ACCESS:      72414	FORWARD:         14	MERGED:          0	TO_CACHE:      72414
LLC PQ	ACCESS:      77966	FORWARD:          0	MERGED:          0	TO_CACHE:      77964

LLC Dense regions hint to LLC: 0

RAW hits: 1942195
Loads Generated: 12643760
Loads sent to L1D: 10701563
Stores Generated: 6939563
Stores sent to L1D: 6939568
Major fault: 0 Minor fault: 2579
Allocated PAGES: 2579

stream: 
stream:times selected: 1197449
stream:pref_filled: 121273
stream:pref_useful: 23861
stream:pref_late: 6714
stream:misses: 8016
stream:misses_by_poll: 0

CS: 
CS:times selected: 181062
CS:pref_filled: 59008
CS:pref_useful: 35603
CS:pref_late: 7860
CS:misses: 17455
CS:misses_by_poll: 1

CPLX: 
CPLX:times selected: 1015237
CPLX:pref_filled: 19267
CPLX:pref_useful: 4601
CPLX:pref_late: 3086
CPLX:misses: 93278
CPLX:misses_by_poll: 0

NL_L1: 
NL:times selected: 21025
NL:pref_filled: 800
NL:pref_useful: 358
NL:pref_late: 286
NL:misses: 1840
NL:misses_by_poll: 0

total selections: 2414773
total_filled: 94165
total_useful: 34413
total_late: 19255
total_polluted: 1
total_misses_after_warmup: 766434
conflicts: 5505692

test: 115363

DRAM Statistics
 CHANNEL 0
 RQ ROW_BUFFER_HIT:      11634  ROW_BUFFER_MISS:      18974
 DBUS_CONGESTED:         14
 WQ ROW_BUFFER_HIT:       1563  ROW_BUFFER_MISS:      13313  FULL:          0

 AVG_CONGESTED_CYCLE: 4

CPU 0 Branch Prediction Accuracy: 99.8178% MPKI: 0.33282 Average ROB Occupancy at Mispredict: 193.631
Branch types
NOT_BRANCH: 40864494 81.729%
BRANCH_DIRECT_JUMP: 549973 1.09995%
BRANCH_INDIRECT: 183898 0.367796%
BRANCH_CONDITIONAL: 6188728 12.3775%
BRANCH_DIRECT_CALL: 936160 1.87232%
BRANCH_INDIRECT_CALL: 170255 0.34051%
BRANCH_RETURN: 1106427 2.21285%
BRANCH_OTHER: 0 0%

DRAM PAGES: 1048576
Allocated PAGES: 2579
Average_ROB_Occupancy: 251.78
Average_Decode_Occupancy: 38.0257
Average_FTQ_Occupancy: 14.8516
Indirect max targets: 14 Average targets: 1.15512
Branch_type:  BRANCH_DIRECT_JUMP:  Count Percentage: 3.81452 5.04709 4.48423 3.571 4.03112 11.6196 1.39891 66.0336 
Branch_type:  BRANCH_INDIRECT:  Count Percentage: 11.744 3.44635 2.599 7.3176 3.33406 31.1973 3.18579 37.1759 
Branch_type:  BRANCH_CONDITIONAL:  Count Percentage: 21.9856 2.47386 1.54034 4.42129 1.95136 8.1984 0.849434 58.5797 
Branch_type:  BRANCH_DIRECT_CALL:  Count Percentage: 0.390743 1.7301 0.767127 1.94994 3.34003 4.96463 0.82844 86.029 
Branch_type:  BRANCH_INDIRECT_CALL:  Count Percentage: 9.56434 0 2.99583 4.26963 0.000585924 1.71178 1.00281 80.455 
Branch_type:  BRANCH_RETURN:  Count Percentage: 3.95613 1.97998 1.04306 4.53885 2.46794 9.66459 1.26832 75.0811 
Branch_type:  BRANCH_DIRECT_JUMP:  Total Count: 41807 55316 49147 39138 44181 127350 15332 723726 
Branch_type:  BRANCH_INDIRECT:  Total Count: 43090 12645 9536 26849 12233 114466 11689 136402 
Branch_type:  BRANCH_CONDITIONAL:  Total Count: 2718430 305882 190456 546674 241278 1013698 105029 7243135 
Branch_type:  BRANCH_DIRECT_CALL:  Total Count: 7348 32535 14426 36669 62810 93361 15579 1617794 
Branch_type:  BRANCH_INDIRECT_CALL:  Total Count: 32647 0 10226 14574 2 5843 3423 274626 
Branch_type:  BRANCH_RETURN:  Total Count: 87933 44009 23184 100885 54855 214815 28191 1668829 
Number of unique branch instructions: 10259
Upper 32 bits: 
aaaa
ffff
ffff0000
Unique upper 32 bits: 3
Unique upper 36 bits: 3
Unique upper 40 bits: 5
Unique upper 44 bits: 32
Unique upper 48 bits: 157
Variant_0 : 1456 0.355469
Variant_1 : 2593 0.633057
Variant_2 : 0 0
Variant_3 : 0 0
Offset_3 4221
Offset_4 266
Offset_5 472
Offset_6 520
Offset_7 604
Offset_8 534
Offset_9 489
Offset_10 397
Offset_11 324
Offset_12 297
Offset_13 214
Offset_14 231
Offset_15 193
Offset_16 230
Offset_17 156
Offset_18 126
Offset_19 246
Offset_20 144
Offset_21 261
Offset_22 398
Offset_23 241
Offset_24 353
Offset_25 88
Offset_47 86
decode_dispatch_called: 26403537 73.354
Dispatch_width: 0 14220678 53.859 39.5077
Dispatch_width: 1 1028323 3.89464 2.85688
Dispatch_width: 2 861498 3.26281 2.3934
Dispatch_width: 3 498877 1.88943 1.38597
Dispatch_width: 4 6453742 24.4427 17.9297
Dispatch_width: 5 105432 0.39931 0.29291
Dispatch_width: 6 3234987 12.2521 8.9874
Empty_decode_cycles: 9591142 26.646
ROB_full_cycles: 10241271 28.4522
Starvation_cycles_per_kilo_instr: 225.184
Starvation_cycles_per_kilo_instr_3: 159.592
Starvation_cycles_per_kilo_instr_0: 135.705
Branch_type_1  (3,1)  (4,10)  (5,39)  (6,72)  (7,119)  (8,133)  (9,130)  (10,101)  (11,72)  (12,51)  (13,8)  (14,2)  (15,3)  (16,4)  (18,1)  (19,4)  (20,2)  (21,1)  (22,3)  (23,2)  (24,10)  (25,12) 
Branch_type_2  (3,1)  (5,1)  (8,3)  (9,3)  (12,1)  (13,1)  (14,1)  (16,3)  (17,2)  (20,2)  (21,2)  (23,5)  (24,1)  (47,40) 
Branch_type_3  (3,4219)  (4,256)  (5,428)  (6,432)  (7,452)  (8,336)  (9,269)  (10,160)  (11,133)  (12,59)  (13,7) 
Branch_type_4  (6,4)  (7,8)  (8,26)  (9,55)  (10,63)  (11,62)  (12,102)  (13,91)  (14,103)  (15,92)  (16,103)  (17,71)  (18,57)  (19,119)  (20,74)  (21,141)  (22,213)  (23,136)  (24,203)  (25,72) 
Branch_type_5  (8,2)  (9,1)  (10,4)  (11,5)  (12,3)  (13,14)  (14,16)  (15,11)  (16,20)  (17,11)  (18,16)  (19,13)  (20,11)  (21,13)  (22,42)  (23,26)  (24,41) 
Branch_type_6  (5,4)  (6,12)  (7,25)  (8,34)  (9,31)  (10,69)  (11,52)  (12,81)  (13,93)  (14,109)  (15,87)  (16,100)  (17,72)  (18,52)  (19,110)  (20,55)  (21,104)  (22,140)  (23,72)  (24,98)  (25,4)  (47,46) 
Unique trigger count: 
Variant_0_evicts_0 : 0
Variant_0_evicts_1 : 0
Variant_0_evicts_2 : 0
Variant_0_evicts_3 : 0
Variant_1_evicts_0 : 0
Variant_1_evicts_1 : 0
Variant_1_evicts_2 : 0
Variant_1_evicts_3 : 0
Variant_2_evicts_0 : 0
Variant_2_evicts_1 : 0
Variant_2_evicts_2 : 0
Variant_2_evicts_3 : 0
Variant_3_evicts_0 : 0
Variant_3_evicts_1 : 0
Variant_3_evicts_2 : 0
Variant_3_evicts_3 : 0
BTB PER SET UNIQUE ADDR: 30 26 28 32 26 32 31 27 22 27 29 29 36 24 29 27 30 31 32 24 33 23 24 27 31 26 24 27 34 28 30 26 26 29 31 22 33 26 26 36 29 26 30 33 25 33 24 27 31 21 23 29 32 31 33 29 27 29 35 25 31 28 25 25 28 30 34 28 29 27 27 31 30 25 25 34 25 28 32 29 34 26 28 34 28 30 28 27 27 29 29 27 32 32 23 31 31 27 29 30 25 29 29 24 28 24 31 25 31 21 24 34 28 29 30 29 34 27 30 33 32 24 30 37 30 30 29 28 23 27 29 26 30 22 29 28 27 25 29 31 27 29 28 27 26 28 22 29 27 31 32 26 33 31 30 30 31 32 31 35 25 28 26 31 26 30 29 25 28 26 37 28 29 24 26 25 30 31 30 27 27 27 24 25 29 27 23 31 25 30 27 27 26 23 26 33 24 29 29 28 27 30 28 31 32 29 25 31 24 26 31 26 29 28 24 32 30 28 31 38 27 32 27 24 30 29 25 31 28 23 27 31 29 27 27 30 25 30 27 26 28 26 27 30 28 29 30 20 25 31 31 25 35 23 27 29 
BTB PER SET COUNT: 37 48 2446 1023 30 39 32 27 23 28 37 289 44 29 1949 32 1503 1439 32 26 36 1027 26 48 35 182 1027 31 5038 29 36 169 987 257 8006 22 33 30 1865 41 1033 31 32 170 29 1497 28 28 729 22 35 31 43 850 54 415 30 174 37 2032 37 38 28 90 33 172 15601 31 173 941 75 40 477 28 984 44 27 365 457 46 994 27 34 41 795 35 42 29 658 172 579 30 3634 1956 25 1050 36 250 1037 35 1497 31 1497 24 31 29 751 1719 1076 1024 28 36 2104 32 385 30 44 30 2033 3099 37 25 1539 3835 425 46 532 2447 23 32 34 399 529 22 1008 29 32 972 29 41 2514 454 30 133 26 30 42 32 29 1245 1545 26 818 33 30 43 3458 1965 49 38 25 32 1489 158 33 33 413 28 35 29 42 2496 29 30 28 45 3042 35 1377 33 1489 31 28 26 41 2147 24 32 26 40 1489 32 1499 23 987 1731 24 34 32 2301 120 122 1365 2766 33 202 2949 479 530 1612 1030 1492 1196 4462 1466 39 2365 33 486 339 34 943 1085 26 337 30 1034 2185 1489 27 2436 2920 31 56 1487 35 2632 544 396 28 32 32 484 33 1033 76 1036 20482 26 2740 35 27 166 26 32 75 
To predecode: 0
Predecoding something: 0
Predecode request dropped: 0
sizeofblock_0 0
sizeofblock_1 43205
sizeofblock_2 94205
sizeofblock_3 0
sizeofblock_4 0
sizeofblock_5 0
sizeofblock_6 0
sizeofblock_7 0
sizeofblock_8 0
Variant_0 Correct: 1611644 Incorrect: 0 Accuracy: 1
Variant_1 Correct: 5714793 Incorrect: 0 Accuracy: 1
Variant_2 Correct: 0 Incorrect: 0 Accuracy: -nan
Variant_3 Correct: 0 Incorrect: 0 Accuracy: -nan
