
*** ChampSim Multicore Out-of-Order Simulator ***

Warmup Instructions: 50000000
Simulation Instructions: 50000000
Number of CPUs: 1
LLC sets: 2048
LLC ways: 16
Off-chip DRAM Size: 4096 MB Channels: 1 Width: 64-bit Data Rate: 6400 MT/s
CPU 0 runs ./micro_traces/srv250.trace.gz
.gz
ITLB has LRU replacement policy
DTLB has LRU replacement policy
STLB has LRU replacement policy
FDIP Prefetcher at L1I
L1I has LRU replacement policy
L1D has LRU replacement policy
Initialize SRRIP state for L2C
Initialize DRRIP state for LLC
Heartbeat_Variant_0 : 1056 0.257812 per_variant_size: 0 1056 0 0 0 0 0 0 0 
Heartbeat_Variant_1 : 1253 0.305908 per_variant_size: 0 859 394 0 0 0 0 0 0 
Heartbeat_Variant_2 : 1565 0.38208 per_variant_size: 0 881 464 156 64 0 0 0 0 
Heartbeat_Variant_3 : 0 0 per_variant_size: 0 0 0 0 0 0 0 0 0 
Heartbeat_Variant_0_evicts 0 : 13731 1 : 9850 2 : 11972 3 : 0 
Heartbeat_Variant_1_evicts 0 : 9853 1 : 0 2 : 11477 3 : 0 
Heartbeat_Variant_2_evicts 0 : 11950 1 : 11455 2 : 0 3 : 0 
Heartbeat_Variant_3_evicts 0 : 0 1 : 0 2 : 0 3 : 0 
Heartbeat CPU 0 instructions: 10000003 cycles: 2796881 heartbeat IPC: 3.57541 cumulative IPC: 3.57541 (Simulation time: 0 hr 2 min 48 sec) 
Heartbeat_Variant_0 : 1065 0.26001 per_variant_size: 0 1065 0 0 0 0 0 0 0 
Heartbeat_Variant_1 : 1253 0.305908 per_variant_size: 0 842 411 0 0 0 0 0 0 
Heartbeat_Variant_2 : 1560 0.380859 per_variant_size: 0 900 453 141 66 0 0 0 0 
Heartbeat_Variant_3 : 0 0 per_variant_size: 0 0 0 0 0 0 0 0 0 
Heartbeat_Variant_0_evicts 0 : 13773 1 : 9714 2 : 11828 3 : 0 
Heartbeat_Variant_1_evicts 0 : 9672 1 : 0 2 : 11375 3 : 0 
Heartbeat_Variant_2_evicts 0 : 11861 1 : 11335 2 : 0 3 : 0 
Heartbeat_Variant_3_evicts 0 : 0 1 : 0 2 : 0 3 : 0 
Heartbeat CPU 0 instructions: 20000000 cycles: 5592409 heartbeat IPC: 3.57714 cumulative IPC: 3.57628 (Simulation time: 0 hr 5 min 2 sec) 
Heartbeat_Variant_0 : 1084 0.264648 per_variant_size: 0 1084 0 0 0 0 0 0 0 
Heartbeat_Variant_1 : 1246 0.304199 per_variant_size: 0 826 420 0 0 0 0 0 0 
Heartbeat_Variant_2 : 1558 0.380371 per_variant_size: 0 874 469 146 69 0 0 0 0 
Heartbeat_Variant_3 : 0 0 per_variant_size: 0 0 0 0 0 0 0 0 0 
Heartbeat_Variant_0_evicts 0 : 13704 1 : 9921 2 : 12291 3 : 0 
Heartbeat_Variant_1_evicts 0 : 9930 1 : 0 2 : 11763 3 : 0 
Heartbeat_Variant_2_evicts 0 : 12264 1 : 11780 2 : 0 3 : 0 
Heartbeat_Variant_3_evicts 0 : 0 1 : 0 2 : 0 3 : 0 
Heartbeat CPU 0 instructions: 30000000 cycles: 8390164 heartbeat IPC: 3.57429 cumulative IPC: 3.57562 (Simulation time: 0 hr 7 min 6 sec) 
Heartbeat_Variant_0 : 1059 0.258545 per_variant_size: 0 1059 0 0 0 0 0 0 0 
Heartbeat_Variant_1 : 1257 0.306885 per_variant_size: 0 828 429 0 0 0 0 0 0 
Heartbeat_Variant_2 : 1586 0.387207 per_variant_size: 0 899 464 154 69 0 0 0 0 
Heartbeat_Variant_3 : 0 0 per_variant_size: 0 0 0 0 0 0 0 0 0 
Heartbeat_Variant_0_evicts 0 : 14227 1 : 10104 2 : 11965 3 : 0 
Heartbeat_Variant_1_evicts 0 : 10035 1 : 0 2 : 11706 3 : 0 
Heartbeat_Variant_2_evicts 0 : 12064 1 : 11631 2 : 0 3 : 0 
Heartbeat_Variant_3_evicts 0 : 0 1 : 0 2 : 0 3 : 0 
Heartbeat CPU 0 instructions: 40000001 cycles: 11187207 heartbeat IPC: 3.5752 cumulative IPC: 3.57551 (Simulation time: 0 hr 9 min 9 sec) 
Heartbeat_Variant_0 : 1091 0.266357 per_variant_size: 0 1091 0 0 0 0 0 0 0 
Heartbeat_Variant_1 : 1252 0.305664 per_variant_size: 0 832 420 0 0 0 0 0 0 
Heartbeat_Variant_2 : 1560 0.380859 per_variant_size: 0 861 464 167 68 0 0 0 0 
Heartbeat_Variant_3 : 0 0 per_variant_size: 0 0 0 0 0 0 0 0 0 
Heartbeat_Variant_0_evicts 0 : 13577 1 : 10050 2 : 11827 3 : 0 
Heartbeat_Variant_1_evicts 0 : 9970 1 : 0 2 : 11305 3 : 0 
Heartbeat_Variant_2_evicts 0 : 11875 1 : 11231 2 : 0 3 : 0 
Heartbeat_Variant_3_evicts 0 : 0 1 : 0 2 : 0 3 : 0 
Heartbeat CPU 0 instructions: 50000000 cycles: 13983896 heartbeat IPC: 3.57566 cumulative IPC: 3.57554 (Simulation time: 0 hr 11 min 17 sec) 

Warmup complete CPU 0 instructions: 50000004 cycles: 13983897 (Simulation time: 0 hr 11 min 17 sec) 

Cycle: 20000000 FTQ IN: 56560346 FTQ occupancy: 17.8894 DECODE IN: 56560269 DECODE occupancy: 45.7679 ROB IN: 56560269 ROB occupancy: 276.762 ROB OUT: 56560269
Heartbeat_Variant_0 : 1074 0.262207 per_variant_size: 0 1074 0 0 0 0 0 0 0 
Heartbeat_Variant_1 : 1275 0.311279 per_variant_size: 0 860 415 0 0 0 0 0 0 
Heartbeat_Variant_2 : 1565 0.38208 per_variant_size: 0 868 474 157 66 0 0 0 0 
Heartbeat_Variant_3 : 0 0 per_variant_size: 0 0 0 0 0 0 0 0 0 
Heartbeat_Variant_0_evicts 0 : 13764 1 : 9999 2 : 12166 3 : 0 
Heartbeat_Variant_1_evicts 0 : 10004 1 : 0 2 : 11782 3 : 0 
Heartbeat_Variant_2_evicts 0 : 12180 1 : 11768 2 : 0 3 : 0 
Heartbeat_Variant_3_evicts 0 : 0 1 : 0 2 : 0 3 : 0 
Heartbeat CPU 0 instructions: 60000001 cycles: 23115980 heartbeat IPC: 1.09504 cumulative IPC: 1.09504 (Simulation time: 0 hr 13 min 16 sec) 
Cycle: 30000000 FTQ IN: 11004442 FTQ occupancy: 6.11546 DECODE IN: 11004519 DECODE occupancy: 12.7963 ROB IN: 11004519 ROB occupancy: 110.253 ROB OUT: 11004489
Heartbeat_Variant_0 : 1087 0.265381 per_variant_size: 0 1087 0 0 0 0 0 0 0 
Heartbeat_Variant_1 : 1240 0.302734 per_variant_size: 0 824 416 0 0 0 0 0 0 
Heartbeat_Variant_2 : 1589 0.387939 per_variant_size: 0 887 469 163 70 0 0 0 0 
Heartbeat_Variant_3 : 0 0 per_variant_size: 0 0 0 0 0 0 0 0 0 
Heartbeat_Variant_0_evicts 0 : 14126 1 : 10183 2 : 12063 3 : 0 
Heartbeat_Variant_1_evicts 0 : 10173 1 : 0 2 : 11635 3 : 0 
Heartbeat_Variant_2_evicts 0 : 12060 1 : 11661 2 : 0 3 : 0 
Heartbeat_Variant_3_evicts 0 : 0 1 : 0 2 : 0 3 : 0 
Heartbeat CPU 0 instructions: 70000003 cycles: 32346421 heartbeat IPC: 1.08337 cumulative IPC: 1.08917 (Simulation time: 0 hr 15 min 19 sec) 
Cycle: 40000000 FTQ IN: 10886673 FTQ occupancy: 6.29672 DECODE IN: 10886648 DECODE occupancy: 13.2352 ROB IN: 10886648 ROB occupancy: 112.881 ROB OUT: 10886678
Heartbeat_Variant_0 : 1079 0.263428 per_variant_size: 0 1079 0 0 0 0 0 0 0 
Heartbeat_Variant_1 : 1260 0.307617 per_variant_size: 0 835 425 0 0 0 0 0 0 
Heartbeat_Variant_2 : 1577 0.38501 per_variant_size: 0 888 463 156 70 0 0 0 0 
Heartbeat_Variant_3 : 0 0 per_variant_size: 0 0 0 0 0 0 0 0 0 
Heartbeat_Variant_0_evicts 0 : 13889 1 : 9583 2 : 12026 3 : 0 
Heartbeat_Variant_1_evicts 0 : 9536 1 : 0 2 : 11410 3 : 0 
Heartbeat_Variant_2_evicts 0 : 12081 1 : 11343 2 : 0 3 : 0 
Heartbeat_Variant_3_evicts 0 : 0 1 : 0 2 : 0 3 : 0 
Heartbeat CPU 0 instructions: 80000000 cycles: 41416183 heartbeat IPC: 1.10256 cumulative IPC: 1.0936 (Simulation time: 0 hr 17 min 6 sec) 
Cycle: 50000000 FTQ IN: 10993432 FTQ occupancy: 6.11431 DECODE IN: 10993457 DECODE occupancy: 12.8696 ROB IN: 10993457 ROB occupancy: 111.168 ROB OUT: 10993297
Heartbeat_Variant_0 : 1063 0.259521 per_variant_size: 0 1063 0 0 0 0 0 0 0 
Heartbeat_Variant_1 : 1264 0.308594 per_variant_size: 0 845 419 0 0 0 0 0 0 
Heartbeat_Variant_2 : 1593 0.388916 per_variant_size: 0 900 463 156 74 0 0 0 0 
Heartbeat_Variant_3 : 0 0 per_variant_size: 0 0 0 0 0 0 0 0 0 
Heartbeat_Variant_0_evicts 0 : 14015 1 : 9897 2 : 12152 3 : 0 
Heartbeat_Variant_1_evicts 0 : 9902 1 : 0 2 : 11401 3 : 0 
Heartbeat_Variant_2_evicts 0 : 12165 1 : 11403 2 : 0 3 : 0 
Heartbeat_Variant_3_evicts 0 : 0 1 : 0 2 : 0 3 : 0 
Heartbeat CPU 0 instructions: 90000003 cycles: 50535967 heartbeat IPC: 1.09652 cumulative IPC: 1.09433 (Simulation time: 0 hr 18 min 54 sec) 
Heartbeat_Variant_0 : 1061 0.259033 per_variant_size: 0 1061 0 0 0 0 0 0 0 
Heartbeat_Variant_1 : 1262 0.308105 per_variant_size: 0 840 422 0 0 0 0 0 0 
Heartbeat_Variant_2 : 1597 0.389893 per_variant_size: 0 891 485 150 71 0 0 0 0 
Heartbeat_Variant_3 : 0 0 per_variant_size: 0 0 0 0 0 0 0 0 0 
Heartbeat_Variant_0_evicts 0 : 13732 1 : 9813 2 : 11982 3 : 0 
Heartbeat_Variant_1_evicts 0 : 9847 1 : 0 2 : 11197 3 : 0 
Heartbeat_Variant_2_evicts 0 : 11950 1 : 11233 2 : 0 3 : 0 
Heartbeat_Variant_3_evicts 0 : 0 1 : 0 2 : 0 3 : 0 
Heartbeat CPU 0 instructions: 100000000 cycles: 59701461 heartbeat IPC: 1.09105 cumulative IPC: 1.09367 (Simulation time: 0 hr 21 min 2 sec) 
Finished CPU 0 instructions: 50000002 cycles: 45717567 cumulative IPC: 1.09367 (Simulation time: 0 hr 21 min 2 sec) 

ChampSim completed all CPUs

Region of Interest Statistics

CPU 0 cumulative IPC: 1.09367 instructions: 50000002 cycles: 45717567
 Fetch stage stalled: 72.6811  Sim cycles: 45717567 fetch stall cycle: 33228027
 Empty decode stage: 64.2687  Sim cycles: 45717567 fetch stall cycle: 29382100
ITLB TOTAL     ACCESS:    5733101  HIT:    5241014  MISS:     492087  HIT %:    91.4167  MISS %:    8.58326   MPKI: 9.84174
ITLB LOAD TRANSLATION INSTRUCTION	ACCESS:    5630592  HIT:    5138505  MISS:     492087  HIT %:    91.2605  MISS %:    8.73953  MPKI: 9.84174
ITLB TRANSLATION FROM L1D PREFETCHER INSTRUCTION	ACCESS:     102509  HIT:     102509  MISS:          0  HIT %:        100  MISS %:          0  MPKI: 0

ITLB AVERAGE MISS LATENCY: 9.03495 cycles
ITLB RQ	ACCESS:    7531740	FORWARD:          0	MERGED:    1360368	TO_CACHE:    6171372

DTLB TOTAL     ACCESS:    9380529  HIT:    8908211  MISS:     472318  HIT %:    94.9649  MISS %:    5.03509   MPKI: 9.44636
DTLB LOAD TRANSLATION DATA	ACCESS:    9380529  HIT:    8908211  MISS:     472318  HIT %:    94.9649  MISS %:    5.03509  MPKI: 9.44636

DTLB AVERAGE MISS LATENCY: 9.30813 cycles
DTLB RQ	ACCESS:   13651344	FORWARD:          0	MERGED:    4237447	TO_CACHE:    9413897

STLB TOTAL     ACCESS:    1214707  HIT:    1212649  MISS:       2058  HIT %:    99.8306  MISS %:   0.169424   MPKI: 0.04116
STLB LOAD TRANSLATION INSTRUCTION	ACCESS:     492087  HIT:     491865  MISS:        222  HIT %:    99.9549  MISS %:   0.045114  MPKI: 0.00444
STLB LOAD TRANSLATION DATA	ACCESS:     472050  HIT:     470243  MISS:       1807  HIT %:    99.6172  MISS %:   0.382798  MPKI: 0.03614
STLB TRANSLATION FROM L1D PREFETCHER DATA	ACCESS:     250570  HIT:     250541  MISS:         29  HIT %:    99.9884  MISS %:  0.0115736  MPKI: 0.00058

STLB AVERAGE MISS LATENCY: 67.536 cycles
STLB RQ	ACCESS:    1335402	FORWARD:          0	MERGED:     120655	TO_CACHE:    1214747

STLB Hit, L1D data hit: 0
STLB Hit, L2C data hit: 0
STLB Hit, LLC data hit: 0
STLB Hit, LLC data miss: 0
STLB STLB hints to L2: 0
L1D TOTAL     ACCESS:   13426076  HIT:   12318681  MISS:    1107395  HIT %:    91.7519  MISS %:    8.24809   MPKI: 22.1479
L1D LOAD DATA	ACCESS:    6850018  HIT:    6120987  MISS:     729031  HIT %:    89.3572  MISS %:    10.6428  MPKI: 14.5806
L1D RFO DATA	ACCESS:    6244360  HIT:    5959685  MISS:     284675  HIT %:    95.4411  MISS %:    4.55891  MPKI: 5.6935
L1D PREFETCH DATA	ACCESS:     331698  HIT:     238009  MISS:      93689  HIT %:    71.7547  MISS %:    28.2453  MPKI: 1.87378

L1D PREFETCH  REQUESTED:     742295  ISSUED:     742295  USEFUL:      33100  USELESS:      67797
L1D USEFUL LOAD PREFETCHES:      33100 PREFETCH ISSUED TO LOWER LEVEL:     100943  ACCURACY: 32.7908
 TIMELY PREFETCHES:      33100 LATE PREFETCHES: 7206 DROPPED PREFETCHES: 12
L1D AVERAGE MISS LATENCY: 247415 cycles
L1D RQ	ACCESS:   10915260	FORWARD:          0	MERGED:    3868694	TO_CACHE:    6881525
L1D WQ	ACCESS:    6939794	FORWARD:     165342	MERGED:     169975	TO_CACHE:    6769819
L1D PQ	ACCESS:     371298	FORWARD:          0	MERGED:          0	TO_CACHE:     370997

L1D UNIQUE REGIONS ACCESSED: 0
L1D REGIONS CONFLICTS: 0
L1D Cross Page Prefetch Requests: 7023
L1D Same Page Prefetch Requests: 747520
L1D ROI Sum of L1D PQ occupancy: 4711377
L1D PREFETCHES PUSHED FROM L2C: 0
L1I TOTAL     ACCESS:    7021431  HIT:    4267914  MISS:    2753517  HIT %:    60.7841  MISS %:    39.2159   MPKI: 55.0703
L1I LOAD INSTRUCTION	ACCESS:    6537303  HIT:    3783786  MISS:    2753517  HIT %:    57.8799  MISS %:    42.1201  MPKI: 55.0703
L1I PREFETCH INSTRUCTION	ACCESS:     484128  HIT:     484128  MISS:          0  HIT %:        100  MISS %:          0  MPKI: 0

L1I PREFETCH  REQUESTED:    1063178  ISSUED:    1063178  USEFUL:          0  USELESS:          0
L1I USEFUL LOAD PREFETCHES:          0 PREFETCH ISSUED TO LOWER LEVEL:          0  ACCURACY: -nan
 TIMELY PREFETCHES:          0 LATE PREFETCHES: 0 DROPPED PREFETCHES: 0
L1I AVERAGE MISS LATENCY: 17.1794 cycles
L1I RQ	ACCESS:    9432305	FORWARD:          0	MERGED:    2658117	TO_CACHE:    6774188
L1I PQ	ACCESS:    1063178	FORWARD:          0	MERGED:     305626	TO_CACHE:     757552

L1BTB TOTAL     ACCESS:    5672110  HIT:    2051860  MISS:    3620250  HIT %:    36.1745  MISS %:    63.8255   MPKI: 72.405
L1BTB BRANCH_DIRECT_JUMP	ACCESS:     548239  HIT:     145593  MISS:     402646	AVERAGE STALL: 35.1022
L1BTB BRANCH_INDIRECT	ACCESS:     182975  HIT:      66131  MISS:     116844	AVERAGE STALL: 83.3743
L1BTB BRANCH_CONDITIONAL	ACCESS:    2709872  HIT:    1420051  MISS:    1289821	AVERAGE STALL: 35.8602
L1BTB BRANCH_DIRECT_CALL	ACCESS:     943735  HIT:     106503  MISS:     837232	AVERAGE STALL: 37.034
L1BTB BRANCH_INDIRECT_CALL	ACCESS:     171780  HIT:      21709  MISS:     150071	AVERAGE STALL: 108.556
L1BTB BRANCH_RETURN	ACCESS:    1115509  HIT:     291873  MISS:     823636	AVERAGE STALL: 36.6777
L1BTB BRANCH_OTHER ACCESS:          0  HIT:          0  MISS:          0	AVERAGE STALL: -nan
L1BTB TOTAL ROB OCCUPANCY AT BTB MISS: 12.9536

L2BTB TOTAL     ACCESS:    3594825  HIT:    3102549  MISS:     492276  HIT %:     86.306  MISS %:     13.694   MPKI: 9.84552
L2BTB BRANCH_DIRECT_JUMP	ACCESS:     398462  HIT:     347547  MISS:      50915	AVERAGE STALL: 35.1022
L2BTB BRANCH_INDIRECT	ACCESS:     106591  HIT:      97592  MISS:       8999	AVERAGE STALL: 83.3743
L2BTB BRANCH_CONDITIONAL	ACCESS:    1289821  HIT:    1148517  MISS:     141304	AVERAGE STALL: 35.8602
L2BTB BRANCH_DIRECT_CALL	ACCESS:     837232  HIT:     677384  MISS:     159848	AVERAGE STALL: 37.034
L2BTB BRANCH_INDIRECT_CALL	ACCESS:     140488  HIT:     106572  MISS:      33916	AVERAGE STALL: 108.556
L2BTB BRANCH_RETURN	ACCESS:     822231  HIT:     724937  MISS:      97294	AVERAGE STALL: 36.6777
L2BTB BRANCH_OTHER ACCESS:          0  HIT:          0  MISS:          0	AVERAGE STALL: -nan
L2BTB TOTAL ROB OCCUPANCY AT BTB MISS: 95.2621

L2C TOTAL     ACCESS:    4467445  HIT:    3996684  MISS:     470761  HIT %:    89.4624  MISS %:    10.5376   MPKI: 9.41522
L2C LOAD INSTRUCTION	ACCESS:    2753517  HIT:    2494853  MISS:     258664  HIT %:    90.6061  MISS %:    9.39395  MPKI: 5.17328
L2C LOAD TRANSLATION INSTRUCTION	ACCESS:        254  HIT:         70  MISS:        184  HIT %:    27.5591  MISS %:    72.4409  MPKI: 0.00368
L2C LOAD DATA	ACCESS:     721797  HIT:     646383  MISS:      75414  HIT %:    89.5519  MISS %:    10.4481  MPKI: 1.50828
L2C RFO DATA	ACCESS:     284585  HIT:     234737  MISS:      49848  HIT %:     82.484  MISS %:     17.516  MPKI: 0.99696
L2C PREFETCH DATA	ACCESS:     188084  HIT:     118071  MISS:      70013  HIT %:    62.7757  MISS %:    37.2243  MPKI: 1.40026
L2C WRITEBACK DATA	ACCESS:     517278  HIT:     501897  MISS:      15381  HIT %:    97.0266  MISS %:    2.97345  MPKI: 0.30762
L2C LOAD TRANSLATION DATA	ACCESS:       1874  HIT:        635  MISS:       1239  HIT %:    33.8847  MISS %:    66.1153  MPKI: 0.02478
L2C TRANSLATION FROM L1D PREFETCHER DATA	ACCESS:         56  HIT:         38  MISS:         18  HIT %:    67.8571  MISS %:    32.1429  MPKI: 0.00036

L2C PREFETCH  REQUESTED:      94260  ISSUED:      94260  USEFUL:       8329  USELESS:      61829
L2C USEFUL LOAD PREFETCHES:       8329 PREFETCH ISSUED TO LOWER LEVEL:      70385  ACCURACY: 11.8335
 TIMELY PREFETCHES:       8329 LATE PREFETCHES: 372 DROPPED PREFETCHES: 0
L2C AVERAGE MISS LATENCY: 38.5104 cycles
L2C RQ	ACCESS:    3762153	FORWARD:          0	MERGED:          0	TO_CACHE:    3762083
L2C WQ	ACCESS:     517278	FORWARD:         70	MERGED:          0	TO_CACHE:     517278
L2C PQ	ACCESS:     195203	FORWARD:          0	MERGED:       3678	TO_CACHE:     191525

L2C Dense regions hint from L2: 0
PSCL5 TOTAL     ACCESS:       4148  HIT:       2074  MISS:       2074  HIT %:         50  MISS %:         50   MPKI: 0.04148
PSCL5 LOAD TRANSLATION INSTRUCTION	ACCESS:       4036  HIT:       2018  MISS:       2018  HIT %:         50  MISS %:         50  MPKI: 0.04036
PSCL5 TRANSLATION FROM L1D PREFETCHER INSTRUCTION	ACCESS:        112  HIT:         56  MISS:         56  HIT %:         50  MISS %:         50  MPKI: 0.00112


PSCL4 TOTAL     ACCESS:       3546  HIT:       1771  MISS:       1775  HIT %:    49.9436  MISS %:    50.0564   MPKI: 0.0355
PSCL4 LOAD TRANSLATION INSTRUCTION	ACCESS:       1909  HIT:       1721  MISS:        188  HIT %:    90.1519  MISS %:    9.84809  MPKI: 0.00376
PSCL4 TRANSLATION FROM L1D PREFETCHER INSTRUCTION	ACCESS:         50  HIT:         50  MISS:          0  HIT %:        100  MISS %:          0  MPKI: 0
PSCL4 LOAD TRANSLATION DATA	ACCESS:       1537  HIT:          0  MISS:       1537  HIT %:          0  MISS %:        100  MPKI: 0.03074
PSCL4 TRANSLATION FROM L1D PREFETCHER DATA	ACCESS:         50  HIT:          0  MISS:         50  HIT %:          0  MISS %:        100  MPKI: 0.001


PSCL3 TOTAL     ACCESS:       4104  HIT:       2048  MISS:       2056  HIT %:    49.9025  MISS %:    50.0975   MPKI: 0.04112
PSCL3 LOAD TRANSLATION INSTRUCTION	ACCESS:       2331  HIT:       1999  MISS:        332  HIT %:    85.7572  MISS %:    14.2428  MPKI: 0.00664
PSCL3 TRANSLATION FROM L1D PREFETCHER INSTRUCTION	ACCESS:         55  HIT:         49  MISS:          6  HIT %:    89.0909  MISS %:    10.9091  MPKI: 0.00012
PSCL3 LOAD TRANSLATION DATA	ACCESS:       1675  HIT:          0  MISS:       1675  HIT %:          0  MISS %:        100  MPKI: 0.0335
PSCL3 TRANSLATION FROM L1D PREFETCHER DATA	ACCESS:         43  HIT:          0  MISS:         43  HIT %:          0  MISS %:        100  MPKI: 0.00086


PSCL2 TOTAL     ACCESS:       4049  HIT:       1975  MISS:       2074  HIT %:    48.7775  MISS %:    51.2225   MPKI: 0.04148
PSCL2 LOAD TRANSLATION INSTRUCTION	ACCESS:       2141  HIT:       1919  MISS:        222  HIT %:     89.631  MISS %:     10.369  MPKI: 0.00444
PSCL2 TRANSLATION FROM L1D PREFETCHER INSTRUCTION	ACCESS:         56  HIT:         56  MISS:          0  HIT %:        100  MISS %:          0  MPKI: 0
PSCL2 LOAD TRANSLATION DATA	ACCESS:       1796  HIT:          0  MISS:       1796  HIT %:          0  MISS %:        100  MPKI: 0.03592
PSCL2 TRANSLATION FROM L1D PREFETCHER DATA	ACCESS:         56  HIT:          0  MISS:         56  HIT %:          0  MISS %:        100  MPKI: 0.00112


LLC TOTAL     ACCESS:     529877  HIT:     501474  MISS:      28403  HIT %:    94.6397  MISS %:     5.3603   MPKI: 0.56806
LLC LOAD INSTRUCTION	ACCESS:     258664  HIT:     257779  MISS:        885  HIT %:    99.6579  MISS %:   0.342143  MPKI: 0.0177
LLC LOAD TRANSLATION INSTRUCTION	ACCESS:        184  HIT:        170  MISS:         14  HIT %:    92.3913  MISS %:     7.6087  MPKI: 0.00028
LLC LOAD DATA	ACCESS:      75045  HIT:      71396  MISS:       3649  HIT %:    95.1376  MISS %:    4.86242  MPKI: 0.07298
LLC RFO DATA	ACCESS:      49840  HIT:      36416  MISS:      13424  HIT %:    73.0658  MISS %:    26.9342  MPKI: 0.26848
LLC PREFETCH DATA	ACCESS:      70384  HIT:      60391  MISS:       9993  HIT %:    85.8022  MISS %:    14.1978  MPKI: 0.19986
LLC WRITEBACK DATA	ACCESS:      74503  HIT:      74144  MISS:        359  HIT %:    99.5181  MISS %:    0.48186  MPKI: 0.00718
LLC LOAD TRANSLATION DATA	ACCESS:       1239  HIT:       1164  MISS:         75  HIT %:    93.9467  MISS %:    6.05327  MPKI: 0.0015
LLC TRANSLATION FROM L1D PREFETCHER DATA	ACCESS:         18  HIT:         14  MISS:          4  HIT %:    77.7778  MISS %:    22.2222  MPKI: 8e-05

LLC AVERAGE MISS LATENCY: 156.132 cycles
LLC RQ	ACCESS:     384995	FORWARD:          0	MERGED:          0	TO_CACHE:     384990
LLC WQ	ACCESS:      74503	FORWARD:          6	MERGED:          0	TO_CACHE:      74503
LLC PQ	ACCESS:      70385	FORWARD:          0	MERGED:          0	TO_CACHE:      70384

LLC Dense regions hint to LLC: 0

RAW hits: 1715332
Loads Generated: 12630592
Loads sent to L1D: 10915260
Stores Generated: 6939769
Stores sent to L1D: 6939794
Major fault: 0 Minor fault: 2613
Allocated PAGES: 2613

stream: 
stream:times selected: 1186177
stream:pref_filled: 121483
stream:pref_useful: 23939
stream:pref_late: 6551
stream:misses: 7852
stream:misses_by_poll: 0

CS: 
CS:times selected: 177071
CS:pref_filled: 59707
CS:pref_useful: 36450
CS:pref_late: 6341
CS:misses: 15538
CS:misses_by_poll: 1

CPLX: 
CPLX:times selected: 1007971
CPLX:pref_filled: 19647
CPLX:pref_useful: 4732
CPLX:pref_late: 3112
CPLX:misses: 92505
CPLX:misses_by_poll: 4

NL_L1: 
NL:times selected: 20605
NL:pref_filled: 785
NL:pref_useful: 410
NL:pref_late: 255
NL:misses: 1739
NL:misses_by_poll: 0

total selections: 2391824
total_filled: 93689
total_useful: 33100
total_late: 17543
total_polluted: 5
total_misses_after_warmup: 760537
conflicts: 5656035

test: 118671

DRAM Statistics
 CHANNEL 0
 RQ ROW_BUFFER_HIT:      10236  ROW_BUFFER_MISS:      17802
 DBUS_CONGESTED:          5
 WQ ROW_BUFFER_HIT:       1346  ROW_BUFFER_MISS:      12131  FULL:          0

 AVG_CONGESTED_CYCLE: 5

CPU 0 Branch Prediction Accuracy: 99.8243% MPKI: 0.32138 Average ROB Occupancy at Mispredict: 122.044
Branch types
NOT_BRANCH: 40855406 81.7108%
BRANCH_DIRECT_JUMP: 548239 1.09648%
BRANCH_INDIRECT: 182975 0.36595%
BRANCH_CONDITIONAL: 6181888 12.3638%
BRANCH_DIRECT_CALL: 943735 1.88747%
BRANCH_INDIRECT_CALL: 171780 0.34356%
BRANCH_RETURN: 1115509 2.23102%
BRANCH_OTHER: 0 0%

DRAM PAGES: 1048576
Allocated PAGES: 2613
Average_ROB_Occupancy: 112.561
Average_Decode_Occupancy: 12.9568
Average_FTQ_Occupancy: 6.17785
Indirect max targets: 14 Average targets: 1.17778
Branch_type:  BRANCH_DIRECT_JUMP:  Count Percentage: 3.31249 6.93434 3.73608 7.44148 3.32627 6.33077 1.19325 67.7253 
Branch_type:  BRANCH_INDIRECT:  Count Percentage: 6.11677 3.44544 8.16253 9.69241 3.34259 2.80619 0.935213 65.4989 
Branch_type:  BRANCH_CONDITIONAL:  Count Percentage: 21.145 3.93641 1.46678 7.22076 2.64885 3.5719 0.455767 59.5545 
Branch_type:  BRANCH_DIRECT_CALL:  Count Percentage: 0.879087 1.2622 0.74621 3.72523 3.22427 2.61338 0.618258 86.9314 
Branch_type:  BRANCH_INDIRECT_CALL:  Count Percentage: 9.51871 0 2.98318 0.000873383 1.32288 1.70746 0.995365 83.4715 
Branch_type:  BRANCH_RETURN:  Count Percentage: 4.70809 4.78791 1.03126 3.67374 4.23134 3.48933 0.375078 77.7033 
Branch_type:  BRANCH_DIRECT_JUMP:  Total Count: 36277 75942 40916 81496 36428 69332 13068 741700 
Branch_type:  BRANCH_INDIRECT:  Total Count: 22362 12596 29841 35434 12220 10259 3419 239454 
Branch_type:  BRANCH_CONDITIONAL:  Total Count: 2612468 486343 181221 892125 327266 441308 56310 7357961 
Branch_type:  BRANCH_DIRECT_CALL:  Total Count: 16599 23833 14090 70340 60881 49346 11674 1641445 
Branch_type:  BRANCH_INDIRECT_CALL:  Total Count: 32696 0 10247 3 4544 5865 3419 286718 
Branch_type:  BRANCH_RETURN:  Total Count: 105113 106895 23024 82020 94469 77903 8374 1734806 
Number of unique branch instructions: 10884
Upper 32 bits: 
aaaa
ffff
ffff0000
Unique upper 32 bits: 3
Unique upper 36 bits: 3
Unique upper 40 bits: 5
Unique upper 44 bits: 32
Unique upper 48 bits: 158
Variant_0 : 1061 0.259033
Variant_1 : 1262 0.308105
Variant_2 : 1597 0.389893
Variant_3 : 0 0
Offset_3 4498
Offset_4 263
Offset_5 490
Offset_6 552
Offset_7 644
Offset_8 590
Offset_9 528
Offset_10 432
Offset_11 354
Offset_12 327
Offset_13 240
Offset_14 247
Offset_15 203
Offset_16 233
Offset_17 173
Offset_18 155
Offset_19 267
Offset_20 145
Offset_21 235
Offset_22 416
Offset_23 241
Offset_24 347
Offset_25 117
Offset_47 92
Offset_64 1
decode_dispatch_called: 20116532 44.0018
Dispatch_width: 0 10082229 50.1191 22.0533
Dispatch_width: 1 543604 2.70227 1.18905
Dispatch_width: 2 683988 3.40013 1.49612
Dispatch_width: 3 467121 2.32208 1.02175
Dispatch_width: 4 1496403 7.43867 3.27315
Dispatch_width: 5 357963 1.77945 0.782988
Dispatch_width: 6 6485224 32.2383 14.1854
Empty_decode_cycles: 25601035 55.9982
ROB_full_cycles: 1818374 3.97741
Starvation_cycles_per_kilo_instr: 374.14
Starvation_cycles_per_kilo_instr_3: 355.596
Starvation_cycles_per_kilo_instr_0: 338.649
Branch_type_1  (3,1)  (4,9)  (5,39)  (6,76)  (7,126)  (8,152)  (9,139)  (10,110)  (11,78)  (12,55)  (13,11)  (14,2)  (15,3)  (16,4)  (18,1)  (19,5)  (20,2)  (21,1)  (22,3)  (23,2)  (24,10)  (25,12) 
Branch_type_2  (3,1)  (4,1)  (5,1)  (8,4)  (9,4)  (10,1)  (12,1)  (13,1)  (14,1)  (16,3)  (17,2)  (20,2)  (21,2)  (23,5)  (24,1)  (47,41) 
Branch_type_3  (3,4496)  (4,253)  (5,446)  (6,459)  (7,486)  (8,365)  (9,288)  (10,176)  (11,140)  (12,62)  (13,10)  (64,1) 
Branch_type_4  (6,4)  (7,8)  (8,26)  (9,58)  (10,69)  (11,70)  (12,117)  (13,102)  (14,112)  (15,97)  (16,104)  (17,80)  (18,68)  (19,129)  (20,74)  (21,124)  (22,220)  (23,136)  (24,202)  (25,101) 
Branch_type_5  (8,3)  (9,1)  (10,4)  (11,5)  (12,3)  (13,14)  (14,16)  (15,11)  (16,22)  (17,13)  (18,23)  (19,14)  (20,11)  (21,13)  (22,43)  (23,26)  (24,38) 
Branch_type_6  (5,4)  (6,13)  (7,24)  (8,40)  (9,38)  (10,72)  (11,61)  (12,89)  (13,102)  (14,116)  (15,92)  (16,100)  (17,78)  (18,63)  (19,119)  (20,56)  (21,95)  (22,150)  (23,72)  (24,96)  (25,4)  (47,51) 
Unique trigger count: 
Variant_0_evicts_0 : 0
Variant_0_evicts_1 : 0
Variant_0_evicts_2 : 0
Variant_0_evicts_3 : 0
Variant_1_evicts_0 : 0
Variant_1_evicts_1 : 0
Variant_1_evicts_2 : 0
Variant_1_evicts_3 : 0
Variant_2_evicts_0 : 0
Variant_2_evicts_1 : 0
Variant_2_evicts_2 : 0
Variant_2_evicts_3 : 0
Variant_3_evicts_0 : 0
Variant_3_evicts_1 : 0
Variant_3_evicts_2 : 0
Variant_3_evicts_3 : 0
BTB PER SET UNIQUE ADDR: 2 7 3 7 5 5 7 4 2 6 5 5 2 5 10 8 4 5 5 2 5 10 7 10 5 6 4 5 6 7 7 4 3 7 5 9 5 3 6 9 5 7 6 4 8 6 5 5 7 7 9 6 7 3 2 8 5 3 7 6 5 8 6 9 7 3 6 4 4 8 7 6 5 7 7 9 4 5 6 6 9 7 6 10 9 4 6 4 5 8 7 10 7 9 4 2 6 4 4 7 5 3 4 8 5 6 3 6 6 10 8 1 3 8 2 5 5 7 6 11 6 4 5 4 8 7 4 6 7 2 5 6 4 5 8 6 5 2 7 5 1 4 9 7 4 9 5 5 6 8 4 2 4 10 3 5 5 3 7 6 2 6 4 6 8 2 1 4 8 10 5 6 6 4 3 6 5 7 6 7 6 5 4 8 6 6 4 6 5 5 7 3 5 7 3 7 5 6 6 5 7 6 3 5 1 8 4 4 8 7 2 2 7 7 5 5 8 6 4 6 3 9 7 8 6 10 8 5 7 9 3 6 5 11 4 7 4 5 5 7 6 6 6 6 6 4 4 5 5 8 2 8 4 3 5 7 4 5 7 1 9 8 7 5 4 4 6 5 8 6 7 7 6 6 6 5 6 2 6 11 9 3 6 9 5 5 9 5 8 3 5 2 11 7 8 5 5 3 8 4 14 3 5 13 4 3 6 8 7 3 6 3 8 7 5 5 5 8 7 3 11 8 3 5 10 7 4 6 2 8 4 9 3 5 4 5 7 9 6 6 3 6 6 3 5 5 4 8 1 4 7 8 5 2 8 5 4 6 5 5 10 6 5 8 7 9 6 7 4 3 9 6 9 5 6 5 7 5 6 2 5 5 7 5 8 4 4 5 4 5 5 4 4 6 4 3 6 2 5 4 7 6 7 4 3 11 11 5 8 2 5 5 1 6 6 2 5 4 4 6 5 2 4 8 7 4 5 10 6 8 9 3 4 4 7 1 4 2 2 4 9 5 3 2 3 1 3 5 7 5 10 2 7 5 5 2 8 3 12 5 5 6 6 14 3 10 5 4 3 9 6 8 3 7 4 7 4 2 5 7 5 2 6 5 3 5 5 6 6 7 6 6 7 6 7 5 6 5 3 7 3 3 3 4 6 6 6 3 2 4 6 3 6 3 5 6 10 6 8 5 6 6 9 5 6 12 3 4 5 3 11 7 5 4 3 7 10 9 3 6 4 10 13 13 6 4 8 10 4 3 4 8 2 6 6 8 8 1 7 3 5 3 7 8 6 3 4 5 9 4 4 4 2 7 2 7 11 2 7 5 1 9 2 9 2 4 3 2 5 8 8 8 7 8 4 7 13 8 5 6 12 3 4 2 4 10 8 2 3 4 5 4 5 7 1 6 10 4 7 8 4 5 6 2 7 6 3 5 4 5 6 6 4 6 7 6 3 9 6 11 4 5 4 3 3 7 7 5 5 7 6 5 5 9 5 9 7 2 3 5 4 6 7 9 4 5 3 9 10 6 9 6 6 5 7 4 4 7 5 10 7 9 3 7 10 9 4 8 8 5 7 3 5 7 4 9 6 8 5 11 6 6 4 4 11 3 4 7 8 8 5 3 3 8 4 5 8 7 5 3 5 6 3 7 7 7 8 7 5 9 5 4 9 5 5 2 7 6 4 10 4 11 5 7 5 2 6 4 5 5 7 4 6 4 8 9 8 1 3 9 7 7 7 6 7 6 8 12 7 7 8 5 1 7 5 6 5 7 5 7 8 7 4 6 12 5 7 7 6 8 7 5 5 5 8 7 8 3 5 5 6 6 8 4 6 2 6 4 5 5 7 3 1 5 10 7 11 5 8 5 9 5 5 4 5 6 6 6 11 6 7 6 4 9 6 3 6 5 2 5 2 9 6 5 6 4 5 5 3 5 5 8 5 4 6 5 11 8 4 5 1 5 4 8 5 6 10 7 5 6 4 4 5 3 3 3 4 7 0 6 6 6 6 4 6 6 7 11 4 0 10 3 4 3 5 8 4 9 7 2 9 4 7 5 5 2 4 6 6 12 9 5 5 8 8 8 6 9 10 6 9 1 6 7 4 5 6 6 7 4 4 8 7 4 5 6 4 4 2 9 6 6 4 4 5 4 4 4 6 5 8 8 6 2 12 6 8 4 4 3 5 4 7 4 5 3 8 4 3 4 4 3 5 8 3 4 2 11 7 5 4 5 8 6 9 4 3 4 7 4 3 5 7 10 7 5 5 5 4 2 8 4 8 4 4 6 5 9 6 6 4 9 11 6 7 4 7 7 3 4 5 3 10 8 10 4 7 7 3 4 5 4 6 5 5 7 8 6 2 4 6 5 6 8 7 5 5 7 3 4 6 4 6 4 4 7 9 8 5 3 4 7 4 5 4 8 8 6 10 6 2 5 2 8 8 4 7 7 7 4 8 3 4 5 6 6 4 3 3 8 8 9 6 6 6 4 4 4 5 3 5 11 7 11 4 6 2 5 3 2 5 6 5 5 9 4 6 6 6 6 6 6 4 8 3 8 6 7 3 2 6 7 8 3 6 4 5 6 3 7 8 11 7 3 6 6 3 7 5 6 5 6 3 5 4 4 4 10 7 5 4 2 8 4 3 3 6 7 7 8 10 5 4 4 5 9 4 8 4 6 10 3 12 4 4 3 8 3 6 9 10 9 5 2 9 5 8 6 5 4 7 3 4 3 5 7 6 3 9 4 4 4 6 7 2 6 8 3 9 6 10 2 6 5 5 9 9 5 5 6 5 3 5 3 9 4 3 6 3 2 6 6 6 5 8 6 9 5 2 7 6 8 2 4 6 4 5 3 2 5 3 4 5 5 5 3 7 7 4 9 6 5 10 3 6 5 6 7 8 5 8 4 8 9 6 5 5 8 11 9 7 6 8 11 4 5 9 5 5 6 2 5 5 9 7 7 8 6 8 9 12 6 4 5 11 7 5 5 4 5 4 7 7 7 6 3 5 4 10 12 6 8 5 7 8 4 7 6 6 8 5 6 6 6 7 13 4 5 8 6 5 3 5 7 5 2 8 2 2 6 4 10 7 8 7 2 4 4 5 7 3 6 4 12 10 10 5 5 3 5 2 5 3 6 4 4 6 6 6 2 2 6 9 7 2 7 7 6 5 4 6 6 11 2 4 5 11 8 7 6 4 5 9 4 11 8 3 3 3 5 8 5 5 8 8 11 8 4 3 7 8 4 7 6 10 7 7 10 6 3 7 7 6 4 5 6 8 4 7 4 4 7 2 7 6 5 5 6 11 7 7 4 6 8 9 8 5 7 5 9 4 5 8 1 5 3 8 6 7 11 6 6 5 9 7 4 5 4 5 6 7 5 5 9 5 10 6 5 7 1 7 5 10 8 8 9 10 5 9 3 6 7 10 4 2 7 7 8 8 11 9 2 6 7 8 4 13 6 7 4 5 6 5 5 4 8 7 6 2 7 5 3 8 7 7 7 4 9 4 1 5 6 6 5 4 6 3 7 5 4 3 8 8 4 4 5 5 8 6 7 8 4 6 4 3 6 4 8 9 2 5 6 4 7 4 6 7 5 4 7 6 5 5 5 6 3 3 6 5 6 6 5 6 7 4 5 10 8 9 7 4 7 7 4 3 7 4 6 9 5 3 10 9 8 5 8 3 2 3 4 4 6 9 5 8 6 8 5 6 5 5 6 12 3 7 7 7 5 4 9 10 5 3 5 6 4 5 4 7 4 3 7 4 5 6 5 4 4 2 2 7 4 4 3 6 6 1 5 5 4 8 4 6 2 1 5 6 7 13 3 4 8 4 3 4 3 3 5 6 4 3 5 4 2 4 7 9 3 4 4 1 2 8 6 5 4 4 6 4 7 1 4 3 9 7 5 9 5 4 4 5 4 5 6 4 4 4 5 6 8 5 4 9 3 4 7 6 7 6 6 8 3 4 3 5 6 1 1 3 5 8 9 3 8 6 7 5 6 7 4 2 4 8 10 0 8 4 9 5 11 5 9 3 8 10 8 6 4 3 7 3 7 3 6 4 6 9 5 4 7 5 6 3 4 2 1 5 2 8 3 6 4 7 2 5 4 3 8 2 6 4 4 8 7 6 7 8 3 7 4 6 8 4 3 5 5 6 4 6 8 4 4 3 3 7 6 6 6 2 7 3 4 5 9 5 3 4 8 7 5 3 4 8 4 6 7 2 6 4 4 3 8 3 7 6 4 4 7 5 10 4 5 3 4 5 8 6 6 3 3 4 3 3 5 3 11 1 6 2 7 4 4 3 7 5 5 3 1 3 8 2 5 5 4 4 7 6 3 4 6 6 7 10 2 5 8 1 4 14 4 1 1 10 12 3 7 9 9 6 6 7 5 10 7 7 7 4 2 4 3 5 9 5 8 8 9 4 4 2 7 3 8 5 5 8 8 6 4 7 9 7 5 5 8 6 7 5 7 3 11 4 6 4 12 8 3 5 10 3 5 5 4 3 2 8 9 5 6 4 6 2 5 6 8 4 4 2 3 5 5 1 4 7 10 3 5 5 8 7 6 4 10 7 5 4 8 5 5 8 3 2 11 3 3 7 5 4 14 5 8 4 7 4 6 3 5 8 6 
BTB PER SET COUNT: 2 1910 834 1093 980 358 520 940 2 659 915 374 2 710 1049 204 663 173 986 3 440 1483 771 461 557 411 228 336 647 793 810 127 190 1131 657 783 723 161 416 1727 10 1556 7 6 3030 772 191 273 168 1125 1712 644 1133 4 2 820 1004 1135 695 65 1067 962 259 318 177 7 251 222 4 1142 825 293 255 719 309 1514 5 828 1262 266 891 478 232 1540 784 150 1096 4 636 1809 798 1045 1207 1168 4 50 233 5 254 609 723 3 311 149 80 160 48 555 633 961 356 1 184 1375 3 209 421 23 495 2794 416 535 1738 317 287 1237 8 524 962 3 16 540 4 348 597 734 227 127 1041 1041 1 610 1696 574 4 419 5 479 399 879 321 485 8 1006 3 1808 192 624 600 308 2 351 4 434 730 80 1 4 341 740 163 835 362 228 346 423 106 199 113 870 142 665 314 669 564 538 4 56 12 204 95 3 1142 742 3 408 184 666 1162 6 447 434 127 240 1 1018 5 554 678 8 3 4 1057 745 280 437 925 289 346 196 193 1002 285 1330 1933 1319 178 104 157 1643 186 180 259 5819 234 661 4 463 527 974 644 98 714 220 426 349 273 631 268 425 2 760 7 179 564 129 216 384 307 1 514 520 473 347 185 510 14 540 864 261 467 684 162 488 704 1029 189 284 578 888 596 3 363 926 6 698 1667 387 626 3 8 2 1346 693 876 227 5 13 511 236 1100 227 1463 675 196 4 729 45 421 8 160 4 823 381 6 364 7 828 369 6 707 419 272 302 1555 441 357 172 2 299 4 1783 194 804 147 214 970 395 313 701 3 357 384 4 790 316 4 744 1 301 352 212 462 2 663 11 469 625 793 213 2045 351 415 1227 269 3033 937 1387 5 3 742 519 3060 9 437 305 709 502 361 2 141 1225 69 520 981 302 17 475 151 274 297 6 690 394 124 3 1702 2 467 56 706 677 358 258 389 1527 2454 841 841 2 162 342 1 502 966 253 455 451 283 777 336 2 4 531 936 737 381 749 1237 356 1741 43 4 464 856 1 442 3 2 131 2084 408 4 18 464 1 3 42 792 429 1735 299 395 301 612 2 604 6 1715 181 1134 363 52 1045 6 1047 334 240 3 580 534 651 54 408 967 192 160 2 284 690 114 2 210 467 4 459 146 403 218 984 465 448 134 585 686 966 940 487 79 797 3 230 3 298 7 495 237 91 2 20 1146 318 1136 1068 5 544 991 1496 1064 744 359 537 1455 22 429 1993 30 5 280 4 2347 710 161 22 6 126 546 609 541 205 260 563 1442 1830 523 1173 1141 1715 698 71 4 1303 986 658 458 582 1180 1 295 106 899 7709 445 949 510 4 1112 201 2037 571 265 336 2 1210 2 1079 1262 2 464 276 2 560 2 806 2 323 211 3 7 2326 829 678 898 1224 218 1804 1168 1008 259 315 885 3 676 122 177 891 1326 2 153 198 427 139 1141 302 1 237 1181 333 10737 888 310 332 462 2 719 362 585 225 492 425 583 980 92 872 440 745 3 1153 585 2274 4 268 429 4 4 1054 250 194 209 757 780 352 171 1005 185 408 464 276 3 56 477 640 292 172 273 793 3 1767 652 933 465 422 692 312 877 425 460 1339 309 878 1304 734 100 1435 612 959 380 1194 128 18 586 3 360 966 269 1219 115 1630 407 1659 597 1294 6 9 1291 140 7 449 1730 645 339 4 227 848 116 971 453 395 323 187 396 632 717 965 508 1130 835 832 1025 700 373 252 791 370 11 2 7 481 159 2522 4 2082 266 383 306 2 358 178 6 714 542 302 235 306 168 838 733 1 3 787 582 329 279 155 180 339 732 2114 624 8 212 430 1 343 758 1091 356 655 372 627 671 92 194 207 730 5 672 689 249 1176 411 483 849 6 127 1012 220 182 268 206 198 56 701 839 386 2 156 4 303 214 426 3 2 206 1017 574 1989 318 918 85 838 356 117 140 465 1041 360 555 1641 417 809 505 156 914 59 122 1087 189 2 470 7 1797 515 645 289 6 174 806 6 906 6 440 40 278 608 38 782 178 203 10 1 525 160 357 497 273 1399 278 905 66 808 193 410 8 3 38 1325 1045 0 1040 446 1110 490 161 14 615 236 1679 72 0 1773 73 134 4 8 730 625 957 896 234 953 200 664 969 229 138 5 90 432 1037 711 298 574 753 647 1034 242 600 1501 809 1884 1 104 549 237 7 1443 343 296 384 6 865 1432 377 258 412 234 249 83 1087 992 106 7 5 1069 282 4 36 387 5 1321 1113 558 2 2432 300 1359 4 1805 272 676 140 638 350 327 9 591 508 5 253 4 4 239 1116 4 76 81 1406 386 356 405 275 878 15 767 152 3 893 14 181 5 434 917 1148 431 7 263 1728 4 2 561 308 602 1470 231 17 369 1342 1020 494 4 718 1211 422 569 116 225 1210 6 19 487 309 539 161 564 257 917 1263 4 166 762 4 926 554 653 785 592 463 1460 143 386 583 91 457 366 754 491 41 77 8 422 348 354 135 388 12 965 1753 281 3 6 661 496 642 515 536 945 696 598 629 2 415 2 1189 970 207 318 789 187 5 1236 5 160 422 297 366 15 111 56 633 1079 1002 564 10 429 558 157 7 261 3 264 1968 643 1839 377 864 5 202 4 174 169 634 310 1337 845 5 9 625 8 305 380 6 503 130 3 831 487 420 4 2 149 508 616 6 478 209 163 749 5 310 935 11560 1225 254 756 8 10 619 20 352 80 443 3 188 5 923 114 1311 1377 186 82 2 666 292 322 5 231 508 173 769 1001 5 437 434 152 1340 10 175 532 740 881 102 1384 370 249 258 223 299 1149 648 1134 650 196 2 1943 181 918 461 685 207 635 45 11 4 736 840 1237 3 1052 376 735 4 324 1468 3 233 809 99 754 251 928 7 557 33 458 787 648 243 404 168 5 55 565 3 1297 266 17 482 133 2 484 475 18 227 380 251 21 112 75 422 347 532 2 223 488 8 6 108 2 211 3 220 7 6 671 3 498 206 267 715 503 219 1090 3 245 489 273 1268 694 344 1429 30 170 536 207 486 154 1289 1945 1374 39 752 251 1503 279 643 752 186 430 747 3 349 340 475 1044 528 491 1143 826 966 982 156 14 481 883 897 12 186 458 229 4 288 10 471 79 4 125 1489 665 2022 397 434 5 703 508 144 220 1083 536 461 635 668 261 419 978 1211 204 400 1120 604 2346 3 281 255 16 2 702 2 2 350 465 701 896 601 73 2 276 215 223 742 3 228 278 1967 1170 538 493 149 4 713 2 660 275 322 164 243 13 268 297 224 2 179 520 438 2 346 650 46 11 4 1022 285 285 65 10 390 1004 210 163 472 5 435 959 51 1364 998 278 203 91 934 1394 542 432 605 336 932 460 28 250 2265 1505 23 507 2237 1169 979 1112 641 987 175 448 1361 109 93 347 10 943 6 569 11 4 322 2 756 407 8 5 619 1104 292 454 4 26 383 1264 380 232 19 7 1622 208 276 976 1 7 3 290 357 628 1682 185 845 460 568 770 650 25 120 8 201 482 243 284 646 476 1839 762 216 304 1 938 452 568 228 1584 814 1054 115 816 118 362 624 1998 257 2 951 81 755 872 1922 1376 2 133 1162 525 640 1393 542 1209 7 472 20 618 164 137 1012 251 615 4 893 5 3 274 194 11 389 468 837 225 1 949 444 238 15 92 241 4 410 88 1062 680 912 328 406 396 217 3914 973 422 495 962 5 43 350 3 562 379 1249 299 1447 461 317 28 664 5 465 1081 15 190 516 153 251 5 581 371 150 175 607 105 488 272 462 381 641 658 474 954 87 1468 385 6 709 1205 248 172 239 5 725 745 6 221 951 639 1116 122 837 170 2 3 213 337 596 1385 114 816 628 1281 42 309 5 5 816 665 113 765 823 302 525 4 1024 627 371 546 198 83 199 495 615 744 722 462 586 7 88 347 7 918 442 2 327 201 221 7 9 380 365 1 656 5 419 237 6 296 2 1 174 246 490 2882 105 465 880 4 261 335 5 3 328 524 167 58 370 102 2 11 957 1045 164 4 33 1 202 692 513 419 233 4 347 431 368 1 254 10 2005 311 435 402 343 205 335 135 87 74 231 197 603 417 5 542 429 176 69 931 3 139 787 566 1264 352 502 833 5 5 3 100 609 1 1 6 674 532 1170 3 1169 325 418 816 668 1484 320 2 4 407 1419 0 380 76 856 214 2074 444 740 4 681 2728 548 315 269 3 1062 3 949 3 370 338 566 527 87 4 543 333 327 5 4 3 1 274 2 938 3 686 493 318 4 152 4 18 400 143 1102 134 345 617 1031 231 827 939 137 503 80 241 1321 5 712 170 6 387 884 501 1246 346 465 273 326 365 1163 875 735 2 1296 3 450 350 724 5 6 197 872 1816 415 4 153 875 294 390 783 2 886 10699 281 122 1412 236 1323 650 5 402 1199 826 1526 554 478 428 6 547 1555 567 626 74 256 5 3 4 932 7 809 1 433 549 213 4 351 314 157 203 406 3 1 3 1336 2 111 683 587 85 1135 508 84 209 1185 137 298 864 2 437 1180 1 738 1317 116 2 1 581 747 4 481 631 1203 52 247 592 361 624 20 1193 418 182 2 485 290 321 1234 291 598 1266 260 261 91 2 832 170 641 788 367 437 1695 628 1306 1322 1327 978 205 186 567 3343 723 276 714 529 1589 4 720 353 1595 16 182 378 1259 225 611 441 189 44 2 1236 1496 402 573 26 482 2 260 82 590 4 324 1346 449 683 265 1 85 396 1229 162 174 5 1211 491 744 277 1828 439 892 4 1031 1518 140 457 3 2 1821 104 204 479 549 135 2826 216 1307 131 622 466 6 51 312 893 965 
To predecode: 0
Predecoding something: 0
Predecode request dropped: 0
sizeofblock_0 0
sizeofblock_1 507833
sizeofblock_2 146551
sizeofblock_3 28342
sizeofblock_4 6582
sizeofblock_5 0
sizeofblock_6 0
sizeofblock_7 0
sizeofblock_8 0
Variant_0 Correct: 1305837 Incorrect: 0 Accuracy: 1
Variant_1 Correct: 1818203 Incorrect: 0 Accuracy: 1
Variant_2 Correct: 3337219 Incorrect: 0 Accuracy: 1
Variant_3 Correct: 0 Incorrect: 0 Accuracy: -nan
