
*** ChampSim Multicore Out-of-Order Simulator ***

Warmup Instructions: 50000000
Simulation Instructions: 50000000
Number of CPUs: 1
LLC sets: 2048
LLC ways: 16
Off-chip DRAM Size: 4096 MB Channels: 1 Width: 64-bit Data Rate: 6400 MT/s
CPU 0 runs ./micro_traces/srv274.trace.gz
.gz
ITLB has LRU replacement policy
DTLB has LRU replacement policy
STLB has LRU replacement policy
FDIP Prefetcher at L1I
L1I has LRU replacement policy
L1D has LRU replacement policy
Initialize SRRIP state for L2C
Initialize DRRIP state for LLC
Heartbeat CPU 0 instructions: 10000001 cycles: 2796939 heartbeat IPC: 3.57534 cumulative IPC: 3.57534 (Simulation time: 0 hr 1 min 39 sec) 
Heartbeat CPU 0 instructions: 20000000 cycles: 5592763 heartbeat IPC: 3.57676 cumulative IPC: 3.57605 (Simulation time: 0 hr 3 min 14 sec) 
Heartbeat CPU 0 instructions: 30000002 cycles: 8389785 heartbeat IPC: 3.57523 cumulative IPC: 3.57578 (Simulation time: 0 hr 4 min 48 sec) 
Heartbeat CPU 0 instructions: 40000002 cycles: 11186452 heartbeat IPC: 3.57569 cumulative IPC: 3.57575 (Simulation time: 0 hr 6 min 24 sec) 
Heartbeat CPU 0 instructions: 50000000 cycles: 13983521 heartbeat IPC: 3.57517 cumulative IPC: 3.57564 (Simulation time: 0 hr 7 min 59 sec) 

Warmup complete CPU 0 instructions: 50000004 cycles: 13983522 (Simulation time: 0 hr 7 min 59 sec) 

Cycle: 20000000 FTQ IN: 55489474 FTQ occupancy: 17.4542 DECODE IN: 55489474 DECODE occupancy: 44.7044 ROB IN: 55489432 ROB occupancy: 267.455 ROB OUT: 55489282
Heartbeat CPU 0 instructions: 60000003 cycles: 24941264 heartbeat IPC: 0.912597 cumulative IPC: 0.912597 (Simulation time: 0 hr 9 min 15 sec) 
Cycle: 30000000 FTQ IN: 8917494 FTQ occupancy: 4.71358 DECODE IN: 8917489 DECODE occupancy: 9.31834 ROB IN: 8917531 ROB occupancy: 79.0866 ROB OUT: 8917674
Heartbeat CPU 0 instructions: 70000000 cycles: 36237687 heartbeat IPC: 0.885236 cumulative IPC: 0.898708 (Simulation time: 0 hr 10 min 33 sec) 
Cycle: 40000000 FTQ IN: 8862310 FTQ occupancy: 4.47056 DECODE IN: 8862315 DECODE occupancy: 8.79522 ROB IN: 8862315 ROB occupancy: 75.0635 ROB OUT: 8862133
Heartbeat CPU 0 instructions: 80000001 cycles: 47622020 heartbeat IPC: 0.8784 cumulative IPC: 0.891835 (Simulation time: 0 hr 11 min 55 sec) 
Cycle: 50000000 FTQ IN: 8861868 FTQ occupancy: 4.67374 DECODE IN: 8861868 DECODE occupancy: 9.15555 ROB IN: 8861868 ROB occupancy: 77.4297 ROB OUT: 8862055
Heartbeat CPU 0 instructions: 90000003 cycles: 58955188 heartbeat IPC: 0.882366 cumulative IPC: 0.889449 (Simulation time: 0 hr 13 min 12 sec) 
Cycle: 60000000 FTQ IN: 8843767 FTQ occupancy: 4.53477 DECODE IN: 8843763 DECODE occupancy: 8.90332 ROB IN: 8843763 ROB occupancy: 77.0589 ROB OUT: 8843765
Cycle: 70000000 FTQ IN: 8898987 FTQ occupancy: 4.47882 DECODE IN: 8898968 DECODE occupancy: 8.76499 ROB IN: 8898959 ROB occupancy: 74.8645 ROB OUT: 8898853
Heartbeat CPU 0 instructions: 100000003 cycles: 70122655 heartbeat IPC: 0.895458 cumulative IPC: 0.890644 (Simulation time: 0 hr 14 min 29 sec) 
Finished CPU 0 instructions: 50000003 cycles: 56139134 cumulative IPC: 0.890644 (Simulation time: 0 hr 14 min 29 sec) 

ChampSim completed all CPUs

Region of Interest Statistics

CPU 0 cumulative IPC: 0.890644 instructions: 50000003 cycles: 56139134
 Fetch stage stalled: 78.1707  Sim cycles: 56139134 fetch stall cycle: 43884365
 Empty decode stage: 67.459  Sim cycles: 56139134 fetch stall cycle: 37870905
ITLB TOTAL     ACCESS:    5659940  HIT:    5164172  MISS:     495768  HIT %:    91.2408  MISS %:    8.75924   MPKI: 9.91536
ITLB LOAD TRANSLATION INSTRUCTION	ACCESS:    5572148  HIT:    5076380  MISS:     495768  HIT %:    91.1027  MISS %:    8.89725  MPKI: 9.91536
ITLB TRANSLATION FROM L1D PREFETCHER INSTRUCTION	ACCESS:      87792  HIT:      87792  MISS:          0  HIT %:        100  MISS %:          0  MPKI: 0

ITLB AVERAGE MISS LATENCY: 9.0459 cycles
ITLB RQ	ACCESS:    7247726	FORWARD:          0	MERGED:    1145337	TO_CACHE:    6102389

DTLB TOTAL     ACCESS:    9741642  HIT:    9266649  MISS:     474993  HIT %:    95.1241  MISS %:     4.8759   MPKI: 9.49986
DTLB LOAD TRANSLATION DATA	ACCESS:    9741642  HIT:    9266649  MISS:     474993  HIT %:    95.1241  MISS %:     4.8759  MPKI: 9.49986

DTLB AVERAGE MISS LATENCY: 9.31394 cycles
DTLB RQ	ACCESS:   13922282	FORWARD:          0	MERGED:    4150003	TO_CACHE:    9772279

STLB TOTAL     ACCESS:    1217259  HIT:    1215199  MISS:       2060  HIT %:    99.8308  MISS %:   0.169233   MPKI: 0.0412
STLB LOAD TRANSLATION INSTRUCTION	ACCESS:     495768  HIT:     495517  MISS:        251  HIT %:    99.9494  MISS %:  0.0506285  MPKI: 0.00502
STLB LOAD TRANSLATION DATA	ACCESS:     474644  HIT:     472848  MISS:       1796  HIT %:    99.6216  MISS %:   0.378389  MPKI: 0.03592
STLB TRANSLATION FROM L1D PREFETCHER DATA	ACCESS:     246847  HIT:     246834  MISS:         13  HIT %:    99.9947  MISS %: 0.00526642  MPKI: 0.00026

STLB AVERAGE MISS LATENCY: 73.6932 cycles
STLB RQ	ACCESS:    1336177	FORWARD:          0	MERGED:     118885	TO_CACHE:    1217292

STLB Hit, L1D data hit: 0
STLB Hit, L2C data hit: 0
STLB Hit, LLC data hit: 0
STLB Hit, LLC data miss: 0
STLB STLB hints to L2: 0
L1D TOTAL     ACCESS:   13703172  HIT:   12582881  MISS:    1120291  HIT %:    91.8246  MISS %:    8.17541   MPKI: 22.4058
L1D LOAD DATA	ACCESS:    7092345  HIT:    6352892  MISS:     739453  HIT %:    89.5739  MISS %:    10.4261  MPKI: 14.7891
L1D RFO DATA	ACCESS:    6285551  HIT:    5998169  MISS:     287382  HIT %:    95.4279  MISS %:    4.57211  MPKI: 5.74764
L1D PREFETCH DATA	ACCESS:     325276  HIT:     231820  MISS:      93456  HIT %:    71.2687  MISS %:    28.7313  MPKI: 1.86912

L1D PREFETCH  REQUESTED:     731045  ISSUED:     731045  USEFUL:      33504  USELESS:      67418
L1D USEFUL LOAD PREFETCHES:      33504 PREFETCH ISSUED TO LOWER LEVEL:     100983  ACCURACY: 33.1779
 TIMELY PREFETCHES:      33504 LATE PREFETCHES: 7467 DROPPED PREFETCHES: 3
L1D AVERAGE MISS LATENCY: 275224 cycles
L1D RQ	ACCESS:   11096591	FORWARD:          0	MERGED:    3810584	TO_CACHE:    7121311
L1D WQ	ACCESS:    6952233	FORWARD:     164909	MERGED:     151262	TO_CACHE:    6800971
L1D PQ	ACCESS:     365629	FORWARD:          0	MERGED:          0	TO_CACHE:     365416

L1D UNIQUE REGIONS ACCESSED: 0
L1D REGIONS CONFLICTS: 0
L1D Cross Page Prefetch Requests: 5225
L1D Same Page Prefetch Requests: 743520
L1D ROI Sum of L1D PQ occupancy: 4644124
L1D PREFETCHES PUSHED FROM L2C: 0
L1I TOTAL     ACCESS:    6973948  HIT:    4202313  MISS:    2771635  HIT %:    60.2573  MISS %:    39.7427   MPKI: 55.4327
L1I LOAD INSTRUCTION	ACCESS:    6595423  HIT:    3823788  MISS:    2771635  HIT %:    57.9764  MISS %:    42.0236  MPKI: 55.4327
L1I PREFETCH INSTRUCTION	ACCESS:     378525  HIT:     378525  MISS:          0  HIT %:        100  MISS %:          0  MPKI: 0

L1I PREFETCH  REQUESTED:     736936  ISSUED:     736936  USEFUL:          0  USELESS:          0
L1I USEFUL LOAD PREFETCHES:          0 PREFETCH ISSUED TO LOWER LEVEL:          0  ACCURACY: -nan
 TIMELY PREFETCHES:          0 LATE PREFETCHES: 0 DROPPED PREFETCHES: 0
L1I AVERAGE MISS LATENCY: 17.0401 cycles
L1I RQ	ACCESS:    9448215	FORWARD:          0	MERGED:    2714191	TO_CACHE:    6734024
L1I PQ	ACCESS:     736936	FORWARD:          0	MERGED:     223234	TO_CACHE:     513702

L1BTB TOTAL     ACCESS:    5671127  HIT:    2033311  MISS:    3637816  HIT %:    35.8537  MISS %:    64.1463   MPKI: 72.7563
L1BTB BRANCH_DIRECT_JUMP	ACCESS:     548826  HIT:     144103  MISS:     404723	AVERAGE STALL: 30.7591
L1BTB BRANCH_INDIRECT	ACCESS:     182711  HIT:      65744  MISS:     116967	AVERAGE STALL: 73.7782
L1BTB BRANCH_CONDITIONAL	ACCESS:    2703664  HIT:    1407421  MISS:    1296243	AVERAGE STALL: 31.6653
L1BTB BRANCH_DIRECT_CALL	ACCESS:     946149  HIT:     105327  MISS:     840822	AVERAGE STALL: 33.0887
L1BTB BRANCH_INDIRECT_CALL	ACCESS:     171812  HIT:      21107  MISS:     150705	AVERAGE STALL: 95.7267
L1BTB BRANCH_RETURN	ACCESS:    1117965  HIT:     289609  MISS:     828356	AVERAGE STALL: 32.0798
L1BTB BRANCH_OTHER ACCESS:          0  HIT:          0  MISS:          0	AVERAGE STALL: -nan
L1BTB TOTAL ROB OCCUPANCY AT BTB MISS: 18.0118

L2BTB TOTAL     ACCESS:    3612481  HIT:    2591897  MISS:    1020584  HIT %:    71.7484  MISS %:    28.2516   MPKI: 20.4117
L2BTB BRANCH_DIRECT_JUMP	ACCESS:     400617  HIT:     285308  MISS:     115309	AVERAGE STALL: 30.7591
L2BTB BRANCH_INDIRECT	ACCESS:     106637  HIT:      93762  MISS:      12875	AVERAGE STALL: 73.7782
L2BTB BRANCH_CONDITIONAL	ACCESS:    1296243  HIT:     928264  MISS:     367979	AVERAGE STALL: 31.6653
L2BTB BRANCH_DIRECT_CALL	ACCESS:     840822  HIT:     577561  MISS:     263261	AVERAGE STALL: 33.0887
L2BTB BRANCH_INDIRECT_CALL	ACCESS:     141222  HIT:      93147  MISS:      48075	AVERAGE STALL: 95.7267
L2BTB BRANCH_RETURN	ACCESS:     826940  HIT:     613855  MISS:     213085	AVERAGE STALL: 32.0798
L2BTB BRANCH_OTHER ACCESS:          0  HIT:          0  MISS:          0	AVERAGE STALL: -nan
L2BTB TOTAL ROB OCCUPANCY AT BTB MISS: 64.202

L2C TOTAL     ACCESS:    4496565  HIT:    4051556  MISS:     445009  HIT %:    90.1034  MISS %:    9.89664   MPKI: 8.90018
L2C LOAD INSTRUCTION	ACCESS:    2771635  HIT:    2526661  MISS:     244974  HIT %:    91.1614  MISS %:    8.83861  MPKI: 4.89948
L2C LOAD TRANSLATION INSTRUCTION	ACCESS:        283  HIT:         88  MISS:        195  HIT %:    31.0954  MISS %:    68.9046  MPKI: 0.0039
L2C LOAD DATA	ACCESS:     731970  HIT:     659522  MISS:      72448  HIT %:    90.1023  MISS %:    9.89767  MPKI: 1.44896
L2C RFO DATA	ACCESS:     287307  HIT:     242663  MISS:      44644  HIT %:    84.4612  MISS %:    15.5388  MPKI: 0.89288
L2C PREFETCH DATA	ACCESS:     180307  HIT:     110809  MISS:      69498  HIT %:    61.4557  MISS %:    38.5443  MPKI: 1.38996
L2C WRITEBACK DATA	ACCESS:     523162  HIT:     511292  MISS:      11870  HIT %:    97.7311  MISS %:     2.2689  MPKI: 0.2374
L2C LOAD TRANSLATION DATA	ACCESS:       1871  HIT:        504  MISS:       1367  HIT %:    26.9375  MISS %:    73.0625  MPKI: 0.02734
L2C TRANSLATION FROM L1D PREFETCHER DATA	ACCESS:         30  HIT:         17  MISS:         13  HIT %:    56.6667  MISS %:    43.3333  MPKI: 0.00026

L2C PREFETCH  REQUESTED:      86847  ISSUED:      86847  USEFUL:       8331  USELESS:      61520
L2C USEFUL LOAD PREFETCHES:       8331 PREFETCH ISSUED TO LOWER LEVEL:      69812  ACCURACY: 11.9335
 TIMELY PREFETCHES:       8331 LATE PREFETCHES: 314 DROPPED PREFETCHES: 0
L2C AVERAGE MISS LATENCY: 39.3915 cycles
L2C RQ	ACCESS:    3793128	FORWARD:          0	MERGED:          0	TO_CACHE:    3793097
L2C WQ	ACCESS:     523162	FORWARD:         31	MERGED:          0	TO_CACHE:     523162
L2C PQ	ACCESS:     187830	FORWARD:          0	MERGED:       3889	TO_CACHE:     183941

L2C Dense regions hint from L2: 0
PSCL5 TOTAL     ACCESS:       4136  HIT:       2068  MISS:       2068  HIT %:         50  MISS %:         50   MPKI: 0.04136
PSCL5 LOAD TRANSLATION INSTRUCTION	ACCESS:       4076  HIT:       2038  MISS:       2038  HIT %:         50  MISS %:         50  MPKI: 0.04076
PSCL5 TRANSLATION FROM L1D PREFETCHER INSTRUCTION	ACCESS:         60  HIT:         30  MISS:         30  HIT %:         50  MISS %:         50  MPKI: 0.0006


PSCL4 TOTAL     ACCESS:       3943  HIT:       1966  MISS:       1977  HIT %:    49.8605  MISS %:    50.1395   MPKI: 0.03954
PSCL4 LOAD TRANSLATION INSTRUCTION	ACCESS:       2685  HIT:       1937  MISS:        748  HIT %:    72.1415  MISS %:    27.8585  MPKI: 0.01496
PSCL4 TRANSLATION FROM L1D PREFETCHER INSTRUCTION	ACCESS:         43  HIT:         29  MISS:         14  HIT %:    67.4419  MISS %:    32.5581  MPKI: 0.00028
PSCL4 LOAD TRANSLATION DATA	ACCESS:       1200  HIT:          0  MISS:       1200  HIT %:          0  MISS %:        100  MPKI: 0.024
PSCL4 TRANSLATION FROM L1D PREFETCHER DATA	ACCESS:         15  HIT:          0  MISS:         15  HIT %:          0  MISS %:        100  MPKI: 0.0003


PSCL3 TOTAL     ACCESS:       4035  HIT:       2012  MISS:       2023  HIT %:    49.8637  MISS %:    50.1363   MPKI: 0.04046
PSCL3 LOAD TRANSLATION INSTRUCTION	ACCESS:       2731  HIT:       1983  MISS:        748  HIT %:    72.6108  MISS %:    27.3892  MPKI: 0.01496
PSCL3 TRANSLATION FROM L1D PREFETCHER INSTRUCTION	ACCESS:         43  HIT:         29  MISS:         14  HIT %:    67.4419  MISS %:    32.5581  MPKI: 0.00028
PSCL3 LOAD TRANSLATION DATA	ACCESS:       1246  HIT:          0  MISS:       1246  HIT %:          0  MISS %:        100  MPKI: 0.02492
PSCL3 TRANSLATION FROM L1D PREFETCHER DATA	ACCESS:         15  HIT:          0  MISS:         15  HIT %:          0  MISS %:        100  MPKI: 0.0003


PSCL2 TOTAL     ACCESS:       4039  HIT:       1971  MISS:       2068  HIT %:    48.7992  MISS %:    51.2008   MPKI: 0.04136
PSCL2 LOAD TRANSLATION INSTRUCTION	ACCESS:       2201  HIT:       1941  MISS:        260  HIT %:    88.1872  MISS %:    11.8128  MPKI: 0.0052
PSCL2 TRANSLATION FROM L1D PREFETCHER INSTRUCTION	ACCESS:         30  HIT:         30  MISS:          0  HIT %:        100  MISS %:          0  MPKI: 0
PSCL2 LOAD TRANSLATION DATA	ACCESS:       1778  HIT:          0  MISS:       1778  HIT %:          0  MISS %:        100  MPKI: 0.03556
PSCL2 TRANSLATION FROM L1D PREFETCHER DATA	ACCESS:         30  HIT:          0  MISS:         30  HIT %:          0  MISS %:        100  MPKI: 0.0006


LLC TOTAL     ACCESS:     498973  HIT:     470111  MISS:      28862  HIT %:    94.2157  MISS %:    5.78428   MPKI: 0.57724
LLC LOAD INSTRUCTION	ACCESS:     244974  HIT:     243787  MISS:       1187  HIT %:    99.5155  MISS %:   0.484541  MPKI: 0.02374
LLC LOAD TRANSLATION INSTRUCTION	ACCESS:        195  HIT:        156  MISS:         39  HIT %:         80  MISS %:         20  MPKI: 0.00078
LLC LOAD DATA	ACCESS:      72144  HIT:      68348  MISS:       3796  HIT %:    94.7383  MISS %:     5.2617  MPKI: 0.07592
LLC RFO DATA	ACCESS:      44632  HIT:      31133  MISS:      13499  HIT %:    69.7549  MISS %:    30.2451  MPKI: 0.26998
LLC PREFETCH DATA	ACCESS:      69812  HIT:      59918  MISS:       9894  HIT %:    85.8277  MISS %:    14.1723  MPKI: 0.19788
LLC WRITEBACK DATA	ACCESS:      65836  HIT:      65480  MISS:        356  HIT %:    99.4593  MISS %:   0.540738  MPKI: 0.00712
LLC LOAD TRANSLATION DATA	ACCESS:       1367  HIT:       1276  MISS:         91  HIT %:    93.3431  MISS %:    6.65691  MPKI: 0.00182
LLC TRANSLATION FROM L1D PREFETCHER DATA	ACCESS:         13  HIT:         13  MISS:          0  HIT %:        100  MISS %:          0  MPKI: 0

LLC AVERAGE MISS LATENCY: 155.819 cycles
LLC RQ	ACCESS:     363327	FORWARD:          0	MERGED:          0	TO_CACHE:     363325
LLC WQ	ACCESS:      65836	FORWARD:          2	MERGED:          0	TO_CACHE:      65836
LLC PQ	ACCESS:      69812	FORWARD:          0	MERGED:          0	TO_CACHE:      69812

LLC Dense regions hint to LLC: 0

RAW hits: 1539041
Loads Generated: 12635631
Loads sent to L1D: 11096591
Stores Generated: 6952200
Stores sent to L1D: 6952233
Major fault: 0 Minor fault: 2578
Allocated PAGES: 2578

stream: 
stream:times selected: 1177218
stream:pref_filled: 119714
stream:pref_useful: 23685
stream:pref_late: 6775
stream:misses: 8197
stream:misses_by_poll: 0

CS: 
CS:times selected: 175287
CS:pref_filled: 59782
CS:pref_useful: 36125
CS:pref_late: 6627
CS:misses: 15508
CS:misses_by_poll: 2

CPLX: 
CPLX:times selected: 1000807
CPLX:pref_filled: 19584
CPLX:pref_useful: 4804
CPLX:pref_late: 3256
CPLX:misses: 94602
CPLX:misses_by_poll: 0

NL_L1: 
NL:times selected: 13838
NL:pref_filled: 433
NL:pref_useful: 176
NL:pref_late: 344
NL:misses: 1075
NL:misses_by_poll: 0

total selections: 2367150
total_filled: 93456
total_useful: 33504
total_late: 18327
total_polluted: 2
total_misses_after_warmup: 768420
conflicts: 5784178

test: 114899

DRAM Statistics
 CHANNEL 0
 RQ ROW_BUFFER_HIT:      10413  ROW_BUFFER_MISS:      18065
 DBUS_CONGESTED:         13
 WQ ROW_BUFFER_HIT:       1432  ROW_BUFFER_MISS:      12363  FULL:          0

 AVG_CONGESTED_CYCLE: 5

CPU 0 Branch Prediction Accuracy: 99.8094% MPKI: 0.34876 Average ROB Occupancy at Mispredict: 97.9059
Branch types
NOT_BRANCH: 40849484 81.699%
BRANCH_DIRECT_JUMP: 548826 1.09765%
BRANCH_INDIRECT: 182711 0.365422%
BRANCH_CONDITIONAL: 6182628 12.3653%
BRANCH_DIRECT_CALL: 946149 1.8923%
BRANCH_INDIRECT_CALL: 171812 0.343624%
BRANCH_RETURN: 1117965 2.23593%
BRANCH_OTHER: 0 0%

DRAM PAGES: 1048576
Allocated PAGES: 2578
Average_ROB_Occupancy: 77.8498
Average_Decode_Occupancy: 8.99925
Average_FTQ_Occupancy: 4.57599
Indirect max targets: 14 Average targets: 1.17516
Branch_type:  BRANCH_DIRECT_JUMP:  Count Percentage: 3.61336 6.01027 4.17054 7.78646 8.05939 6.00498 1.34673 63.0083 
Branch_type:  BRANCH_INDIRECT:  Count Percentage: 11.7685 3.44172 2.49436 17.3859 11.0485 2.81143 0.93696 50.1127 
Branch_type:  BRANCH_CONDITIONAL:  Count Percentage: 20.8605 10.3502 1.99622 5.99533 3.18714 4.26679 0.637426 52.7064 
Branch_type:  BRANCH_DIRECT_CALL:  Count Percentage: 0.904746 1.28408 0.731794 3.50294 3.20987 2.61248 0.725288 87.0288 
Branch_type:  BRANCH_INDIRECT_CALL:  Count Percentage: 9.57556 0 3.00237 0.000873629 0.907119 1.71843 0.997394 83.7982 
Branch_type:  BRANCH_RETURN:  Count Percentage: 4.75735 7.4572 1.02289 5.82575 5.09199 4.16785 0.753085 70.9239 
Branch_type:  BRANCH_DIRECT_JUMP:  Total Count: 39637 65930 45749 85414 88408 65872 14773 691173 
Branch_type:  BRANCH_INDIRECT:  Total Count: 43019 12581 9118 63553 40387 10277 3425 183184 
Branch_type:  BRANCH_CONDITIONAL:  Total Count: 2578301 1279255 246727 741005 393921 527362 78784 6514349 
Branch_type:  BRANCH_DIRECT_CALL:  Total Count: 17106 24278 13836 66230 60689 49394 13713 1645451 
Branch_type:  BRANCH_INDIRECT_CALL:  Total Count: 32882 0 10310 3 3115 5901 3425 287759 
Branch_type:  BRANCH_RETURN:  Total Count: 106324 166664 22861 130202 113803 93149 16831 1585107 
Number of unique branch instructions: 10547
Upper 32 bits: 
aaaa
ffff
ffff0000
Unique upper 32 bits: 3
Unique upper 36 bits: 3
Unique upper 40 bits: 5
Unique upper 44 bits: 32
Unique upper 48 bits: 157
Offset_3 4367
Offset_4 251
Offset_5 472
Offset_6 531
Offset_7 621
Offset_8 567
Offset_9 501
Offset_10 409
Offset_11 335
Offset_12 303
Offset_13 238
Offset_14 240
Offset_15 194
Offset_16 223
Offset_17 165
Offset_18 144
Offset_19 251
Offset_20 139
Offset_21 235
Offset_22 406
Offset_23 241
Offset_24 346
Offset_25 117
Offset_47 94
decode_dispatch_called: 20144560 35.8833
Dispatch_width: 0 9926093 49.2743 17.6812
Dispatch_width: 1 600203 2.97948 1.06913
Dispatch_width: 2 811752 4.02963 1.44596
Dispatch_width: 3 554927 2.75472 0.988485
Dispatch_width: 4 1488138 7.38729 2.6508
Dispatch_width: 5 421978 2.09475 0.751665
Dispatch_width: 6 6341469 31.4798 11.296
Empty_decode_cycles: 35994574 64.1167
ROB_full_cycles: 1513360 2.69573
Starvation_cycles_per_kilo_instr: 482.843
Starvation_cycles_per_kilo_instr_3: 463.742
Starvation_cycles_per_kilo_instr_0: 444.073
Branch_type_1  (3,1)  (4,7)  (5,38)  (6,72)  (7,123)  (8,147)  (9,133)  (10,109)  (11,74)  (12,47)  (13,11)  (14,2)  (15,3)  (16,4)  (18,1)  (19,5)  (20,2)  (21,1)  (22,3)  (23,2)  (24,10)  (25,12) 
Branch_type_2  (3,1)  (4,1)  (5,1)  (8,4)  (9,4)  (10,1)  (12,1)  (13,1)  (14,1)  (16,3)  (17,2)  (20,2)  (21,2)  (23,5)  (24,1)  (47,43) 
Branch_type_3  (3,4365)  (4,243)  (5,429)  (6,443)  (7,470)  (8,354)  (9,274)  (10,164)  (11,127)  (12,54)  (13,10) 
Branch_type_4  (6,3)  (7,8)  (8,24)  (9,53)  (10,64)  (11,68)  (12,111)  (13,101)  (14,108)  (15,92)  (16,97)  (17,76)  (18,61)  (19,122)  (20,71)  (21,124)  (22,213)  (23,136)  (24,202)  (25,101) 
Branch_type_5  (8,3)  (9,1)  (10,4)  (11,5)  (12,3)  (13,14)  (14,16)  (15,11)  (16,22)  (17,11)  (18,23)  (19,14)  (20,11)  (21,13)  (22,43)  (23,26)  (24,37) 
Branch_type_6  (5,4)  (6,13)  (7,20)  (8,35)  (9,36)  (10,67)  (11,61)  (12,87)  (13,101)  (14,113)  (15,88)  (16,97)  (17,76)  (18,59)  (19,110)  (20,53)  (21,95)  (22,147)  (23,72)  (24,96)  (25,4)  (47,51) 
Unique trigger count: 
BTB PER SET UNIQUE ADDR: 24 27 21 27 25 25 17 24 14 25 19 30 26 21 23 18 22 22 22 25 25 19 23 26 17 26 25 24 25 22 22 24 27 17 17 23 22 25 15 20 21 22 25 29 20 15 29 18 26 21 29 19 23 27 21 11 20 19 19 26 23 32 24 23 25 24 24 17 31 25 22 22 27 18 18 14 15 25 21 31 26 14 20 28 26 25 28 23 17 40 20 15 26 21 14 27 19 22 27 27 35 30 24 20 25 19 24 26 14 20 20 33 23 19 21 14 27 27 23 24 24 19 22 17 22 20 11 24 32 21 18 30 22 30 19 29 15 28 21 32 20 30 22 23 25 24 28 20 14 22 24 26 20 22 16 31 26 27 25 25 26 22 29 30 22 26 26 17 29 19 24 27 24 23 25 21 22 25 21 26 18 23 21 28 36 30 17 26 30 20 26 18 17 30 25 15 17 24 21 25 27 27 19 19 18 22 23 23 20 24 21 27 23 22 24 24 21 27 18 37 15 28 17 25 21 26 29 25 18 30 22 11 23 28 20 28 27 21 20 18 22 23 29 29 23 22 22 21 24 23 31 30 26 20 27 25 20 17 19 20 25 18 9 21 21 17 21 18 22 24 20 24 20 14 16 18 25 28 23 22 16 25 17 17 27 18 18 32 30 25 24 17 23 26 18 29 25 26 27 24 21 20 20 36 25 29 26 22 33 26 22 30 22 35 28 14 29 22 22 31 22 28 18 22 26 28 24 19 23 18 22 31 18 22 21 26 20 20 19 36 24 24 16 28 27 26 19 23 23 22 25 23 28 24 22 27 24 26 21 17 19 31 20 32 25 26 11 24 27 23 23 18 24 24 20 30 24 29 21 23 24 25 18 17 18 23 29 30 27 24 31 13 28 31 19 16 20 20 30 25 20 26 24 25 26 28 27 27 23 24 28 19 18 29 22 22 22 33 37 31 19 28 24 26 31 20 28 19 28 24 30 23 19 23 29 28 26 20 21 26 26 19 17 30 33 20 15 27 28 24 27 38 24 18 29 35 27 28 18 30 19 22 20 31 34 20 23 25 28 26 28 29 26 23 23 35 26 35 17 25 34 30 20 24 18 26 35 30 29 23 19 26 17 18 17 20 29 26 21 28 20 30 19 34 25 20 19 30 29 27 23 33 24 23 21 27 22 32 18 17 17 23 25 16 23 35 36 14 15 30 27 27 26 24 26 31 20 26 27 24 28 19 27 24 31 31 15 27 18 23 23 29 23 24 23 23 23 26 29 27 23 34 23 22 25 31 21 28 24 30 28 25 30 35 23 29 28 28 24 26 24 26 15 25 26 27 21 23 35 28 20 20 28 17 24 19 15 24 26 20 22 22 23 15 23 26 34 24 20 21 35 28 21 18 10 31 16 28 23 24 30 27 19 18 19 33 21 29 20 25 21 30 30 23 26 23 26 29 21 27 22 27 27 35 26 26 22 25 35 19 17 25 20 19 30 24 23 24 27 24 23 13 27 30 22 26 18 23 18 20 26 22 20 26 32 22 25 28 28 31 22 30 23 30 28 23 23 25 26 27 22 26 23 16 14 21 17 25 20 26 17 25 27 34 13 27 24 18 18 17 21 23 18 22 19 21 32 24 19 28 25 23 22 22 20 22 26 23 19 21 25 21 24 20 23 25 24 31 36 21 21 21 21 25 32 29 23 23 23 19 24 21 25 24 20 22 32 23 20 20 25 16 14 24 26 28 18 24 23 27 24 29 23 18 25 18 29 22 24 29 15 25 22 20 25 21 20 28 21 14 16 14 29 27 22 31 22 19 29 23 36 24 34 30 35 21 24 23 25 21 22 36 29 29 19 28 36 32 13 28 26 32 18 27 28 22 19 25 25 28 22 30 27 22 18 28 25 24 25 24 26 23 22 25 25 28 22 36 21 26 24 20 18 19 31 30 33 28 26 27 26 25 19 26 29 17 25 16 31 19 21 29 27 22 23 13 22 22 19 24 30 16 21 30 25 25 31 22 24 22 25 17 22 21 23 28 32 22 17 18 22 21 21 25 14 28 22 26 21 31 19 24 23 24 26 28 35 21 24 27 25 26 19 25 20 19 13 29 19 17 28 33 28 20 23 33 20 22 27 27 18 31 23 23 22 25 23 29 23 26 23 24 20 24 21 26 27 24 28 24 25 26 21 32 30 23 28 24 20 27 23 28 29 20 28 22 37 31 30 35 18 30 26 25 24 33 37 18 29 25 27 26 26 25 23 20 20 26 30 23 30 29 20 21 29 28 18 34 21 27 28 26 27 17 19 22 14 19 10 15 23 31 22 15 
BTB PER SET COUNT: 2188 2365 2856 2171 2657 2156 1751 1769 1634 2135 1277 2471 11600 1767 1893 1184 2282 2199 1697 2195 1853 1701 2223 2328 1132 2076 2087 2059 2258 1911 1910 2455 2043 839 1299 1898 1998 2330 1093 2460 1528 1639 2374 2374 1877 720 2146 1492 2157 1752 2319 1360 1960 2258 1770 853 1557 1566 1382 2140 1783 3048 2043 1996 2438 2120 1632 1490 2149 1869 2422 2104 2565 1402 1229 915 892 2186 1543 2655 2462 1040 2042 2576 2073 1890 2319 2234 1779 3852 1482 1417 2278 1930 835 2181 1504 1612 2209 3647 3642 2724 2179 1759 3757 1370 1690 2261 1515 2998 1957 2860 2302 1626 1840 1129 2172 2437 2381 1974 2374 1460 1780 1085 1799 1607 728 2714 3416 1821 1440 3304 1522 2564 1707 2224 1446 2258 1573 2764 1669 2236 1802 1848 1886 1823 2604 1406 1090 1759 1821 2127 1666 1673 940 2993 2523 2319 2109 2470 2141 1796 2687 2340 1686 2148 1912 1535 2226 1655 1525 2374 1943 1831 2102 1947 1794 1714 1798 2389 1533 1990 1844 2254 2818 3124 1041 2006 2466 2446 1837 1347 1093 2643 2157 1347 1343 1895 1674 1626 2044 2039 1840 1508 1054 1954 1800 1838 2010 2488 1441 2143 1355 3601 1908 2318 1773 2307 1661 3386 1043 2161 1370 1698 1613 2184 2750 2301 1435 3346 1620 582 1739 2259 1406 6511 2375 1592 2138 1111 1968 2035 2918 2760 1838 2073 1376 1861 2029 1689 1852 2184 2031 1580 2106 2545 1574 1392 1334 1670 2185 1523 354 1782 2101 788 1811 1510 2420 1870 1586 1865 1115 915 1417 1257 2068 2446 1928 2080 982 2261 1499 1629 2144 1557 1347 2841 2945 2377 1982 1148 1867 2530 1168 2798 2328 2046 1757 2160 1602 1447 1939 2977 2039 2870 1967 1743 2978 2404 2492 2198 1352 3145 3020 1344 2584 1834 1768 2886 1590 2866 1162 1624 2656 2481 2210 1318 1646 1080 1757 2722 1253 1388 1945 1681 1313 1726 1125 3594 2052 3083 1161 2095 2398 1993 1390 1775 1918 2052 2324 1898 2405 1834 1772 2525 2099 2671 1486 1306 1353 2775 1475 2770 1903 2971 680 1685 1843 1488 2054 1200 2215 2213 1177 2814 1845 2464 1725 2480 2310 2177 1616 987 1145 1733 2967 2400 2092 2208 2158 988 2280 2520 1333 1241 1428 1419 2778 2169 1642 2186 2184 1542 2162 2229 2149 2223 1359 2177 2093 1396 1400 2604 1647 1849 1796 4293 3326 2644 1391 2203 2399 1984 2326 1765 2658 1412 1673 1915 2748 2077 1387 1629 2739 2367 1825 1659 1740 1887 2776 1472 1373 2823 2935 1812 1386 1949 2398 1868 2452 3842 1869 1706 2584 3254 1948 2676 1359 2194 1318 1906 1445 2446 2747 1742 6594 1879 2574 2140 2142 2085 1909 1861 2054 2919 1986 3096 1311 1915 2697 2344 1622 2273 1429 1963 3422 2604 2571 1775 1733 2344 4542 1159 1046 1813 2655 2788 1607 2251 1476 2896 1451 3370 1510 1264 1255 2976 2564 1966 1829 3226 2716 2396 1636 2622 1434 2824 1216 1259 933 2052 2193 1197 1885 2938 3361 2111 1116 4257 3061 2016 2059 1887 2534 2448 2268 2597 2056 1952 2361 1706 2313 2000 2410 2815 997 2163 1182 2451 1841 2841 2087 2127 1437 1413 1885 2041 2506 2313 1369 2935 1633 2012 2350 2591 1809 2188 1787 2619 2687 2148 3073 2983 2085 2579 2673 2691 1741 1905 2279 2199 1092 3186 2201 2325 1884 2036 3040 2727 2012 1789 2346 1038 1845 1314 1748 2330 1996 1485 1387 1914 1793 1017 2097 2122 2769 2375 1417 1628 2963 2563 2218 1264 737 2614 1100 2366 2209 2344 2967 1880 1060 1490 1550 2804 1554 2786 2039 1980 1617 3135 3021 1708 1794 1735 2289 2568 1687 2307 2147 2096 2483 2703 3030 2309 1431 2431 3624 1155 1070 2232 1174 1796 3211 1976 1552 1718 2430 1905 2023 688 2381 2770 7338 2556 1414 1993 2192 1813 1680 1741 1405 2242 3030 2079 2025 2611 2341 2963 1926 2589 1944 2390 2725 2035 1791 1989 2182 2425 1622 2596 2169 903 1485 1699 1715 2478 1659 1932 1426 2302 2604 3010 826 2276 1873 1423 1143 1138 1957 2139 1161 1807 1710 1624 3295 2080 1551 2667 2206 2363 1589 1896 1763 1639 1718 2332 1835 2163 2179 5882 1735 1833 1913 1991 2307 3160 3789 1629 1862 1456 1913 2335 3035 2639 2154 1788 2039 1700 2543 1531 2632 2034 1324 1889 2603 2181 1699 1155 2202 1065 732 1771 2753 2855 1248 2053 1171 2154 1805 2439 1830 1392 2166 1378 2332 2015 1497 2684 1643 2228 1947 1728 1952 1811 1485 2247 1546 1037 1291 1522 2148 2270 1796 2825 1771 1371 1723 2147 3313 1912 2572 2554 2837 1508 1885 1951 1775 1481 1379 5180 2763 2394 1771 2967 2793 3162 1089 2885 1746 2810 1170 2364 2725 1916 1470 2060 2233 2679 2117 2962 2229 2090 1150 2934 1958 1960 2373 1854 2342 2015 2017 1968 2182 2206 1665 3308 1479 5496 2522 1870 1482 1637 2814 2691 2973 2491 2443 2042 2559 1976 1762 2012 2807 1198 2028 1001 2804 1444 1716 2806 2241 1613 2018 880 1691 2002 2524 1931 2132 851 1563 2893 2211 2263 2463 1974 1889 1897 2234 1209 3132 2813 1506 2633 2906 1709 1595 1535 2139 1686 1792 2363 794 2303 1662 2668 1830 2753 1814 1963 2052 2405 2455 2366 3671 2101 2046 2053 1978 2161 1436 2346 1405 1474 697 2640 1222 1225 2302 2720 3182 1470 1874 3362 1957 1678 2383 2283 1266 3202 2134 1526 2011 2067 1830 2377 2066 2241 2122 2274 1921 3591 1630 2145 2333 1739 2113 2200 2057 2124 1633 2663 2476 1478 2772 2244 1453 2188 1992 2864 2503 1670 2671 1516 3328 2326 2711 3170 1825 2286 2471 2159 1484 3201 4025 1384 2385 2074 2247 2693 1814 1890 2251 1864 1354 3039 2327 2247 2566 3110 1610 1846 2299 2196 1494 3028 1675 2454 2548 2467 2269 1285 1381 1795 938 1793 557 1205 1445 2877 2066 1088 
