
*** ChampSim Multicore Out-of-Order Simulator ***

Warmup Instructions: 50000000
Simulation Instructions: 50000000
Number of CPUs: 1
LLC sets: 2048
LLC ways: 16
Off-chip DRAM Size: 4096 MB Channels: 1 Width: 64-bit Data Rate: 6400 MT/s
CPU 0 runs ./micro_traces/srv274.trace.gz
.gz
ITLB has LRU replacement policy
DTLB has LRU replacement policy
STLB has LRU replacement policy
FDIP Prefetcher at L1I
L1I has LRU replacement policy
L1D has LRU replacement policy
Initialize SRRIP state for L2C
Initialize DRRIP state for LLC
Heartbeat CPU 0 instructions: 10000001 cycles: 2796994 heartbeat IPC: 3.57527 cumulative IPC: 3.57527 (Simulation time: 0 hr 2 min 34 sec) 
Heartbeat CPU 0 instructions: 20000000 cycles: 5592835 heartbeat IPC: 3.57674 cumulative IPC: 3.576 (Simulation time: 0 hr 4 min 33 sec) 
Heartbeat CPU 0 instructions: 30000002 cycles: 8389930 heartbeat IPC: 3.57514 cumulative IPC: 3.57572 (Simulation time: 0 hr 6 min 45 sec) 
Heartbeat CPU 0 instructions: 40000002 cycles: 11186638 heartbeat IPC: 3.57563 cumulative IPC: 3.57569 (Simulation time: 0 hr 8 min 47 sec) 
Heartbeat CPU 0 instructions: 50000000 cycles: 13983708 heartbeat IPC: 3.57517 cumulative IPC: 3.57559 (Simulation time: 0 hr 10 min 57 sec) 

Warmup complete CPU 0 instructions: 50000004 cycles: 13983709 (Simulation time: 0 hr 10 min 57 sec) 

Cycle: 20000000 FTQ IN: 56368017 FTQ occupancy: 17.8668 DECODE IN: 56367928 DECODE occupancy: 45.6863 ROB IN: 56367928 ROB occupancy: 275.597 ROB OUT: 56367928
Heartbeat CPU 0 instructions: 60000003 cycles: 23438494 heartbeat IPC: 1.05767 cumulative IPC: 1.05767 (Simulation time: 0 hr 12 min 41 sec) 
Cycle: 30000000 FTQ IN: 10424979 FTQ occupancy: 6.19692 DECODE IN: 10425035 DECODE occupancy: 12.7917 ROB IN: 10424986 ROB occupancy: 105.979 ROB OUT: 10424826
Heartbeat CPU 0 instructions: 70000000 cycles: 33020389 heartbeat IPC: 1.04363 cumulative IPC: 1.0506 (Simulation time: 0 hr 14 min 36 sec) 
Cycle: 40000000 FTQ IN: 10534817 FTQ occupancy: 6.1235 DECODE IN: 10534813 DECODE occupancy: 12.741 ROB IN: 10534858 ROB occupancy: 105.289 ROB OUT: 10534857
Heartbeat CPU 0 instructions: 80000000 cycles: 42571234 heartbeat IPC: 1.04703 cumulative IPC: 1.04941 (Simulation time: 0 hr 16 min 24 sec) 
Cycle: 50000000 FTQ IN: 10270027 FTQ occupancy: 6.19304 DECODE IN: 10270005 DECODE occupancy: 12.7027 ROB IN: 10270009 ROB occupancy: 105.647 ROB OUT: 10270061
Heartbeat CPU 0 instructions: 90000003 cycles: 52259893 heartbeat IPC: 1.03213 cumulative IPC: 1.04504 (Simulation time: 0 hr 18 min 10 sec) 
Cycle: 60000000 FTQ IN: 10603405 FTQ occupancy: 6.08999 DECODE IN: 10603380 DECODE occupancy: 12.6559 ROB IN: 10603380 ROB occupancy: 106.711 ROB OUT: 10603483
Heartbeat CPU 0 instructions: 100000003 cycles: 61685586 heartbeat IPC: 1.06093 cumulative IPC: 1.04818 (Simulation time: 0 hr 19 min 58 sec) 
Finished CPU 0 instructions: 50000003 cycles: 47701878 cumulative IPC: 1.04818 (Simulation time: 0 hr 19 min 58 sec) 

ChampSim completed all CPUs

Region of Interest Statistics

CPU 0 cumulative IPC: 1.04818 instructions: 50000003 cycles: 47701878
 Fetch stage stalled: 73.069  Sim cycles: 47701878 fetch stall cycle: 34855302
 Empty decode stage: 61.6296  Sim cycles: 47701878 fetch stall cycle: 29398467
ITLB TOTAL     ACCESS:    5533332  HIT:    5038014  MISS:     495318  HIT %:    91.0485  MISS %:    8.95153   MPKI: 9.90636
ITLB LOAD TRANSLATION INSTRUCTION	ACCESS:    5427883  HIT:    4932565  MISS:     495318  HIT %:    90.8746  MISS %:    9.12544  MPKI: 9.90636
ITLB TRANSLATION FROM L1D PREFETCHER INSTRUCTION	ACCESS:     105449  HIT:     105449  MISS:          0  HIT %:        100  MISS %:          0  MPKI: 0

ITLB AVERAGE MISS LATENCY: 9.04889 cycles
ITLB RQ	ACCESS:    7213485	FORWARD:          0	MERGED:    1169737	TO_CACHE:    6043748

DTLB TOTAL     ACCESS:    9449007  HIT:    8975282  MISS:     473725  HIT %:    94.9865  MISS %:    5.01349   MPKI: 9.4745
DTLB LOAD TRANSLATION DATA	ACCESS:    9449007  HIT:    8975282  MISS:     473725  HIT %:    94.9865  MISS %:    5.01349  MPKI: 9.4745

DTLB AVERAGE MISS LATENCY: 9.33086 cycles
DTLB RQ	ACCESS:   13712298	FORWARD:          0	MERGED:    4231328	TO_CACHE:    9480970

STLB TOTAL     ACCESS:    1216649  HIT:    1214587  MISS:       2062  HIT %:    99.8305  MISS %:   0.169482   MPKI: 0.04124
STLB LOAD TRANSLATION INSTRUCTION	ACCESS:     495318  HIT:     495067  MISS:        251  HIT %:    99.9493  MISS %:  0.0506745  MPKI: 0.00502
STLB LOAD TRANSLATION DATA	ACCESS:     473689  HIT:     471896  MISS:       1793  HIT %:    99.6215  MISS %:   0.378518  MPKI: 0.03586
STLB TRANSLATION FROM L1D PREFETCHER DATA	ACCESS:     247642  HIT:     247624  MISS:         18  HIT %:    99.9927  MISS %: 0.00726856  MPKI: 0.00036

STLB AVERAGE MISS LATENCY: 75.8269 cycles
STLB RQ	ACCESS:    1338260	FORWARD:          0	MERGED:     121575	TO_CACHE:    1216685

STLB Hit, L1D data hit: 0
STLB Hit, L2C data hit: 0
STLB Hit, LLC data hit: 0
STLB Hit, LLC data miss: 0
STLB STLB hints to L2: 0
L1D TOTAL     ACCESS:   13487749  HIT:   12366303  MISS:    1121446  HIT %:    91.6854  MISS %:    8.31455   MPKI: 22.4289
L1D LOAD DATA	ACCESS:    6895516  HIT:    6154928  MISS:     740588  HIT %:    89.2599  MISS %:    10.7401  MPKI: 14.8118
L1D RFO DATA	ACCESS:    6262925  HIT:    5977107  MISS:     285818  HIT %:    95.4363  MISS %:    4.56365  MPKI: 5.71636
L1D PREFETCH DATA	ACCESS:     329308  HIT:     234268  MISS:      95040  HIT %:    71.1395  MISS %:    28.8605  MPKI: 1.9008

L1D PREFETCH  REQUESTED:     738792  ISSUED:     738792  USEFUL:      34395  USELESS:      68589
L1D USEFUL LOAD PREFETCHES:      34395 PREFETCH ISSUED TO LOWER LEVEL:     103063  ACCURACY: 33.3728
 TIMELY PREFETCHES:      34395 LATE PREFETCHES: 7940 DROPPED PREFETCHES: 3
L1D AVERAGE MISS LATENCY: 265008 cycles
L1D RQ	ACCESS:   10941798	FORWARD:          0	MERGED:    3853272	TO_CACHE:    6926193
L1D WQ	ACCESS:    6952233	FORWARD:     162691	MERGED:     166128	TO_CACHE:    6786105
L1D PQ	ACCESS:     369575	FORWARD:          0	MERGED:          0	TO_CACHE:     369217

L1D UNIQUE REGIONS ACCESSED: 0
L1D REGIONS CONFLICTS: 0
L1D Cross Page Prefetch Requests: 5207
L1D Same Page Prefetch Requests: 747088
L1D ROI Sum of L1D PQ occupancy: 4698413
L1D PREFETCHES PUSHED FROM L2C: 0
L1I TOTAL     ACCESS:    6858886  HIT:    4086985  MISS:    2771901  HIT %:    59.5867  MISS %:    40.4133   MPKI: 55.438
L1I LOAD INSTRUCTION	ACCESS:    6431226  HIT:    3659325  MISS:    2771901  HIT %:    56.8993  MISS %:    43.1007  MPKI: 55.438
L1I PREFETCH INSTRUCTION	ACCESS:     427660  HIT:     427660  MISS:          0  HIT %:        100  MISS %:          0  MPKI: 0

L1I PREFETCH  REQUESTED:     865529  ISSUED:     865529  USEFUL:          0  USELESS:          0
L1I USEFUL LOAD PREFETCHES:          0 PREFETCH ISSUED TO LOWER LEVEL:          0  ACCURACY: -nan
 TIMELY PREFETCHES:          0 LATE PREFETCHES: 0 DROPPED PREFETCHES: 0
L1I AVERAGE MISS LATENCY: 17.1439 cycles
L1I RQ	ACCESS:    9462730	FORWARD:          0	MERGED:    2854508	TO_CACHE:    6608222
L1I PQ	ACCESS:     865529	FORWARD:          0	MERGED:     260266	TO_CACHE:     605263

L1BTB TOTAL     ACCESS:    5671140  HIT:    2033292  MISS:    3637848  HIT %:    35.8533  MISS %:    64.1467   MPKI: 72.757
L1BTB BRANCH_DIRECT_JUMP	ACCESS:     548827 HIT:     144099 MISS:     404728 AVERAGE STALL: 33.2525 AVERAGE FETCH STALL: 19.1843 AVERAGE FETCH QUEUE STALL: 5.92668 AVERAGE DECODE STALL: 7.29618 AVERAGE EXECUTE STALL: 2.00108e+14
L1BTB BRANCH_INDIRECT	ACCESS:     182711 HIT:      65741 MISS:     116970 AVERAGE STALL: 87.6577 AVERAGE FETCH STALL: 15.1856 AVERAGE FETCH QUEUE STALL: 6.17057 AVERAGE DECODE STALL: 6.58827 AVERAGE EXECUTE STALL: 58.7744
L1BTB BRANCH_CONDITIONAL	ACCESS:    2703666 HIT:    1407414 MISS:    1296252 AVERAGE STALL: 34.2313 AVERAGE FETCH STALL: 20.8865 AVERAGE FETCH QUEUE STALL: 6.33391 AVERAGE DECODE STALL: 6.2624 AVERAGE EXECUTE STALL: 7.40485e+13
L1BTB BRANCH_DIRECT_CALL	ACCESS:     946153 HIT:     105327 MISS:     840826 AVERAGE STALL: 36.2681 AVERAGE FETCH STALL: 20.9886 AVERAGE FETCH QUEUE STALL: 7.20911 AVERAGE DECODE STALL: 7.31325 AVERAGE EXECUTE STALL: 9.77476e+13
L1BTB BRANCH_INDIRECT_CALL	ACCESS:     171812 HIT:      21104 MISS:     150708 AVERAGE STALL: 108.355 AVERAGE FETCH STALL: 18.1457 AVERAGE FETCH QUEUE STALL: 6.2415 AVERAGE DECODE STALL: 6.88462 AVERAGE EXECUTE STALL: 76.5359
L1BTB BRANCH_RETURN	ACCESS:    1117971 HIT:     289607 MISS:     828364 AVERAGE STALL: 34.4722 AVERAGE FETCH STALL: 18.7117 AVERAGE FETCH QUEUE STALL: 5.5895 AVERAGE DECODE STALL: 6.0917 AVERAGE EXECUTE STALL: 1.12726e+14
L1BTB BRANCH_OTHER ACCESS:          0 HIT:          0 MISS:          0 AVERAGE STALL: -nan AVERAGE FETCH STALL: -nan AVERAGE FETCH QUEUE STALL: -nan AVERAGE DECODE STALL: -nan AVERAGE EXECUTE STALL: -nan
L1BTB TOTAL ROB OCCUPANCY AT BTB MISS: 18.4261

L2BTB TOTAL     ACCESS:    3612501  HIT:    2880478  MISS:     732023  HIT %:    79.7364  MISS %:    20.2636   MPKI: 14.6405
L2BTB BRANCH_DIRECT_JUMP	ACCESS:     400616 HIT:     312493 MISS:      88123 AVERAGE STALL: 33.2525 AVERAGE FETCH STALL: 19.1843 AVERAGE FETCH QUEUE STALL: 5.92668 AVERAGE DECODE STALL: 7.29618 AVERAGE EXECUTE STALL: 2.00108e+14
L2BTB BRANCH_INDIRECT	ACCESS:     106637 HIT:      97171 MISS:       9466 AVERAGE STALL: 87.6577 AVERAGE FETCH STALL: 15.1856 AVERAGE FETCH QUEUE STALL: 6.17057 AVERAGE DECODE STALL: 6.58827 AVERAGE EXECUTE STALL: 58.7744
L2BTB BRANCH_CONDITIONAL	ACCESS:    1296252 HIT:    1045898 MISS:     250354 AVERAGE STALL: 34.2313 AVERAGE FETCH STALL: 20.8865 AVERAGE FETCH QUEUE STALL: 6.33391 AVERAGE DECODE STALL: 6.2624 AVERAGE EXECUTE STALL: 7.40485e+13
L2BTB BRANCH_DIRECT_CALL	ACCESS:     840826 HIT:     652002 MISS:     188824 AVERAGE STALL: 36.2681 AVERAGE FETCH STALL: 20.9886 AVERAGE FETCH QUEUE STALL: 7.20911 AVERAGE DECODE STALL: 7.31325 AVERAGE EXECUTE STALL: 9.77476e+13
L2BTB BRANCH_INDIRECT_CALL	ACCESS:     141222 HIT:     108249 MISS:      32973 AVERAGE STALL: 108.355 AVERAGE FETCH STALL: 18.1457 AVERAGE FETCH QUEUE STALL: 6.2415 AVERAGE DECODE STALL: 6.88462 AVERAGE EXECUTE STALL: 76.5359
L2BTB BRANCH_RETURN	ACCESS:     826948 HIT:     664665 MISS:     162283 AVERAGE STALL: 34.4722 AVERAGE FETCH STALL: 18.7117 AVERAGE FETCH QUEUE STALL: 5.5895 AVERAGE DECODE STALL: 6.0917 AVERAGE EXECUTE STALL: 1.12726e+14
L2BTB BRANCH_OTHER ACCESS:          0 HIT:          0 MISS:          0 AVERAGE STALL: -nan AVERAGE FETCH STALL: -nan AVERAGE FETCH QUEUE STALL: -nan AVERAGE DECODE STALL: -nan AVERAGE EXECUTE STALL: -nan
L2BTB TOTAL ROB OCCUPANCY AT BTB MISS: 91.5698

L2C TOTAL     ACCESS:    4500040  HIT:    4052081  MISS:     447959  HIT %:    90.0454  MISS %:    9.95456   MPKI: 8.95918
L2C LOAD INSTRUCTION	ACCESS:    2771901  HIT:    2524399  MISS:     247502  HIT %:     91.071  MISS %:    8.92896  MPKI: 4.95004
L2C LOAD TRANSLATION INSTRUCTION	ACCESS:        283  HIT:         86  MISS:        197  HIT %:    30.3887  MISS %:    69.6113  MPKI: 0.00394
L2C LOAD DATA	ACCESS:     732642  HIT:     659888  MISS:      72754  HIT %:    90.0696  MISS %:    9.93036  MPKI: 1.45508
L2C RFO DATA	ACCESS:     285720  HIT:     241637  MISS:      44083  HIT %:    84.5713  MISS %:    15.4287  MPKI: 0.88166
L2C PREFETCH DATA	ACCESS:     184399  HIT:     114618  MISS:      69781  HIT %:    62.1576  MISS %:    37.8424  MPKI: 1.39562
L2C WRITEBACK DATA	ACCESS:     523195  HIT:     510957  MISS:      12238  HIT %:    97.6609  MISS %:    2.33909  MPKI: 0.24476
L2C LOAD TRANSLATION DATA	ACCESS:       1868  HIT:        477  MISS:       1391  HIT %:    25.5353  MISS %:    74.4647  MPKI: 0.02782
L2C TRANSLATION FROM L1D PREFETCHER DATA	ACCESS:         32  HIT:         19  MISS:         13  HIT %:     59.375  MISS %:     40.625  MPKI: 0.00026

L2C PREFETCH  REQUESTED:      88728  ISSUED:      88728  USEFUL:       7725  USELESS:      62608
L2C USEFUL LOAD PREFETCHES:       7725 PREFETCH ISSUED TO LOWER LEVEL:      70270  ACCURACY: 10.9933
 TIMELY PREFETCHES:       7725 LATE PREFETCHES: 489 DROPPED PREFETCHES: 0
L2C AVERAGE MISS LATENCY: 39.2886 cycles
L2C RQ	ACCESS:    3792469	FORWARD:          0	MERGED:          0	TO_CACHE:    3792448
L2C WQ	ACCESS:     523195	FORWARD:         22	MERGED:          0	TO_CACHE:     523195
L2C PQ	ACCESS:     191791	FORWARD:          0	MERGED:       3604	TO_CACHE:     188186

L2C Dense regions hint from L2: 0
PSCL5 TOTAL     ACCESS:       4134  HIT:       2067  MISS:       2067  HIT %:         50  MISS %:         50   MPKI: 0.04134
PSCL5 LOAD TRANSLATION INSTRUCTION	ACCESS:       4070  HIT:       2035  MISS:       2035  HIT %:         50  MISS %:         50  MPKI: 0.0407
PSCL5 TRANSLATION FROM L1D PREFETCHER INSTRUCTION	ACCESS:         64  HIT:         32  MISS:         32  HIT %:         50  MISS %:         50  MPKI: 0.00064


PSCL4 TOTAL     ACCESS:       3939  HIT:       1964  MISS:       1975  HIT %:    49.8604  MISS %:    50.1396   MPKI: 0.0395
PSCL4 LOAD TRANSLATION INSTRUCTION	ACCESS:       2681  HIT:       1933  MISS:        748  HIT %:       72.1  MISS %:       27.9  MPKI: 0.01496
PSCL4 TRANSLATION FROM L1D PREFETCHER INSTRUCTION	ACCESS:         43  HIT:         31  MISS:         12  HIT %:     72.093  MISS %:     27.907  MPKI: 0.00024
PSCL4 LOAD TRANSLATION DATA	ACCESS:       1196  HIT:          0  MISS:       1196  HIT %:          0  MISS %:        100  MPKI: 0.02392
PSCL4 TRANSLATION FROM L1D PREFETCHER DATA	ACCESS:         19  HIT:          0  MISS:         19  HIT %:          0  MISS %:        100  MPKI: 0.00038


PSCL3 TOTAL     ACCESS:       4031  HIT:       2010  MISS:       2021  HIT %:    49.8636  MISS %:    50.1364   MPKI: 0.04042
PSCL3 LOAD TRANSLATION INSTRUCTION	ACCESS:       2727  HIT:       1979  MISS:        748  HIT %:    72.5706  MISS %:    27.4294  MPKI: 0.01496
PSCL3 TRANSLATION FROM L1D PREFETCHER INSTRUCTION	ACCESS:         43  HIT:         31  MISS:         12  HIT %:     72.093  MISS %:     27.907  MPKI: 0.00024
PSCL3 LOAD TRANSLATION DATA	ACCESS:       1242  HIT:          0  MISS:       1242  HIT %:          0  MISS %:        100  MPKI: 0.02484
PSCL3 TRANSLATION FROM L1D PREFETCHER DATA	ACCESS:         19  HIT:          0  MISS:         19  HIT %:          0  MISS %:        100  MPKI: 0.00038


PSCL2 TOTAL     ACCESS:       4037  HIT:       1970  MISS:       2067  HIT %:    48.7986  MISS %:    51.2014   MPKI: 0.04134
PSCL2 LOAD TRANSLATION INSTRUCTION	ACCESS:       2198  HIT:       1938  MISS:        260  HIT %:    88.1711  MISS %:    11.8289  MPKI: 0.0052
PSCL2 TRANSLATION FROM L1D PREFETCHER INSTRUCTION	ACCESS:         32  HIT:         32  MISS:          0  HIT %:        100  MISS %:          0  MPKI: 0
PSCL2 LOAD TRANSLATION DATA	ACCESS:       1775  HIT:          0  MISS:       1775  HIT %:          0  MISS %:        100  MPKI: 0.0355
PSCL2 TRANSLATION FROM L1D PREFETCHER DATA	ACCESS:         32  HIT:          0  MISS:         32  HIT %:          0  MISS %:        100  MPKI: 0.00064


LLC TOTAL     ACCESS:     500244  HIT:     471479  MISS:      28765  HIT %:    94.2498  MISS %:    5.75019   MPKI: 0.5753
LLC LOAD INSTRUCTION	ACCESS:     247502  HIT:     246231  MISS:       1271  HIT %:    99.4865  MISS %:   0.513531  MPKI: 0.02542
LLC LOAD TRANSLATION INSTRUCTION	ACCESS:        197  HIT:        161  MISS:         36  HIT %:    81.7259  MISS %:    18.2741  MPKI: 0.00072
LLC LOAD DATA	ACCESS:      72279  HIT:      68578  MISS:       3701  HIT %:    94.8796  MISS %:    5.12044  MPKI: 0.07402
LLC RFO DATA	ACCESS:      44063  HIT:      30557  MISS:      13506  HIT %:    69.3484  MISS %:    30.6516  MPKI: 0.27012
LLC PREFETCH DATA	ACCESS:      70270  HIT:      60465  MISS:       9805  HIT %:    86.0467  MISS %:    13.9533  MPKI: 0.1961
LLC WRITEBACK DATA	ACCESS:      64529  HIT:      64184  MISS:        345  HIT %:    99.4654  MISS %:   0.534643  MPKI: 0.0069
LLC LOAD TRANSLATION DATA	ACCESS:       1391  HIT:       1290  MISS:        101  HIT %:     92.739  MISS %:    7.26096  MPKI: 0.00202
LLC TRANSLATION FROM L1D PREFETCHER DATA	ACCESS:         13  HIT:         13  MISS:          0  HIT %:        100  MISS %:          0  MPKI: 0

LLC AVERAGE MISS LATENCY: 156.214 cycles
LLC RQ	ACCESS:     365451	FORWARD:          0	MERGED:          0	TO_CACHE:     365445
LLC WQ	ACCESS:      64529	FORWARD:          6	MERGED:          0	TO_CACHE:      64529
LLC PQ	ACCESS:      70270	FORWARD:          0	MERGED:          0	TO_CACHE:      70270

LLC Dense regions hint to LLC: 0

RAW hits: 1693834
Loads Generated: 12635631
Loads sent to L1D: 10941798
Stores Generated: 6952200
Stores sent to L1D: 6952233
Major fault: 0 Minor fault: 2578
Allocated PAGES: 2578

stream: 
stream:times selected: 1178971
stream:pref_filled: 120782
stream:pref_useful: 24149
stream:pref_late: 6860
stream:misses: 8161
stream:misses_by_poll: 0

CS: 
CS:times selected: 178721
CS:pref_filled: 60326
CS:pref_useful: 36214
CS:pref_late: 6851
CS:misses: 15643
CS:misses_by_poll: 1

CPLX: 
CPLX:times selected: 999034
CPLX:pref_filled: 20098
CPLX:pref_useful: 4888
CPLX:pref_late: 3256
CPLX:misses: 94485
CPLX:misses_by_poll: 0

NL_L1: 
NL:times selected: 13837
NL:pref_filled: 508
NL:pref_useful: 202
NL:pref_late: 329
NL:misses: 1110
NL:misses_by_poll: 0

total selections: 2370563
total_filled: 95040
total_useful: 34395
total_late: 18645
total_polluted: 1
total_misses_after_warmup: 771266
conflicts: 5691397

test: 116239

DRAM Statistics
 CHANNEL 0
 RQ ROW_BUFFER_HIT:      10436  ROW_BUFFER_MISS:      17979
 DBUS_CONGESTED:         14
 WQ ROW_BUFFER_HIT:       1450  ROW_BUFFER_MISS:      12203  FULL:          0

 AVG_CONGESTED_CYCLE: 6

CPU 0 Branch Prediction Accuracy: 99.8094% MPKI: 0.34876 Average ROB Occupancy at Mispredict: 99.4271
Branch types
NOT_BRANCH: 40849554 81.6991%
BRANCH_DIRECT_JUMP: 548827 1.09765%
BRANCH_INDIRECT: 182711 0.365422%
BRANCH_CONDITIONAL: 6182638 12.3653%
BRANCH_DIRECT_CALL: 946153 1.89231%
BRANCH_INDIRECT_CALL: 171812 0.343624%
BRANCH_RETURN: 1117971 2.23594%
BRANCH_OTHER: 0 0%

DRAM PAGES: 1048576
Allocated PAGES: 2578
Average_ROB_Occupancy: 107.021
Average_Decode_Occupancy: 12.6661
Average_FTQ_Occupancy: 6.12056
Indirect max targets: 14 Average targets: 1.17516
Branch_type:  BRANCH_DIRECT_JUMP:  Count Percentage: 3.61336 6.01026 4.17054 7.78645 8.05939 6.00498 1.34673 63.0083 
Branch_type:  BRANCH_INDIRECT:  Count Percentage: 11.7685 3.44172 2.49436 17.3859 11.0485 2.81143 0.93696 50.1127 
Branch_type:  BRANCH_CONDITIONAL:  Count Percentage: 20.8605 10.3502 1.99622 5.99532 3.18714 4.26678 0.736651 52.6072 
Branch_type:  BRANCH_DIRECT_CALL:  Count Percentage: 0.904744 1.28407 0.731792 3.50293 3.20987 2.61247 0.725287 87.0288 
Branch_type:  BRANCH_INDIRECT_CALL:  Count Percentage: 9.57556 0 3.00237 0.000873629 0.907119 1.71843 0.997394 83.7982 
Branch_type:  BRANCH_RETURN:  Count Percentage: 4.75734 7.45718 1.02289 5.82573 5.09198 4.16784 1.30182 70.3752 
Branch_type:  BRANCH_DIRECT_JUMP:  Total Count: 39637 65930 45749 85414 88408 65872 14773 691174 
Branch_type:  BRANCH_INDIRECT:  Total Count: 43019 12581 9118 63553 40387 10277 3425 183184 
Branch_type:  BRANCH_CONDITIONAL:  Total Count: 2578301 1279255 246727 741005 393921 527362 91048 6502095 
Branch_type:  BRANCH_DIRECT_CALL:  Total Count: 17106 24278 13836 66230 60689 49394 13713 1645455 
Branch_type:  BRANCH_INDIRECT_CALL:  Total Count: 32882 0 10310 3 3115 5901 3425 287759 
Branch_type:  BRANCH_RETURN:  Total Count: 106324 166664 22861 130202 113803 93149 29095 1572849 
Number of unique branch instructions: 10547
Upper 32 bits: 
aaaa
ffff
ffff0000
Unique upper 32 bits: 3
Unique upper 36 bits: 3
Unique upper 40 bits: 5
Unique upper 44 bits: 32
Unique upper 48 bits: 157
Offset_3 4367
Offset_4 251
Offset_5 472
Offset_6 531
Offset_7 621
Offset_8 567
Offset_9 501
Offset_10 409
Offset_11 335
Offset_12 303
Offset_13 238
Offset_14 240
Offset_15 194
Offset_16 223
Offset_17 165
Offset_18 144
Offset_19 251
Offset_20 139
Offset_21 235
Offset_22 406
Offset_23 241
Offset_24 346
Offset_25 117
Offset_47 94
decode_dispatch_called: 19380002 40.6273
Dispatch_width: 0 9320673 48.0943 19.5394
Dispatch_width: 1 531308 2.74153 1.11381
Dispatch_width: 2 697486 3.599 1.46218
Dispatch_width: 3 462986 2.38899 0.970582
Dispatch_width: 4 1588310 8.19561 3.32966
Dispatch_width: 5 344092 1.7755 0.721338
Dispatch_width: 6 6435147 33.2051 13.4903
Empty_decode_cycles: 28321876 59.3727
ROB_full_cycles: 2009285 4.21217
Starvation_cycles_per_kilo_instr: 392.574
Starvation_cycles_per_kilo_instr_3: 373.25
Starvation_cycles_per_kilo_instr_0: 356.333
Branch_type_1  (3,1)  (4,7)  (5,38)  (6,72)  (7,123)  (8,147)  (9,133)  (10,109)  (11,74)  (12,47)  (13,11)  (14,2)  (15,3)  (16,4)  (18,1)  (19,5)  (20,2)  (21,1)  (22,3)  (23,2)  (24,10)  (25,12) 
Branch_type_2  (3,1)  (4,1)  (5,1)  (8,4)  (9,4)  (10,1)  (12,1)  (13,1)  (14,1)  (16,3)  (17,2)  (20,2)  (21,2)  (23,5)  (24,1)  (47,43) 
Branch_type_3  (3,4365)  (4,243)  (5,429)  (6,443)  (7,470)  (8,354)  (9,274)  (10,164)  (11,127)  (12,54)  (13,10) 
Branch_type_4  (6,3)  (7,8)  (8,24)  (9,53)  (10,64)  (11,68)  (12,111)  (13,101)  (14,108)  (15,92)  (16,97)  (17,76)  (18,61)  (19,122)  (20,71)  (21,124)  (22,213)  (23,136)  (24,202)  (25,101) 
Branch_type_5  (8,3)  (9,1)  (10,4)  (11,5)  (12,3)  (13,14)  (14,16)  (15,11)  (16,22)  (17,11)  (18,23)  (19,14)  (20,11)  (21,13)  (22,43)  (23,26)  (24,37) 
Branch_type_6  (5,4)  (6,13)  (7,20)  (8,35)  (9,36)  (10,67)  (11,61)  (12,87)  (13,101)  (14,113)  (15,88)  (16,97)  (17,76)  (18,59)  (19,110)  (20,53)  (21,95)  (22,147)  (23,72)  (24,96)  (25,4)  (47,51) 
aaaaab1fc620: 2ac9e77e 2aca717c 2aca8eff 2acaf6bc 2acaf9aa 2acaf9f1 2acb1abc 2acb1b7f 2acd4e22 2acdb712 2acf5f9e 2ad0ef44 2ad3f15c 2ad414e6 2ad60e42 2ad8609c 2ad99830 2ada35cc 2ada4676 2ada6612 2adf183e 2adf30e5 2adf5602 2adf785c 2ae11572 2aeb2dcf 2aee101b 2aee1ae1 2aee9456 2b156a8c 2b156b61 2b156bea 2b167f35 2b177656 2b17feec 2b1a3e5a 
aaaaab1fc640: 2ac9ec07 2aca656e 2aca801d 2acaea11 2acaee73 2acb13ee 2acb1470 2acd462b 2ad0ef5d 2ad3f3fe 2ad86e9b 2ada1641 2ada4115 2ada6638 2adf30d4 2ae12e57 2aee1033 2b1693ab 2b16948c 2b169491 2b17d915 2b17fa85 2b17fccd 
aaaaab1fc740: 2aca1fb0 2aca45b3 2aca5aa1 2aca5c69 2aca66f9 2aca9426 2acaeecb 2acf3d2d 2acf3d64 2acf6089 2ad017ea 2ad5e7ef 2ad61064 2ad87373 2ad9bf84 2ad9c093 2ae9b606 2aea9ffa 2aee99f5 2aee9a2c 2aeece4b 
aaaaab1fcb00: 2acf2d72 2acf3734 2acf604c 2acfa5b7 2ad397b5 2ad3b800 2ae8af7d 2ae8aff0 2ae9aaba 2aea9fc6 2aeaa358 2aee910b 2aee91cf 2aee928e 2aee92e4 2aee99de 2af6fe87 2af70dfe 2b16850c 2b16c4a2 2b1765f4 2b178094 2b17d925 2b17db06 2b17ec8f 
aaaaab1fcb10: 2acf2d95 2acf3758 2acf6052 2acfa5f4 2ad397c3 2ad3b81c 2ae8af88 2ae8affe 2ae9aacf 2aeaa017 2aeaa36d 2aee9114 2aee91d8 2aee934d 2aee9353 2aee9a14 2af6fe8c 2af70e22 2b168526 2b16c542 2b176609 2b1780a3 2b17d95d 2b17db44 2b17ecac 
aaaaac68f310: 2ac9ec8c 2ac9fb44 2ac9fbd2 2aca59ab 2acac04c 2acaf6e0 2acaf6ec 2acaf6f9 2acaf700 2acaf708 2acf2d90 2ad3cfbd 2ad3cfc4 2ad3d000 2ad3f35f 2ad4955d 2ad49571 2ad4f3f2 2ad4f400 2ad5f240 2ad5f37c 2ad5f86a 2ad5f86f 2ad5f880 2ad5fc0d 2ad5fc14 2ad5fc21 2ad5fe1b 2ad873bb 2ad873e3 2ad8a6b2 2ad9086e 2ad93096 2ad9bbb2 2ada152c 2ada1554 2ada3332 2ada5522 2adf3130 2adf313c 2adf3a3f 2adf3bd9 2adf5788 2adf7a8d 2ae07f6b 2ae0857a 2ae0857e 2ae08630 2ae08634 2ae08637 2ae08642 2ae0866f 2ae086e4 2ae086ec 2ae08717 2ae0871b 2aee0170 2aee1d38 2aee75f4 2aee7662 2aee85ca 2aee85e4 2aee8eef 2aee9a0a 2af70b84 2af74e8f 2b17d843 
aaaaac690ef0: 2aca598b 2acb111b 2acb175f 2acb1772 2acbfaf4 2acbfb00 2acf374f 2acf6d43 2acfa5c8 2ad3baf1 2ad3d4ac 2ad3d4b8 2ad3f1cf 2ad486b2 2ad5a59b 2ad5fc64 2ad5fcf9 2ad6121c 2ad906e9 2ad907bf 2ad9bada 2ada16ce 2ada1ad5 2ada43df 2ada64c0 2ada72ee 2adeb71a 2adf3bcb 2adf7a38 2adf7c6a 2adf8872 2adf8880 2adf9959 2adf9abe 2ae07f78 2ae08503 2ae08754 2ae12e80 2aea3bea 2aecb509 2aee00b0 2aee2bdd 2aee5467 2aee5601 2aee8f20 2af703fd 2af7048b 2af74e74 2dfba627 
Unique trigger count: 
1 10051
2 537
3 86
4 30
5 16
6 9
7 8
8 2
9 2
10 2
11 1
12 1
13 2
14 2
16 2
19 1
21 1
23 1
25 2
36 1
49 1
67 1
BTB PER SET UNIQUE ADDR: 1 2 2 2 0 0 1 1 3 0 2 0 1 1 0 1 2 1 1 2 0 1 1 2 1 2 1 2 1 1 2 2 2 0 3 0 0 3 4 0 1 2 3 3 1 1 2 1 4 1 1 1 2 0 0 2 3 3 1 1 1 2 2 2 0 4 4 0 2 2 5 1 1 2 1 1 2 6 1 1 1 1 1 4 3 1 1 4 3 2 3 4 2 3 2 0 1 3 0 1 3 2 2 3 2 2 1 1 3 0 1 2 3 2 1 3 1 2 1 0 3 2 2 0 1 1 1 1 3 2 3 0 1 1 2 1 0 0 1 2 2 3 3 0 2 1 2 3 3 2 1 6 1 2 2 1 0 3 1 1 0 0 0 1 4 3 0 1 5 2 2 2 2 1 1 0 1 1 3 1 1 3 6 2 3 2 3 0 1 1 4 1 1 2 1 1 1 1 0 1 2 1 1 0 0 0 1 1 1 0 0 2 2 1 2 1 0 2 1 0 0 1 1 3 2 0 2 2 0 3 5 3 1 2 1 3 3 0 1 2 1 0 2 2 6 3 1 1 3 1 1 1 1 1 0 5 2 2 2 2 3 3 2 2 2 4 3 0 2 1 2 2 1 2 2 2 1 0 3 2 2 2 1 1 2 3 2 1 1 1 0 0 1 2 0 1 3 2 0 1 2 2 1 1 2 2 3 2 3 3 2 1 2 2 3 0 2 2 1 2 1 1 2 2 0 3 1 4 0 0 3 0 2 2 3 1 2 2 4 0 2 0 0 1 2 3 1 1 1 3 1 3 3 2 2 2 1 0 3 0 0 2 1 2 4 2 1 0 0 0 3 1 2 0 1 2 2 2 2 3 0 0 1 3 0 0 2 1 2 1 1 2 2 2 2 0 3 0 0 2 3 1 4 1 1 0 2 3 0 1 0 1 2 2 1 0 4 1 1 2 1 1 3 2 2 4 0 0 1 3 1 0 5 2 3 3 2 1 1 0 0 4 3 3 2 1 1 3 1 1 3 0 0 1 3 0 1 3 2 2 3 0 3 2 0 0 2 0 1 3 0 1 1 1 2 1 0 1 1 0 0 1 1 2 0 2 2 0 3 1 3 1 1 2 0 3 1 1 3 0 3 0 0 1 0 2 1 0 0 2 3 2 4 4 2 0 1 3 1 5 1 1 3 1 3 3 1 4 3 2 5 1 2 2 1 4 0 0 3 0 0 4 3 1 5 1 6 3 4 4 2 3 2 3 0 1 1 0 2 2 7 0 1 2 1 0 0 1 3 4 3 0 1 4 1 0 0 2 0 0 1 1 1 0 1 0 0 4 2 2 3 3 0 2 1 2 3 0 2 2 1 0 1 3 1 1 1 1 3 0 2 2 3 1 2 1 2 0 2 1 3 1 5 0 2 2 2 2 1 0 3 1 0 2 2 4 0 1 1 2 5 1 3 3 0 0 2 1 2 1 1 1 3 1 1 0 4 0 1 3 3 2 3 3 2 1 1 1 0 0 4 2 1 0 4 2 0 1 3 2 1 0 2 2 2 1 1 2 2 1 0 3 1 1 1 3 3 3 2 3 0 2 0 2 1 1 0 1 0 0 1 2 0 1 2 0 1 1 0 2 1 0 1 1 0 1 1 1 0 3 3 2 1 0 1 1 6 1 1 0 1 2 1 2 1 0 3 1 2 2 0 0 1 2 0 1 2 3 1 0 1 1 0 2 0 1 3 1 0 0 2 2 0 0 1 2 3 1 1 1 2 1 0 0 3 3 3 4 0 0 1 3 0 0 2 3 3 1 1 0 2 2 1 2 1 1 1 4 0 2 0 2 1 0 2 1 1 0 0 3 3 0 1 0 2 1 1 1 1 4 1 1 2 1 3 0 1 0 3 2 0 1 0 2 0 1 3 2 3 0 2 1 3 1 3 2 0 0 1 0 0 0 0 1 4 1 1 0 2 0 1 1 1 2 1 0 2 2 3 1 2 1 1 0 0 0 1 2 0 0 2 0 1 2 1 1 4 0 1 1 1 0 0 1 1 3 0 1 0 4 3 3 0 0 1 2 0 1 1 2 4 1 3 1 2 0 3 0 2 1 3 1 4 2 2 1 1 1 0 1 1 1 0 3 2 2 1 2 1 1 1 0 4 1 1 1 4 2 2 1 2 1 2 2 2 4 8 2 2 2 1 1 0 2 3 1 3 4 1 2 3 2 1 3 1 1 1 3 2 1 3 1 1 2 2 1 2 2 1 4 0 1 2 1 2 3 3 2 0 1 2 0 3 0 1 2 3 3 1 3 3 1 7 4 0 2 2 1 1 1 3 4 2 1 3 0 0 1 1 0 2 0 1 3 0 2 4 1 3 3 0 1 3 2 1 3 2 1 1 1 0 1 0 0 2 0 1 2 3 2 1 4 3 2 0 1 7 0 1 1 1 1 2 2 1 5 2 3 2 3 2 4 2 2 1 0 4 1 1 2 1 6 1 0 3 1 1 1 2 1 1 2 3 3 2 2 2 1 1 4 4 2 1 1 1 1 3 2 1 4 2 2 2 1 2 4 0 1 3 1 0 2 1 0 1 3 1 2 1 2 1 3 2 0 1 1 3 2 1 0 2 0 0 3 2 1 2 2 1 4 0 1 5 0 3 3 1 2 2 4 2 4 0 6 4 0 2 1 2 0 0 1 3 0 1 1 2 4 1 0 0 3 3 2 1 1 0 0 1 4 1 4 2 2 0 2 0 1 2 4 5 1 5 0 0 1 1 1 4 0 2 3 2 1 1 1 0 4 1 3 0 1 1 5 3 1 2 2 0 2 3 3 2 4 2 2 0 0 3 3 4 1 2 2 0 1 3 2 3 1 1 1 1 2 5 3 4 0 0 2 1 1 3 2 3 0 0 1 2 3 1 0 3 1 1 1 1 1 5 0 1 1 0 4 3 0 2 1 3 2 1 1 2 1 2 2 0 3 2 0 0 3 1 1 2 2 1 1 0 2 1 1 1 2 0 3 3 2 1 2 0 0 2 0 2 2 0 2 1 1 2 2 1 0 3 0 1 1 2 2 1 1 1 1 1 4 1 3 2 1 2 0 1 1 1 4 1 2 1 1 1 2 0 1 4 2 3 1 4 2 1 1 1 2 3 1 1 1 4 0 5 2 2 3 1 0 3 3 1 1 1 3 0 2 2 1 1 1 2 1 0 1 1 4 2 1 2 1 0 2 2 0 1 2 1 1 1 0 0 2 0 0 1 1 0 2 1 3 4 1 1 0 1 1 1 0 1 0 0 3 1 0 1 0 0 1 1 0 0 0 1 0 0 0 0 0 1 0 2 0 2 0 1 0 1 0 0 4 1 0 1 1 3 1 1 0 2 2 1 0 3 0 1 1 1 1 1 0 2 0 3 1 0 1 3 0 0 1 0 2 1 2 1 1 2 2 2 2 0 1 1 0 0 0 3 0 1 1 0 0 0 1 0 1 1 0 1 3 2 1 2 1 2 2 1 1 1 0 1 1 2 0 0 1 2 1 3 1 0 1 1 3 3 0 0 1 2 1 0 0 3 1 3 0 2 1 3 2 1 3 4 2 5 0 1 0 3 2 1 5 3 3 2 3 4 0 0 2 2 1 1 1 1 1 2 0 2 1 0 1 3 0 1 1 3 1 2 3 3 1 0 1 3 0 2 3 2 1 2 1 3 3 1 1 1 2 2 1 1 4 2 1 1 1 1 3 3 1 1 0 1 0 2 1 2 3 0 0 1 1 0 2 3 1 0 2 2 0 1 2 1 1 1 2 1 0 0 3 2 1 0 0 0 2 1 0 2 1 3 2 2 1 4 1 2 6 3 2 3 2 0 3 2 1 1 1 0 0 0 2 3 1 2 0 0 3 3 1 2 2 0 0 1 2 2 2 2 1 2 2 1 1 0 2 0 1 2 1 0 0 0 1 0 1 2 0 3 0 3 1 1 0 2 1 1 3 0 3 0 1 0 1 1 1 4 0 1 1 0 1 2 1 0 1 0 0 1 1 1 1 2 2 3 0 3 0 0 1 2 1 1 6 1 0 2 2 3 2 1 2 5 1 3 3 0 2 1 3 2 5 4 0 2 1 5 0 4 0 3 2 2 2 1 1 1 0 1 2 0 2 0 1 2 3 2 1 4 2 2 2 3 0 1 0 3 1 3 2 2 2 2 1 0 2 3 2 0 0 1 2 0 0 0 1 0 1 1 3 0 2 2 2 3 2 2 1 2 2 2 1 1 2 2 1 0 2 2 1 2 0 0 1 0 0 0 0 0 1 1 1 2 1 1 2 0 0 0 1 1 1 1 0 2 1 2 2 2 0 1 1 1 1 1 2 1 2 1 0 1 0 2 1 0 1 2 1 3 2 2 2 0 2 0 1 0 0 2 2 0 4 2 4 0 2 2 6 1 0 0 1 4 2 3 1 1 1 3 1 0 0 2 4 1 6 2 0 3 0 1 1 1 1 2 1 0 2 0 1 2 2 1 0 0 3 4 1 0 0 2 3 1 0 3 3 1 0 3 3 0 1 1 4 0 0 0 2 1 0 4 0 1 0 2 2 3 0 2 1 2 1 2 1 0 2 4 2 3 0 2 2 1 1 1 1 2 1 1 0 0 0 4 2 1 2 1 1 2 3 3 3 1 1 3 3 0 2 2 1 4 4 2 3 2 2 1 3 1 2 3 2 1 3 5 3 2 3 2 2 2 1 1 1 0 1 1 0 2 2 0 2 0 1 1 0 1 4 1 3 0 0 0 2 1 2 1 0 0 3 1 1 0 0 0 2 1 1 0 1 3 1 1 2 0 0 2 1 2 2 1 2 1 0 1 0 0 1 0 2 1 0 0 4 1 3 1 2 3 1 2 2 0 0 0 1 1 1 4 2 3 2 3 1 4 3 2 2 2 1 3 1 1 2 1 4 1 2 2 3 2 3 2 3 2 0 4 1 2 2 5 6 5 3 2 2 2 1 4 1 1 1 3 2 0 2 3 3 3 0 2 1 1 2 4 4 1 1 1 2 1 2 2 2 3 3 2 2 3 4 1 1 3 2 3 3 1 4 2 1 2 2 3 3 2 1 3 3 3 0 1 2 1 1 1 2 2 1 0 1 3 1 2 2 3 1 2 2 1 1 0 0 4 2 5 5 0 2 1 3 1 1 0 3 2 2 1 3 2 1 1 1 2 0 1 3 0 2 2 1 1 0 1 1 2 0 0 1 0 1 2 1 5 1 3 2 1 2 0 0 0 3 0 3 2 0 2 1 2 1 1 1 1 1 1 0 1 0 5 2 2 0 1 0 2 2 4 4 1 2 3 5 1 2 2 0 1 3 1 2 2 0 0 3 2 0 1 1 2 0 1 0 1 4 3 0 0 2 3 2 3 4 3 1 3 1 1 0 2 1 2 3 1 2 3 3 0 1 2 1 0 1 0 4 3 2 1 2 1 1 5 3 0 2 3 2 3 1 4 0 4 2 2 0 1 1 2 0 1 1 1 1 1 1 1 4 2 0 1 0 1 2 4 2 1 3 2 2 0 1 0 0 1 2 2 2 2 0 1 2 1 2 4 1 2 2 1 2 3 0 3 0 2 1 3 5 1 1 2 1 1 3 1 2 2 1 0 1 5 1 0 3 1 4 1 3 3 2 2 0 0 3 4 1 0 0 4 4 1 1 2 0 1 0 0 2 1 0 3 0 2 1 2 2 0 3 2 2 0 1 2 1 1 0 1 0 1 2 2 1 0 0 1 4 0 1 1 2 3 1 3 4 1 2 3 3 0 3 3 2 0 2 2 4 2 0 2 1 1 1 2 1 3 2 1 1 2 0 3 5 2 3 1 3 1 2 2 1 2 2 1 3 4 1 1 1 4 2 0 3 0 2 2 3 1 2 3 2 1 5 4 1 1 0 0 0 0 5 3 1 3 5 2 0 2 1 3 2 2 0 5 2 5 4 1 3 2 3 0 2 3 1 0 1 0 2 0 0 1 0 1 2 3 2 0 2 1 3 1 3 2 3 3 1 3 1 3 4 2 1 3 0 1 1 1 0 2 3 1 3 2 1 2 1 2 0 1 3 1 0 3 0 2 1 4 2 4 2 2 3 1 3 3 3 1 4 3 2 0 1 2 2 3 0 3 2 4 1 2 2 1 2 1 2 2 0 3 1 3 2 0 4 0 1 2 2 3 0 3 1 2 1 3 0 0 1 7 1 0 1 1 0 0 0 1 2 0 3 2 1 3 2 1 1 2 3 2 2 1 2 1 1 1 2 1 2 1 1 1 0 0 2 0 2 2 1 1 3 3 1 2 2 1 3 4 3 5 1 2 2 1 1 0 3 2 1 2 1 0 2 2 3 0 3 5 3 0 0 0 3 1 1 2 1 2 3 4 1 1 2 3 1 3 1 3 2 2 1 2 1 1 1 3 0 3 2 0 2 0 1 2 2 3 2 0 1 2 1 3 0 2 0 1 1 2 2 1 2 2 1 2 1 3 2 2 3 4 3 2 2 4 2 2 3 2 2 3 2 3 4 2 6 2 0 4 2 2 4 3 3 0 2 2 4 3 0 0 1 2 3 1 5 3 5 6 3 1 1 3 4 3 2 2 2 1 0 2 4 1 0 4 2 1 3 4 2 4 4 3 1 2 1 1 3 0 3 0 1 5 0 2 4 2 2 2 1 0 2 3 7 2 3 5 5 4 3 5 3 2 5 3 1 1 1 2 4 4 3 3 3 5 1 1 3 1 3 2 4 2 1 1 1 2 3 0 2 1 3 4 1 2 2 0 3 3 0 4 1 0 1 4 3 2 1 1 0 1 1 2 1 2 3 1 5 2 4 2 3 2 1 3 2 2 1 0 2 1 1 3 2 3 3 1 3 5 0 2 0 1 2 2 1 3 1 3 1 1 1 1 2 1 3 4 1 0 2 3 1 2 1 1 2 3 1 2 2 1 4 1 3 0 2 0 2 3 1 0 0 1 1 3 0 0 1 2 1 1 1 0 2 0 4 2 1 2 0 3 1 1 3 0 1 4 3 2 2 0 2 2 2 1 1 1 0 0 1 1 0 3 2 2 2 3 1 3 3 5 1 1 3 4 1 2 4 2 2 4 0 3 1 3 2 2 1 3 2 3 4 2 2 4 4 2 2 2 1 1 1 0 4 1 1 1 1 2 2 1 1 4 0 1 2 2 2 4 0 4 1 2 2 1 1 3 2 1 3 1 2 1 2 2 2 2 3 1 2 2 3 0 4 1 1 3 2 2 2 4 0 3 2 1 1 1 4 2 0 1 0 2 1 2 0 1 2 2 1 3 4 1 1 1 1 2 3 0 3 3 2 0 2 2 0 3 0 1 3 3 1 1 1 1 0 2 0 0 1 4 1 2 1 1 3 2 1 2 0 2 1 3 4 6 1 1 3 3 3 1 1 0 2 2 2 0 0 3 2 1 2 2 2 0 3 1 1 1 5 1 3 3 4 0 1 3 1 1 1 3 1 4 5 1 3 0 2 3 4 1 4 1 6 4 1 1 1 1 2 2 2 1 2 2 3 5 2 3 2 3 2 3 2 1 4 3 3 1 1 2 1 3 1 1 1 4 2 2 0 2 0 0 1 3 7 2 2 1 2 2 2 2 2 2 1 1 1 1 2 3 1 3 1 3 3 1 0 1 2 0 1 0 3 0 4 5 0 0 1 3 1 2 2 4 0 3 3 1 3 1 3 0 1 2 2 1 1 2 1 3 0 0 0 3 1 1 3 3 4 2 4 2 1 2 0 2 1 2 0 3 1 2 1 0 4 0 1 1 2 1 3 3 0 3 3 3 0 3 0 5 3 0 1 3 1 0 3 1 3 2 0 2 2 1 2 1 2 1 2 6 2 3 2 2 3 2 3 2 1 4 0 2 3 3 3 2 1 2 0 2 0 2 2 2 3 1 3 1 1 2 1 3 2 5 0 0 2 1 2 3 3 1 2 3 0 0 1 2 0 0 2 1 3 2 2 1 0 4 2 1 3 1 4 0 2 1 2 4 0 1 0 1 2 2 1 2 3 1 2 2 2 1 3 0 4 2 2 2 0 3 0 3 2 3 2 1 2 0 2 1 2 1 1 3 0 2 2 1 2 1 0 3 2 1 6 4 2 3 1 2 0 1 3 3 1 0 0 1 1 1 0 2 2 2 3 3 0 3 1 5 2 3 0 0 5 0 1 4 3 0 4 2 2 2 4 2 2 0 1 0 4 2 1 0 3 1 2 3 2 3 1 3 0 1 4 2 3 1 2 3 2 4 1 2 2 1 5 3 1 1 0 2 2 3 2 1 2 2 0 1 3 1 2 2 2 1 0 1 4 0 2 1 2 3 1 2 2 4 0 3 1 1 0 4 1 3 3 5 1 1 4 0 3 2 3 4 5 1 3 0 3 3 0 3 2 1 2 3 3 1 2 0 3 1 2 1 2 1 2 0 2 2 2 1 2 0 4 3 2 1 1 2 7 0 3 1 2 2 2 1 3 1 4 2 3 1 3 3 2 2 2 3 0 2 4 0 6 0 6 3 1 1 2 1 0 2 1 2 2 3 3 2 2 2 1 2 4 2 1 2 2 0 2 0 3 5 2 2 3 4 1 2 1 4 2 1 1 2 3 0 1 2 0 0 2 1 0 2 0 1 1 1 1 1 2 0 3 1 3 3 3 0 1 1 3 1 1 2 1 0 1 0 1 2 2 2 3 1 1 1 3 0 1 0 2 2 3 0 1 1 0 1 1 0 1 1 2 1 1 1 0 3 1 0 2 1 0 0 1 3 2 2 1 2 1 1 1 2 4 0 2 1 4 2 1 0 0 3 0 0 1 2 3 2 2 3 5 3 1 1 2 1 2 0 2 2 0 0 1 2 1 3 1 3 1 1 1 4 1 1 2 2 1 1 7 1 1 5 4 2 2 2 1 2 4 2 1 4 1 3 1 1 4 3 3 2 3 1 1 1 1 3 5 3 1 0 3 1 0 0 1 0 0 2 2 1 1 2 1 4 0 2 1 0 0 2 1 2 1 5 2 2 2 1 3 1 1 1 4 4 0 0 2 0 3 2 1 0 0 3 3 4 2 0 0 3 1 2 0 1 1 1 3 1 1 2 2 2 3 2 1 1 5 1 2 2 1 2 0 1 2 2 1 2 3 1 1 1 1 3 2 3 2 2 1 1 1 2 2 1 0 
BTB PER SET COUNT: 1 2 2 2 0 0 2 1 2499 0 2 0 1 1 0 1 2 1 1 2 0 1 1 2 1 2 1 3 1473 1 2 2 2 0 5 0 0 1533 3265 0 1 2 8 516 1 1 2 1 3939 2 1 1 2 0 0 2 1536 4419 1 1 1 2 2 3 0 1907 1923 0 2 2 5410 1 1 2 1 1 482 2742 1 1 2 1 3 1697 762 1 1 29 4419 2 694 522 2 2979 3 0 1 15 0 1 14 2 2 962 3 2 1 1 1443 0 1 2 962 2 1 770 1 2 1 0 4 2 2 0 1 1 1 1 5 2 1442 0 1 1 2 1 0 0 1 2 2 7 5 0 3 4 4 2979 1442 2 1 5273 1 2 11 1 0 4 1 1 0 0 0 1 10 5 0 1 4928 2 2 2 2 1 1 0 1 1 1005 1 1 4 7366 2 4 2 5 0 1 1 4435 1 1 2 1 7 1 1 0 1 2 1 1 0 0 0 1 1 1 0 0 4 2 1 2 1 0 3 1 0 0 1 1 5 2 0 2 34 0 5 2343 4 1 2 1 5 5 0 1 2 2 0 2 2 5413 6 1 1 4 1 1 1 1 1 0 3460 3 2 3 2 1077 1440 2 2 4 3938 963 0 2 1 2 2 1 2 2 2 1 0 2979 2 3 2 1 1 2 1921 2 1 1 1 0 0 1 3 0 1 17 2 0 1 2 2 1 1 2 2 32 2 1441 962 2 1 2 2 962 0 2 2 1 3 1 1 2 2 0 5 1 17 0 0 1442 0 2 2 2863 1 962 2 972 0 2 0 0 961 962 5 1 1 1 8 1 7 4 3 2 3 1 0 2947 0 0 2 1 2 1272 2 1 0 0 0 5 1 2 0 1 2 2 2 2 17 0 0 1 1534 0 0 2 1 2 1 1 2 2 2 2 0 2979 0 0 2 1441 1 7 1 1 0 1474 5 0 993 0 1 2 2 1 0 19 1 1 88 1 1 5 2 2 15 0 0 1 1441 1 0 1923 2 757 1442 2 1 2 0 0 970 1442 4 2 1 1 5 1 1 1441 0 0 1 1442 0 1 4 2 2 13 0 1441 2 0 0 2 0 1 34 0 1 1 480 2 1 0 1 1 0 0 1 1 481 0 2 2 0 4 1 4 1 2 2 0 4 1 1 5 0 962 0 0 1 0 2 1 0 0 2 1440 2 6 6 5 0 1 4419 1 1455 1 1 962 1 14 4 1 7 2982 2 4345 1 2 3 1 5412 0 0 12 0 0 1922 2947 1 3431 1 1004 14 2990 4899 2 1442 4 1442 0 1 3 0 2 2 7846 0 1 2 1 0 0 1 5 1468 4419 0 1 3939 1 0 0 2 0 0 1 1 1 0 1 0 0 970 3 2 5 7 0 2 993 2 5 0 2 2 1 0 1 1533 1 1 1 1 6 0 2 2 4 1 2 1 1026 0 2 1 15 1 1445 0 2 2 2 2 1 0 3459 1 0 4 2 5 0 1 1 2 1923 1 2979 5 0 0 4 1 2 2 3 1 1442 1 1 0 2984 0 1 1440 7778 4 12 962 2 2 1 961 0 0 1699 2 1 0 1921 962 0 1 23 2 1 0 2 962 2 1 1 1474 2 1 0 964 1 1 1 1441 1441 1441 3 5 0 2 0 2 1 961 0 1 0 0 1 2 0 1 962 0 1473 1 0 3 1 0 1 1 0 1 1 1 0 32 5 2 993 0 1 1 4901 1 1 0 1 2 1 2 1 0 5 1 2 962 0 0 1 3 0 1 2 1441 1 0 1 1 0 2 0 1 1442 1 0 0 2 2 0 0 1 2 2500 3 1 1 2 1 0 0 1089 2980 12 15 0 0 2 1105 0 0 3 17 1089 1 1 0 2 2 1 2 1 1 3 978 0 4 0 2 1 0 3 1 3 0 0 407 14 0 1 0 2 1 1 1 1 1920 1 1 2 1 1442 0 1 0 1442 2 0 1 0 2 0 1 962 2 4 0 3 1 1441 1 5 2 0 0 1 0 0 0 0 1 2239 1 1 0 2 0 1 1 1 2 1 0 3 3 4419 1 2 1 1 0 0 0 1 2 0 0 4 0 1 2 1 2 1137 0 1 1 1 0 0 1 1 2979 0 1 0 3748 33 962 0 0 1 2 0 1 1 2 33 1 1987 1 2 0 967 0 2 1 14 1 1698 513 3 1 51 2 0 1 1 1 0 1954 4 2 1 2 1 1 1 0 3066 1 1 1 2291 4 2 1 2 481 2 2 3 661 5758 2 2 2 1 1 0 375 4 1 2979 2938 1 2 1442 3 1 524 1 4 1 5 2 1 962 1 1 2 2 1 2 2 1 1449 0 1 2 1 2 15 1443 2 0 3 1923 0 3488 0 1 3 16 7 1 15 974 4 6406 22 0 2 3 1 1 1 14 1922 2 1 1441 0 0 1 1 0 2 0 1 962 0 2 16 2 2499 17 0 1 727 2 1 386 2 2 1 4 0 1 0 0 4 0 1 2 1442 4 1 1921 961 2 0 2 8363 0 1 1 1 1 3 3 1 4933 2 17 2 4418 2 22 2 2 1 0 22 1 1 2 1 4425 1 0 241 1 1 1 483 1 1 2 1442 12 2 2 2 1 2 17 2718 3 1 1 2 1 14 2 1 5410 2 2 2 1 2 12 0 1 12 1 0 2 1 0 1 6 1 3 1 2 1 17 2 0 1 1 1023 3 1 0 2 0 0 4419 3 1 2 2 1 18 0 1 3940 0 1442 7 1 2 2 3446 2 4417 0 5896 4932 0 2 1 2 0 0 1 3458 0 1 1 3 1228 1 0 0 483 2959 2 1 1 0 0 1 4419 1 2956 2 3 0 2 0 1 2 1450 5421 1 1451 0 0 1 1 1 23 0 2 968 2 1 1 1 0 2990 1 962 0 1 1 6372 17 1 2 2 0 2 1442 3434 4 4420 2 2 0 0 13 2979 1922 1 2 2 0 1 2979 2 14 1 1 1 1 2 7878 962 4931 0 0 2 1 1 4 2 962 0 0 1 2 1484 1 0 17 1 1 1 1 1 1927 0 1 1 0 1445 4 0 2 1 4419 2 1 1 2 2 2 2 0 2979 2 0 0 1442 1 1 2 2 1 1 0 2 1 1 1 2 0 5 1187 2 1 2 0 0 6 0 2 2 0 2 1 1 3 2 2 0 5 0 1 2 2 2 3 1 1 1 1 2463 1 278 2 1 3 0 1 1 1 4420 1 2 1 1 1 3 0 1 1443 2 13 1 20 2 1 1 2 2 961 1 1 1 18 0 3500 2 2 1440 1 0 1440 1094 2 1 1 1441 0 2 2 1 2 3 2 3 0 1 1 17 2 1 2 2 0 2 1474 0 1 1368 1 1 1 0 0 2 0 0 1 1367 0 3 1 1441 1446 1 1 0 1 1 1 0 1 0 0 962 2 0 1 0 0 1 1 0 0 0 1 0 0 0 0 0 1 0 2 0 2 0 1 0 1 0 0 4424 27 0 1 1 3459 1 1 0 2 2 120 0 8 0 1 1 1 1 1 0 2 0 1327 354 0 1 2499 0 0 1 0 3 1 2 1 1 27 3 2 2 0 1 1 0 0 0 13 0 1 1 0 0 0 1 0 1 1 0 2 462 2 1 2 1 2 2 1 2 1 0 1 1 2 0 0 1 3 1 10 1 0 1 1 26 1441 0 0 1 2 1 0 0 769 1 1441 0 2 1 5 2 1 4 1443 2 4452 0 1 0 5 2 1 1927 1443 2979 2 1285 6406 0 0 2 1474 1 1 1 1 1 2 0 2 993 0 1 4 0 1 1 2979 1 2 3 2978 2879 0 1 4418 0 5 16 2 1 2 2 1441 2979 1 1 1 286 2 1 1 2958 2 1 11 1 1 4418 14 1 1 0 3 0 2 1 3 962 0 0 1 1 0 2 14 1 0 2 2 0 1 2 1 1 960 2 1 0 0 1278 2 961 0 0 0 2 481 0 2 1 961 2 2 1 5577 1 2 7369 202 2 16716 961 0 2499 2 2 1 1 0 0 0 2 2951 1 2 0 0 4 769 1 164 2 0 0 1 1474 84 2 2 1 3 2 1 792 0 2 0 1 2 1 0 0 0 612 0 1 2 0 1442 0 962 1 1 0 2 1 1 1341 0 1442 0 1 0 1 1 1 4899 0 1 545 0 1 2 1 0 1 0 0 993 1 1 1 3 2 4419 0 19 0 0 1 2 1473 1 2824 1 0 2 3 1114 2 3 2 2343 2 1605 1440 0 2 1 1442 199 3939 1561 0 2 1 4672 0 4922 0 634 1474 2 2 1 1 1 0 1 2 0 2 0 1 5 1545 2 1 2468 387 2 5 1506 0 1 0 524 1 1442 2 3 2 2 1 0 2 4437 2 0 0 1 2 0 0 0 1 0 1 1 5 0 2 2 2 1442 11 3 1 2 2 2 1 1 3 2 1 0 2 2 1 2 0 0 1 0 0 0 0 0 1 1 1 2 1 1 2 0 0 0 1 1 1 1 0 3 1 2 2 125 0 1 1 1 1 1 5 1 2 1 0 1 0 2 1 0 1 2 1 6 2 3 2 0 3 0 1 0 0 2 3 0 1922 1475 1451 0 2 2 2380 1 0 0 1 31 3 5 1 3 1 1441 1 0 0 2 16 6 4899 2 0 2979 0 1 1 1 1 2 1 0 2 0 1 4 2 3 0 0 1441 4419 1 0 0 2 1441 1 0 1441 1441 1 0 1441 14 0 1 1 1446 0 0 0 2 1 0 1441 0 1 0 2 2 4 0 2 2 222 1 2 1 0 2 1550 2 9 0 2 2 1 1 1 2 2 1 1 0 0 0 1921 2 1 3 1 2 2 1476 4419 16 2 1 10 13 0 3 2 1 1923 18 2 5 4 2 2946 5 1 3 5 2 1 1441 6887 5 2 5 2 2 2 1 1 1 0 1 1 0 2 2 0 2 0 1 1 0 1 7 1 992 0 0 0 2 1 2 1 0 0 5 1 1 0 0 0 2 1 2 0 1 1441 1 1 2 0 0 2 1 2 2 1 2 3 0 1 0 0 1 0 2 1 0 0 4419 1 1442 1 2 216 1 2 2 0 0 0 1 1 1 4794 3 5 2 4 2 966 4 2 2 2 1 1127 1 1 2 1 513 1 2 2 4 2 1324 2 1442 3 0 1443 1 2 3 1538 3230 2315 1533 2 1987 2 1 2981 1 1 1 5 2 0 5 5 1441 4 0 2 1 1 2 6 8 1 1 1 3 1 2 2 2 1441 12 2 2 5 2501 1 3 5 2 2979 973 1 3517 2 1 5 3 11 5 2 1 6 570 5 0 1 2 1 1 1 2 6 1 0 1 2947 1 2 3 5 1 2 2 1 1 0 0 1922 2 2719 2535 0 2 1 3 1 1 0 5 2 2 1 4 2 2 4 1 2 0 1473 5 0 2 2 1 1 0 2 1 2 0 0 1 0 1 4 1 1922 1 1536 2 1 2 0 0 0 962 0 2979 5 0 5 1 3 1 1 1 1 1 2 0 1 0 8 3 3 0 1 0 2 6 1443 781 1 2 4 2943 1 2 2 0 1 666 1 2 3 0 0 514 2 0 1 1 2 0 1 0 1 1441 17 0 0 2 1025 2 3 517 5 1 1442 2 1 0 2 1 3 5 1 3 773 1127 0 2 3 2 0 1 0 1218 1408 2 2 2 1 1 1452 1441 0 2 15 2 15 1 6 0 681 2 2 0 1 1 1477 0 1 1 1 1 1 1 1 1338 2 0 1 0 1 2 1921 3 993 5 122 2 0 1 0 0 1 4 2 2 5 0 1 4 132 2 23 1 2 2 1 2 1442 0 5 0 2 1 4 1703 1 1 2 1 1 962 1 3 2 2 0 1 1452 1 0 962 1 1922 1 17 942 2 2 0 0 11 2977 1 0 0 1607 3490 2 1 2 0 1 0 0 2 1 0 14 0 2 1 2 2 0 17 2 2 0 1 2 16 1 0 1 0 1 2 2 1 0 0 1 22 0 1 1 2 13 1 6 1492 1 2 13 1442 0 1441 12 2 0 2 2 20 2 0 2 1 1 1 2 1 12 6 1 1 2 0 5 2878 2 17 1 957 1 2 4 1 2 2 1 4 1922 2 1 1 1447 2 0 1442 0 3 2 17 1 2 1533 2 1 3976 1921 41 1 0 0 0 0 2403 1533 1 1442 1923 3 0 2 2 4 2 2 0 17 2 1537 772 1 17 2 962 0 2 1441 1 0 1 0 2 0 0 1 0 1 483 1442 2 0 2 1 13 1 2979 2 4419 1441 1 962 1 5 1443 2 1 17 0 1 1 1 0 2 13 1 12 2 1 3 1 2 0 1 962 1 0 14 0 3 1 1442 5 3922 2 3 962 1 5 14 1439 1 1584 1440 3 0 1 3 5 13 0 962 2 4424 1 2 2 1 4 1 2 2 0 14 2 14 32 0 1449 0 1 3 3 12 0 962 2 2 2 14 0 0 1 3443 1 0 1 1 0 0 0 1 4 0 14 2 1 2979 2 1 1 4 1418 2 2 1 2 1 1 1 2 1 2 481 1 1 0 0 2 0 2 2 1 1 2979 2979 2 2 2 1 17 1446 962 2995 1 2 2 1 1 0 1107 2 2 2 1 0 2 2 12 0 2982 4905 17 0 0 0 5 1 1 7 1 2 2952 1998 1 1 2 12 1 17 3 1932 3 2 1 2 1 1 2 13 0 4 3 0 2 0 1 2 2 962 2 0 1 2 1 1441 0 2 0 1 1 5 2 1 3 2 1 2 1 2979 1476 2 515 981 5 2 2 2882 2 2 12 2 2 14 3 1436 5892 2 6876 2 0 3500 994 2 4898 962 1425 0 2 2 3980 2949 0 0 1 2 1987 1 5416 4 3464 2291 1442 1 2 5 2183 4 2 2 2 1 0 2 1443 1 0 1922 2 1 48 521 2 35 2238 1533 1 2 1 1 2979 0 1442 0 1 4420 0 2 1442 2 2 6 1 0 2 1442 1929 2 1443 3940 2943 1442 1440 2666 769 3 1923 1023 1 1 1 2 1434 1448 1441 4 4 4930 1 1 1185 1 967 2 1442 2 2 1 1 2 2979 0 2 1 4 4899 1 2 2 0 5 1442 0 2982 1 0 1 17 961 482 1 1 0 1 1 2 1 2 15 1 2402 2 6 2 1439 2 1 5 3 2 2 0 2 1 1 5 2 962 6 1 1124 3199 0 2 0 1 2 2 1 5 1 5 1 1 1 1 2 1 14 970 2 0 2 14 1 2 4 1 2 15 1 2 2 1 1921 1 2498 0 2 0 2 1475 1 0 0 1 1 962 0 0 1 3 1 2 1 0 3 0 1922 2 2 2 0 962 1 1 1441 0 1 1442 120 3 2 0 2 2 3 1 1 1 0 0 1 1 0 966 2 2 2 1441 1 1441 962 1927 1 1 2979 991 1 3 1922 2 2 1445 0 1441 1 962 2 3 1 962 2 962 2156 2 2 4419 1922 2 2 2 1 1 2 0 4900 1 1 1 1 2 2 1 2 5051 0 2 2 2 2 47 0 4356 1 2 2 1 1 14 8 1 1890 1 2 1 2 2 2 2 962 1 2 2 1442 0 1527 1 1 323 2 2 2 3459 0 17 2 1 1 1 1921 2 0 1 0 3 1 2 0 1 2 2 1 35 34 1 1 1 1 2 10 0 1441 17 2 0 2 2 0 12 0 1 17 17 1 1 1 1 0 3 0 0 1 331 1 2 2 1 1441 3 1 2 0 2 1 4392 3911 6855 2 1 3459 2949 1441 1 1 0 2 2 2 0 0 1442 3 1 2 2 2 0 2979 1 1 1 5504 1 17 10 1558 0 1 1440 1 1 1 1441 1 1922 4902 993 2979 0 2 1442 2186 1 1923 1 2402 963 1 1 1 1 2 5 2 1 2 2 961 1463 2 1441 2 602 2 1440 9 1 1539 1440 962 1 1 2 2 1440 1 1 1 970 2 2 0 2 0 0 1 1441 6852 2 2 1 2 2 2 2 2 3 1 1 1 1 2 4 1 5 1 1440 961 1 0 1 2 0 1 0 111 0 772 1921 0 0 1 1441 993 2 3 4899 0 962 1003 1 962 1 963 0 1 3 2 1 2 2 1 1440 0 0 0 907 1 1 1441 1441 3459 2 3986 2 1 2 0 2 1 2 0 1441 1 2 1 0 3971 0 1 1 2 1 7 618 0 1441 4 4 0 12 0 3459 5 0 1 16 1 0 5 1 4 2 0 2 4 2 2 1 3 1 2 3942 2 4418 9 2 4418 2 769 2 1 10 0 5 9 6 1954 2 1 2 0 3 0 2 2 2 778 1 1441 961 1 13 2 962 2 3427 0 0 2 1 2 17 17 1 2 21583 0 0 1 2 0 0 2 1 134 261 2 1 0 35 2 1 2499 1 1445 0 2 1 2 1922 0 11 0 1 2 2 1 2 23 1 3 2 2 1 5 0 4452 2 2 5 0 6 0 1441 2 1441 2 1 2 0 2 1 2 1 1 4 0 2 2 1 2 1 0 1533 2 1 3423 1442 2 6 1 2 0 1 1426 995 1 0 0 1 1 1 0 2 2 2 17 6 0 1023 1 1699 2 2980 0 0 1922 0 1 2564 962 0 1921 2 2 2 1443 2 2 0 1 0 1442 4 1 0 962 1 2 5 3 961 1 16 0 1 1804 2 1517 1 4 5 2 4419 1 2 2 1 3982 4 1 376 0 1474 2 10 164 2 2 2 0 1 17 1 3 2 2 2 0 1 1145 0 2 1 3 962 1 482 2 3907 0 2947 1 1 0 3939 1 3907 961 2882 1 1 4419 0 962 2 962 1922 1923 1 4419 0 6 1442 0 485 2 1 2 5 4 1 2 0 1441 1 377 1473 2 1 2 0 2 2 2 1 2 0 1441 1841 2 1 1 2 4421 0 2435 1 2 2 2 1 962 1 1804 2 1441 1 1441 7 3 2 2 1442 0 2 1922 0 6407 0 2909 4 1 1 2 1 0 2 1 3 2 1442 2499 2 2 3 2 2 1443 2 1 2 2 0 2 0 514 4452 994 2 1442 2947 1 2 1 1698 2 1 1 2 1278 0 1 2 0 0 2 1 0 2 0 1 1 1 1 1 2 0 2500 1 1441 1442 7 0 1 2 3 1 1 2 3 0 1 0 1 3 2 2 4 1 2 1 514 0 1 0 2 2 962 0 1 1 0 1 1 0 1 1 2 1 1 1 0 120 1 0 2 1 0 0 1 5 2 2 1 2 1 1 1 3 1694 0 2 1 2981 2 1 0 0 5 0 0 1 2 5 2 962 6 3461 1441 1 1 2 1 2 0 2 2 0 0 1 2 1 2979 3 1440 1 1 1 2402 1 1 2 2 1 1 4483 1 1 2178 1443 2 2 2 2 2 2812 2 1 1266 2 2731 1 2 7 5 965 2 843 1 1 1 1 5 1981 961 2 0 2979 3 0 0 1 0 0 2 2 1 1 2 1 963 0 2 1 0 0 2 1 2 1 2859 2 3 3 1 1922 1 1 1 965 972 0 0 3 0 962 2 1 0 0 962 4419 14 2 0 0 775 1 2 0 1 1 1 6 1 1 2 2 2 12 2 1 1 1927 1 2 5 1 2 0 1 2 5 1 2 4 1 2 1 1 4419 2 14 2 3 1 2 1 10 2 1 0 
