
*** ChampSim Multicore Out-of-Order Simulator ***

Warmup Instructions: 50000000
Simulation Instructions: 50000000
Number of CPUs: 1
LLC sets: 2048
LLC ways: 16
Off-chip DRAM Size: 4096 MB Channels: 1 Width: 64-bit Data Rate: 6400 MT/s
CPU 0 runs ./micro_traces/srv296.trace.gz
.gz
ITLB has LRU replacement policy
DTLB has LRU replacement policy
STLB has LRU replacement policy
FDIP Prefetcher at L1I
L1I has LRU replacement policy
L1D has LRU replacement policy
Initialize SRRIP state for L2C
Initialize DRRIP state for LLC
Heartbeat_Variant_0 : 1334 0.325684 per_variant_size: 0 1334 0 0 0 0 0 0 0 
Heartbeat_Variant_1 : 2561 0.625244 per_variant_size: 0 552 2009 0 0 0 0 0 0 
Heartbeat_Variant_2 : 0 0 per_variant_size: 0 0 0 0 0 0 0 0 0 
Heartbeat_Variant_3 : 0 0 per_variant_size: 0 0 0 0 0 0 0 0 0 
Heartbeat_Variant_0_evicts 0 : 5870 1 : 572 2 : 0 3 : 0 
Heartbeat_Variant_1_evicts 0 : 499 1 : 0 2 : 0 3 : 0 
Heartbeat_Variant_2_evicts 0 : 0 1 : 0 2 : 0 3 : 0 
Heartbeat_Variant_3_evicts 0 : 0 1 : 0 2 : 0 3 : 0 
Heartbeat CPU 0 instructions: 10000002 cycles: 2798335 heartbeat IPC: 3.57355 cumulative IPC: 3.57355 (Simulation time: 0 hr 1 min 43 sec) 
Heartbeat_Variant_0 : 1335 0.325928 per_variant_size: 0 1335 0 0 0 0 0 0 0 
Heartbeat_Variant_1 : 2570 0.627441 per_variant_size: 0 538 2032 0 0 0 0 0 0 
Heartbeat_Variant_2 : 0 0 per_variant_size: 0 0 0 0 0 0 0 0 0 
Heartbeat_Variant_3 : 0 0 per_variant_size: 0 0 0 0 0 0 0 0 0 
Heartbeat_Variant_0_evicts 0 : 5494 1 : 21 2 : 0 3 : 0 
Heartbeat_Variant_1_evicts 0 : 23 1 : 0 2 : 0 3 : 0 
Heartbeat_Variant_2_evicts 0 : 0 1 : 0 2 : 0 3 : 0 
Heartbeat_Variant_3_evicts 0 : 0 1 : 0 2 : 0 3 : 0 
Heartbeat CPU 0 instructions: 20000003 cycles: 5593856 heartbeat IPC: 3.57715 cumulative IPC: 3.57535 (Simulation time: 0 hr 3 min 21 sec) 
Heartbeat_Variant_0 : 1329 0.324463 per_variant_size: 0 1329 0 0 0 0 0 0 0 
Heartbeat_Variant_1 : 2583 0.630615 per_variant_size: 0 542 2041 0 0 0 0 0 0 
Heartbeat_Variant_2 : 0 0 per_variant_size: 0 0 0 0 0 0 0 0 0 
Heartbeat_Variant_3 : 0 0 per_variant_size: 0 0 0 0 0 0 0 0 0 
Heartbeat_Variant_0_evicts 0 : 5584 1 : 28 2 : 0 3 : 0 
Heartbeat_Variant_1_evicts 0 : 35 1 : 0 2 : 0 3 : 0 
Heartbeat_Variant_2_evicts 0 : 0 1 : 0 2 : 0 3 : 0 
Heartbeat_Variant_3_evicts 0 : 0 1 : 0 2 : 0 3 : 0 
Heartbeat CPU 0 instructions: 30000000 cycles: 8389939 heartbeat IPC: 3.57643 cumulative IPC: 3.57571 (Simulation time: 0 hr 4 min 59 sec) 
Heartbeat_Variant_0 : 1352 0.330078 per_variant_size: 0 1352 0 0 0 0 0 0 0 
Heartbeat_Variant_1 : 2625 0.640869 per_variant_size: 0 511 2114 0 0 0 0 0 0 
Heartbeat_Variant_2 : 0 0 per_variant_size: 0 0 0 0 0 0 0 0 0 
Heartbeat_Variant_3 : 0 0 per_variant_size: 0 0 0 0 0 0 0 0 0 
Heartbeat_Variant_0_evicts 0 : 5719 1 : 365 2 : 0 3 : 0 
Heartbeat_Variant_1_evicts 0 : 359 1 : 0 2 : 0 3 : 0 
Heartbeat_Variant_2_evicts 0 : 0 1 : 0 2 : 0 3 : 0 
Heartbeat_Variant_3_evicts 0 : 0 1 : 0 2 : 0 3 : 0 
Heartbeat CPU 0 instructions: 40000000 cycles: 11186424 heartbeat IPC: 3.57592 cumulative IPC: 3.57576 (Simulation time: 0 hr 6 min 37 sec) 
Heartbeat_Variant_0 : 1351 0.329834 per_variant_size: 0 1351 0 0 0 0 0 0 0 
Heartbeat_Variant_1 : 2630 0.64209 per_variant_size: 0 515 2115 0 0 0 0 0 0 
Heartbeat_Variant_2 : 0 0 per_variant_size: 0 0 0 0 0 0 0 0 0 
Heartbeat_Variant_3 : 0 0 per_variant_size: 0 0 0 0 0 0 0 0 0 
Heartbeat_Variant_0_evicts 0 : 5660 1 : 16 2 : 0 3 : 0 
Heartbeat_Variant_1_evicts 0 : 18 1 : 0 2 : 0 3 : 0 
Heartbeat_Variant_2_evicts 0 : 0 1 : 0 2 : 0 3 : 0 
Heartbeat_Variant_3_evicts 0 : 0 1 : 0 2 : 0 3 : 0 
Heartbeat CPU 0 instructions: 50000001 cycles: 13983021 heartbeat IPC: 3.57577 cumulative IPC: 3.57577 (Simulation time: 0 hr 8 min 14 sec) 

Warmup complete CPU 0 instructions: 50000001 cycles: 13983021 (Simulation time: 0 hr 8 min 14 sec) 

Cycle: 20000000 FTQ IN: 58117045 FTQ occupancy: 19.2215 DECODE IN: 58116954 DECODE occupancy: 50.091 ROB IN: 58116954 ROB occupancy: 307.881 ROB OUT: 58116871
Heartbeat_Variant_0 : 1374 0.335449 per_variant_size: 0 1374 0 0 0 0 0 0 0 
Heartbeat_Variant_1 : 2632 0.642578 per_variant_size: 0 479 2153 0 0 0 0 0 0 
Heartbeat_Variant_2 : 0 0 per_variant_size: 0 0 0 0 0 0 0 0 0 
Heartbeat_Variant_3 : 0 0 per_variant_size: 0 0 0 0 0 0 0 0 0 
Heartbeat_Variant_0_evicts 0 : 5674 1 : 251 2 : 0 3 : 0 
Heartbeat_Variant_1_evicts 0 : 235 1 : 0 2 : 0 3 : 0 
Heartbeat_Variant_2_evicts 0 : 0 1 : 0 2 : 0 3 : 0 
Heartbeat_Variant_3_evicts 0 : 0 1 : 0 2 : 0 3 : 0 
Heartbeat CPU 0 instructions: 60000003 cycles: 21369144 heartbeat IPC: 1.35389 cumulative IPC: 1.35389 (Simulation time: 0 hr 9 min 52 sec) 
Heartbeat_Variant_0 : 1375 0.335693 per_variant_size: 0 1375 0 0 0 0 0 0 0 
Heartbeat_Variant_1 : 2633 0.642822 per_variant_size: 0 488 2145 0 0 0 0 0 0 
Heartbeat_Variant_2 : 0 0 per_variant_size: 0 0 0 0 0 0 0 0 0 
Heartbeat_Variant_3 : 0 0 per_variant_size: 0 0 0 0 0 0 0 0 0 
Heartbeat_Variant_0_evicts 0 : 5607 1 : 37 2 : 0 3 : 0 
Heartbeat_Variant_1_evicts 0 : 36 1 : 0 2 : 0 3 : 0 
Heartbeat_Variant_2_evicts 0 : 0 1 : 0 2 : 0 3 : 0 
Heartbeat_Variant_3_evicts 0 : 0 1 : 0 2 : 0 3 : 0 
Heartbeat CPU 0 instructions: 70000003 cycles: 28650614 heartbeat IPC: 1.37335 cumulative IPC: 1.36355 (Simulation time: 0 hr 11 min 29 sec) 
Cycle: 30000000 FTQ IN: 13667402 FTQ occupancy: 10.414 DECODE IN: 13667364 DECODE occupancy: 27.0672 ROB IN: 13667304 ROB occupancy: 214.332 ROB OUT: 13667035
Heartbeat_Variant_0 : 1375 0.335693 per_variant_size: 0 1375 0 0 0 0 0 0 0 
Heartbeat_Variant_1 : 2637 0.643799 per_variant_size: 0 489 2148 0 0 0 0 0 0 
Heartbeat_Variant_2 : 0 0 per_variant_size: 0 0 0 0 0 0 0 0 0 
Heartbeat_Variant_3 : 0 0 per_variant_size: 0 0 0 0 0 0 0 0 0 
Heartbeat_Variant_0_evicts 0 : 5641 1 : 90 2 : 0 3 : 0 
Heartbeat_Variant_1_evicts 0 : 91 1 : 0 2 : 0 3 : 0 
Heartbeat_Variant_2_evicts 0 : 0 1 : 0 2 : 0 3 : 0 
Heartbeat_Variant_3_evicts 0 : 0 1 : 0 2 : 0 3 : 0 
Heartbeat CPU 0 instructions: 80000002 cycles: 36002698 heartbeat IPC: 1.36016 cumulative IPC: 1.36242 (Simulation time: 0 hr 13 min 6 sec) 
Cycle: 40000000 FTQ IN: 13660923 FTQ occupancy: 10.3146 DECODE IN: 13660907 DECODE occupancy: 26.6757 ROB IN: 13660907 ROB occupancy: 212.63 ROB OUT: 13660907
Heartbeat_Variant_0 : 1375 0.335693 per_variant_size: 0 1375 0 0 0 0 0 0 0 
Heartbeat_Variant_1 : 2640 0.644531 per_variant_size: 0 494 2146 0 0 0 0 0 0 
Heartbeat_Variant_2 : 0 0 per_variant_size: 0 0 0 0 0 0 0 0 0 
Heartbeat_Variant_3 : 0 0 per_variant_size: 0 0 0 0 0 0 0 0 0 
Heartbeat_Variant_0_evicts 0 : 5629 1 : 91 2 : 0 3 : 0 
Heartbeat_Variant_1_evicts 0 : 91 1 : 0 2 : 0 3 : 0 
Heartbeat_Variant_2_evicts 0 : 0 1 : 0 2 : 0 3 : 0 
Heartbeat_Variant_3_evicts 0 : 0 1 : 0 2 : 0 3 : 0 
Heartbeat CPU 0 instructions: 90000000 cycles: 43315186 heartbeat IPC: 1.36752 cumulative IPC: 1.36369 (Simulation time: 0 hr 14 min 46 sec) 
Cycle: 50000000 FTQ IN: 13610068 FTQ occupancy: 10.4738 DECODE IN: 13610209 DECODE occupancy: 27.0562 ROB IN: 13610214 ROB occupancy: 213.729 ROB OUT: 13610403
Heartbeat_Variant_0 : 1378 0.336426 per_variant_size: 0 1378 0 0 0 0 0 0 0 
Heartbeat_Variant_1 : 2638 0.644043 per_variant_size: 0 476 2162 0 0 0 0 0 0 
Heartbeat_Variant_2 : 0 0 per_variant_size: 0 0 0 0 0 0 0 0 0 
Heartbeat_Variant_3 : 0 0 per_variant_size: 0 0 0 0 0 0 0 0 0 
Heartbeat_Variant_0_evicts 0 : 5623 1 : 31 2 : 0 3 : 0 
Heartbeat_Variant_1_evicts 0 : 28 1 : 0 2 : 0 3 : 0 
Heartbeat_Variant_2_evicts 0 : 0 1 : 0 2 : 0 3 : 0 
Heartbeat_Variant_3_evicts 0 : 0 1 : 0 2 : 0 3 : 0 
Heartbeat CPU 0 instructions: 100000001 cycles: 50680691 heartbeat IPC: 1.35768 cumulative IPC: 1.36248 (Simulation time: 0 hr 16 min 22 sec) 
Finished CPU 0 instructions: 50000000 cycles: 36697670 cumulative IPC: 1.36248 (Simulation time: 0 hr 16 min 22 sec) 

ChampSim completed all CPUs

Region of Interest Statistics

CPU 0 cumulative IPC: 1.36248 instructions: 50000000 cycles: 36697670
 Fetch stage stalled: 60.1256  Sim cycles: 36697670 fetch stall cycle: 22064679
 Empty decode stage: 49.792  Sim cycles: 36697670 fetch stall cycle: 18272523
ITLB TOTAL     ACCESS:    5848148  HIT:    5354287  MISS:     493861  HIT %:    91.5553  MISS %:    8.44474   MPKI: 9.87722
ITLB LOAD TRANSLATION INSTRUCTION	ACCESS:    5724073  HIT:    5230212  MISS:     493861  HIT %:    91.3722  MISS %:    8.62779  MPKI: 9.87722
ITLB TRANSLATION FROM L1D PREFETCHER INSTRUCTION	ACCESS:     124075  HIT:     124075  MISS:          0  HIT %:        100  MISS %:          0  MPKI: 0

ITLB AVERAGE MISS LATENCY: 9.0618 cycles
ITLB RQ	ACCESS:    7981279	FORWARD:          0	MERGED:    1709575	TO_CACHE:    6271704

DTLB TOTAL     ACCESS:    9016648  HIT:    8542556  MISS:     474092  HIT %:     94.742  MISS %:    5.25796   MPKI: 9.48184
DTLB LOAD TRANSLATION DATA	ACCESS:    9016648  HIT:    8542556  MISS:     474092  HIT %:     94.742  MISS %:    5.25796  MPKI: 9.48184

DTLB AVERAGE MISS LATENCY: 9.32514 cycles
DTLB RQ	ACCESS:   13374781	FORWARD:          0	MERGED:    4321662	TO_CACHE:    9053119

STLB TOTAL     ACCESS:    1215042  HIT:    1212876  MISS:       2166  HIT %:    99.8217  MISS %:   0.178265   MPKI: 0.04332
STLB LOAD TRANSLATION INSTRUCTION	ACCESS:     493861  HIT:     493556  MISS:        305  HIT %:    99.9382  MISS %:  0.0617583  MPKI: 0.0061
STLB LOAD TRANSLATION DATA	ACCESS:     474089  HIT:     472261  MISS:       1828  HIT %:    99.6144  MISS %:   0.385582  MPKI: 0.03656
STLB TRANSLATION FROM L1D PREFETCHER DATA	ACCESS:     247092  HIT:     247059  MISS:         33  HIT %:    99.9866  MISS %:  0.0133553  MPKI: 0.00066

STLB AVERAGE MISS LATENCY: 70.5651 cycles
STLB RQ	ACCESS:    1335376	FORWARD:          0	MERGED:     120308	TO_CACHE:    1215068

STLB Hit, L1D data hit: 0
STLB Hit, L2C data hit: 0
STLB Hit, LLC data hit: 0
STLB Hit, LLC data miss: 0
STLB STLB hints to L2: 0
L1D TOTAL     ACCESS:   13119204  HIT:   11999919  MISS:    1119285  HIT %:    91.4683  MISS %:    8.53165   MPKI: 22.3857
L1D LOAD DATA	ACCESS:    6582795  HIT:    5845915  MISS:     736880  HIT %:     88.806  MISS %:     11.194  MPKI: 14.7376
L1D RFO DATA	ACCESS:    6210219  HIT:    5922844  MISS:     287375  HIT %:    95.3725  MISS %:    4.62745  MPKI: 5.7475
L1D PREFETCH DATA	ACCESS:     326190  HIT:     231160  MISS:      95030  HIT %:    70.8667  MISS %:    29.1333  MPKI: 1.9006

L1D PREFETCH  REQUESTED:     735182  ISSUED:     735182  USEFUL:      35309  USELESS:      68112
L1D USEFUL LOAD PREFETCHES:      35309 PREFETCH ISSUED TO LOWER LEVEL:     103508  ACCURACY: 34.1123
 TIMELY PREFETCHES:      35309 LATE PREFETCHES: 8415 DROPPED PREFETCHES: 2
L1D AVERAGE MISS LATENCY: 240246 cycles
L1D RQ	ACCESS:   10717476	FORWARD:          0	MERGED:    3937592	TO_CACHE:    6617198
L1D WQ	ACCESS:    6950533	FORWARD:     163022	MERGED:     192950	TO_CACHE:    6757583
L1D PQ	ACCESS:     367759	FORWARD:          0	MERGED:          0	TO_CACHE:     367423

L1D UNIQUE REGIONS ACCESSED: 0
L1D REGIONS CONFLICTS: 0
L1D Cross Page Prefetch Requests: 7002
L1D Same Page Prefetch Requests: 747482
L1D ROI Sum of L1D PQ occupancy: 4671848
L1D PREFETCHES PUSHED FROM L2C: 0
L1I TOTAL     ACCESS:    7199769  HIT:    4438538  MISS:    2761231  HIT %:    61.6483  MISS %:    38.3517   MPKI: 55.2246
L1I LOAD INSTRUCTION	ACCESS:    6544233  HIT:    3783002  MISS:    2761231  HIT %:    57.8067  MISS %:    42.1933  MPKI: 55.2246
L1I PREFETCH INSTRUCTION	ACCESS:     655536  HIT:     655536  MISS:          0  HIT %:        100  MISS %:          0  MPKI: 0

L1I PREFETCH  REQUESTED:    1581827  ISSUED:    1581827  USEFUL:          0  USELESS:          0
L1I USEFUL LOAD PREFETCHES:          0 PREFETCH ISSUED TO LOWER LEVEL:          0  ACCURACY: -nan
 TIMELY PREFETCHES:          0 LATE PREFETCHES: 0 DROPPED PREFETCHES: 0
L1I AVERAGE MISS LATENCY: 16.6654 cycles
L1I RQ	ACCESS:    9468790	FORWARD:          0	MERGED:    2630715	TO_CACHE:    6838075
L1I PQ	ACCESS:    1581827	FORWARD:          0	MERGED:     438623	TO_CACHE:    1143204

L1BTB TOTAL     ACCESS:    5668128  HIT:    2040044  MISS:    3628084  HIT %:    35.9915  MISS %:    64.0085   MPKI: 72.5617
L1BTB BRANCH_DIRECT_JUMP	ACCESS:     546980 HIT:     144161 MISS:     402819 AVERAGE STALL: 38.5161 AVERAGE FETCH STALL: 14.7052 AVERAGE FETCH QUEUE STALL: 9.46386 AVERAGE DECODE STALL: 13.438 AVERAGE EXECUTE STALL: 2.17507e+15
L1BTB BRANCH_INDIRECT	ACCESS:     182413 HIT:      65665 MISS:     116748 AVERAGE STALL: 90.5494 AVERAGE FETCH STALL: 10.8176 AVERAGE FETCH QUEUE STALL: 10.3945 AVERAGE DECODE STALL: 10.5803 AVERAGE EXECUTE STALL: 57.7948
L1BTB BRANCH_CONDITIONAL	ACCESS:    2700946 HIT:    1409577 MISS:    1291369 AVERAGE STALL: 42.9532 AVERAGE FETCH STALL: 19.1197 AVERAGE FETCH QUEUE STALL: 13.7384 AVERAGE DECODE STALL: 9.48605 AVERAGE EXECUTE STALL: 2.58611e+15
L1BTB BRANCH_DIRECT_CALL	ACCESS:     946670 HIT:     106580 MISS:     840090 AVERAGE STALL: 55.4955 AVERAGE FETCH STALL: 28.0835 AVERAGE FETCH QUEUE STALL: 15.2773 AVERAGE DECODE STALL: 11.2756 AVERAGE EXECUTE STALL: 1.04811e+16
L1BTB BRANCH_INDIRECT_CALL	ACCESS:     172227 HIT:      21850 MISS:     150377 AVERAGE STALL: 116.817 AVERAGE FETCH STALL: 12.9442 AVERAGE FETCH QUEUE STALL: 7.95281 AVERAGE DECODE STALL: 8.88982 AVERAGE EXECUTE STALL: 86.5392
L1BTB BRANCH_RETURN	ACCESS:    1118892 HIT:     292211 MISS:     826681 AVERAGE STALL: 40.7244 AVERAGE FETCH STALL: 15.8517 AVERAGE FETCH QUEUE STALL: 3.20742 AVERAGE DECODE STALL: 5.06064 AVERAGE EXECUTE STALL: 4.35733e+14
L1BTB BRANCH_OTHER ACCESS:          0 HIT:          0 MISS:          0 AVERAGE STALL: -nan AVERAGE FETCH STALL: -nan AVERAGE FETCH QUEUE STALL: -nan AVERAGE DECODE STALL: -nan AVERAGE EXECUTE STALL: -nan
L1BTB TOTAL ROB OCCUPANCY AT BTB MISS: 2.28605

L2BTB TOTAL     ACCESS:    3602751  HIT:    3535603  MISS:      67148  HIT %:    98.1362  MISS %:     1.8638   MPKI: 1.34296
L2BTB BRANCH_DIRECT_JUMP	ACCESS:     398675 HIT:     394331 MISS:       4344 AVERAGE STALL: 38.5161 AVERAGE FETCH STALL: 14.7052 AVERAGE FETCH QUEUE STALL: 9.46386 AVERAGE DECODE STALL: 13.438 AVERAGE EXECUTE STALL: 2.17507e+15
L2BTB BRANCH_INDIRECT	ACCESS:     106475 HIT:     103812 MISS:       2663 AVERAGE STALL: 90.5494 AVERAGE FETCH STALL: 10.8176 AVERAGE FETCH QUEUE STALL: 10.3945 AVERAGE DECODE STALL: 10.5803 AVERAGE EXECUTE STALL: 57.7948
L2BTB BRANCH_CONDITIONAL	ACCESS:    1291369 HIT:    1284203 MISS:       7166 AVERAGE STALL: 42.9532 AVERAGE FETCH STALL: 19.1197 AVERAGE FETCH QUEUE STALL: 13.7384 AVERAGE DECODE STALL: 9.48605 AVERAGE EXECUTE STALL: 2.58611e+15
L2BTB BRANCH_DIRECT_CALL	ACCESS:     840090 HIT:     838302 MISS:       1788 AVERAGE STALL: 55.4955 AVERAGE FETCH STALL: 28.0835 AVERAGE FETCH QUEUE STALL: 15.2773 AVERAGE DECODE STALL: 11.2756 AVERAGE EXECUTE STALL: 1.04811e+16
L2BTB BRANCH_INDIRECT_CALL	ACCESS:     140868 HIT:     130625 MISS:      10243 AVERAGE STALL: 116.817 AVERAGE FETCH STALL: 12.9442 AVERAGE FETCH QUEUE STALL: 7.95281 AVERAGE DECODE STALL: 8.88982 AVERAGE EXECUTE STALL: 86.5392
L2BTB BRANCH_RETURN	ACCESS:     825274 HIT:     784330 MISS:      40944 AVERAGE STALL: 40.7244 AVERAGE FETCH STALL: 15.8517 AVERAGE FETCH QUEUE STALL: 3.20742 AVERAGE DECODE STALL: 5.06064 AVERAGE EXECUTE STALL: 4.35733e+14
L2BTB BRANCH_OTHER ACCESS:          0 HIT:          0 MISS:          0 AVERAGE STALL: -nan AVERAGE FETCH STALL: -nan AVERAGE FETCH QUEUE STALL: -nan AVERAGE DECODE STALL: -nan AVERAGE EXECUTE STALL: -nan
L2BTB TOTAL ROB OCCUPANCY AT BTB MISS: 123.518

L2C TOTAL     ACCESS:    4482753  HIT:    4074334  MISS:     408419  HIT %:    90.8891  MISS %:     9.1109   MPKI: 8.16838
L2C LOAD INSTRUCTION	ACCESS:    2761231  HIT:    2548165  MISS:     213066  HIT %:    92.2837  MISS %:    7.71634  MPKI: 4.26132
L2C LOAD TRANSLATION INSTRUCTION	ACCESS:        342  HIT:         89  MISS:        253  HIT %:    26.0234  MISS %:    73.9766  MPKI: 0.00506
L2C LOAD DATA	ACCESS:     728446  HIT:     663077  MISS:      65369  HIT %:    91.0262  MISS %:    8.97376  MPKI: 1.30738
L2C RFO DATA	ACCESS:     287295  HIT:     238397  MISS:      48898  HIT %:    82.9799  MISS %:    17.0201  MPKI: 0.97796
L2C PREFETCH DATA	ACCESS:     180775  HIT:     113050  MISS:      67725  HIT %:    62.5363  MISS %:    37.4637  MPKI: 1.3545
L2C WRITEBACK DATA	ACCESS:     522699  HIT:     510999  MISS:      11700  HIT %:    97.7616  MISS %:    2.23838  MPKI: 0.234
L2C LOAD TRANSLATION DATA	ACCESS:       1919  HIT:        522  MISS:       1397  HIT %:    27.2017  MISS %:    72.7983  MPKI: 0.02794
L2C TRANSLATION FROM L1D PREFETCHER DATA	ACCESS:         46  HIT:         35  MISS:         11  HIT %:     76.087  MISS %:     23.913  MPKI: 0.00022

L2C PREFETCH  REQUESTED:      84385  ISSUED:      84385  USEFUL:       7242  USELESS:      60833
L2C USEFUL LOAD PREFETCHES:       7242 PREFETCH ISSUED TO LOWER LEVEL:      67987  ACCURACY: 10.652
 TIMELY PREFETCHES:       7242 LATE PREFETCHES: 262 DROPPED PREFETCHES: 0
L2C AVERAGE MISS LATENCY: 40.9916 cycles
L2C RQ	ACCESS:    3779315	FORWARD:          0	MERGED:          0	TO_CACHE:    3779281
L2C WQ	ACCESS:     522699	FORWARD:         34	MERGED:          0	TO_CACHE:     522699
L2C PQ	ACCESS:     187893	FORWARD:          0	MERGED:       3456	TO_CACHE:     184437

L2C Dense regions hint from L2: 0
PSCL5 TOTAL     ACCESS:       4340  HIT:       2170  MISS:       2170  HIT %:         50  MISS %:         50   MPKI: 0.0434
PSCL5 LOAD TRANSLATION INSTRUCTION	ACCESS:       4248  HIT:       2124  MISS:       2124  HIT %:         50  MISS %:         50  MPKI: 0.04248
PSCL5 TRANSLATION FROM L1D PREFETCHER INSTRUCTION	ACCESS:         92  HIT:         46  MISS:         46  HIT %:         50  MISS %:         50  MPKI: 0.00092


PSCL4 TOTAL     ACCESS:       3997  HIT:       1992  MISS:       2005  HIT %:    49.8374  MISS %:    50.1626   MPKI: 0.0401
PSCL4 LOAD TRANSLATION INSTRUCTION	ACCESS:       2609  HIT:       1949  MISS:        660  HIT %:     74.703  MISS %:     25.297  MPKI: 0.0132
PSCL4 TRANSLATION FROM L1D PREFETCHER INSTRUCTION	ACCESS:         68  HIT:         43  MISS:         25  HIT %:    63.2353  MISS %:    36.7647  MPKI: 0.0005
PSCL4 LOAD TRANSLATION DATA	ACCESS:       1302  HIT:          0  MISS:       1302  HIT %:          0  MISS %:        100  MPKI: 0.02604
PSCL4 TRANSLATION FROM L1D PREFETCHER DATA	ACCESS:         18  HIT:          0  MISS:         18  HIT %:          0  MISS %:        100  MPKI: 0.00036


PSCL3 TOTAL     ACCESS:       4077  HIT:       2032  MISS:       2045  HIT %:    49.8406  MISS %:    50.1594   MPKI: 0.0409
PSCL3 LOAD TRANSLATION INSTRUCTION	ACCESS:       2649  HIT:       1989  MISS:        660  HIT %:    75.0849  MISS %:    24.9151  MPKI: 0.0132
PSCL3 TRANSLATION FROM L1D PREFETCHER INSTRUCTION	ACCESS:         68  HIT:         43  MISS:         25  HIT %:    63.2353  MISS %:    36.7647  MPKI: 0.0005
PSCL3 LOAD TRANSLATION DATA	ACCESS:       1342  HIT:          0  MISS:       1342  HIT %:          0  MISS %:        100  MPKI: 0.02684
PSCL3 TRANSLATION FROM L1D PREFETCHER DATA	ACCESS:         18  HIT:          0  MISS:         18  HIT %:          0  MISS %:        100  MPKI: 0.00036


PSCL2 TOTAL     ACCESS:       4229  HIT:       2059  MISS:       2170  HIT %:    48.6876  MISS %:    51.3124   MPKI: 0.0434
PSCL2 LOAD TRANSLATION INSTRUCTION	ACCESS:       2317  HIT:       2013  MISS:        304  HIT %:    86.8796  MISS %:    13.1204  MPKI: 0.00608
PSCL2 TRANSLATION FROM L1D PREFETCHER INSTRUCTION	ACCESS:         46  HIT:         46  MISS:          0  HIT %:        100  MISS %:          0  MPKI: 0
PSCL2 LOAD TRANSLATION DATA	ACCESS:       1820  HIT:          0  MISS:       1820  HIT %:          0  MISS %:        100  MPKI: 0.0364
PSCL2 TRANSLATION FROM L1D PREFETCHER DATA	ACCESS:         46  HIT:          0  MISS:         46  HIT %:          0  MISS %:        100  MPKI: 0.00092


LLC TOTAL     ACCESS:     465842  HIT:     435405  MISS:      30437  HIT %:    93.4662  MISS %:    6.53376   MPKI: 0.60874
LLC LOAD INSTRUCTION	ACCESS:     213066  HIT:     212129  MISS:        937  HIT %:    99.5602  MISS %:    0.43977  MPKI: 0.01874
LLC LOAD TRANSLATION INSTRUCTION	ACCESS:        253  HIT:        222  MISS:         31  HIT %:     87.747  MISS %:     12.253  MPKI: 0.00062
LLC LOAD DATA	ACCESS:      65123  HIT:      61586  MISS:       3537  HIT %:    94.5687  MISS %:    5.43126  MPKI: 0.07074
LLC RFO DATA	ACCESS:      48875  HIT:      33572  MISS:      15303  HIT %:    68.6895  MISS %:    31.3105  MPKI: 0.30606
LLC PREFETCH DATA	ACCESS:      67987  HIT:      57865  MISS:      10122  HIT %:    85.1119  MISS %:    14.8881  MPKI: 0.20244
LLC WRITEBACK DATA	ACCESS:      69130  HIT:      68695  MISS:        435  HIT %:    99.3708  MISS %:   0.629249  MPKI: 0.0087
LLC LOAD TRANSLATION DATA	ACCESS:       1397  HIT:       1326  MISS:         71  HIT %:    94.9177  MISS %:    5.08232  MPKI: 0.00142
LLC TRANSLATION FROM L1D PREFETCHER DATA	ACCESS:         11  HIT:         10  MISS:          1  HIT %:    90.9091  MISS %:    9.09091  MPKI: 2e-05

LLC AVERAGE MISS LATENCY: 157.513 cycles
LLC RQ	ACCESS:     328732	FORWARD:          0	MERGED:          0	TO_CACHE:     328725
LLC WQ	ACCESS:      69130	FORWARD:          7	MERGED:          0	TO_CACHE:      69130
LLC PQ	ACCESS:      67987	FORWARD:          0	MERGED:          0	TO_CACHE:      67987

LLC Dense regions hint to LLC: 0

RAW hits: 1919998
Loads Generated: 12637474
Loads sent to L1D: 10717476
Stores Generated: 6950515
Stores sent to L1D: 6950533
Major fault: 0 Minor fault: 2577
Allocated PAGES: 2577

stream: 
stream:times selected: 1182945
stream:pref_filled: 122825
stream:pref_useful: 24568
stream:pref_late: 6746
stream:misses: 7993
stream:misses_by_poll: 0

CS: 
CS:times selected: 178688
CS:pref_filled: 59801
CS:pref_useful: 36576
CS:pref_late: 7080
CS:misses: 16900
CS:misses_by_poll: 7

CPLX: 
CPLX:times selected: 1003062
CPLX:pref_filled: 19152
CPLX:pref_useful: 4664
CPLX:pref_late: 3033
CPLX:misses: 92778
CPLX:misses_by_poll: 1

NL_L1: 
NL:times selected: 21282
NL:pref_filled: 762
NL:pref_useful: 370
NL:pref_late: 290
NL:misses: 1842
NL:misses_by_poll: 0

total selections: 2385977
total_filled: 95030
total_useful: 35309
total_late: 18728
total_polluted: 8
total_misses_after_warmup: 771282
conflicts: 5535116

test: 118199

DRAM Statistics
 CHANNEL 0
 RQ ROW_BUFFER_HIT:      11280  ROW_BUFFER_MISS:      18718
 DBUS_CONGESTED:          6
 WQ ROW_BUFFER_HIT:       1503  ROW_BUFFER_MISS:      13016  FULL:          0

 AVG_CONGESTED_CYCLE: 5

CPU 0 Branch Prediction Accuracy: 99.8232% MPKI: 0.32328 Average ROB Occupancy at Mispredict: 175.732
Branch types
NOT_BRANCH: 40855741 81.7115%
BRANCH_DIRECT_JUMP: 546980 1.09396%
BRANCH_INDIRECT: 182413 0.364826%
BRANCH_CONDITIONAL: 6176679 12.3534%
BRANCH_DIRECT_CALL: 946670 1.89334%
BRANCH_INDIRECT_CALL: 172227 0.344454%
BRANCH_RETURN: 1118892 2.23778%
BRANCH_OTHER: 0 0%

DRAM PAGES: 1048576
Allocated PAGES: 2577
Average_ROB_Occupancy: 214.696
Average_Decode_Occupancy: 26.9179
Average_FTQ_Occupancy: 10.4029
Indirect max targets: 14 Average targets: 1.14966
Branch_type:  BRANCH_DIRECT_JUMP:  Count Percentage: 3.24604 6.67624 3.95083 8.43024 1.69722 6.83195 1.16022 68.0073 
Branch_type:  BRANCH_INDIRECT:  Count Percentage: 11.7452 3.43234 10.5294 28.7079 3.34712 4.81886 2.00937 35.4098 
Branch_type:  BRANCH_CONDITIONAL:  Count Percentage: 20.9535 2.9195 2.88683 4.7076 1.45331 5.4417 0.648641 60.9889 
Branch_type:  BRANCH_DIRECT_CALL:  Count Percentage: 0.257983 1.26951 1.42541 2.12862 2.75634 2.97986 0.613819 88.5685 
Branch_type:  BRANCH_INDIRECT_CALL:  Count Percentage: 9.51475 0.565535 2.98249 4.82549 1.4346 2.98046 0.993389 76.7033 
Branch_type:  BRANCH_RETURN:  Count Percentage: 3.77363 0.568521 2.25245 6.32093 2.92523 5.44968 1.02683 77.6827 
Branch_type:  BRANCH_DIRECT_JUMP:  Total Count: 35501 73016 43209 92199 18562 74719 12689 743775 
Branch_type:  BRANCH_INDIRECT:  Total Count: 42863 12526 38426 104767 12215 17586 7333 129225 
Branch_type:  BRANCH_CONDITIONAL:  Total Count: 2587886 360576 356540 581416 179492 672082 80111 7532485 
Branch_type:  BRANCH_DIRECT_CALL:  Total Count: 4880 24014 26963 40265 52139 56367 11611 1675362 
Branch_type:  BRANCH_INDIRECT_CALL:  Total Count: 32757 1947 10268 16613 4939 10261 3420 264071 
Branch_type:  BRANCH_RETURN:  Total Count: 84404 12716 50380 141379 65428 121892 22967 1737514 
Number of unique branch instructions: 9897
Upper 32 bits: 
aaaa
ffff
ffff0000
Unique upper 32 bits: 3
Unique upper 36 bits: 3
Unique upper 40 bits: 5
Unique upper 44 bits: 32
Unique upper 48 bits: 154
Variant_0 : 1378 0.336426
Variant_1 : 2638 0.644043
Variant_2 : 0 0
Variant_3 : 0 0
Offset_3 4062
Offset_4 241
Offset_5 454
Offset_6 502
Offset_7 581
Offset_8 509
Offset_9 463
Offset_10 378
Offset_11 313
Offset_12 287
Offset_13 203
Offset_14 227
Offset_15 189
Offset_16 225
Offset_17 144
Offset_18 126
Offset_19 240
Offset_20 141
Offset_21 235
Offset_22 393
Offset_23 241
Offset_24 327
Offset_25 88
Offset_47 80
Offset_64 1
decode_dispatch_called: 23563239 64.2091
Dispatch_width: 0 12294720 52.1775 33.5027
Dispatch_width: 1 835533 3.54592 2.2768
Dispatch_width: 2 793077 3.36574 2.16111
Dispatch_width: 3 482116 2.04605 1.31375
Dispatch_width: 4 4295100 18.228 11.704
Dispatch_width: 5 224810 0.954071 0.6126
Dispatch_width: 6 4637883 19.6827 12.6381
Empty_decode_cycles: 13134431 35.7909
ROB_full_cycles: 6650121 18.1214
Starvation_cycles_per_kilo_instr: 254.097
Starvation_cycles_per_kilo_instr_3: 208.898
Starvation_cycles_per_kilo_instr_0: 187.79
Branch_type_1  (3,1)  (4,9)  (5,37)  (6,69)  (7,114)  (8,129)  (9,122)  (10,96)  (11,70)  (12,51)  (13,5)  (14,2)  (15,3)  (16,4)  (18,1)  (19,4)  (20,2)  (21,1)  (22,3)  (23,2)  (24,10)  (25,12) 
Branch_type_2  (3,1)  (5,1)  (8,3)  (9,3)  (12,1)  (13,1)  (14,1)  (16,3)  (17,2)  (20,2)  (21,2)  (23,5)  (24,1)  (47,36) 
Branch_type_3  (3,4060)  (4,232)  (5,412)  (6,417)  (7,436)  (8,314)  (9,253)  (10,153)  (11,128)  (12,58)  (13,4)  (64,1) 
Branch_type_4  (6,4)  (7,8)  (8,26)  (9,53)  (10,61)  (11,59)  (12,98)  (13,88)  (14,102)  (15,89)  (16,101)  (17,64)  (18,57)  (19,117)  (20,73)  (21,124)  (22,210)  (23,136)  (24,188)  (25,72) 
Branch_type_5  (8,2)  (9,1)  (10,3)  (11,5)  (12,3)  (13,14)  (14,16)  (15,11)  (16,20)  (17,11)  (18,16)  (19,12)  (20,10)  (21,13)  (22,42)  (23,26)  (24,37) 
Branch_type_6  (5,4)  (6,12)  (7,23)  (8,35)  (9,31)  (10,65)  (11,51)  (12,76)  (13,91)  (14,106)  (15,86)  (16,97)  (17,67)  (18,52)  (19,107)  (20,54)  (21,95)  (22,138)  (23,72)  (24,91)  (25,4)  (47,44) 
Unique trigger count: 
Variant_0_evicts_0 : 0
Variant_0_evicts_1 : 0
Variant_0_evicts_2 : 0
Variant_0_evicts_3 : 0
Variant_1_evicts_0 : 0
Variant_1_evicts_1 : 0
Variant_1_evicts_2 : 0
Variant_1_evicts_3 : 0
Variant_2_evicts_0 : 0
Variant_2_evicts_1 : 0
Variant_2_evicts_2 : 0
Variant_2_evicts_3 : 0
Variant_3_evicts_0 : 0
Variant_3_evicts_1 : 0
Variant_3_evicts_2 : 0
Variant_3_evicts_3 : 0
BTB PER SET UNIQUE ADDR: 7 14 8 11 13 12 9 15 10 9 11 14 10 9 7 10 11 9 12 10 11 11 9 7 7 8 8 10 10 9 11 8 12 9 5 11 5 15 6 8 11 9 13 11 10 7 13 10 8 11 11 8 11 8 6 6 12 6 9 9 12 10 4 8 7 11 10 11 12 8 9 9 11 10 8 6 9 10 10 9 9 5 10 12 11 10 13 12 7 14 9 12 7 11 6 11 6 13 10 15 19 8 9 10 9 9 8 10 9 12 10 10 11 12 5 5 12 9 11 8 9 7 7 9 9 11 6 13 12 12 8 10 7 8 14 10 5 14 10 8 11 9 9 8 11 8 11 10 7 10 12 13 6 12 7 10 13 6 10 9 10 10 14 8 9 9 12 7 10 8 7 12 11 5 7 10 10 7 10 9 8 12 12 11 9 11 6 9 10 10 12 9 8 11 11 10 8 8 5 11 12 10 10 12 8 9 10 8 5 8 10 9 10 10 9 14 9 9 8 17 8 12 9 10 9 12 14 9 6 13 7 7 9 11 10 8 13 8 6 5 9 9 12 13 9 5 9 13 12 10 13 11 10 9 9 14 11 6 11 10 13 8 9 10 10 7 9 13 8 11 8 9 9 9 7 7 8 11 9 9 9 9 9 6 10 7 9 10 10 11 9 8 10 13 7 10 7 10 10 7 9 10 8 15 14 11 8 9 10 10 8 14 9 14 9 8 12 12 11 11 4 9 9 10 15 14 8 5 8 6 9 13 9 13 13 13 11 11 9 12 10 8 10 11 13 11 7 13 12 8 9 9 10 7 10 12 8 9 9 5 11 15 9 10 5 11 5 9 12 10 12 7 7 8 12 9 11 12 10 11 12 9 8 8 8 13 7 11 9 12 10 8 11 12 8 6 11 6 12 10 10 13 11 11 13 9 10 14 8 12 10 7 8 15 8 11 10 9 9 15 11 10 8 10 10 12 11 8 10 10 10 9 9 10 10 15 11 7 9 11 13 11 9 10 18 10 9 14 13 12 12 13 10 9 13 8 8 11 7 12 8 7 10 12 9 5 9 13 13 9 14 11 8 13 12 11 8 12 10 13 6 9 12 10 8 9 14 10 13 8 10 9 8 6 11 11 12 11 9 9 10 13 11 12 6 10 12 9 11 13 12 9 10 9 7 11 13 16 10 4 7 8 7 9 8 12 16 6 8 13 9 11 12 9 13 11 7 13 12 12 17 10 10 10 12 10 9 11 9 9 14 10 10 9 10 10 11 10 15 8 13 13 7 12 11 11 9 10 13 11 11 13 9 11 9 11 12 11 12 10 10 9 8 8 8 9 8 11 15 12 11 8 10 9 13 9 7 10 7 8 12 11 8 8 8 10 11 10 12 13 13 12 9 8 5 8 8 6 8 9 13 8 6 8 10 12 7 12 8 8 6 14 11 11 9 7 11 9 8 13 8 9 12 9 13 11 9 11 20 7 8 10 9 7 13 9 11 9 14 10 10 8 10 13 13 12 10 8 11 7 12 8 10 16 12 7 11 11 8 10 8 11 10 15 10 9 6 13 13 13 11 5 9 7 8 8 10 9 9 10 4 10 13 13 5 13 9 8 8 9 10 11 6 12 7 9 13 11 7 14 10 8 9 10 11 9 11 9 7 8 12 6 14 9 9 9 12 10 10 10 8 9 10 11 13 10 12 8 11 6 9 8 11 13 8 10 9 13 11 7 8 7 7 9 10 11 6 12 11 13 11 11 11 7 12 7 7 10 12 8 6 10 7 9 11 8 8 11 7 8 5 7 11 9 10 10 8 9 11 9 17 7 16 14 13 10 10 10 15 9 11 13 7 17 9 11 12 14 9 18 10 13 5 9 15 12 10 11 14 11 10 11 14 11 9 11 13 9 6 11 8 10 8 9 8 8 11 11 12 11 11 11 8 11 10 11 9 10 11 14 10 10 9 7 17 8 11 13 10 9 11 16 14 6 9 6 12 10 11 12 10 6 10 15 11 13 12 10 11 12 12 11 9 9 11 11 9 9 10 8 12 9 12 12 7 10 9 9 9 12 5 13 8 10 12 7 12 9 8 10 12 11 12 9 10 9 7 7 8 9 11 12 12 9 8 14 10 7 11 12 8 12 9 8 8 11 9 12 8 11 8 9 6 11 8 6 12 9 12 13 15 11 8 8 7 9 9 7 8 9 14 8 9 11 10 7 10 10 11 13 10 13 12 10 9 14 17 9 10 8 7 12 9 10 7 8 7 13 14 10 11 14 12 12 13 7 8 12 12 9 13 8 6 8 9 9 5 8 9 7 8 12 9 11 
BTB PER SET COUNT: 981 16 1960 11 23 22 1475 22 1382 11 19 463 11 11 8 10 13 2357 350 12 15 12 10 9 11 11 9 14 379 11 364 8 16 12 5 290 6 17 6 8 11 9 15 12 513 99 22 11 496 13 13 210 15 9 6 376 16 6 502 10 14 12 650 8 7 16 11 110 15 13 1475 775 15 10 8 6 11 13 14 9 111 9 14 14 14 14 16 15 633 17 13 874 170 763 6 14 671 16 13 3590 27 10 9 220 1626 12 19 19 1149 2948 15 26 514 20 7 5 13 11 2221 17 15 50 7 13 9 15 8 18 18 634 10 10 7 8 24 15 976 21 15 10 19 12 13 8 15 10 14 318 7 21 22 294 992 20 7 12 586 6 11 12 12 377 24 11 10 13 14 7 11 1597 7 14 11 5 8 20 13 10 330 984 114 207 24 13 12 17 8 10 144 722 15 14 9 16 13 11 13 1167 5 15 12 13 993 18 8 10 12 9 984 2605 14 10 14 13 17 31 15 11 1585 24 9 24 11 10 9 21 17 252 11 23 8 8 11 16 11 20548 287 220 6 5 987 9 15 718 12 5 401 19 506 14 17 13 10 9 9 15 13 12 21 12 121 8 11 16 13 7 11 16 395 13 8 9 10 9 8 7 10 19 11 12 11 16 643 6 10 9 9 13 13 13 12 8 12 22 9 10 7 10 12 982 16 13 10 22 20 127 11 9 12 1404 8 18 12 18 1476 982 12 25 14 14 5 9 16 12 18 18 12 6 9 6 12 24 44 19 16 18 18 101 13 17 14 1979 15 12 19 13 7 18 15 10 11 9 16 8 11 13 9 13 133 6 12 20 13 13 5 13 5 9 14 13 15 375 8 11 15 12 12 16 323 954 18 10 986 12 9 15 8 16 14 14 13 9 14 334 9 708 20 10 892 2190 12 15 1315 13 20 10 12 826 9 12 870 8 8 22 8 12 12 11 9 20 13 31 9 11 14 14 12 8 14 11 13 11 11 14 497 22 12 181 10 11 257 15 42 11 30 10 382 20 19 12 23 15 14 12 15 501 8 13 7 13 10 7 14 13 10 5 14679 18 14 12 16 15 11 17 15 11 9 15 13 14 6 10 16 14 982 12 18 13 20 11 11 10 646 6 16 14 12 12 12 9 11 14 13 15 6 10 13 11 13 17 462 14 11 11 7 13 15 19 11 4 9 13 7 9 8 16 21 7 13 2832 10 18 16 14 17 12 8 17 15 22 22 11 35 10 18 10 9 13 12 900 16 10 469 25 16 11 16 11 19 15 15 17 7 16 13 15 14 13 16 11 279 20 12 14 12 11 19 12 12 13 15 12 14 14 10 13 10 12 18 18 1718 536 10 11 22 10 2882 382 8 8 16 11 8 8 9 12 19 923 13 16 21 1481 10 9 5 8 8 6 9 10 17 11 10 982 15 16 11 16 972 8 11 18 362 14 10 495 16 627 8 17 10 12 14 487 715 13 12 14 537 7 9 14 9 9 16 14 17 10 22 379 12 11 11 16 745 18 10 9 1487 7 16 10 990 25 1041 332 12 14 11 11 8 16 14 474 12 9 6 16 429 14 11 5 15 9 8 9 12 1373 11 14 4 17 431 16 5 18 11 8 9 14 13 292 1090 12 7 151 449 12 8 21 70 102 9 11 15 10 12 9 9 56 20 6 17 10 9 15 17 12 12 10 28 13 353 12 25 11 500 9 13 6 9 8 696 17 11 17 10 1221 11 7 10 9 8 117 1683 14 6 16 15 82 11 259 17 10 17 9 7 875 16 9 1465 19 8 10 12 105 9 11 7 15 5 880 13 13 459 11 199 13 17 620 26 7 78 321 129 15 14 11 24 83 13 4466 9 321 9 689 13 2462 13 1805 12 1186 5 12 1252 14 11 12 18 12 11 22 22 12 37 1417 24 13 6 220 8 12 11 9 1363 10 16 15 16 11 15 372 18 14 12 16 10 14 21 19 10 12 9 7 28 10 21 16 15 10 16 26 22 8 14 8 14 10 1262 18 12 6 12 18 497 823 13 12 11 538 17 17 1957 56 12 18 9 16 14 13 17 11 14 991 8 16 10 11 138 14 5 843 16 13 16 7 18 995 12 17 15 987 15 10 10 12 7 9 9 9 15 18 16 9 10 17 13 7 17 14 8 12 16 10 9 20 100 16 9 13 490 1967 6 3431 8 6 97 14 135 1242 21 15 8 8 8 10 1479 16 11 303 17 9 13 15 11 7 15 13 12 18 986 1476 15 14 11 676 20 983 10 9 7 14 15 16 1476 12 7 1486 29 18 16 22 13 17 20 8 9 15 15 9 15 563 8 8 9 11 5 47 12 7 8 578 14 15 
To predecode: 0
Predecoding something: 0
Predecode request dropped: 0
sizeofblock_0 0
sizeofblock_1 59324
sizeofblock_2 78913
sizeofblock_3 0
sizeofblock_4 0
sizeofblock_5 0
sizeofblock_6 0
sizeofblock_7 0
sizeofblock_8 0
Variant_0 Correct: 1613041 Incorrect: 0 Accuracy: 1
Variant_1 Correct: 5731111 Incorrect: 0 Accuracy: 1
Variant_2 Correct: 0 Incorrect: 0 Accuracy: -nan
Variant_3 Correct: 0 Incorrect: 0 Accuracy: -nan
