
*** ChampSim Multicore Out-of-Order Simulator ***

Warmup Instructions: 50000000
Simulation Instructions: 50000000
Number of CPUs: 1
LLC sets: 2048
LLC ways: 16
Off-chip DRAM Size: 4096 MB Channels: 1 Width: 64-bit Data Rate: 6400 MT/s
CPU 0 runs ./micro_traces/srv245.trace.gz
.gz
ITLB has LRU replacement policy
DTLB has LRU replacement policy
STLB has LRU replacement policy
FDIP Prefetcher at L1I
L1I has LRU replacement policy
L1D has LRU replacement policy
Initialize SRRIP state for L2C
Initialize DRRIP state for LLC
Heartbeat_Variant_0 : 1324 0.323242 per_variant_size: 0 1324 0 0 0 0 0 0 0 
Heartbeat_Variant_1 : 1210 0.29541 per_variant_size: 0 593 617 0 0 0 0 0 0 
Heartbeat_Variant_2 : 1330 0.324707 per_variant_size: 0 545 392 211 182 0 0 0 0 
Heartbeat_Variant_3 : 0 0 per_variant_size: 0 0 0 0 0 0 0 0 0 
Heartbeat_Variant_0_evicts 0 : 5643 1 : 275 2 : 313 3 : 0 
Heartbeat_Variant_1_evicts 0 : 285 1 : 0 2 : 391 3 : 0 
Heartbeat_Variant_2_evicts 0 : 265 1 : 413 2 : 0 3 : 0 
Heartbeat_Variant_3_evicts 0 : 0 1 : 0 2 : 0 3 : 0 
Heartbeat CPU 0 instructions: 10000001 cycles: 2791553 heartbeat IPC: 3.58224 cumulative IPC: 3.58224 (Simulation time: 0 hr 1 min 55 sec) 
Heartbeat_Variant_0 : 1357 0.331299 per_variant_size: 0 1357 0 0 0 0 0 0 0 
Heartbeat_Variant_1 : 1233 0.301025 per_variant_size: 0 583 650 0 0 0 0 0 0 
Heartbeat_Variant_2 : 1345 0.328369 per_variant_size: 0 539 380 229 197 0 0 0 0 
Heartbeat_Variant_3 : 0 0 per_variant_size: 0 0 0 0 0 0 0 0 0 
Heartbeat_Variant_0_evicts 0 : 5474 1 : 107 2 : 101 3 : 0 
Heartbeat_Variant_1_evicts 0 : 109 1 : 0 2 : 285 3 : 0 
Heartbeat_Variant_2_evicts 0 : 88 1 : 288 2 : 0 3 : 0 
Heartbeat_Variant_3_evicts 0 : 0 1 : 0 2 : 0 3 : 0 
Heartbeat CPU 0 instructions: 20000000 cycles: 5583462 heartbeat IPC: 3.58178 cumulative IPC: 3.58201 (Simulation time: 0 hr 3 min 33 sec) 
Heartbeat_Variant_0 : 1361 0.332275 per_variant_size: 0 1361 0 0 0 0 0 0 0 
Heartbeat_Variant_1 : 1244 0.303711 per_variant_size: 0 587 657 0 0 0 0 0 0 
Heartbeat_Variant_2 : 1346 0.328613 per_variant_size: 0 524 391 236 195 0 0 0 0 
Heartbeat_Variant_3 : 0 0 per_variant_size: 0 0 0 0 0 0 0 0 0 
Heartbeat_Variant_0_evicts 0 : 5422 1 : 72 2 : 48 3 : 0 
Heartbeat_Variant_1_evicts 0 : 70 1 : 0 2 : 226 3 : 0 
Heartbeat_Variant_2_evicts 0 : 48 1 : 221 2 : 0 3 : 0 
Heartbeat_Variant_3_evicts 0 : 0 1 : 0 2 : 0 3 : 0 
Heartbeat CPU 0 instructions: 30000002 cycles: 8375068 heartbeat IPC: 3.58217 cumulative IPC: 3.58206 (Simulation time: 0 hr 5 min 9 sec) 
Heartbeat_Variant_0 : 1373 0.335205 per_variant_size: 0 1373 0 0 0 0 0 0 0 
Heartbeat_Variant_1 : 1246 0.304199 per_variant_size: 0 587 659 0 0 0 0 0 0 
Heartbeat_Variant_2 : 1363 0.332764 per_variant_size: 0 536 388 240 199 0 0 0 0 
Heartbeat_Variant_3 : 0 0 per_variant_size: 0 0 0 0 0 0 0 0 0 
Heartbeat_Variant_0_evicts 0 : 5416 1 : 94 2 : 88 3 : 0 
Heartbeat_Variant_1_evicts 0 : 88 1 : 0 2 : 255 3 : 0 
Heartbeat_Variant_2_evicts 0 : 88 1 : 261 2 : 0 3 : 0 
Heartbeat_Variant_3_evicts 0 : 0 1 : 0 2 : 0 3 : 0 
Heartbeat CPU 0 instructions: 40000003 cycles: 11165528 heartbeat IPC: 3.58364 cumulative IPC: 3.58246 (Simulation time: 0 hr 6 min 45 sec) 
Heartbeat_Variant_0 : 1371 0.334717 per_variant_size: 0 1371 0 0 0 0 0 0 0 
Heartbeat_Variant_1 : 1256 0.306641 per_variant_size: 0 592 664 0 0 0 0 0 0 
Heartbeat_Variant_2 : 1365 0.333252 per_variant_size: 0 540 389 231 205 0 0 0 0 
Heartbeat_Variant_3 : 0 0 per_variant_size: 0 0 0 0 0 0 0 0 0 
Heartbeat_Variant_0_evicts 0 : 5408 1 : 81 2 : 68 3 : 0 
Heartbeat_Variant_1_evicts 0 : 78 1 : 0 2 : 260 3 : 0 
Heartbeat_Variant_2_evicts 0 : 76 1 : 251 2 : 0 3 : 0 
Heartbeat_Variant_3_evicts 0 : 0 1 : 0 2 : 0 3 : 0 
Heartbeat CPU 0 instructions: 50000001 cycles: 13956716 heartbeat IPC: 3.5827 cumulative IPC: 3.5825 (Simulation time: 0 hr 8 min 24 sec) 

Warmup complete CPU 0 instructions: 50000001 cycles: 13956716 (Simulation time: 0 hr 8 min 24 sec) 

Cycle: 20000000 FTQ IN: 58127982 FTQ occupancy: 19.3079 DECODE IN: 58127880 DECODE occupancy: 50.2706 ROB IN: 58127820 ROB occupancy: 307.295 ROB OUT: 58127472
Heartbeat_Variant_0 : 1390 0.339355 per_variant_size: 0 1390 0 0 0 0 0 0 0 
Heartbeat_Variant_1 : 1262 0.308105 per_variant_size: 0 579 683 0 0 0 0 0 0 
Heartbeat_Variant_2 : 1364 0.333008 per_variant_size: 0 520 374 271 199 0 0 0 0 
Heartbeat_Variant_3 : 0 0 per_variant_size: 0 0 0 0 0 0 0 0 0 
Heartbeat_Variant_0_evicts 0 : 5621 1 : 189 2 : 155 3 : 0 
Heartbeat_Variant_1_evicts 0 : 190 1 : 0 2 : 289 3 : 0 
Heartbeat_Variant_2_evicts 0 : 143 1 : 292 2 : 0 3 : 0 
Heartbeat_Variant_3_evicts 0 : 0 1 : 0 2 : 0 3 : 0 
Heartbeat CPU 0 instructions: 60000000 cycles: 21380975 heartbeat IPC: 1.34694 cumulative IPC: 1.34694 (Simulation time: 0 hr 10 min 2 sec) 
Heartbeat_Variant_0 : 1389 0.339111 per_variant_size: 0 1389 0 0 0 0 0 0 0 
Heartbeat_Variant_1 : 1268 0.30957 per_variant_size: 0 583 685 0 0 0 0 0 0 
Heartbeat_Variant_2 : 1365 0.333252 per_variant_size: 0 519 373 279 194 0 0 0 0 
Heartbeat_Variant_3 : 0 0 per_variant_size: 0 0 0 0 0 0 0 0 0 
Heartbeat_Variant_0_evicts 0 : 5443 1 : 83 2 : 97 3 : 0 
Heartbeat_Variant_1_evicts 0 : 80 1 : 0 2 : 250 3 : 0 
Heartbeat_Variant_2_evicts 0 : 101 1 : 246 2 : 0 3 : 0 
Heartbeat_Variant_3_evicts 0 : 0 1 : 0 2 : 0 3 : 0 
Heartbeat CPU 0 instructions: 70000000 cycles: 28632142 heartbeat IPC: 1.37909 cumulative IPC: 1.36282 (Simulation time: 0 hr 11 min 41 sec) 
Cycle: 30000000 FTQ IN: 13620220 FTQ occupancy: 10.997 DECODE IN: 13620241 DECODE occupancy: 28.4604 ROB IN: 13620241 ROB occupancy: 216.411 ROB OUT: 13620241
Heartbeat_Variant_0 : 1389 0.339111 per_variant_size: 0 1389 0 0 0 0 0 0 0 
Heartbeat_Variant_1 : 1274 0.311035 per_variant_size: 0 589 685 0 0 0 0 0 0 
Heartbeat_Variant_2 : 1362 0.33252 per_variant_size: 0 514 370 272 206 0 0 0 0 
Heartbeat_Variant_3 : 0 0 per_variant_size: 0 0 0 0 0 0 0 0 0 
Heartbeat_Variant_0_evicts 0 : 5325 1 : 36 2 : 46 3 : 0 
Heartbeat_Variant_1_evicts 0 : 42 1 : 0 2 : 205 3 : 0 
Heartbeat_Variant_2_evicts 0 : 41 1 : 207 2 : 0 3 : 0 
Heartbeat_Variant_3_evicts 0 : 0 1 : 0 2 : 0 3 : 0 
Heartbeat CPU 0 instructions: 80000002 cycles: 35959566 heartbeat IPC: 1.36474 cumulative IPC: 1.36346 (Simulation time: 0 hr 13 min 20 sec) 
Cycle: 40000000 FTQ IN: 13821962 FTQ occupancy: 10.923 DECODE IN: 13822020 DECODE occupancy: 28.5745 ROB IN: 13822076 ROB occupancy: 218.662 ROB OUT: 13822147
Heartbeat_Variant_0 : 1387 0.338623 per_variant_size: 0 1387 0 0 0 0 0 0 0 
Heartbeat_Variant_1 : 1276 0.311523 per_variant_size: 0 590 686 0 0 0 0 0 0 
Heartbeat_Variant_2 : 1369 0.334229 per_variant_size: 0 525 362 283 199 0 0 0 0 
Heartbeat_Variant_3 : 0 0 per_variant_size: 0 0 0 0 0 0 0 0 0 
Heartbeat_Variant_0_evicts 0 : 5498 1 : 86 2 : 75 3 : 0 
Heartbeat_Variant_1_evicts 0 : 91 1 : 0 2 : 228 3 : 0 
Heartbeat_Variant_2_evicts 0 : 74 1 : 232 2 : 0 3 : 0 
Heartbeat_Variant_3_evicts 0 : 0 1 : 0 2 : 0 3 : 0 
Heartbeat CPU 0 instructions: 90000000 cycles: 43264709 heartbeat IPC: 1.3689 cumulative IPC: 1.36482 (Simulation time: 0 hr 15 min 1 sec) 
Cycle: 50000000 FTQ IN: 13788486 FTQ occupancy: 11.0893 DECODE IN: 13788493 DECODE occupancy: 28.7531 ROB IN: 13788497 ROB occupancy: 219.241 ROB OUT: 13788480
Heartbeat_Variant_0 : 1392 0.339844 per_variant_size: 0 1392 0 0 0 0 0 0 0 
Heartbeat_Variant_1 : 1281 0.312744 per_variant_size: 0 590 691 0 0 0 0 0 0 
Heartbeat_Variant_2 : 1362 0.33252 per_variant_size: 0 515 359 279 209 0 0 0 0 
Heartbeat_Variant_3 : 0 0 per_variant_size: 0 0 0 0 0 0 0 0 0 
Heartbeat_Variant_0_evicts 0 : 5403 1 : 33 2 : 43 3 : 0 
Heartbeat_Variant_1_evicts 0 : 34 1 : 0 2 : 195 3 : 0 
Heartbeat_Variant_2_evicts 0 : 38 1 : 192 2 : 0 3 : 0 
Heartbeat_Variant_3_evicts 0 : 0 1 : 0 2 : 0 3 : 0 
Heartbeat CPU 0 instructions: 100000002 cycles: 50447718 heartbeat IPC: 1.39217 cumulative IPC: 1.3702 (Simulation time: 0 hr 16 min 46 sec) 
Finished CPU 0 instructions: 50000001 cycles: 36491002 cumulative IPC: 1.3702 (Simulation time: 0 hr 16 min 46 sec) 

ChampSim completed all CPUs

Region of Interest Statistics

CPU 0 cumulative IPC: 1.3702 instructions: 50000001 cycles: 36491002
 Fetch stage stalled: 57.9729  Sim cycles: 36491002 fetch stall cycle: 21154888
 Empty decode stage: 46.2698  Sim cycles: 36491002 fetch stall cycle: 16884307
ITLB TOTAL     ACCESS:    5838079  HIT:    5391781  MISS:     446298  HIT %:    92.3554  MISS %:     7.6446   MPKI: 8.92596
ITLB LOAD TRANSLATION INSTRUCTION	ACCESS:    5705362  HIT:    5259064  MISS:     446298  HIT %:    92.1776  MISS %:    7.82243  MPKI: 8.92596
ITLB TRANSLATION FROM L1D PREFETCHER INSTRUCTION	ACCESS:     132717  HIT:     132717  MISS:          0  HIT %:        100  MISS %:          0  MPKI: 0

ITLB AVERAGE MISS LATENCY: 9.08522 cycles
ITLB RQ	ACCESS:    7838359	FORWARD:          0	MERGED:    1618917	TO_CACHE:    6219442

DTLB TOTAL     ACCESS:    8880044  HIT:    8405268  MISS:     474776  HIT %:    94.6534  MISS %:    5.34655   MPKI: 9.49552
DTLB LOAD TRANSLATION DATA	ACCESS:    8880044  HIT:    8405268  MISS:     474776  HIT %:    94.6534  MISS %:    5.34655  MPKI: 9.49552

DTLB AVERAGE MISS LATENCY: 9.41741 cycles
DTLB RQ	ACCESS:   13150007	FORWARD:          0	MERGED:    4230470	TO_CACHE:    8919537

STLB TOTAL     ACCESS:    1219096  HIT:    1215933  MISS:       3163  HIT %:    99.7405  MISS %:   0.259455   MPKI: 0.06326
STLB LOAD TRANSLATION INSTRUCTION	ACCESS:     446298  HIT:     445722  MISS:        576  HIT %:    99.8709  MISS %:   0.129062  MPKI: 0.01152
STLB LOAD TRANSLATION DATA	ACCESS:     474772  HIT:     472211  MISS:       2561  HIT %:    99.4606  MISS %:   0.539417  MPKI: 0.05122
STLB TRANSLATION FROM L1D PREFETCHER DATA	ACCESS:     298026  HIT:     298000  MISS:         26  HIT %:    99.9913  MISS %: 0.00872407  MPKI: 0.00052

STLB AVERAGE MISS LATENCY: 64.424 cycles
STLB RQ	ACCESS:    1395418	FORWARD:          0	MERGED:     176227	TO_CACHE:    1219191

STLB Hit, L1D data hit: 0
STLB Hit, L2C data hit: 0
STLB Hit, LLC data hit: 0
STLB Hit, LLC data miss: 0
STLB STLB hints to L2: 0
L1D TOTAL     ACCESS:   12993895  HIT:   11893854  MISS:    1100041  HIT %:    91.5342  MISS %:    8.46583   MPKI: 22.0008
L1D LOAD DATA	ACCESS:    6520747  HIT:    5807743  MISS:     713004  HIT %:    89.0656  MISS %:    10.9344  MPKI: 14.2601
L1D RFO DATA	ACCESS:    6078340  HIT:    5801730  MISS:     276610  HIT %:    95.4493  MISS %:    4.55075  MPKI: 5.5322
L1D PREFETCH DATA	ACCESS:     394808  HIT:     284381  MISS:     110427  HIT %:    72.0302  MISS %:    27.9698  MPKI: 2.20854

L1D PREFETCH  REQUESTED:     949060  ISSUED:     949060  USEFUL:      57331  USELESS:      72184
L1D USEFUL LOAD PREFETCHES:      57331 PREFETCH ISSUED TO LOWER LEVEL:     129587  ACCURACY: 44.2413
 TIMELY PREFETCHES:      57331 LATE PREFETCHES: 19089 DROPPED PREFETCHES: 45
L1D AVERAGE MISS LATENCY: 554052 cycles
L1D RQ	ACCESS:   10643513	FORWARD:          0	MERGED:    3932092	TO_CACHE:    6559794
L1D WQ	ACCESS:    6770009	FORWARD:     151999	MERGED:     179796	TO_CACHE:    6590213
L1D PQ	ACCESS:     474716	FORWARD:          0	MERGED:          0	TO_CACHE:     474344

L1D UNIQUE REGIONS ACCESSED: 0
L1D REGIONS CONFLICTS: 0
L1D Cross Page Prefetch Requests: 10348
L1D Same Page Prefetch Requests: 955915
L1D ROI Sum of L1D PQ occupancy: 6040225
L1D PREFETCHES PUSHED FROM L2C: 0
L1I TOTAL     ACCESS:    7099065  HIT:    4586683  MISS:    2512382  HIT %:    64.6097  MISS %:    35.3903   MPKI: 50.2476
L1I LOAD INSTRUCTION	ACCESS:    6419260  HIT:    3906878  MISS:    2512382  HIT %:    60.8618  MISS %:    39.1382  MPKI: 50.2476
L1I PREFETCH INSTRUCTION	ACCESS:     679805  HIT:     679805  MISS:          0  HIT %:        100  MISS %:          0  MPKI: 0

L1I PREFETCH  REQUESTED:    1581928  ISSUED:    1581928  USEFUL:          0  USELESS:          0
L1I USEFUL LOAD PREFETCHES:          0 PREFETCH ISSUED TO LOWER LEVEL:          0  ACCURACY: -nan
 TIMELY PREFETCHES:          0 LATE PREFETCHES: 0 DROPPED PREFETCHES: 0
L1I AVERAGE MISS LATENCY: 17.2747 cycles
L1I RQ	ACCESS:    9448156	FORWARD:          0	MERGED:    2740363	TO_CACHE:    6707793
L1I PQ	ACCESS:    1581928	FORWARD:          0	MERGED:     451362	TO_CACHE:    1130566

L1BTB TOTAL     ACCESS:    5844377  HIT:    2450524  MISS:    3393853  HIT %:    41.9296  MISS %:    58.0704   MPKI: 67.8771
L1BTB BRANCH_DIRECT_JUMP	ACCESS:     589581  HIT:     197488  MISS:     392093	AVERAGE STALL: 39.2514
L1BTB BRANCH_INDIRECT	ACCESS:     172404  HIT:      56758  MISS:     115646	AVERAGE STALL: 92.2345
L1BTB BRANCH_CONDITIONAL	ACCESS:    2990713  HIT:    1780626  MISS:    1210087	AVERAGE STALL: 56.2077
L1BTB BRANCH_DIRECT_CALL	ACCESS:     886104  HIT:     107605  MISS:     778499	AVERAGE STALL: 66.2212
L1BTB BRANCH_INDIRECT_CALL	ACCESS:     159736  HIT:      20351  MISS:     139385	AVERAGE STALL: 114.215
L1BTB BRANCH_RETURN	ACCESS:    1045839  HIT:     287696  MISS:     758143	AVERAGE STALL: 45.5762
L1BTB BRANCH_OTHER ACCESS:          0  HIT:          0  MISS:          0	AVERAGE STALL: -nan
L1BTB TOTAL ROB OCCUPANCY AT BTB MISS: 2.24206

L2BTB TOTAL     ACCESS:    3368570  HIT:    3314201  MISS:      54369  HIT %:     98.386  MISS %:    1.61401   MPKI: 1.08738
L2BTB BRANCH_DIRECT_JUMP	ACCESS:     387032  HIT:     382536  MISS:       4496	AVERAGE STALL: 39.2514
L2BTB BRANCH_INDIRECT	ACCESS:     105827  HIT:     103315  MISS:       2512	AVERAGE STALL: 92.2345
L2BTB BRANCH_CONDITIONAL	ACCESS:    1210087  HIT:    1206049  MISS:       4038	AVERAGE STALL: 56.2077
L2BTB BRANCH_DIRECT_CALL	ACCESS:     778499  HIT:     776882  MISS:       1617	AVERAGE STALL: 66.2212
L2BTB BRANCH_INDIRECT_CALL	ACCESS:     130004  HIT:     120584  MISS:       9420	AVERAGE STALL: 114.215
L2BTB BRANCH_RETURN	ACCESS:     757121  HIT:     724835  MISS:      32286	AVERAGE STALL: 45.5762
L2BTB BRANCH_OTHER ACCESS:          0  HIT:          0  MISS:          0	AVERAGE STALL: -nan
L2BTB TOTAL ROB OCCUPANCY AT BTB MISS: 139.955

L2C TOTAL     ACCESS:    4182538  HIT:    3699641  MISS:     482897  HIT %:    88.4545  MISS %:    11.5455   MPKI: 9.65794
L2C LOAD INSTRUCTION	ACCESS:    2512381  HIT:    2268327  MISS:     244054  HIT %:    90.2859  MISS %:    9.71405  MPKI: 4.88108
L2C LOAD TRANSLATION INSTRUCTION	ACCESS:        644  HIT:        295  MISS:        349  HIT %:    45.8075  MISS %:    54.1925  MPKI: 0.00698
L2C LOAD DATA	ACCESS:     693780  HIT:     611842  MISS:      81938  HIT %:    88.1896  MISS %:    11.8104  MPKI: 1.63876
L2C RFO DATA	ACCESS:     276518  HIT:     220830  MISS:      55688  HIT %:     79.861  MISS %:     20.139  MPKI: 1.11376
L2C PREFETCH DATA	ACCESS:     212403  HIT:     127212  MISS:      85191  HIT %:    59.8918  MISS %:    40.1082  MPKI: 1.70382
L2C WRITEBACK DATA	ACCESS:     483945  HIT:     470169  MISS:      13776  HIT %:    97.1534  MISS %:     2.8466  MPKI: 0.27552
L2C LOAD TRANSLATION DATA	ACCESS:       2779  HIT:        926  MISS:       1853  HIT %:    33.3213  MISS %:    66.6787  MPKI: 0.03706
L2C TRANSLATION FROM L1D PREFETCHER DATA	ACCESS:         88  HIT:         40  MISS:         48  HIT %:    45.4545  MISS %:    54.5455  MPKI: 0.00096

L2C PREFETCH  REQUESTED:      91144  ISSUED:      91144  USEFUL:      10070  USELESS:      75796
L2C USEFUL LOAD PREFETCHES:      10070 PREFETCH ISSUED TO LOWER LEVEL:      85713  ACCURACY: 11.7485
 TIMELY PREFETCHES:      10070 LATE PREFETCHES: 522 DROPPED PREFETCHES: 0
L2C AVERAGE MISS LATENCY: 42.4194 cycles
L2C RQ	ACCESS:    3486346	FORWARD:          0	MERGED:          0	TO_CACHE:    3486190
L2C WQ	ACCESS:     483945	FORWARD:        157	MERGED:          0	TO_CACHE:     483945
L2C PQ	ACCESS:     220731	FORWARD:          0	MERGED:       3421	TO_CACHE:     217309

L2C Dense regions hint from L2: 0
PSCL5 TOTAL     ACCESS:       6418  HIT:       3209  MISS:       3209  HIT %:         50  MISS %:         50   MPKI: 0.06418
PSCL5 LOAD TRANSLATION INSTRUCTION	ACCESS:       6254  HIT:       3127  MISS:       3127  HIT %:         50  MISS %:         50  MPKI: 0.06254
PSCL5 TRANSLATION FROM L1D PREFETCHER INSTRUCTION	ACCESS:        164  HIT:         82  MISS:         82  HIT %:         50  MISS %:         50  MPKI: 0.00164


PSCL4 TOTAL     ACCESS:       5973  HIT:       2980  MISS:       2993  HIT %:    49.8912  MISS %:    50.1088   MPKI: 0.05986
PSCL4 LOAD TRANSLATION INSTRUCTION	ACCESS:       3075  HIT:       2900  MISS:        175  HIT %:    94.3089  MISS %:    5.69106  MPKI: 0.0035
PSCL4 TRANSLATION FROM L1D PREFETCHER INSTRUCTION	ACCESS:         80  HIT:         80  MISS:          0  HIT %:        100  MISS %:          0  MPKI: 0
PSCL4 LOAD TRANSLATION DATA	ACCESS:       2738  HIT:          0  MISS:       2738  HIT %:          0  MISS %:        100  MPKI: 0.05476
PSCL4 TRANSLATION FROM L1D PREFETCHER DATA	ACCESS:         80  HIT:          0  MISS:         80  HIT %:          0  MISS %:        100  MPKI: 0.0016


PSCL3 TOTAL     ACCESS:       6331  HIT:       3159  MISS:       3172  HIT %:    49.8973  MISS %:    50.1027   MPKI: 0.06344
PSCL3 LOAD TRANSLATION INSTRUCTION	ACCESS:       3253  HIT:       3078  MISS:        175  HIT %:    94.6204  MISS %:    5.37965  MPKI: 0.0035
PSCL3 TRANSLATION FROM L1D PREFETCHER INSTRUCTION	ACCESS:         81  HIT:         81  MISS:          0  HIT %:        100  MISS %:          0  MPKI: 0
PSCL3 LOAD TRANSLATION DATA	ACCESS:       2916  HIT:          0  MISS:       2916  HIT %:          0  MISS %:        100  MPKI: 0.05832
PSCL3 TRANSLATION FROM L1D PREFETCHER DATA	ACCESS:         81  HIT:          0  MISS:         81  HIT %:          0  MISS %:        100  MPKI: 0.00162


PSCL2 TOTAL     ACCESS:       6139  HIT:       2934  MISS:       3205  HIT %:    47.7928  MISS %:    52.2072   MPKI: 0.0641
PSCL2 LOAD TRANSLATION INSTRUCTION	ACCESS:       3426  HIT:       2856  MISS:        570  HIT %:    83.3625  MISS %:    16.6375  MPKI: 0.0114
PSCL2 TRANSLATION FROM L1D PREFETCHER INSTRUCTION	ACCESS:         78  HIT:         78  MISS:          0  HIT %:        100  MISS %:          0  MPKI: 0
PSCL2 LOAD TRANSLATION DATA	ACCESS:       2557  HIT:          0  MISS:       2557  HIT %:          0  MISS %:        100  MPKI: 0.05114
PSCL2 TRANSLATION FROM L1D PREFETCHER DATA	ACCESS:         78  HIT:          0  MISS:         78  HIT %:          0  MISS %:        100  MPKI: 0.00156


LLC TOTAL     ACCESS:     547878  HIT:     508952  MISS:      38926  HIT %:    92.8951  MISS %:    7.10487   MPKI: 0.77852
LLC LOAD INSTRUCTION	ACCESS:     244054  HIT:     242996  MISS:       1058  HIT %:    99.5665  MISS %:   0.433511  MPKI: 0.02116
LLC LOAD TRANSLATION INSTRUCTION	ACCESS:        349  HIT:        308  MISS:         41  HIT %:    88.2521  MISS %:    11.7479  MPKI: 0.00082
LLC LOAD DATA	ACCESS:      81492  HIT:      76669  MISS:       4823  HIT %:    94.0816  MISS %:    5.91837  MPKI: 0.09646
LLC RFO DATA	ACCESS:      55610  HIT:      36680  MISS:      18930  HIT %:    65.9594  MISS %:    34.0406  MPKI: 0.3786
LLC PREFETCH DATA	ACCESS:      85713  HIT:      72184  MISS:      13529  HIT %:    84.2159  MISS %:    15.7841  MPKI: 0.27058
LLC WRITEBACK DATA	ACCESS:      78759  HIT:      78343  MISS:        416  HIT %:    99.4718  MISS %:   0.528194  MPKI: 0.00832
LLC LOAD TRANSLATION DATA	ACCESS:       1853  HIT:       1731  MISS:        122  HIT %:    93.4161  MISS %:    6.58392  MPKI: 0.00244
LLC TRANSLATION FROM L1D PREFETCHER DATA	ACCESS:         48  HIT:         41  MISS:          7  HIT %:    85.4167  MISS %:    14.5833  MPKI: 0.00014

LLC AVERAGE MISS LATENCY: 163.819 cycles
LLC RQ	ACCESS:     383408	FORWARD:          0	MERGED:          0	TO_CACHE:     383406
LLC WQ	ACCESS:      78759	FORWARD:          2	MERGED:          0	TO_CACHE:      78759
LLC PQ	ACCESS:      85713	FORWARD:          0	MERGED:          0	TO_CACHE:      85713

LLC Dense regions hint to LLC: 0

RAW hits: 1806800
Loads Generated: 12450313
Loads sent to L1D: 10643513
Stores Generated: 6769986
Stores sent to L1D: 6770009
Major fault: 0 Minor fault: 2529
Allocated PAGES: 2529

stream: 
stream:times selected: 1485993
stream:pref_filled: 130735
stream:pref_useful: 31144
stream:pref_late: 10432
stream:misses: 13449
stream:misses_by_poll: 0

CS: 
CS:times selected: 237468
CS:pref_filled: 85610
CS:pref_useful: 60806
CS:pref_late: 11524
CS:misses: 29883
CS:misses_by_poll: 3

CPLX: 
CPLX:times selected: 1246383
CPLX:pref_filled: 29237
CPLX:pref_useful: 9742
CPLX:pref_late: 5189
CPLX:misses: 149468
CPLX:misses_by_poll: 1

NL_L1: 
NL:times selected: 28602
NL:pref_filled: 1947
NL:pref_useful: 928
NL:pref_late: 766
NL:misses: 3757
NL:misses_by_poll: 0

total selections: 2998446
total_filled: 110427
total_useful: 57331
total_late: 31295
total_polluted: 4
total_misses_after_warmup: 752056
conflicts: 5222260

test: 175921

DRAM Statistics
 CHANNEL 0
 RQ ROW_BUFFER_HIT:      13261  ROW_BUFFER_MISS:      25239
 DBUS_CONGESTED:         10
 WQ ROW_BUFFER_HIT:       2184  ROW_BUFFER_MISS:      18789  FULL:          0

 AVG_CONGESTED_CYCLE: 4

CPU 0 Branch Prediction Accuracy: 99.7504% MPKI: 0.4573 Average ROB Occupancy at Mispredict: 172.418
Branch types
NOT_BRANCH: 40838285 81.6766%
BRANCH_DIRECT_JUMP: 589581 1.17916%
BRANCH_INDIRECT: 172404 0.344808%
BRANCH_CONDITIONAL: 6307960 12.6159%
BRANCH_DIRECT_CALL: 886104 1.77221%
BRANCH_INDIRECT_CALL: 159736 0.319472%
BRANCH_RETURN: 1045839 2.09168%
BRANCH_OTHER: 0 0%

DRAM PAGES: 1048576
Allocated PAGES: 2529
Average_ROB_Occupancy: 218.365
Average_Decode_Occupancy: 28.4455
Average_FTQ_Occupancy: 10.9653
Indirect max targets: 14 Average targets: 1.14901
Branch_type:  BRANCH_DIRECT_JUMP:  Count Percentage: 9.64259 5.09618 4.66608 13.5032 5.22452 2.24539 1.96706 57.6549 
Branch_type:  BRANCH_INDIRECT:  Count Percentage: 5.52769 1.162 14.3352 25.1968 1.37866 16.586 1.78003 34.0336 
Branch_type:  BRANCH_CONDITIONAL:  Count Percentage: 26.4338 2.77984 2.9764 8.35977 2.38979 2.26325 2.16892 52.6282 
Branch_type:  BRANCH_DIRECT_CALL:  Count Percentage: 0.341337 1.29045 1.83381 4.84843 3.03075 2.1258 3.43734 83.0921 
Branch_type:  BRANCH_INDIRECT_CALL:  Count Percentage: 8.72641 0.835574 2.97789 10.165 0.000626133 3.89204 2.77158 70.6309 
Branch_type:  BRANCH_RETURN:  Count Percentage: 3.92467 0.647502 3.47117 9.94929 4.04037 3.69417 2.74145 71.5314 
Branch_type:  BRANCH_DIRECT_JUMP:  Total Count: 113531 60002 54938 158986 61513 26437 23160 678824 
Branch_type:  BRANCH_INDIRECT:  Total Count: 19033 4001 49359 86758 4747 57109 6129 117185 
Branch_type:  BRANCH_CONDITIONAL:  Total Count: 3333099 350517 375301 1054103 301334 285379 273484 6636020 
Branch_type:  BRANCH_DIRECT_CALL:  Total Count: 6052 22880 32514 85964 53736 37691 60945 1473247 
Branch_type:  BRANCH_INDIRECT_CALL:  Total Count: 27874 2669 9512 32469 2 12432 8853 225610 
Branch_type:  BRANCH_RETURN:  Total Count: 82154 13554 72661 208266 84576 77329 57386 1497348 
Number of unique branch instructions: 10145
Upper 32 bits: 
aaaa
ffff
ffff0000
Unique upper 32 bits: 3
Unique upper 36 bits: 3
Unique upper 40 bits: 5
Unique upper 44 bits: 32
Unique upper 48 bits: 157
Variant_0 : 1392 0.339844
Variant_1 : 1281 0.312744
Variant_2 : 1362 0.33252
Variant_3 : 0 0
Offset_3 4186
Offset_4 265
Offset_5 474
Offset_6 514
Offset_7 604
Offset_8 522
Offset_9 482
Offset_10 380
Offset_11 324
Offset_12 282
Offset_13 216
Offset_14 231
Offset_15 193
Offset_16 226
Offset_17 155
Offset_18 118
Offset_19 242
Offset_20 142
Offset_21 265
Offset_22 396
Offset_23 241
Offset_24 353
Offset_25 88
Offset_47 86
Offset_64 3
decode_dispatch_called: 23743347 65.0663
Dispatch_width: 0 12417893 52.3005 34.03
Dispatch_width: 1 834564 3.51494 2.28704
Dispatch_width: 2 797423 3.35851 2.18526
Dispatch_width: 3 476897 2.00855 1.30689
Dispatch_width: 4 4473858 18.8426 12.2602
Dispatch_width: 5 211804 0.892056 0.580428
Dispatch_width: 6 4530908 19.0829 12.4165
Empty_decode_cycles: 12747655 34.9337
ROB_full_cycles: 6949395 19.0441
Starvation_cycles_per_kilo_instr: 250.107
Starvation_cycles_per_kilo_instr_3: 203.25
Starvation_cycles_per_kilo_instr_0: 182.162
Branch_type_1  (3,1)  (4,11)  (5,38)  (6,69)  (7,118)  (8,135)  (9,129)  (10,90)  (11,74)  (12,44)  (13,9)  (14,2)  (15,3)  (16,4)  (18,1)  (19,4)  (20,2)  (21,1)  (22,3)  (23,2)  (24,10)  (25,12) 
Branch_type_2  (3,1)  (5,1)  (8,2)  (9,3)  (12,1)  (13,1)  (14,1)  (16,3)  (17,2)  (20,2)  (21,2)  (23,5)  (24,1)  (47,40) 
Branch_type_3  (3,4184)  (4,254)  (5,431)  (6,430)  (7,453)  (8,324)  (9,264)  (10,156)  (11,132)  (12,54)  (13,8)  (64,3) 
Branch_type_4  (6,3)  (7,8)  (8,25)  (9,54)  (10,62)  (11,61)  (12,100)  (13,91)  (14,104)  (15,91)  (16,101)  (17,70)  (18,53)  (19,118)  (20,73)  (21,144)  (22,211)  (23,136)  (24,202)  (25,72) 
Branch_type_5  (8,2)  (9,1)  (10,4)  (11,5)  (12,3)  (13,14)  (14,16)  (15,11)  (16,20)  (17,11)  (18,16)  (19,13)  (20,11)  (21,13)  (22,42)  (23,26)  (24,41) 
Branch_type_6  (5,4)  (6,12)  (7,25)  (8,34)  (9,31)  (10,68)  (11,52)  (12,80)  (13,93)  (14,108)  (15,88)  (16,98)  (17,72)  (18,48)  (19,107)  (20,54)  (21,105)  (22,140)  (23,72)  (24,99)  (25,4)  (47,46) 
Unique trigger count: 
Variant_0_evicts_0 : 0
Variant_0_evicts_1 : 0
Variant_0_evicts_2 : 0
Variant_0_evicts_3 : 0
Variant_1_evicts_0 : 0
Variant_1_evicts_1 : 0
Variant_1_evicts_2 : 0
Variant_1_evicts_3 : 0
Variant_2_evicts_0 : 0
Variant_2_evicts_1 : 0
Variant_2_evicts_2 : 0
Variant_2_evicts_3 : 0
Variant_3_evicts_0 : 0
Variant_3_evicts_1 : 0
Variant_3_evicts_2 : 0
Variant_3_evicts_3 : 0
BTB PER SET UNIQUE ADDR: 14 17 9 11 16 18 10 16 10 10 10 16 18 16 11 11 10 13 12 13 13 13 19 12 11 14 12 16 16 10 13 14 13 9 7 13 11 14 6 9 9 10 11 14 10 7 11 9 10 12 11 13 10 10 10 7 8 10 6 9 11 13 8 12 12 14 12 10 13 14 15 10 15 9 10 7 8 14 8 11 16 7 10 15 14 12 11 12 9 14 7 8 12 12 6 12 9 9 14 15 13 20 9 10 8 9 7 13 10 8 10 17 11 14 10 7 11 7 12 13 9 8 8 9 13 8 6 9 16 9 9 11 15 16 10 7 7 16 12 15 10 12 9 11 11 12 10 11 9 9 11 11 15 11 11 15 14 15 12 14 10 10 14 11 12 11 12 10 11 9 13 12 9 15 17 8 12 9 7 10 11 15 12 13 15 13 5 10 12 11 11 13 12 19 13 14 9 18 8 15 11 15 9 9 5 12 11 10 8 12 10 15 12 12 9 13 11 12 14 18 8 15 7 12 7 11 15 10 9 14 9 7 13 12 9 14 7 10 10 6 16 12 9 14 7 11 11 10 14 6 9 10 17 11 13 13 9 10 11 10 16 13 5 12 14 8 13 9 11 12 13 14 8 7 10 12 12 19 13 11 11 12 8 13 12 11 11 14 14 9 9 10 12 11 10 12 16 10 15 13 9 8 10 19 13 18 13 10 15 9 11 14 9 19 9 5 16 12 12 11 10 12 10 8 13 17 10 8 10 9 14 16 12 11 9 13 8 14 8 20 10 12 11 20 12 16 11 11 12 8 15 11 8 11 10 11 10 9 9 15 13 15 6 14 11 9 6 7 9 13 12 9 16 16 9 14 11 9 12 9 14 10 8 9 9 11 12 17 14 10 13 8 20 12 11 9 14 14 16 6 13 12 8 15 15 11 13 16 9 12 13 6 8 13 9 14 14 13 13 16 13 12 16 12 16 7 12 9 11 9 14 7 10 14 19 13 14 9 11 8 12 7 10 14 17 10 9 14 17 13 11 15 13 7 11 19 15 12 9 15 10 13 12 9 15 13 9 9 14 15 8 11 10 12 10 16 11 19 10 10 14 11 10 13 6 13 16 21 16 16 10 13 14 5 13 10 13 13 10 12 13 11 13 16 10 7 10 13 12 12 12 14 10 7 17 10 15 22 10 13 9 11 14 8 10 14 18 10 5 15 10 14 14 12 14 13 12 14 12 12 17 13 13 12 17 14 8 11 5 11 14 12 12 15 12 14 12 8 13 14 8 13 12 12 8 16 15 12 11 17 13 11 15 13 10 15 16 17 12 11 15 13 6 12 15 13 10 11 11 21 12 14 16 8 11 8 9 10 7 15 11 12 11 7 9 16 20 14 13 9 11 13 6 8 4 16 10 17 9 12 14 6 7 10 14 11 6 15 9 15 11 17 14 13 12 12 11 17 9 17 8 14 13 12 7 13 9 11 19 13 8 18 7 8 16 11 10 8 10 12 12 6 9 9 12 13 12 10 10 10 11 9 13 12 24 11 15 16 10 10 9 12 12 14 18 15 9 11 12 14 12 12 15 10 11 9 7 14 9 10 5 10 11 13 8 10 13 14 10 9 10 10 6 10 11 12 15 12 13 16 11 6 14 11 11 9 11 10 10 9 12 10 12 10 12 13 12 17 15 10 10 12 13 13 19 11 13 15 11 8 17 12 11 13 7 10 15 9 8 9 9 9 7 11 10 12 7 14 8 11 9 15 10 8 5 11 13 11 15 13 8 10 18 10 16 10 8 11 7 10 9 5 15 8 14 19 9 13 17 7 14 11 15 12 16 13 12 9 11 13 9 17 13 16 13 14 22 14 8 16 9 12 9 12 11 14 14 11 11 16 9 18 15 9 9 17 10 9 12 8 17 13 8 12 15 17 10 13 8 12 11 11 9 13 10 13 10 10 5 13 18 14 8 12 17 9 15 9 17 10 11 12 9 9 17 4 11 13 8 11 14 8 11 12 11 10 14 11 12 16 12 8 11 12 10 14 12 15 9 11 14 9 10 15 8 8 9 8 11 15 9 10 8 15 11 13 17 14 14 8 11 11 15 9 9 8 8 13 11 7 12 16 13 12 13 14 7 11 13 15 7 17 5 7 16 12 13 13 6 16 12 12 11 17 9 12 11 11 8 11 16 15 13 14 11 14 11 14 9 11 11 13 10 11 17 13 15 9 10 19 13 16 10 16 9 19 17 10 13 13 17 13 12 10 13 11 10 15 15 12 11 14 7 10 12 14 10 18 10 15 12 14 11 7 10 14 5 11 8 8 11 19 12 7 
BTB PER SET COUNT: 17 18 2016 14 914 21 703 31 675 10 10 323 17434 1394 18 20 710 1529 17 32 23 23 568 122 11 18 34 18 268 19 17 101 18 14 9 16 17 17 6 682 14 14 12 19 1107 7 23 14 15 19 12 156 14 19 65 10 13 13 6 19 14 20 10 18 18 19 16 2104 21 27 34 174 20 11 16 7 14 21 10 14 840 15 22 133 21 103 11 15 10 32 8 13 17 17 7 14 482 13 47 2549 18 34 15 11 1240 17 12 16 694 8 19 23 16 21 15 1613 14 7 1662 16 14 56 12 11 17 16 7 10 28 761 11 4674 35 28 16 8 698 53 13 27 21 15 10 24 34 17 506 14 12 128 12 15 1134 15 18 20 20 22 15 218 14 11 19 14 1107 180 17 14 15 1114 18 14 14 31 19 8 13 15 7 704 15 21 30 20 21 24 7 16 690 12 15 18 17 28 14 24 10 1851 10 15 14 26 700 10 6 13 15 13 10 19 14 27 18 5882 11 721 17 26 1972 46 10 23 15 17 11 29 20 14 10 15 16 8 21 13 11 1487 39 15 14 9 762 14 14 544 10 1253 13 11 253 8 17 14 30 11 24 19 117 14 18 15 668 21 5 204 22 10 22 9 1681 17 23 691 11 8 11 12 15 30 17 18 12 18 9 17 16 16 12 22 23 9 10 14 23 166 12 25 499 12 23 17 12 20 10 31 14 39 29 15 187 650 27 16 10 31 821 1338 19 14 27 17 10 103 13 11 1106 30 185 14 21 13 22 22 16 14 14 23 13 21 11 26 14 349 14 33 19 21 21 15 17 10 23 13 11 16 12 12 15 15 380 24 19 20 7 18 14 9 10 8 12 22 363 9 29 27 706 534 16 11 16 9 464 10 9 13 15 14 437 28 19 58 183 11 36 527 36 11 14 16 630 6 14 25 8 27 21 16 19 24 10 13 36 6 8 712 13 18 19 216 21 22 19 46 80 15 19 29 768 9 20 11 104 7 16 23 364 28 19 12 19 13 20 8 12 17 964 12 15 18 28 19 15 1751 13 9 178 1121 18 16 12 16 12 25 14 10 23 175 14 11 16 24 12 15 12 14 12 31 17 385 11 28 20 18 11 25 7 15 27 38 20 24 1012 15 789 7 16 11 442 21 17 26 14 25 27 219 17 8 15 21 15 15 37 21 262 341 29 15 22 35 18 156 11 14 24 381 17 17 24 10 6 1753 20 19 17 15 22 14 20 1237 24 122 24 13 15 15 27 349 9 14 5 29 24 15 382 48 18 20 20 8 20 15 10 96 15 13 9 28 32 13 18 29 54 16 18 23 1803 24 19 655 19 24 29 20 8 3204 25 24 10 13 17 29 18 22 24 10 31 11 607 286 7 26 13 13 20 9 15 20 29 21 30 9 19 22 6 8 4 21 10 25 13 19 21 7 9 16 27 16 6 358 10 28 17 27 15 18 16 16 14 1362 11 385 12 200 14 13 11 22 717 15 123 17 10 34 7 9 23 355 10 9 65 709 14 6 16 11 18 22 18 701 1108 21 18 14 80 16 44 350 20 30 14 14 17 17 495 18 27 21 9 11 37 54 16 18 25 13 218 20 8 221 9 13 658 20 1064 17 11 11 26 20 11 62 12 15 1349 18 14 98 111 25 18 22 14 6 21 1114 14 13 12 18 683 10 17 5037 17 14 12 22 833 31 18 16 10 24 16 18 621 14 2021 23 19 9 478 16 14 1537 9 12 20 578 10 10 10 11 8 13 28 24 8 22 8 13 58 23 16 9 5 16 17 15 21 17 1344 18 696 13 20 18 10 13 9 15 17 5 24 9 898 30 139 19 28 12 125 19 20 21 30 70 25 10 20 51 11 3629 22 25 21 40 79 23 13 585 12 15 33 25 14 20 21 22 12 25 10 27 22 12 197 370 12 678 14 16 25 706 12 17 523 20 21 17 11 19 25 1313 22 21 97 19 18 11 7 13 376 418 10 16 1311 10 26 10 22 12 259 22 15 13 128 4 15 23 12 14 21 10 91 13 409 423 16 16 13 22 13 1691 375 2629 11 28 14 19 13 14 19 13 25 22 17 10 10 9 18 254 15 361 16 23 16 53 947 18 23 11 15 583 428 9 26 11 14 17 16 7 17 23 15 18 16 2292 8 14 1059 25 8 178 5 8 18 14 19 19 6 23 15 920 716 2381 13 23 22 11 11 1111 21 36 321 16 17 24 13 18 14 86 20 13 15 14 442 25 19 10 764 32 21 660 16 715 16 632 30 365 22 20 30 155 60 643 17 12 12 1071 20 18 20 70 7 16 25 17 15 29 15 715 22 24 15 14 15 21 6 220 11 10 15 35 16 10 
To predecode: 0
Predecoding something: 0
Predecode request dropped: 0
sizeofblock_0 0
sizeofblock_1 36526
sizeofblock_2 34812
sizeofblock_3 32330
sizeofblock_4 15815
sizeofblock_5 0
sizeofblock_6 0
sizeofblock_7 0
sizeofblock_8 0
Variant_0 Correct: 1528531 Incorrect: 0 Accuracy: 1
Variant_1 Correct: 1938970 Incorrect: 0 Accuracy: 1
Variant_2 Correct: 3397445 Incorrect: 0 Accuracy: 1
Variant_3 Correct: 0 Incorrect: 0 Accuracy: -nan
