
*** ChampSim Multicore Out-of-Order Simulator ***

Warmup Instructions: 50000000
Simulation Instructions: 50000000
Number of CPUs: 1
LLC sets: 2048
LLC ways: 16
Off-chip DRAM Size: 4096 MB Channels: 1 Width: 64-bit Data Rate: 6400 MT/s
CPU 0 runs ./micro_traces/srv286.trace.gz
.gz
ITLB has LRU replacement policy
DTLB has LRU replacement policy
STLB has LRU replacement policy
FDIP Prefetcher at L1I
L1I has LRU replacement policy
L1D has LRU replacement policy
Initialize SRRIP state for L2C
Initialize DRRIP state for LLC
Heartbeat CPU 0 instructions: 10000003 cycles: 2797445 heartbeat IPC: 3.57469 cumulative IPC: 3.57469 (Simulation time: 0 hr 3 min 8 sec) 
Heartbeat CPU 0 instructions: 20000000 cycles: 5595554 heartbeat IPC: 3.57384 cumulative IPC: 3.57427 (Simulation time: 0 hr 5 min 0 sec) 
Heartbeat CPU 0 instructions: 30000001 cycles: 8391549 heartbeat IPC: 3.57654 cumulative IPC: 3.57503 (Simulation time: 0 hr 6 min 52 sec) 
Heartbeat CPU 0 instructions: 40000000 cycles: 11188947 heartbeat IPC: 3.57475 cumulative IPC: 3.57496 (Simulation time: 0 hr 8 min 51 sec) 
Heartbeat CPU 0 instructions: 50000003 cycles: 13985500 heartbeat IPC: 3.57583 cumulative IPC: 3.57513 (Simulation time: 0 hr 10 min 52 sec) 

Warmup complete CPU 0 instructions: 50000003 cycles: 13985500 (Simulation time: 0 hr 10 min 52 sec) 

Cycle: 20000000 FTQ IN: 58559138 FTQ occupancy: 21.5114 DECODE IN: 58558952 DECODE occupancy: 55.2186 ROB IN: 58558892 ROB occupancy: 323.854 ROB OUT: 58558544
Heartbeat CPU 0 instructions: 60000000 cycles: 21004565 heartbeat IPC: 1.42469 cumulative IPC: 1.42469 (Simulation time: 0 hr 13 min 22 sec) 
Heartbeat CPU 0 instructions: 70000000 cycles: 28042543 heartbeat IPC: 1.42086 cumulative IPC: 1.42277 (Simulation time: 0 hr 15 min 40 sec) 
Cycle: 30000000 FTQ IN: 14238034 FTQ occupancy: 17.8567 DECODE IN: 14238097 DECODE occupancy: 43.7642 ROB IN: 14238097 ROB occupancy: 265.129 ROB OUT: 14238097
Heartbeat CPU 0 instructions: 80000002 cycles: 35101251 heartbeat IPC: 1.41669 cumulative IPC: 1.42074 (Simulation time: 0 hr 17 min 59 sec) 
Cycle: 40000000 FTQ IN: 14249254 FTQ occupancy: 18.0192 DECODE IN: 14249240 DECODE occupancy: 43.9964 ROB IN: 14249240 ROB occupancy: 266.908 ROB OUT: 14249236
Heartbeat CPU 0 instructions: 90000000 cycles: 42058096 heartbeat IPC: 1.43743 cumulative IPC: 1.42488 (Simulation time: 0 hr 20 min 29 sec) 
Heartbeat CPU 0 instructions: 100000001 cycles: 49119205 heartbeat IPC: 1.41621 cumulative IPC: 1.42313 (Simulation time: 0 hr 22 min 51 sec) 
Finished CPU 0 instructions: 50000002 cycles: 35133706 cumulative IPC: 1.42313 (Simulation time: 0 hr 22 min 51 sec) 

ChampSim completed all CPUs

Region of Interest Statistics

CPU 0 cumulative IPC: 1.42313 instructions: 50000002 cycles: 35133706
 Fetch stage stalled: 23.6723  Sim cycles: 35133706 fetch stall cycle: 8316939
 Empty decode stage: 12.5496  Sim cycles: 35133706 fetch stall cycle: 4409149
ITLB TOTAL     ACCESS:    5958454  HIT:    5467784  MISS:     490670  HIT %:    91.7651  MISS %:    8.23485   MPKI: 9.8134
ITLB LOAD TRANSLATION INSTRUCTION	ACCESS:    5804238  HIT:    5313568  MISS:     490670  HIT %:    91.5463  MISS %:    8.45365  MPKI: 9.8134
ITLB TRANSLATION FROM L1D PREFETCHER INSTRUCTION	ACCESS:     154216  HIT:     154216  MISS:          0  HIT %:        100  MISS %:          0  MPKI: 0

ITLB AVERAGE MISS LATENCY: 9.06178 cycles
ITLB RQ	ACCESS:    7933045	FORWARD:          0	MERGED:    1441560	TO_CACHE:    6491485

DTLB TOTAL     ACCESS:    8946369  HIT:    8475573  MISS:     470796  HIT %:    94.7376  MISS %:    5.26243   MPKI: 9.41592
DTLB LOAD TRANSLATION DATA	ACCESS:    8946369  HIT:    8475573  MISS:     470796  HIT %:    94.7376  MISS %:    5.26243  MPKI: 9.41592

DTLB AVERAGE MISS LATENCY: 9.33386 cycles
DTLB RQ	ACCESS:   13314611	FORWARD:          0	MERGED:    4331105	TO_CACHE:    8983506

STLB TOTAL     ACCESS:    1212207  HIT:    1210039  MISS:       2168  HIT %:    99.8212  MISS %:   0.178847   MPKI: 0.04336
STLB LOAD TRANSLATION INSTRUCTION	ACCESS:     490670  HIT:     490373  MISS:        297  HIT %:    99.9395  MISS %:  0.0605295  MPKI: 0.00594
STLB LOAD TRANSLATION DATA	ACCESS:     470796  HIT:     468952  MISS:       1844  HIT %:    99.6083  MISS %:   0.391677  MPKI: 0.03688
STLB TRANSLATION FROM L1D PREFETCHER DATA	ACCESS:     250741  HIT:     250714  MISS:         27  HIT %:    99.9892  MISS %:  0.0107681  MPKI: 0.00054

STLB AVERAGE MISS LATENCY: 72.3321 cycles
STLB RQ	ACCESS:    1334476	FORWARD:          0	MERGED:     122234	TO_CACHE:    1212242

STLB Hit, L1D data hit: 0
STLB Hit, L2C data hit: 0
STLB Hit, LLC data hit: 0
STLB Hit, LLC data miss: 0
STLB STLB hints to L2: 0
L1D TOTAL     ACCESS:   13067271  HIT:   11954075  MISS:    1113196  HIT %:     91.481  MISS %:    8.51896   MPKI: 22.2639
L1D LOAD DATA	ACCESS:    6536623  HIT:    5803915  MISS:     732708  HIT %:    88.7907  MISS %:    11.2093  MPKI: 14.6542
L1D RFO DATA	ACCESS:    6200010  HIT:    5914077  MISS:     285933  HIT %:    95.3882  MISS %:    4.61182  MPKI: 5.71866
L1D PREFETCH DATA	ACCESS:     330638  HIT:     236083  MISS:      94555  HIT %:    71.4023  MISS %:    28.5977  MPKI: 1.8911

L1D PREFETCH  REQUESTED:     746427  ISSUED:     746427  USEFUL:      34915  USELESS:      68651
L1D USEFUL LOAD PREFETCHES:      34915 PREFETCH ISSUED TO LOWER LEVEL:     103634  ACCURACY: 33.6907
 TIMELY PREFETCHES:      34915 LATE PREFETCHES: 9042 DROPPED PREFETCHES: 7
L1D AVERAGE MISS LATENCY: 257312 cycles
L1D RQ	ACCESS:   10685845	FORWARD:          0	MERGED:    3953293	TO_CACHE:    6570143
L1D WQ	ACCESS:    6941569	FORWARD:     162816	MERGED:     197101	TO_CACHE:    6744468
L1D PQ	ACCESS:     373417	FORWARD:          0	MERGED:          0	TO_CACHE:     373010

L1D UNIQUE REGIONS ACCESSED: 0
L1D REGIONS CONFLICTS: 0
L1D Cross Page Prefetch Requests: 6874
L1D Same Page Prefetch Requests: 749848
L1D ROI Sum of L1D PQ occupancy: 4747188
L1D PREFETCHES PUSHED FROM L2C: 0
L1I TOTAL     ACCESS:    7124667  HIT:    4374488  MISS:    2750179  HIT %:    61.3992  MISS %:    38.6008   MPKI: 55.0036
L1I LOAD INSTRUCTION	ACCESS:    6437355  HIT:    3687176  MISS:    2750179  HIT %:    57.2778  MISS %:    42.7222  MPKI: 55.0036
L1I PREFETCH INSTRUCTION	ACCESS:     687312  HIT:     687312  MISS:          0  HIT %:        100  MISS %:          0  MPKI: 0

L1I PREFETCH  REQUESTED:    1675898  ISSUED:    1675898  USEFUL:          0  USELESS:          0
L1I USEFUL LOAD PREFETCHES:          0 PREFETCH ISSUED TO LOWER LEVEL:          0  ACCURACY: -nan
 TIMELY PREFETCHES:          0 LATE PREFETCHES: 0 DROPPED PREFETCHES: 0
L1I AVERAGE MISS LATENCY: 17.4503 cycles
L1I RQ	ACCESS:    9839284	FORWARD:          0	MERGED:    3150576	TO_CACHE:    6688708
L1I PQ	ACCESS:    1675898	FORWARD:          0	MERGED:     431561	TO_CACHE:    1244337

L1BTB TOTAL     ACCESS:    5365439  HIT:    5332888  MISS:      32551  HIT %:    99.3933  MISS %:   0.606679   MPKI: 0.65102
L1BTB BRANCH_DIRECT_JUMP	ACCESS:     548067  HIT:     548067  MISS:          0	AVERAGE STALL: -nan
L1BTB BRANCH_INDIRECT	ACCESS:     183283  HIT:     170397  MISS:      12886	AVERAGE STALL: 125.587
L1BTB BRANCH_CONDITIONAL	ACCESS:    2407766  HIT:    2407766  MISS:          0	AVERAGE STALL: -nan
L1BTB BRANCH_DIRECT_CALL	ACCESS:     941936  HIT:     941936  MISS:          0	AVERAGE STALL: -nan
L1BTB BRANCH_INDIRECT_CALL	ACCESS:     171231  HIT:     151566  MISS:      19665	AVERAGE STALL: 163.148
L1BTB BRANCH_RETURN	ACCESS:    1113156  HIT:    1113156  MISS:          0	AVERAGE STALL: -nan
L1BTB BRANCH_OTHER ACCESS:          0  HIT:          0  MISS:          0	AVERAGE STALL: -nan
L1BTB TOTAL ROB OCCUPANCY AT BTB MISS: 126.385

L2BTB BRANCH_DIRECT_JUMP	ACCESS:          0  HIT:          0  MISS:          0	AVERAGE STALL: -nan
L2BTB BRANCH_INDIRECT	ACCESS:          0  HIT:          0  MISS:          0	AVERAGE STALL: 125.587
L2BTB BRANCH_CONDITIONAL	ACCESS:          0  HIT:          0  MISS:          0	AVERAGE STALL: -nan
L2BTB BRANCH_DIRECT_CALL	ACCESS:          0  HIT:          0  MISS:          0	AVERAGE STALL: -nan
L2BTB BRANCH_INDIRECT_CALL	ACCESS:          0  HIT:          0  MISS:          0	AVERAGE STALL: 163.148
L2BTB BRANCH_RETURN	ACCESS:          0  HIT:          0  MISS:          0	AVERAGE STALL: -nan
L2BTB BRANCH_OTHER ACCESS:          0  HIT:          0  MISS:          0	AVERAGE STALL: -nan
L2BTB TOTAL ROB OCCUPANCY AT BTB MISS: inf

L2C TOTAL     ACCESS:    4472692  HIT:    3977515  MISS:     495177  HIT %:    88.9289  MISS %:    11.0711   MPKI: 9.90354
L2C LOAD INSTRUCTION	ACCESS:    2750178  HIT:    2482355  MISS:     267823  HIT %:    90.2616  MISS %:    9.73839  MPKI: 5.35646
L2C LOAD TRANSLATION INSTRUCTION	ACCESS:        341  HIT:         85  MISS:        256  HIT %:    24.9267  MISS %:    75.0733  MPKI: 0.00512
L2C LOAD DATA	ACCESS:     723603  HIT:     642192  MISS:      81411  HIT %:    88.7492  MISS %:    11.2508  MPKI: 1.62822
L2C RFO DATA	ACCESS:     285872  HIT:     232287  MISS:      53585  HIT %:    81.2556  MISS %:    18.7444  MPKI: 1.0717
L2C PREFETCH DATA	ACCESS:     190820  HIT:     113376  MISS:      77444  HIT %:    59.4152  MISS %:    40.5848  MPKI: 1.54888
L2C WRITEBACK DATA	ACCESS:     519894  HIT:     506619  MISS:      13275  HIT %:    97.4466  MISS %:    2.55341  MPKI: 0.2655
L2C LOAD TRANSLATION DATA	ACCESS:       1932  HIT:        568  MISS:       1364  HIT %:    29.3996  MISS %:    70.6004  MPKI: 0.02728
L2C TRANSLATION FROM L1D PREFETCHER DATA	ACCESS:         52  HIT:         33  MISS:         19  HIT %:    63.4615  MISS %:    36.5385  MPKI: 0.00038

L2C PREFETCH  REQUESTED:      94078  ISSUED:      94078  USEFUL:       7963  USELESS:      69948
L2C USEFUL LOAD PREFETCHES:       7963 PREFETCH ISSUED TO LOWER LEVEL:      77826  ACCURACY: 10.2318
 TIMELY PREFETCHES:       7963 LATE PREFETCHES: 382 DROPPED PREFETCHES: 0
L2C AVERAGE MISS LATENCY: 39.0937 cycles
L2C RQ	ACCESS:    3762065	FORWARD:          0	MERGED:          0	TO_CACHE:    3761978
L2C WQ	ACCESS:     519894	FORWARD:         87	MERGED:          0	TO_CACHE:     519894
L2C PQ	ACCESS:     197712	FORWARD:          0	MERGED:       3276	TO_CACHE:     194436

L2C Dense regions hint from L2: 0
PSCL5 TOTAL     ACCESS:       4358  HIT:       2179  MISS:       2179  HIT %:         50  MISS %:         50   MPKI: 0.04358
PSCL5 LOAD TRANSLATION INSTRUCTION	ACCESS:       4254  HIT:       2127  MISS:       2127  HIT %:         50  MISS %:         50  MPKI: 0.04254
PSCL5 TRANSLATION FROM L1D PREFETCHER INSTRUCTION	ACCESS:        104  HIT:         52  MISS:         52  HIT %:         50  MISS %:         50  MPKI: 0.00104


PSCL4 TOTAL     ACCESS:       4128  HIT:       2058  MISS:       2070  HIT %:    49.8547  MISS %:    50.1453   MPKI: 0.0414
PSCL4 LOAD TRANSLATION INSTRUCTION	ACCESS:       2261  HIT:       2009  MISS:        252  HIT %:    88.8545  MISS %:    11.1455  MPKI: 0.00504
PSCL4 TRANSLATION FROM L1D PREFETCHER INSTRUCTION	ACCESS:         59  HIT:         49  MISS:         10  HIT %:    83.0508  MISS %:    16.9492  MPKI: 0.0002
PSCL4 LOAD TRANSLATION DATA	ACCESS:       1769  HIT:          0  MISS:       1769  HIT %:          0  MISS %:        100  MPKI: 0.03538
PSCL4 TRANSLATION FROM L1D PREFETCHER DATA	ACCESS:         39  HIT:          0  MISS:         39  HIT %:          0  MISS %:        100  MPKI: 0.00078


PSCL3 TOTAL     ACCESS:       4198  HIT:       2093  MISS:       2105  HIT %:    49.8571  MISS %:    50.1429   MPKI: 0.0421
PSCL3 LOAD TRANSLATION INSTRUCTION	ACCESS:       2296  HIT:       2044  MISS:        252  HIT %:    89.0244  MISS %:    10.9756  MPKI: 0.00504
PSCL3 TRANSLATION FROM L1D PREFETCHER INSTRUCTION	ACCESS:         59  HIT:         49  MISS:         10  HIT %:    83.0508  MISS %:    16.9492  MPKI: 0.0002
PSCL3 LOAD TRANSLATION DATA	ACCESS:       1804  HIT:          0  MISS:       1804  HIT %:          0  MISS %:        100  MPKI: 0.03608
PSCL3 TRANSLATION FROM L1D PREFETCHER DATA	ACCESS:         39  HIT:          0  MISS:         39  HIT %:          0  MISS %:        100  MPKI: 0.00078


PSCL2 TOTAL     ACCESS:       4232  HIT:       2053  MISS:       2179  HIT %:    48.5113  MISS %:    51.4887   MPKI: 0.04358
PSCL2 LOAD TRANSLATION INSTRUCTION	ACCESS:       2299  HIT:       2001  MISS:        298  HIT %:    87.0378  MISS %:    12.9622  MPKI: 0.00596
PSCL2 TRANSLATION FROM L1D PREFETCHER INSTRUCTION	ACCESS:         52  HIT:         52  MISS:          0  HIT %:        100  MISS %:          0  MPKI: 0
PSCL2 LOAD TRANSLATION DATA	ACCESS:       1829  HIT:          0  MISS:       1829  HIT %:          0  MISS %:        100  MPKI: 0.03658
PSCL2 TRANSLATION FROM L1D PREFETCHER DATA	ACCESS:         52  HIT:          0  MISS:         52  HIT %:          0  MISS %:        100  MPKI: 0.00104


LLC TOTAL     ACCESS:     558019  HIT:     527677  MISS:      30342  HIT %:    94.5626  MISS %:    5.43745   MPKI: 0.60684
LLC LOAD INSTRUCTION	ACCESS:     267823  HIT:     266675  MISS:       1148  HIT %:    99.5714  MISS %:   0.428641  MPKI: 0.02296
LLC LOAD TRANSLATION INSTRUCTION	ACCESS:        256  HIT:        221  MISS:         35  HIT %:    86.3281  MISS %:    13.6719  MPKI: 0.0007
LLC LOAD DATA	ACCESS:      81059  HIT:      77556  MISS:       3503  HIT %:    95.6785  MISS %:    4.32154  MPKI: 0.07006
LLC RFO DATA	ACCESS:      53549  HIT:      38111  MISS:      15438  HIT %:    71.1703  MISS %:    28.8297  MPKI: 0.30876
LLC PREFETCH DATA	ACCESS:      77825  HIT:      68068  MISS:       9757  HIT %:    87.4629  MISS %:    12.5371  MPKI: 0.19514
LLC WRITEBACK DATA	ACCESS:      76124  HIT:      75743  MISS:        381  HIT %:    99.4995  MISS %:   0.500499  MPKI: 0.00762
LLC LOAD TRANSLATION DATA	ACCESS:       1364  HIT:       1285  MISS:         79  HIT %:    94.2082  MISS %:    5.79179  MPKI: 0.00158
LLC TRANSLATION FROM L1D PREFETCHER DATA	ACCESS:         19  HIT:         18  MISS:          1  HIT %:    94.7368  MISS %:    5.26316  MPKI: 2e-05

LLC AVERAGE MISS LATENCY: 160.028 cycles
LLC RQ	ACCESS:     404076	FORWARD:          0	MERGED:          0	TO_CACHE:     404070
LLC WQ	ACCESS:      76124	FORWARD:          7	MERGED:          0	TO_CACHE:      76124
LLC PQ	ACCESS:      77826	FORWARD:          0	MERGED:          0	TO_CACHE:      77825

LLC Dense regions hint to LLC: 0

RAW hits: 1951361
Loads Generated: 12637205
Loads sent to L1D: 10685845
Stores Generated: 6941569
Stores sent to L1D: 6941569
Major fault: 0 Minor fault: 2562
Allocated PAGES: 2562

stream: 
stream:times selected: 1185949
stream:pref_filled: 123440
stream:pref_useful: 24313
stream:pref_late: 7007
stream:misses: 8140
stream:misses_by_poll: 0

CS: 
CS:times selected: 176573
CS:pref_filled: 58443
CS:pref_useful: 35343
CS:pref_late: 7979
CS:misses: 17445
CS:misses_by_poll: 3

CPLX: 
CPLX:times selected: 1008232
CPLX:pref_filled: 19755
CPLX:pref_useful: 4519
CPLX:pref_late: 3173
CPLX:misses: 94046
CPLX:misses_by_poll: 0

NL_L1: 
NL:times selected: 21195
NL:pref_filled: 747
NL:pref_useful: 335
NL:pref_late: 277
NL:misses: 1832
NL:misses_by_poll: 0

total selections: 2391949
total_filled: 94555
total_useful: 34915
total_late: 19658
total_polluted: 3
total_misses_after_warmup: 766230
conflicts: 5515507

test: 118321

DRAM Statistics
 CHANNEL 0
 RQ ROW_BUFFER_HIT:      11244  ROW_BUFFER_MISS:      18710
 DBUS_CONGESTED:          8
 WQ ROW_BUFFER_HIT:       1607  ROW_BUFFER_MISS:      12782  FULL:          0

 AVG_CONGESTED_CYCLE: 5

CPU 0 Branch Prediction Accuracy: 99.8145% MPKI: 0.339 Average ROB Occupancy at Mispredict: 184.753
Branch types
NOT_BRANCH: 40860867 81.7217%
BRANCH_DIRECT_JUMP: 548067 1.09613%
BRANCH_INDIRECT: 183283 0.366566%
BRANCH_CONDITIONAL: 6181422 12.3628%
BRANCH_DIRECT_CALL: 941936 1.88387%
BRANCH_INDIRECT_CALL: 171231 0.342462%
BRANCH_RETURN: 1113156 2.22631%
BRANCH_OTHER: 0 0%

DRAM PAGES: 1048576
Allocated PAGES: 2562
Average_ROB_Occupancy: 268.24
Average_Decode_Occupancy: 44.0263
Average_FTQ_Occupancy: 18.0166
Indirect max targets: 14 Average targets: 1.15512
Branch_type:  BRANCH_DIRECT_JUMP:  Count Percentage: 2.90142 7.56369 3.70446 8.67973 2.40217 5.96738 0.993392 67.7878 
Branch_type:  BRANCH_INDIRECT:  Count Percentage: 11.7418 3.48919 2.53946 0 1.33657 9.68022 5.88129 65.3315 
Branch_type:  BRANCH_CONDITIONAL:  Count Percentage: 21.0721 3.16386 1.72307 8.67057 1.57307 4.79694 1.08249 57.9179 
Branch_type:  BRANCH_DIRECT_CALL:  Count Percentage: 0.759335 1.29599 1.4387 4.21002 3.32106 2.35744 0.731302 85.8861 
Branch_type:  BRANCH_INDIRECT_CALL:  Count Percentage: 9.55031 0.569946 2.99346 4.84731 1.03465 1.71042 1.28274 78.0112 
Branch_type:  BRANCH_RETURN:  Count Percentage: 3.98547 0.696496 1.27129 9.26401 3.10398 6.1894 2.96919 72.5202 
Branch_type:  BRANCH_DIRECT_JUMP:  Total Count: 31795 82886 40595 95116 26324 65393 10886 742846 
Branch_type:  BRANCH_INDIRECT:  Total Count: 42950 12763 9289 0 4889 35409 21513 238974 
Branch_type:  BRANCH_CONDITIONAL:  Total Count: 2603945 390968 212925 1071448 194389 592772 133766 7157090 
Branch_type:  BRANCH_DIRECT_CALL:  Total Count: 14329 24456 27149 79445 62670 44486 13800 1620711 
Branch_type:  BRANCH_INDIRECT_CALL:  Total Count: 32759 1955 10268 16627 3549 5867 4400 267590 
Branch_type:  BRANCH_RETURN:  Total Count: 88911 15538 28361 206669 69246 138078 66239 1617838 
Number of unique branch instructions: 10227
Upper 32 bits: 
aaaa
ffff
ffff0000
Unique upper 32 bits: 3
Unique upper 36 bits: 3
Unique upper 40 bits: 5
Unique upper 44 bits: 32
Unique upper 48 bits: 157
Offset_3 4203
Offset_4 265
Offset_5 469
Offset_6 514
Offset_7 602
Offset_8 528
Offset_9 488
Offset_10 399
Offset_11 324
Offset_12 296
Offset_13 212
Offset_14 231
Offset_15 193
Offset_16 227
Offset_17 154
Offset_18 126
Offset_19 245
Offset_20 144
Offset_21 261
Offset_22 394
Offset_23 241
Offset_24 354
Offset_25 88
Offset_47 86
Offset_64 1
decode_dispatch_called: 27456411 78.1483
Dispatch_width: 0 15067754 54.8788 42.8869
Dispatch_width: 1 1068439 3.8914 3.04107
Dispatch_width: 2 827165 3.01265 2.35433
Dispatch_width: 3 486212 1.77085 1.38389
Dispatch_width: 4 7082343 25.7949 20.1583
Dispatch_width: 5 57792 0.210486 0.164492
Dispatch_width: 6 2866706 10.4409 8.15942
Empty_decode_cycles: 7677295 21.8517
ROB_full_cycles: 11589261 32.9862
Starvation_cycles_per_kilo_instr: 206.777
Starvation_cycles_per_kilo_instr_3: 135.376
Starvation_cycles_per_kilo_instr_0: 111.558
Branch_type_1  (3,1)  (4,10)  (5,39)  (6,70)  (7,118)  (8,130)  (9,129)  (10,101)  (11,72)  (12,51)  (13,8)  (14,2)  (15,3)  (16,4)  (18,1)  (19,4)  (20,2)  (21,1)  (22,3)  (23,2)  (24,10)  (25,12) 
Branch_type_2  (3,1)  (5,1)  (8,3)  (9,3)  (12,1)  (13,1)  (14,1)  (16,3)  (17,2)  (20,2)  (21,2)  (23,5)  (24,1)  (47,40) 
Branch_type_3  (3,4201)  (4,255)  (5,425)  (6,428)  (7,451)  (8,333)  (9,269)  (10,162)  (11,133)  (12,58)  (13,7) 
Branch_type_4  (6,4)  (7,8)  (8,26)  (9,55)  (10,63)  (11,62)  (12,102)  (13,90)  (14,103)  (15,92)  (16,102)  (17,70)  (18,57)  (19,118)  (20,74)  (21,141)  (22,209)  (23,136)  (24,204)  (25,72) 
Branch_type_5  (8,2)  (9,1)  (10,4)  (11,5)  (12,3)  (13,14)  (14,16)  (15,11)  (16,20)  (17,11)  (18,16)  (19,13)  (20,11)  (21,13)  (22,42)  (23,26)  (24,41) 
Branch_type_6  (5,4)  (6,12)  (7,25)  (8,34)  (9,31)  (10,69)  (11,52)  (12,81)  (13,92)  (14,109)  (15,87)  (16,98)  (17,71)  (18,52)  (19,110)  (20,55)  (21,104)  (22,140)  (23,72)  (24,98)  (25,4)  (47,46)  (64,1) 
Unique trigger count: 
BTB PER SET UNIQUE ADDR: 0 0 0 0 0 0 0 0 0 0 0 0 0 0 0 0 0 0 0 0 0 0 0 0 0 0 0 0 0 0 0 0 0 0 0 0 0 0 0 0 0 0 0 0 0 0 0 0 0 0 0 0 0 0 0 0 0 0 0 0 0 0 0 0 0 0 0 0 0 0 0 0 0 0 0 0 0 0 0 0 0 0 0 0 0 0 0 0 0 0 0 0 0 0 0 0 0 0 0 0 0 0 0 0 0 0 0 0 0 0 0 0 0 0 0 0 0 0 0 0 0 0 0 0 0 0 0 0 0 0 0 0 0 0 0 0 0 0 0 0 0 0 0 0 0 0 0 0 0 0 0 0 0 0 0 0 0 0 0 0 0 0 0 0 0 0 0 0 0 0 0 0 0 0 0 0 0 0 0 0 0 0 0 0 0 0 0 0 0 0 0 0 0 0 0 0 0 0 0 0 0 0 0 0 0 0 0 0 0 0 0 0 0 0 0 0 0 0 0 0 0 0 0 0 0 0 0 0 0 0 0 0 0 0 0 0 0 0 0 0 0 0 0 0 0 0 0 0 0 0 0 0 0 0 0 0 0 0 0 0 0 0 0 0 0 0 0 0 0 0 0 0 0 0 0 0 0 0 0 0 0 0 0 0 0 0 0 0 0 0 0 0 0 0 0 0 0 0 0 0 0 0 0 0 0 0 0 0 0 0 0 0 0 0 0 0 0 0 0 0 0 0 0 0 0 0 0 0 0 0 0 0 0 0 0 0 0 0 0 0 0 0 0 0 0 0 0 0 0 0 0 0 0 0 0 0 0 0 0 0 0 0 0 0 0 0 0 0 0 0 0 0 0 0 0 0 0 0 0 0 0 0 0 0 0 0 0 0 0 0 0 0 0 0 0 0 0 0 0 0 0 0 0 0 0 0 0 0 0 0 0 0 0 0 0 0 0 0 0 0 0 0 0 0 0 0 0 0 0 0 0 0 0 0 0 0 0 0 0 0 0 0 0 0 0 0 0 0 0 0 0 0 0 0 0 0 0 0 0 0 0 0 0 0 0 0 0 0 0 0 0 0 0 0 0 0 0 0 0 0 0 0 0 0 0 0 0 0 0 0 0 0 0 0 0 0 0 0 0 0 0 0 0 0 0 0 0 0 0 0 0 0 0 0 0 0 0 0 0 0 0 0 0 0 0 0 0 0 0 0 0 0 0 0 0 0 0 0 0 0 0 0 0 0 0 0 0 0 0 0 0 0 0 0 0 0 0 0 0 0 0 0 0 0 0 0 0 0 0 0 0 0 0 0 0 0 0 0 0 0 0 0 0 0 0 0 0 0 0 0 0 0 0 0 0 0 0 0 0 0 0 0 0 0 0 0 0 0 0 0 0 0 0 0 0 0 0 0 0 0 0 0 0 0 0 0 0 0 0 0 0 0 0 0 0 0 0 0 0 0 0 0 0 0 0 0 0 0 0 0 0 0 0 0 0 0 0 0 0 0 0 0 0 0 0 0 0 0 0 0 0 0 0 0 0 0 0 0 0 0 0 0 0 0 0 0 0 0 0 0 0 0 0 0 0 0 0 0 0 0 0 0 0 0 0 0 0 0 0 0 0 0 0 0 0 0 0 0 0 0 0 0 0 0 0 0 0 0 0 0 0 0 0 0 0 0 0 0 0 0 0 0 0 0 0 0 0 0 0 0 0 0 0 0 0 0 0 0 0 0 0 0 0 0 0 0 0 0 0 0 0 0 0 0 0 0 0 0 0 0 0 0 0 0 0 0 0 0 0 0 0 0 0 0 0 0 0 0 0 0 0 0 0 0 0 0 0 0 0 0 0 0 0 0 0 0 0 0 0 0 0 0 0 0 0 0 0 0 0 0 0 0 0 0 0 0 0 0 0 0 0 0 0 0 0 0 0 0 0 0 0 0 0 0 0 0 0 0 0 0 0 0 0 0 0 0 0 0 0 0 0 0 0 0 0 0 0 0 0 0 0 0 0 0 0 0 0 0 0 0 0 0 0 0 0 0 0 0 0 0 0 0 0 0 0 0 0 0 0 0 0 0 0 0 0 0 0 0 0 0 0 0 0 0 0 0 0 0 0 0 0 0 0 0 0 0 0 0 0 0 0 0 0 0 0 0 0 0 0 0 0 0 0 0 0 0 0 0 0 0 0 0 0 0 0 0 0 0 0 0 0 0 0 0 0 0 0 0 0 0 0 0 0 0 0 0 0 0 0 0 0 0 0 0 0 0 0 0 0 0 0 0 0 0 0 0 0 0 0 0 0 0 0 0 0 0 0 0 0 0 0 0 0 0 0 0 0 0 0 0 0 0 0 0 0 0 0 0 0 0 0 0 0 0 0 0 0 0 0 0 0 0 0 0 0 0 0 0 0 0 0 0 0 0 0 0 0 0 0 0 0 0 0 0 0 0 0 0 0 0 0 0 0 0 0 0 0 0 0 0 0 0 0 0 0 0 0 0 0 0 0 0 0 0 0 0 0 0 0 0 0 0 0 0 0 0 0 0 0 0 0 0 0 0 0 0 0 0 0 0 0 0 0 0 0 0 0 0 0 0 0 0 0 0 0 0 0 0 0 0 0 0 0 0 0 0 0 0 0 0 0 0 0 0 0 0 0 0 0 0 0 0 0 0 0 0 0 0 0 0 0 0 0 0 0 0 0 0 0 0 0 0 0 0 0 0 0 0 0 0 0 0 0 0 0 0 0 0 0 0 0 0 0 0 0 0 0 0 0 0 0 0 0 0 0 0 0 0 0 0 0 0 0 0 0 0 0 0 0 0 0 0 0 0 0 0 0 0 0 0 0 0 0 0 0 0 0 0 0 0 0 0 0 0 0 0 0 0 0 0 0 0 0 0 0 0 0 0 0 0 0 0 0 0 0 0 0 0 0 0 0 0 0 0 0 0 0 0 0 0 0 0 0 0 0 0 0 0 0 0 0 0 0 0 0 0 0 0 0 0 0 0 0 0 0 0 0 0 0 0 0 0 0 0 0 0 0 0 0 0 0 0 0 0 0 0 0 0 0 0 0 0 0 0 0 0 0 0 0 0 0 0 0 0 0 0 0 0 0 0 0 0 0 0 0 0 0 0 0 0 0 0 0 0 0 0 0 0 0 0 0 0 0 0 0 0 0 0 0 0 0 0 0 0 0 0 0 0 0 0 0 0 0 0 0 0 0 0 0 0 0 0 0 0 0 0 0 0 0 0 0 0 0 0 0 0 0 0 0 0 0 0 0 0 0 0 0 0 0 0 0 0 0 0 0 0 0 0 0 0 0 0 0 0 0 0 0 0 0 0 0 0 0 0 0 0 0 0 0 0 0 0 0 0 0 0 0 0 0 0 0 0 0 0 0 0 0 0 0 0 0 0 0 0 0 0 0 0 0 0 0 0 0 0 0 0 0 0 0 0 0 0 0 0 0 0 0 0 0 0 0 0 0 0 0 0 0 0 0 0 0 0 0 0 0 0 0 0 0 0 0 0 0 0 0 0 0 0 0 0 0 0 0 0 0 0 0 0 0 0 0 0 0 0 0 0 0 0 0 0 0 0 0 0 0 0 0 0 0 0 0 0 0 0 0 0 0 0 0 0 0 0 0 0 0 0 0 0 0 0 0 0 0 0 0 0 0 0 0 0 0 0 0 0 0 0 0 0 0 0 0 0 0 0 0 0 0 0 0 0 0 0 0 0 0 0 0 0 0 0 0 0 0 0 0 0 0 0 0 0 0 0 0 0 0 0 0 0 0 0 0 0 0 0 0 0 0 0 0 0 0 0 0 0 0 0 0 0 0 0 0 0 0 0 0 0 0 0 0 0 0 0 0 0 0 0 0 0 0 0 0 0 0 0 0 0 0 0 0 0 0 0 0 0 0 0 0 0 0 0 0 0 0 0 0 0 0 0 0 0 0 0 0 0 0 0 0 0 0 0 0 0 0 0 0 0 0 0 0 0 0 0 0 0 0 0 0 0 0 0 0 0 0 0 0 0 0 0 0 0 0 0 0 0 0 0 0 0 0 0 0 0 0 0 0 0 0 0 0 0 0 0 0 0 0 0 0 0 0 0 0 0 0 0 0 0 0 0 0 0 0 0 0 0 0 0 0 0 0 0 0 0 0 0 0 0 0 0 0 0 0 0 0 0 0 0 0 0 0 0 0 0 0 0 0 0 0 0 0 0 0 0 0 0 0 0 0 0 0 0 0 0 0 0 0 0 0 0 0 0 0 0 0 0 0 0 0 0 0 0 0 0 0 0 0 0 0 0 0 0 0 0 0 0 0 0 0 0 0 0 0 0 0 0 0 0 0 0 0 0 0 0 0 0 0 0 0 0 0 0 0 0 0 0 0 0 0 0 0 0 0 0 0 0 0 0 0 0 0 0 0 0 0 0 0 0 0 0 0 0 0 0 0 0 0 0 0 0 0 0 0 0 0 0 0 0 0 0 0 0 0 0 0 0 0 0 0 0 0 0 0 0 0 0 0 0 0 0 0 0 0 0 0 0 0 0 0 0 0 0 0 0 0 0 0 0 0 0 0 0 0 0 0 0 0 0 0 0 0 0 0 0 0 0 0 0 0 0 0 0 0 0 0 0 0 0 0 0 
BTB PER SET COUNT: 0 0 0 0 0 0 0 0 0 0 0 0 0 0 0 0 0 0 0 0 0 0 0 0 0 0 0 0 0 0 0 0 0 0 0 0 0 0 0 0 0 0 0 0 0 0 0 0 0 0 0 0 0 0 0 0 0 0 0 0 0 0 0 0 0 0 0 0 0 0 0 0 0 0 0 0 0 0 0 0 0 0 0 0 0 0 0 0 0 0 0 0 0 0 0 0 0 0 0 0 0 0 0 0 0 0 0 0 0 0 0 0 0 0 0 0 0 0 0 0 0 0 0 0 0 0 0 0 0 0 0 0 0 0 0 0 0 0 0 0 0 0 0 0 0 0 0 0 0 0 0 0 0 0 0 0 0 0 0 0 0 0 0 0 0 0 0 0 0 0 0 0 0 0 0 0 0 0 0 0 0 0 0 0 0 0 0 0 0 0 0 0 0 0 0 0 0 0 0 0 0 0 0 0 0 0 0 0 0 0 0 0 0 0 0 0 0 0 0 0 0 0 0 0 0 0 0 0 0 0 0 0 0 0 0 0 0 0 0 0 0 0 0 0 0 0 0 0 0 0 0 0 0 0 0 0 0 0 0 0 0 0 0 0 0 0 0 0 0 0 0 0 0 0 0 0 0 0 0 0 0 0 0 0 0 0 0 0 0 0 0 0 0 0 0 0 0 0 0 0 0 0 0 0 0 0 0 0 0 0 0 0 0 0 0 0 0 0 0 0 0 0 0 0 0 0 0 0 0 0 0 0 0 0 0 0 0 0 0 0 0 0 0 0 0 0 0 0 0 0 0 0 0 0 0 0 0 0 0 0 0 0 0 0 0 0 0 0 0 0 0 0 0 0 0 0 0 0 0 0 0 0 0 0 0 0 0 0 0 0 0 0 0 0 0 0 0 0 0 0 0 0 0 0 0 0 0 0 0 0 0 0 0 0 0 0 0 0 0 0 0 0 0 0 0 0 0 0 0 0 0 0 0 0 0 0 0 0 0 0 0 0 0 0 0 0 0 0 0 0 0 0 0 0 0 0 0 0 0 0 0 0 0 0 0 0 0 0 0 0 0 0 0 0 0 0 0 0 0 0 0 0 0 0 0 0 0 0 0 0 0 0 0 0 0 0 0 0 0 0 0 0 0 0 0 0 0 0 0 0 0 0 0 0 0 0 0 0 0 0 0 0 0 0 0 0 0 0 0 0 0 0 0 0 0 0 0 0 0 0 0 0 0 0 0 0 0 0 0 0 0 0 0 0 0 0 0 0 0 0 0 0 0 0 0 0 0 0 0 0 0 0 0 0 0 0 0 0 0 0 0 0 0 0 0 0 0 0 0 0 0 0 0 0 0 0 0 0 0 0 0 0 0 0 0 0 0 0 0 0 0 0 0 0 0 0 0 0 0 0 0 0 0 0 0 0 0 0 0 0 0 0 0 0 0 0 0 0 0 0 0 0 0 0 0 0 0 0 0 0 0 0 0 0 0 0 0 0 0 0 0 0 0 0 0 0 0 0 0 0 0 0 0 0 0 0 0 0 0 0 0 0 0 0 0 0 0 0 0 0 0 0 0 0 0 0 0 0 0 0 0 0 0 0 0 0 0 0 0 0 0 0 0 0 0 0 0 0 0 0 0 0 0 0 0 0 0 0 0 0 0 0 0 0 0 0 0 0 0 0 0 0 0 0 0 0 0 0 0 0 0 0 0 0 0 0 0 0 0 0 0 0 0 0 0 0 0 0 0 0 0 0 0 0 0 0 0 0 0 0 0 0 0 0 0 0 0 0 0 0 0 0 0 0 0 0 0 0 0 0 0 0 0 0 0 0 0 0 0 0 0 0 0 0 0 0 0 0 0 0 0 0 0 0 0 0 0 0 0 0 0 0 0 0 0 0 0 0 0 0 0 0 0 0 0 0 0 0 0 0 0 0 0 0 0 0 0 0 0 0 0 0 0 0 0 0 0 0 0 0 0 0 0 0 0 0 0 0 0 0 0 0 0 0 0 0 0 0 0 0 0 0 0 0 0 0 0 0 0 0 0 0 0 0 0 0 0 0 0 0 0 0 0 0 0 0 0 0 0 0 0 0 0 0 0 0 0 0 0 0 0 0 0 0 0 0 0 0 0 0 0 0 0 0 0 0 0 0 0 0 0 0 0 0 0 0 0 0 0 0 0 0 0 0 0 0 0 0 0 0 0 0 0 0 0 0 0 0 0 0 0 0 0 0 0 0 0 0 0 0 0 0 0 0 0 0 0 0 0 0 0 0 0 0 0 0 0 0 0 0 0 0 0 0 0 0 0 0 0 0 0 0 0 0 0 0 0 0 0 0 0 0 0 0 0 0 0 0 0 0 0 0 0 0 0 0 0 0 0 0 0 0 0 0 0 0 0 0 0 0 0 0 0 0 0 0 0 0 0 0 0 0 0 0 0 0 0 0 0 0 0 0 0 0 0 0 0 0 0 0 0 0 0 0 0 0 0 0 0 0 0 0 0 0 0 0 0 0 0 0 0 0 0 0 0 0 0 0 0 0 0 0 0 0 0 0 0 0 0 0 0 0 0 0 0 0 0 0 0 0 0 0 0 0 0 0 0 0 0 0 0 0 0 0 0 0 0 0 0 0 0 0 0 0 0 0 0 0 0 0 0 0 0 0 0 0 0 0 0 0 0 0 0 0 0 0 0 0 0 0 0 0 0 0 0 0 0 0 0 0 0 0 0 0 0 0 0 0 0 0 0 0 0 0 0 0 0 0 0 0 0 0 0 0 0 0 0 0 0 0 0 0 0 0 0 0 0 0 0 0 0 0 0 0 0 0 0 0 0 0 0 0 0 0 0 0 0 0 0 0 0 0 0 0 0 0 0 0 0 0 0 0 0 0 0 0 0 0 0 0 0 0 0 0 0 0 0 0 0 0 0 0 0 0 0 0 0 0 0 0 0 0 0 0 0 0 0 0 0 0 0 0 0 0 0 0 0 0 0 0 0 0 0 0 0 0 0 0 0 0 0 0 0 0 0 0 0 0 0 0 0 0 0 0 0 0 0 0 0 0 0 0 0 0 0 0 0 0 0 0 0 0 0 0 0 0 0 0 0 0 0 0 0 0 0 0 0 0 0 0 0 0 0 0 0 0 0 0 0 0 0 0 0 0 0 0 0 0 0 0 0 0 0 0 0 0 0 0 0 0 0 0 0 0 0 0 0 0 0 0 0 0 0 0 0 0 0 0 0 0 0 0 0 0 0 0 0 0 0 0 0 0 0 0 0 0 0 0 0 0 0 0 0 0 0 0 0 0 0 0 0 0 0 0 0 0 0 0 0 0 0 0 0 0 0 0 0 0 0 0 0 0 0 0 0 0 0 0 0 0 0 0 0 0 0 0 0 0 0 0 0 0 0 0 0 0 0 0 0 0 0 0 0 0 0 0 0 0 0 0 0 0 0 0 0 0 0 0 0 0 0 0 0 0 0 0 0 0 0 0 0 0 0 0 0 0 0 0 0 0 0 0 0 0 0 0 0 0 0 0 0 0 0 0 0 0 0 0 0 0 0 0 0 0 0 0 0 0 0 0 0 0 0 0 0 0 0 0 0 0 0 0 0 0 0 0 0 0 0 0 0 0 0 0 0 0 0 0 0 0 0 0 0 0 0 0 0 0 0 0 0 0 0 0 0 0 0 0 0 0 0 0 0 0 0 0 0 0 0 0 0 0 0 0 0 0 0 0 0 0 0 0 0 0 0 0 0 0 0 0 0 0 0 0 0 0 0 0 0 0 0 0 0 0 0 0 0 0 0 0 0 0 0 0 0 0 0 0 0 0 0 0 0 0 0 0 0 0 0 0 0 0 0 0 0 0 0 0 0 0 0 0 0 0 0 0 0 0 0 0 0 0 0 0 0 0 0 0 0 0 0 0 0 0 0 0 0 0 0 0 0 0 0 0 0 0 0 0 0 0 0 0 0 0 0 0 0 0 0 0 0 0 0 0 0 0 0 0 0 0 0 0 0 0 0 0 0 0 0 0 0 0 0 0 0 0 0 0 0 0 0 0 0 0 0 0 0 0 0 0 0 0 0 0 0 0 0 0 0 0 0 0 0 0 0 0 0 0 0 0 0 0 0 0 0 0 0 0 0 0 0 0 0 0 0 0 0 0 0 0 0 0 0 0 0 0 0 0 0 0 0 0 0 0 0 0 0 0 0 0 0 0 0 0 0 0 0 0 0 0 0 0 0 0 0 0 0 0 0 0 0 0 0 0 0 0 0 0 0 0 0 0 0 0 0 0 0 0 0 0 0 0 0 0 0 0 0 0 0 0 0 0 0 0 0 0 0 0 0 0 0 0 0 0 0 0 0 0 0 0 0 0 0 0 0 0 0 0 0 0 0 0 0 0 0 0 0 0 0 0 0 0 0 0 0 0 0 0 0 0 0 0 0 0 0 0 0 0 0 0 0 0 0 0 0 0 0 0 0 0 0 0 0 0 0 0 0 0 0 0 0 0 0 0 0 0 0 0 0 0 0 0 0 0 0 0 0 0 0 0 0 0 0 0 0 0 0 0 0 0 0 0 0 0 0 0 0 0 0 0 0 0 0 0 0 0 0 0 0 0 0 0 0 0 0 0 0 0 
