
*** ChampSim Multicore Out-of-Order Simulator ***

Warmup Instructions: 50000000
Simulation Instructions: 50000000
Number of CPUs: 1
LLC sets: 2048
LLC ways: 16
Off-chip DRAM Size: 4096 MB Channels: 1 Width: 64-bit Data Rate: 6400 MT/s
CPU 0 runs ./micro_traces/srv212.trace.gz
.gz
ITLB has LRU replacement policy
DTLB has LRU replacement policy
STLB has LRU replacement policy
FDIP Prefetcher at L1I
L1I has LRU replacement policy
L1D has LRU replacement policy
Initialize SRRIP state for L2C
Initialize DRRIP state for LLC
Heartbeat_Variant_0 : 1319 0.322021 per_variant_size: 0 1319 0 0 0 0 0 0 0 
Heartbeat_Variant_1 : 2533 0.618408 per_variant_size: 0 575 1958 0 0 0 0 0 0 
Heartbeat_Variant_2 : 0 0 per_variant_size: 0 0 0 0 0 0 0 0 0 
Heartbeat_Variant_3 : 0 0 per_variant_size: 0 0 0 0 0 0 0 0 0 
Heartbeat_Variant_0_evicts 0 : 5748 1 : 397 2 : 0 3 : 0 
Heartbeat_Variant_1_evicts 0 : 365 1 : 0 2 : 0 3 : 0 
Heartbeat_Variant_2_evicts 0 : 0 1 : 0 2 : 0 3 : 0 
Heartbeat_Variant_3_evicts 0 : 0 1 : 0 2 : 0 3 : 0 
Heartbeat CPU 0 instructions: 10000003 cycles: 2797491 heartbeat IPC: 3.57463 cumulative IPC: 3.57463 (Simulation time: 0 hr 1 min 31 sec) 
Heartbeat_Variant_0 : 1337 0.326416 per_variant_size: 0 1337 0 0 0 0 0 0 0 
Heartbeat_Variant_1 : 2595 0.633545 per_variant_size: 0 538 2057 0 0 0 0 0 0 
Heartbeat_Variant_2 : 0 0 per_variant_size: 0 0 0 0 0 0 0 0 0 
Heartbeat_Variant_3 : 0 0 per_variant_size: 0 0 0 0 0 0 0 0 0 
Heartbeat_Variant_0_evicts 0 : 5813 1 : 209 2 : 0 3 : 0 
Heartbeat_Variant_1_evicts 0 : 204 1 : 0 2 : 0 3 : 0 
Heartbeat_Variant_2_evicts 0 : 0 1 : 0 2 : 0 3 : 0 
Heartbeat_Variant_3_evicts 0 : 0 1 : 0 2 : 0 3 : 0 
Heartbeat CPU 0 instructions: 20000000 cycles: 5593812 heartbeat IPC: 3.57613 cumulative IPC: 3.57538 (Simulation time: 0 hr 3 min 1 sec) 
Heartbeat_Variant_0 : 1361 0.332275 per_variant_size: 0 1361 0 0 0 0 0 0 0 
Heartbeat_Variant_1 : 2631 0.642334 per_variant_size: 0 485 2146 0 0 0 0 0 0 
Heartbeat_Variant_2 : 0 0 per_variant_size: 0 0 0 0 0 0 0 0 0 
Heartbeat_Variant_3 : 0 0 per_variant_size: 0 0 0 0 0 0 0 0 0 
Heartbeat_Variant_0_evicts 0 : 5685 1 : 276 2 : 0 3 : 0 
Heartbeat_Variant_1_evicts 0 : 268 1 : 0 2 : 0 3 : 0 
Heartbeat_Variant_2_evicts 0 : 0 1 : 0 2 : 0 3 : 0 
Heartbeat_Variant_3_evicts 0 : 0 1 : 0 2 : 0 3 : 0 
Heartbeat CPU 0 instructions: 30000003 cycles: 8389217 heartbeat IPC: 3.5773 cumulative IPC: 3.57602 (Simulation time: 0 hr 4 min 35 sec) 
Heartbeat_Variant_0 : 1371 0.334717 per_variant_size: 0 1371 0 0 0 0 0 0 0 
Heartbeat_Variant_1 : 2638 0.644043 per_variant_size: 0 480 2158 0 0 0 0 0 0 
Heartbeat_Variant_2 : 0 0 per_variant_size: 0 0 0 0 0 0 0 0 0 
Heartbeat_Variant_3 : 0 0 per_variant_size: 0 0 0 0 0 0 0 0 0 
Heartbeat_Variant_0_evicts 0 : 5633 1 : 167 2 : 0 3 : 0 
Heartbeat_Variant_1_evicts 0 : 162 1 : 0 2 : 0 3 : 0 
Heartbeat_Variant_2_evicts 0 : 0 1 : 0 2 : 0 3 : 0 
Heartbeat_Variant_3_evicts 0 : 0 1 : 0 2 : 0 3 : 0 
Heartbeat CPU 0 instructions: 40000002 cycles: 11186969 heartbeat IPC: 3.5743 cumulative IPC: 3.57559 (Simulation time: 0 hr 6 min 11 sec) 
Heartbeat_Variant_0 : 1370 0.334473 per_variant_size: 0 1370 0 0 0 0 0 0 0 
Heartbeat_Variant_1 : 2649 0.646729 per_variant_size: 0 477 2172 0 0 0 0 0 0 
Heartbeat_Variant_2 : 0 0 per_variant_size: 0 0 0 0 0 0 0 0 0 
Heartbeat_Variant_3 : 0 0 per_variant_size: 0 0 0 0 0 0 0 0 0 
Heartbeat_Variant_0_evicts 0 : 5565 1 : 63 2 : 0 3 : 0 
Heartbeat_Variant_1_evicts 0 : 65 1 : 0 2 : 0 3 : 0 
Heartbeat_Variant_2_evicts 0 : 0 1 : 0 2 : 0 3 : 0 
Heartbeat_Variant_3_evicts 0 : 0 1 : 0 2 : 0 3 : 0 
Heartbeat CPU 0 instructions: 50000000 cycles: 13982480 heartbeat IPC: 3.57716 cumulative IPC: 3.5759 (Simulation time: 0 hr 7 min 42 sec) 

Warmup complete CPU 0 instructions: 50000004 cycles: 13982481 (Simulation time: 0 hr 7 min 42 sec) 

Cycle: 20000000 FTQ IN: 58385990 FTQ occupancy: 20.9233 DECODE IN: 58385868 DECODE occupancy: 54.0221 ROB IN: 58385859 ROB occupancy: 320.305 ROB OUT: 58385549
Heartbeat_Variant_0 : 1377 0.336182 per_variant_size: 0 1377 0 0 0 0 0 0 0 
Heartbeat_Variant_1 : 2649 0.646729 per_variant_size: 0 488 2161 0 0 0 0 0 0 
Heartbeat_Variant_2 : 0 0 per_variant_size: 0 0 0 0 0 0 0 0 0 
Heartbeat_Variant_3 : 0 0 per_variant_size: 0 0 0 0 0 0 0 0 0 
Heartbeat_Variant_0_evicts 0 : 5772 1 : 181 2 : 0 3 : 0 
Heartbeat_Variant_1_evicts 0 : 174 1 : 0 2 : 0 3 : 0 
Heartbeat_Variant_2_evicts 0 : 0 1 : 0 2 : 0 3 : 0 
Heartbeat_Variant_3_evicts 0 : 0 1 : 0 2 : 0 3 : 0 
Heartbeat CPU 0 instructions: 60000001 cycles: 21147157 heartbeat IPC: 1.39574 cumulative IPC: 1.39574 (Simulation time: 0 hr 9 min 31 sec) 
Heartbeat_Variant_0 : 1377 0.336182 per_variant_size: 0 1377 0 0 0 0 0 0 0 
Heartbeat_Variant_1 : 2653 0.647705 per_variant_size: 0 493 2160 0 0 0 0 0 0 
Heartbeat_Variant_2 : 0 0 per_variant_size: 0 0 0 0 0 0 0 0 0 
Heartbeat_Variant_3 : 0 0 per_variant_size: 0 0 0 0 0 0 0 0 0 
Heartbeat_Variant_0_evicts 0 : 5731 1 : 22 2 : 0 3 : 0 
Heartbeat_Variant_1_evicts 0 : 23 1 : 0 2 : 0 3 : 0 
Heartbeat_Variant_2_evicts 0 : 0 1 : 0 2 : 0 3 : 0 
Heartbeat_Variant_3_evicts 0 : 0 1 : 0 2 : 0 3 : 0 
Heartbeat CPU 0 instructions: 70000002 cycles: 28219751 heartbeat IPC: 1.41391 cumulative IPC: 1.40476 (Simulation time: 0 hr 11 min 19 sec) 
Cycle: 30000000 FTQ IN: 14122505 FTQ occupancy: 16.2002 DECODE IN: 14122532 DECODE occupancy: 40.525 ROB IN: 14122481 ROB occupancy: 256.712 ROB OUT: 14122579
Heartbeat_Variant_0 : 1380 0.336914 per_variant_size: 0 1380 0 0 0 0 0 0 0 
Heartbeat_Variant_1 : 2655 0.648193 per_variant_size: 0 481 2174 0 0 0 0 0 0 
Heartbeat_Variant_2 : 0 0 per_variant_size: 0 0 0 0 0 0 0 0 0 
Heartbeat_Variant_3 : 0 0 per_variant_size: 0 0 0 0 0 0 0 0 0 
Heartbeat_Variant_0_evicts 0 : 5697 1 : 177 2 : 0 3 : 0 
Heartbeat_Variant_1_evicts 0 : 175 1 : 0 2 : 0 3 : 0 
Heartbeat_Variant_2_evicts 0 : 0 1 : 0 2 : 0 3 : 0 
Heartbeat_Variant_3_evicts 0 : 0 1 : 0 2 : 0 3 : 0 
Heartbeat CPU 0 instructions: 80000003 cycles: 35432182 heartbeat IPC: 1.3865 cumulative IPC: 1.39862 (Simulation time: 0 hr 13 min 7 sec) 
Cycle: 40000000 FTQ IN: 13848269 FTQ occupancy: 15.9796 DECODE IN: 13848260 DECODE occupancy: 39.718 ROB IN: 13848260 ROB occupancy: 252.947 ROB OUT: 13848120
Heartbeat_Variant_0 : 1382 0.337402 per_variant_size: 0 1382 0 0 0 0 0 0 0 
Heartbeat_Variant_1 : 2665 0.650635 per_variant_size: 0 457 2208 0 0 0 0 0 0 
Heartbeat_Variant_2 : 0 0 per_variant_size: 0 0 0 0 0 0 0 0 0 
Heartbeat_Variant_3 : 0 0 per_variant_size: 0 0 0 0 0 0 0 0 0 
Heartbeat_Variant_0_evicts 0 : 5778 1 : 323 2 : 0 3 : 0 
Heartbeat_Variant_1_evicts 0 : 324 1 : 0 2 : 0 3 : 0 
Heartbeat_Variant_2_evicts 0 : 0 1 : 0 2 : 0 3 : 0 
Heartbeat_Variant_3_evicts 0 : 0 1 : 0 2 : 0 3 : 0 
Heartbeat CPU 0 instructions: 90000003 cycles: 42586879 heartbeat IPC: 1.39768 cumulative IPC: 1.39839 (Simulation time: 0 hr 14 min 55 sec) 
Heartbeat_Variant_0 : 1389 0.339111 per_variant_size: 0 1389 0 0 0 0 0 0 0 
Heartbeat_Variant_1 : 2661 0.649658 per_variant_size: 0 448 2213 0 0 0 0 0 0 
Heartbeat_Variant_2 : 0 0 per_variant_size: 0 0 0 0 0 0 0 0 0 
Heartbeat_Variant_3 : 0 0 per_variant_size: 0 0 0 0 0 0 0 0 0 
Heartbeat_Variant_0_evicts 0 : 5762 1 : 268 2 : 0 3 : 0 
Heartbeat_Variant_1_evicts 0 : 261 1 : 0 2 : 0 3 : 0 
Heartbeat_Variant_2_evicts 0 : 0 1 : 0 2 : 0 3 : 0 
Heartbeat_Variant_3_evicts 0 : 0 1 : 0 2 : 0 3 : 0 
Heartbeat CPU 0 instructions: 100000000 cycles: 49817635 heartbeat IPC: 1.38298 cumulative IPC: 1.39528 (Simulation time: 0 hr 16 min 39 sec) 
Finished CPU 0 instructions: 50000000 cycles: 35835155 cumulative IPC: 1.39528 (Simulation time: 0 hr 16 min 39 sec) 

ChampSim completed all CPUs

Region of Interest Statistics

CPU 0 cumulative IPC: 1.39528 instructions: 50000000 cycles: 35835155
 Fetch stage stalled: 38.0297  Sim cycles: 35835155 fetch stall cycle: 13628009
 Empty decode stage: 19.9968  Sim cycles: 35835155 fetch stall cycle: 7165881
ITLB TOTAL     ACCESS:    5843145  HIT:    5353695  MISS:     489450  HIT %:    91.6235  MISS %:    8.37648   MPKI: 9.789
ITLB LOAD TRANSLATION INSTRUCTION	ACCESS:    5691446  HIT:    5201996  MISS:     489450  HIT %:    91.4003  MISS %:    8.59975  MPKI: 9.789
ITLB TRANSLATION FROM L1D PREFETCHER INSTRUCTION	ACCESS:     151699  HIT:     151699  MISS:          0  HIT %:        100  MISS %:          0  MPKI: 0

ITLB AVERAGE MISS LATENCY: 9.05641 cycles
ITLB RQ	ACCESS:    7872042	FORWARD:          0	MERGED:    1517144	TO_CACHE:    6354898

DTLB TOTAL     ACCESS:    8953543  HIT:    8484882  MISS:     468661  HIT %:    94.7656  MISS %:    5.23436   MPKI: 9.37322
DTLB LOAD TRANSLATION DATA	ACCESS:    8953543  HIT:    8484882  MISS:     468661  HIT %:    94.7656  MISS %:    5.23436  MPKI: 9.37322

DTLB AVERAGE MISS LATENCY: 9.33809 cycles
DTLB RQ	ACCESS:   13322454	FORWARD:          0	MERGED:    4332791	TO_CACHE:    8989663

STLB TOTAL     ACCESS:    1211832  HIT:    1209892  MISS:       1940  HIT %:    99.8399  MISS %:   0.160088   MPKI: 0.0388
STLB LOAD TRANSLATION INSTRUCTION	ACCESS:     489450  HIT:     489236  MISS:        214  HIT %:    99.9563  MISS %:  0.0437225  MPKI: 0.00428
STLB LOAD TRANSLATION DATA	ACCESS:     468660  HIT:     466959  MISS:       1701  HIT %:    99.6371  MISS %:    0.36295  MPKI: 0.03402
STLB TRANSLATION FROM L1D PREFETCHER DATA	ACCESS:     253722  HIT:     253697  MISS:         25  HIT %:    99.9901  MISS %:  0.0098533  MPKI: 0.0005

STLB AVERAGE MISS LATENCY: 79.8964 cycles
STLB RQ	ACCESS:    1335189	FORWARD:          0	MERGED:     123322	TO_CACHE:    1211867

STLB Hit, L1D data hit: 0
STLB Hit, L2C data hit: 0
STLB Hit, LLC data hit: 0
STLB Hit, LLC data miss: 0
STLB STLB hints to L2: 0
L1D TOTAL     ACCESS:   13079770  HIT:   11968171  MISS:    1111599  HIT %:    91.5014  MISS %:    8.49861   MPKI: 22.232
L1D LOAD DATA	ACCESS:    6543879  HIT:    5813186  MISS:     730693  HIT %:    88.8339  MISS %:    11.1661  MPKI: 14.6139
L1D RFO DATA	ACCESS:    6199795  HIT:    5913630  MISS:     286165  HIT %:    95.3843  MISS %:    4.61572  MPKI: 5.7233
L1D PREFETCH DATA	ACCESS:     336096  HIT:     241355  MISS:      94741  HIT %:    71.8113  MISS %:    28.1887  MPKI: 1.89482

L1D PREFETCH  REQUESTED:     754547  ISSUED:     754547  USEFUL:      34450  USELESS:      68382
L1D USEFUL LOAD PREFETCHES:      34450 PREFETCH ISSUED TO LOWER LEVEL:     102888  ACCURACY: 33.483
 TIMELY PREFETCHES:      34450 LATE PREFETCHES: 8056 DROPPED PREFETCHES: 8
L1D AVERAGE MISS LATENCY: 235739 cycles
L1D RQ	ACCESS:   10700816	FORWARD:          0	MERGED:    3959227	TO_CACHE:    6579336
L1D WQ	ACCESS:    6939568	FORWARD:     162644	MERGED:     196450	TO_CACHE:    6743118
L1D PQ	ACCESS:     377469	FORWARD:          0	MERGED:          0	TO_CACHE:     377078

L1D UNIQUE REGIONS ACCESSED: 0
L1D REGIONS CONFLICTS: 0
L1D Cross Page Prefetch Requests: 7082
L1D Same Page Prefetch Requests: 756651
L1D ROI Sum of L1D PQ occupancy: 4796063
L1D PREFETCHES PUSHED FROM L2C: 0
L1I TOTAL     ACCESS:    7078506  HIT:    4332830  MISS:    2745676  HIT %:    61.2111  MISS %:    38.7889   MPKI: 54.9135
L1I LOAD INSTRUCTION	ACCESS:    6409899  HIT:    3664223  MISS:    2745676  HIT %:    57.1651  MISS %:    42.8349  MPKI: 54.9135
L1I PREFETCH INSTRUCTION	ACCESS:     668607  HIT:     668607  MISS:          0  HIT %:        100  MISS %:          0  MPKI: 0

L1I PREFETCH  REQUESTED:    1609140  ISSUED:    1609140  USEFUL:          0  USELESS:          0
L1I USEFUL LOAD PREFETCHES:          0 PREFETCH ISSUED TO LOWER LEVEL:          0  ACCURACY: -nan
 TIMELY PREFETCHES:          0 LATE PREFETCHES: 0 DROPPED PREFETCHES: 0
L1I AVERAGE MISS LATENCY: 17.1927 cycles
L1I RQ	ACCESS:    9646576	FORWARD:          0	MERGED:    2959968	TO_CACHE:    6686608
L1I PQ	ACCESS:    1609140	FORWARD:          0	MERGED:     423706	TO_CACHE:    1185434

L1BTB TOTAL     ACCESS:    5669357  HIT:    2060735  MISS:    3608622  HIT %:    36.3487  MISS %:    63.6513   MPKI: 72.1724
L1BTB BRANCH_DIRECT_JUMP	ACCESS:     549973 HIT:     146584 MISS:     403389 AVERAGE STALL: 60.959 AVERAGE FETCH STALL: 14.9741 AVERAGE FETCH QUEUE STALL: 22.2842 AVERAGE DECODE STALL: 22.7737 AVERAGE EXECUTE STALL: 2.07851e+15
L1BTB BRANCH_INDIRECT	ACCESS:     183898 HIT:      66780 MISS:     117118 AVERAGE STALL: 118.025 AVERAGE FETCH STALL: 10.8603 AVERAGE FETCH QUEUE STALL: 20.1043 AVERAGE DECODE STALL: 14.0442 AVERAGE EXECUTE STALL: 72.056
L1BTB BRANCH_CONDITIONAL	ACCESS:    2722643 HIT:    1434746 MISS:    1287897 AVERAGE STALL: 78.9016 AVERAGE FETCH STALL: 22.3748 AVERAGE FETCH QUEUE STALL: 31.7186 AVERAGE DECODE STALL: 24.061 AVERAGE EXECUTE STALL: 3.00045e+15
L1BTB BRANCH_DIRECT_CALL	ACCESS:     936160 HIT:     104183 MISS:     831977 AVERAGE STALL: 77.6531 AVERAGE FETCH STALL: 27.1417 AVERAGE FETCH QUEUE STALL: 26.5447 AVERAGE DECODE STALL: 23.4043 AVERAGE EXECUTE STALL: 6.2257e+15
L1BTB BRANCH_INDIRECT_CALL	ACCESS:     170255 HIT:      20610 MISS:     149645 AVERAGE STALL: 146.668 AVERAGE FETCH STALL: 12.3697 AVERAGE FETCH QUEUE STALL: 21.626 AVERAGE DECODE STALL: 12.8893 AVERAGE EXECUTE STALL: 99.2973
L1BTB BRANCH_RETURN	ACCESS:    1106428 HIT:     287832 MISS:     818596 AVERAGE STALL: 53.56 AVERAGE FETCH STALL: 16.8981 AVERAGE FETCH QUEUE STALL: 7.00933 AVERAGE DECODE STALL: 6.84222 AVERAGE EXECUTE STALL: 4.28078e+14
L1BTB BRANCH_OTHER ACCESS:          0 HIT:          0 MISS:          0 AVERAGE STALL: -nan AVERAGE FETCH STALL: -nan AVERAGE FETCH QUEUE STALL: -nan AVERAGE DECODE STALL: -nan AVERAGE EXECUTE STALL: -nan
L1BTB TOTAL ROB OCCUPANCY AT BTB MISS: 3.01877

L2BTB TOTAL     ACCESS:    3583023  HIT:    3514370  MISS:      68653  HIT %:    98.0839  MISS %:    1.91606   MPKI: 1.37306
L2BTB BRANCH_DIRECT_JUMP	ACCESS:     399105 HIT:     394498 MISS:       4607 AVERAGE STALL: 60.959 AVERAGE FETCH STALL: 14.9741 AVERAGE FETCH QUEUE STALL: 22.2842 AVERAGE DECODE STALL: 22.7737 AVERAGE EXECUTE STALL: 2.07851e+15
L2BTB BRANCH_INDIRECT	ACCESS:     106888 HIT:     104197 MISS:       2691 AVERAGE STALL: 118.025 AVERAGE FETCH STALL: 10.8603 AVERAGE FETCH QUEUE STALL: 20.1043 AVERAGE DECODE STALL: 14.0442 AVERAGE EXECUTE STALL: 72.056
L2BTB BRANCH_CONDITIONAL	ACCESS:    1287897 HIT:    1281675 MISS:       6222 AVERAGE STALL: 78.9016 AVERAGE FETCH STALL: 22.3748 AVERAGE FETCH QUEUE STALL: 31.7186 AVERAGE DECODE STALL: 24.061 AVERAGE EXECUTE STALL: 3.00045e+15
L2BTB BRANCH_DIRECT_CALL	ACCESS:     831977 HIT:     828987 MISS:       2990 AVERAGE STALL: 77.6531 AVERAGE FETCH STALL: 27.1417 AVERAGE FETCH QUEUE STALL: 26.5447 AVERAGE DECODE STALL: 23.4043 AVERAGE EXECUTE STALL: 6.2257e+15
L2BTB BRANCH_INDIRECT_CALL	ACCESS:     139960 HIT:     129543 MISS:      10417 AVERAGE STALL: 146.668 AVERAGE FETCH STALL: 12.3697 AVERAGE FETCH QUEUE STALL: 21.626 AVERAGE DECODE STALL: 12.8893 AVERAGE EXECUTE STALL: 99.2973
L2BTB BRANCH_RETURN	ACCESS:     817196 HIT:     775470 MISS:      41726 AVERAGE STALL: 53.56 AVERAGE FETCH STALL: 16.8981 AVERAGE FETCH QUEUE STALL: 7.00933 AVERAGE DECODE STALL: 6.84222 AVERAGE EXECUTE STALL: 4.28078e+14
L2BTB BRANCH_OTHER ACCESS:          0 HIT:          0 MISS:          0 AVERAGE STALL: -nan AVERAGE FETCH STALL: -nan AVERAGE FETCH QUEUE STALL: -nan AVERAGE DECODE STALL: -nan AVERAGE EXECUTE STALL: -nan
L2BTB TOTAL ROB OCCUPANCY AT BTB MISS: 158.676

L2C TOTAL     ACCESS:    4463346  HIT:    3995667  MISS:     467679  HIT %:    89.5218  MISS %:    10.4782   MPKI: 9.35358
L2C LOAD INSTRUCTION	ACCESS:    2745676  HIT:    2498876  MISS:     246800  HIT %:    91.0113  MISS %:    8.98868  MPKI: 4.936
L2C LOAD TRANSLATION INSTRUCTION	ACCESS:        247  HIT:         58  MISS:        189  HIT %:    23.4818  MISS %:    76.5182  MPKI: 0.00378
L2C LOAD DATA	ACCESS:     722610  HIT:     645209  MISS:      77401  HIT %:    89.2887  MISS %:    10.7113  MPKI: 1.54802
L2C RFO DATA	ACCESS:     286057  HIT:     234079  MISS:      51978  HIT %:    81.8295  MISS %:    18.1705  MPKI: 1.03956
L2C PREFETCH DATA	ACCESS:     187690  HIT:     112057  MISS:      75633  HIT %:    59.7032  MISS %:    40.2968  MPKI: 1.51266
L2C WRITEBACK DATA	ACCESS:     519260  HIT:     504923  MISS:      14337  HIT %:     97.239  MISS %:    2.76104  MPKI: 0.28674
L2C LOAD TRANSLATION DATA	ACCESS:       1758  HIT:        434  MISS:       1324  HIT %:    24.6871  MISS %:    75.3129  MPKI: 0.02648
L2C TRANSLATION FROM L1D PREFETCHER DATA	ACCESS:         48  HIT:         31  MISS:         17  HIT %:    64.5833  MISS %:    35.4167  MPKI: 0.00034

L2C PREFETCH  REQUESTED:      92791  ISSUED:      92791  USEFUL:       8139  USELESS:      68044
L2C USEFUL LOAD PREFETCHES:       8139 PREFETCH ISSUED TO LOWER LEVEL:      76008  ACCURACY: 10.7081
 TIMELY PREFETCHES:       8139 LATE PREFETCHES: 375 DROPPED PREFETCHES: 0
L2C AVERAGE MISS LATENCY: 39.6008 cycles
L2C RQ	ACCESS:    3756445	FORWARD:          0	MERGED:          0	TO_CACHE:    3756401
L2C WQ	ACCESS:     519260	FORWARD:         45	MERGED:          0	TO_CACHE:     519260
L2C PQ	ACCESS:     195679	FORWARD:          0	MERGED:       3724	TO_CACHE:     191954

L2C Dense regions hint from L2: 0
PSCL5 TOTAL     ACCESS:       3904  HIT:       1952  MISS:       1952  HIT %:         50  MISS %:         50   MPKI: 0.03904
PSCL5 LOAD TRANSLATION INSTRUCTION	ACCESS:       3808  HIT:       1904  MISS:       1904  HIT %:         50  MISS %:         50  MPKI: 0.03808
PSCL5 TRANSLATION FROM L1D PREFETCHER INSTRUCTION	ACCESS:         96  HIT:         48  MISS:         48  HIT %:         50  MISS %:         50  MPKI: 0.00096


PSCL4 TOTAL     ACCESS:       3853  HIT:       1924  MISS:       1929  HIT %:    49.9351  MISS %:    50.0649   MPKI: 0.03858
PSCL4 LOAD TRANSLATION INSTRUCTION	ACCESS:       2302  HIT:       1882  MISS:        420  HIT %:     81.755  MISS %:     18.245  MPKI: 0.0084
PSCL4 TRANSLATION FROM L1D PREFETCHER INSTRUCTION	ACCESS:         46  HIT:         42  MISS:          4  HIT %:    91.3043  MISS %:    8.69565  MPKI: 8e-05
PSCL4 LOAD TRANSLATION DATA	ACCESS:       1467  HIT:          0  MISS:       1467  HIT %:          0  MISS %:        100  MPKI: 0.02934
PSCL4 TRANSLATION FROM L1D PREFETCHER DATA	ACCESS:         38  HIT:          0  MISS:         38  HIT %:          0  MISS %:        100  MPKI: 0.00076


PSCL3 TOTAL     ACCESS:       3855  HIT:       1925  MISS:       1930  HIT %:    49.9351  MISS %:    50.0649   MPKI: 0.0386
PSCL3 LOAD TRANSLATION INSTRUCTION	ACCESS:       2303  HIT:       1883  MISS:        420  HIT %:    81.7629  MISS %:    18.2371  MPKI: 0.0084
PSCL3 TRANSLATION FROM L1D PREFETCHER INSTRUCTION	ACCESS:         46  HIT:         42  MISS:          4  HIT %:    91.3043  MISS %:    8.69565  MPKI: 8e-05
PSCL3 LOAD TRANSLATION DATA	ACCESS:       1468  HIT:          0  MISS:       1468  HIT %:          0  MISS %:        100  MPKI: 0.02936
PSCL3 TRANSLATION FROM L1D PREFETCHER DATA	ACCESS:         38  HIT:          0  MISS:         38  HIT %:          0  MISS %:        100  MPKI: 0.00076


PSCL2 TOTAL     ACCESS:       3811  HIT:       1859  MISS:       1952  HIT %:    48.7798  MISS %:    51.2202   MPKI: 0.03904
PSCL2 LOAD TRANSLATION INSTRUCTION	ACCESS:       2029  HIT:       1811  MISS:        218  HIT %:    89.2558  MISS %:    10.7442  MPKI: 0.00436
PSCL2 TRANSLATION FROM L1D PREFETCHER INSTRUCTION	ACCESS:         48  HIT:         48  MISS:          0  HIT %:        100  MISS %:          0  MPKI: 0
PSCL2 LOAD TRANSLATION DATA	ACCESS:       1686  HIT:          0  MISS:       1686  HIT %:          0  MISS %:        100  MPKI: 0.03372
PSCL2 TRANSLATION FROM L1D PREFETCHER DATA	ACCESS:         48  HIT:          0  MISS:         48  HIT %:          0  MISS %:        100  MPKI: 0.00096


LLC TOTAL     ACCESS:     528797  HIT:     497956  MISS:      30841  HIT %:    94.1677  MISS %:    5.83229   MPKI: 0.61682
LLC LOAD INSTRUCTION	ACCESS:     246800  HIT:     245469  MISS:       1331  HIT %:    99.4607  MISS %:   0.539303  MPKI: 0.02662
LLC LOAD TRANSLATION INSTRUCTION	ACCESS:        189  HIT:        153  MISS:         36  HIT %:    80.9524  MISS %:    19.0476  MPKI: 0.00072
LLC LOAD DATA	ACCESS:      77057  HIT:      73558  MISS:       3499  HIT %:    95.4592  MISS %:    4.54079  MPKI: 0.06998
LLC RFO DATA	ACCESS:      51944  HIT:      36174  MISS:      15770  HIT %:    69.6404  MISS %:    30.3596  MPKI: 0.3154
LLC PREFETCH DATA	ACCESS:      76007  HIT:      66354  MISS:       9653  HIT %:    87.2999  MISS %:    12.7001  MPKI: 0.19306
LLC WRITEBACK DATA	ACCESS:      75459  HIT:      74996  MISS:        463  HIT %:    99.3864  MISS %:   0.613578  MPKI: 0.00926
LLC LOAD TRANSLATION DATA	ACCESS:       1324  HIT:       1236  MISS:         88  HIT %:    93.3535  MISS %:    6.64653  MPKI: 0.00176
LLC TRANSLATION FROM L1D PREFETCHER DATA	ACCESS:         17  HIT:         16  MISS:          1  HIT %:    94.1176  MISS %:    5.88235  MPKI: 2e-05

LLC AVERAGE MISS LATENCY: 157.903 cycles
LLC RQ	ACCESS:     377334	FORWARD:          0	MERGED:          0	TO_CACHE:     377331
LLC WQ	ACCESS:      75459	FORWARD:          4	MERGED:          0	TO_CACHE:      75459
LLC PQ	ACCESS:      76008	FORWARD:          0	MERGED:          0	TO_CACHE:      76007

LLC Dense regions hint to LLC: 0

RAW hits: 1942942
Loads Generated: 12643760
Loads sent to L1D: 10700816
Stores Generated: 6939563
Stores sent to L1D: 6939568
Major fault: 0 Minor fault: 2579
Allocated PAGES: 2579

stream: 
stream:times selected: 1197154
stream:pref_filled: 121234
stream:pref_useful: 23921
stream:pref_late: 6732
stream:misses: 7954
stream:misses_by_poll: 0

CS: 
CS:times selected: 180383
CS:pref_filled: 59514
CS:pref_useful: 36110
CS:pref_late: 7387
CS:misses: 16951
CS:misses_by_poll: 2

CPLX: 
CPLX:times selected: 1015614
CPLX:pref_filled: 19258
CPLX:pref_useful: 4542
CPLX:pref_late: 3155
CPLX:misses: 93437
CPLX:misses_by_poll: 0

NL_L1: 
NL:times selected: 21138
NL:pref_filled: 789
NL:pref_useful: 359
NL:pref_late: 290
NL:misses: 1903
NL:misses_by_poll: 0

total selections: 2414289
total_filled: 94741
total_useful: 34450
total_late: 18772
total_polluted: 2
total_misses_after_warmup: 766152
conflicts: 5505921

test: 115550

DRAM Statistics
 CHANNEL 0
 RQ ROW_BUFFER_HIT:      11619  ROW_BUFFER_MISS:      18743
 DBUS_CONGESTED:         15
 WQ ROW_BUFFER_HIT:       1623  ROW_BUFFER_MISS:      13110  FULL:          0

 AVG_CONGESTED_CYCLE: 5

CPU 0 Branch Prediction Accuracy: 99.8178% MPKI: 0.33282 Average ROB Occupancy at Mispredict: 195.359
Branch types
NOT_BRANCH: 40864521 81.729%
BRANCH_DIRECT_JUMP: 549973 1.09995%
BRANCH_INDIRECT: 183898 0.367796%
BRANCH_CONDITIONAL: 6188732 12.3775%
BRANCH_DIRECT_CALL: 936160 1.87232%
BRANCH_INDIRECT_CALL: 170255 0.34051%
BRANCH_RETURN: 1106428 2.21286%
BRANCH_OTHER: 0 0%

DRAM PAGES: 1048576
Allocated PAGES: 2579
Average_ROB_Occupancy: 255.754
Average_Decode_Occupancy: 40.0408
Average_FTQ_Occupancy: 16.0814
Indirect max targets: 14 Average targets: 1.15512
Branch_type:  BRANCH_DIRECT_JUMP:  Count Percentage: 3.81452 5.04709 4.48423 3.571 4.03112 11.6196 1.39891 66.0336 
Branch_type:  BRANCH_INDIRECT:  Count Percentage: 11.744 3.44635 2.599 7.3176 3.33406 31.1973 3.18579 37.1759 
Branch_type:  BRANCH_CONDITIONAL:  Count Percentage: 21.9856 2.47386 1.54033 6.52323 1.95136 8.1984 0.849434 56.4778 
Branch_type:  BRANCH_DIRECT_CALL:  Count Percentage: 0.390743 1.7301 0.767127 1.94994 3.34003 4.96463 0.82844 86.029 
Branch_type:  BRANCH_INDIRECT_CALL:  Count Percentage: 9.56434 0 2.99583 4.26963 0.000585924 1.71178 1.00281 80.455 
Branch_type:  BRANCH_RETURN:  Count Percentage: 3.95613 1.97998 1.04305 7.46204 2.46794 9.66459 1.26832 72.1579 
Branch_type:  BRANCH_DIRECT_JUMP:  Total Count: 41807 55316 49147 39138 44181 127350 15332 723726 
Branch_type:  BRANCH_INDIRECT:  Total Count: 43090 12645 9536 26849 12233 114466 11689 136402 
Branch_type:  BRANCH_CONDITIONAL:  Total Count: 2718430 305882 190456 806570 241278 1013698 105029 6983243 
Branch_type:  BRANCH_DIRECT_CALL:  Total Count: 7348 32535 14426 36669 62810 93361 15579 1617794 
Branch_type:  BRANCH_INDIRECT_CALL:  Total Count: 32647 0 10226 14574 2 5843 3423 274626 
Branch_type:  BRANCH_RETURN:  Total Count: 87933 44009 23184 165859 54855 214815 28191 1603856 
Number of unique branch instructions: 10259
Upper 32 bits: 
aaaa
ffff
ffff0000
Unique upper 32 bits: 3
Unique upper 36 bits: 3
Unique upper 40 bits: 5
Unique upper 44 bits: 32
Unique upper 48 bits: 157
Variant_0 : 1389 0.339111
Variant_1 : 2661 0.649658
Variant_2 : 0 0
Variant_3 : 0 0
Offset_3 4221
Offset_4 266
Offset_5 472
Offset_6 520
Offset_7 604
Offset_8 534
Offset_9 489
Offset_10 397
Offset_11 324
Offset_12 297
Offset_13 214
Offset_14 231
Offset_15 193
Offset_16 230
Offset_17 156
Offset_18 126
Offset_19 246
Offset_20 144
Offset_21 261
Offset_22 398
Offset_23 241
Offset_24 353
Offset_25 88
Offset_47 86
decode_dispatch_called: 26730040 74.5917
Dispatch_width: 0 14467175 54.1233 40.3715
Dispatch_width: 1 1039723 3.88972 2.90141
Dispatch_width: 2 866922 3.24325 2.41919
Dispatch_width: 3 485716 1.81712 1.35542
Dispatch_width: 4 6681862 24.9976 18.6461
Dispatch_width: 5 90015 0.336756 0.251192
Dispatch_width: 6 3098627 11.5923 8.64689
Empty_decode_cycles: 9105115 25.4083
ROB_full_cycles: 10625755 29.6518
Starvation_cycles_per_kilo_instr: 221.108
Starvation_cycles_per_kilo_instr_3: 153.389
Starvation_cycles_per_kilo_instr_0: 129.465
Branch_type_1  (3,1)  (4,10)  (5,39)  (6,72)  (7,119)  (8,133)  (9,130)  (10,101)  (11,72)  (12,51)  (13,8)  (14,2)  (15,3)  (16,4)  (18,1)  (19,4)  (20,2)  (21,1)  (22,3)  (23,2)  (24,10)  (25,12) 
Branch_type_2  (3,1)  (5,1)  (8,3)  (9,3)  (12,1)  (13,1)  (14,1)  (16,3)  (17,2)  (20,2)  (21,2)  (23,5)  (24,1)  (47,40) 
Branch_type_3  (3,4219)  (4,256)  (5,428)  (6,432)  (7,452)  (8,336)  (9,269)  (10,160)  (11,133)  (12,59)  (13,7) 
Branch_type_4  (6,4)  (7,8)  (8,26)  (9,55)  (10,63)  (11,62)  (12,102)  (13,91)  (14,103)  (15,92)  (16,103)  (17,71)  (18,57)  (19,119)  (20,74)  (21,141)  (22,213)  (23,136)  (24,203)  (25,72) 
Branch_type_5  (8,2)  (9,1)  (10,4)  (11,5)  (12,3)  (13,14)  (14,16)  (15,11)  (16,20)  (17,11)  (18,16)  (19,13)  (20,11)  (21,13)  (22,42)  (23,26)  (24,41) 
Branch_type_6  (5,4)  (6,12)  (7,25)  (8,34)  (9,31)  (10,69)  (11,52)  (12,81)  (13,93)  (14,109)  (15,87)  (16,100)  (17,72)  (18,52)  (19,110)  (20,55)  (21,104)  (22,140)  (23,72)  (24,98)  (25,4)  (47,46) 
Unique trigger count: 
Variant_0_evicts_0 : 0
Variant_0_evicts_1 : 0
Variant_0_evicts_2 : 0
Variant_0_evicts_3 : 0
Variant_1_evicts_0 : 0
Variant_1_evicts_1 : 0
Variant_1_evicts_2 : 0
Variant_1_evicts_3 : 0
Variant_2_evicts_0 : 0
Variant_2_evicts_1 : 0
Variant_2_evicts_2 : 0
Variant_2_evicts_3 : 0
Variant_3_evicts_0 : 0
Variant_3_evicts_1 : 0
Variant_3_evicts_2 : 0
Variant_3_evicts_3 : 0
BTB PER SET UNIQUE ADDR: 11 10 8 11 13 10 13 13 8 13 10 10 12 12 12 9 12 13 14 11 12 12 13 13 10 15 14 11 10 9 12 12 14 8 8 10 11 14 9 11 13 10 9 12 12 11 16 9 12 8 15 10 12 12 11 6 8 14 6 10 11 11 9 15 11 13 14 11 16 10 15 12 12 11 10 11 9 18 13 15 12 8 11 15 13 13 11 10 9 19 11 11 13 11 9 15 9 9 16 15 12 16 9 9 13 6 10 13 7 12 10 11 10 10 8 7 11 12 10 12 14 9 8 9 12 11 8 13 15 10 9 16 6 15 11 12 6 8 9 15 10 10 10 9 11 11 13 6 7 13 15 9 7 13 10 9 16 14 12 11 10 13 15 13 14 15 14 8 15 7 10 11 13 11 10 13 9 14 13 12 11 9 8 11 13 13 3 11 9 13 13 9 8 14 10 9 10 16 7 12 13 11 12 10 8 11 13 13 10 15 10 11 8 10 9 12 12 7 13 15 10 8 7 10 9 15 14 11 8 10 10 8 12 11 10 15 16 14 16 8 11 12 15 14 10 10 10 16 17 8 11 11 13 10 14 10 10 10 11 12 13 9 7 14 9 10 12 11 16 10 8 17 11 9 9 9 8 14 9 12 9 11 9 11 12 9 10 17 18 10 12 8 11 15 9 12 10 11 12 11 9 13 9 17 14 11 8 11 16 13 8 17 8 16 12 8 11 14 11 14 10 10 11 11 13 17 11 8 10 9 9 16 7 11 9 10 6 10 6 16 8 10 10 15 14 10 9 11 11 9 14 11 10 13 10 9 12 11 6 6 10 16 9 17 8 10 7 10 14 11 13 9 9 11 10 13 10 15 11 13 13 9 9 12 7 13 16 18 12 14 15 8 14 14 10 12 8 8 10 8 9 15 7 15 20 10 14 11 11 10 15 7 13 14 14 11 10 14 13 13 12 9 10 14 14 13 10 12 13 15 13 15 8 10 8 11 14 13 10 10 7 10 9 11 14 10 9 11 10 13 10 16 12 8 15 16 12 16 7 9 10 14 10 14 14 10 11 10 15 14 13 11 10 10 13 15 11 15 8 12 14 18 11 13 9 14 14 14 15 17 10 10 10 6 11 11 14 11 11 11 11 12 16 14 9 9 10 12 11 11 12 12 13 13 11 15 8 14 7 8 8 8 11 11 13 15 17 8 9 11 13 13 18 12 11 13 12 14 15 12 14 10 14 13 10 12 9 16 9 10 11 17 9 13 12 14 12 11 14 11 12 11 8 10 10 8 13 14 12 13 16 12 10 16 13 14 12 12 11 14 12 12 6 11 14 10 10 11 11 10 13 11 11 10 9 9 8 14 8 10 15 12 9 6 8 13 16 11 13 13 15 13 9 9 6 14 8 12 6 14 14 13 7 8 11 12 11 15 13 10 8 17 11 17 11 14 9 11 12 8 11 14 11 10 8 12 9 8 10 8 8 9 11 11 13 13 9 12 16 7 12 6 11 18 12 13 10 14 9 11 10 15 11 11 14 13 14 12 9 18 8 13 10 16 10 10 12 13 13 11 10 12 10 11 11 10 11 14 9 14 8 11 11 16 7 12 11 7 9 11 8 11 8 11 12 10 11 13 11 13 13 12 10 10 10 10 10 8 9 13 14 12 16 11 11 13 14 13 13 11 10 13 12 11 15 10 10 15 9 6 9 16 13 16 6 14 15 14 10 6 14 6 11 14 11 12 13 10 14 11 11 8 12 7 11 10 12 10 12 12 9 12 15 9 11 13 10 17 10 8 9 7 14 11 14 16 7 10 13 9 16 12 19 13 16 10 10 10 8 9 7 19 13 14 15 10 14 12 8 18 12 16 6 11 15 11 11 12 9 11 11 15 13 10 8 9 11 12 8 11 10 12 12 12 10 10 12 13 9 8 10 9 8 10 11 14 12 10 13 11 17 8 9 11 15 8 10 11 13 9 11 7 12 6 11 6 13 12 7 13 10 9 12 13 11 12 11 15 14 15 17 12 12 9 8 13 16 12 10 9 9 12 11 12 4 10 10 10 12 15 11 10 11 14 10 13 15 11 10 10 11 14 12 10 9 8 5 11 15 11 12 13 12 15 9 14 9 12 12 12 7 16 12 15 9 14 10 17 9 8 14 13 12 13 10 15 10 15 12 11 14 12 11 14 13 10 17 11 8 14 12 11 12 11 11 10 13 11 14 10 12 10 9 15 12 17 12 12 12 9 14 13 12 13 10 8 7 11 11 11 15 15 13 13 12 11 12 13 13 16 11 11 8 9 12 8 8 13 5 10 9 14 15 8 
BTB PER SET COUNT: 381 11 1829 12 17 13 1368 21 752 19 12 13 163 14 16 15 130 47 27 15 18 16 517 98 25 18 25 12 11 10 298 16 20 8 10 139 13 25 9 13 18 13 10 20 14 13 23 11 19 8 24 466 15 20 15 387 9 21 218 15 12 17 10 18 11 21 19 728 20 11 1479 26 18 16 10 17 11 1279 18 26 739 14 25 24 14 19 14 14 1469 28 15 617 16 11 14 20 1014 10 24 23 14 105 12 10 2279 7 12 14 882 17 10 22 22 16 15 1168 14 20 1470 15 423 9 8 9 13 156 10 739 36 643 16 4404 6 29 181 13 964 14 12 23 23 11 13 11 18 77 229 6 10 21 20 281 922 19 10 13 33 16 21 16 14 240 20 15 259 22 18 9 22 1806 17 14 24 13 14 20 10 18 19 826 162 11 1014 14 18 39 3 16 31 1052 20 10 8 21 16 10 11 1058 12 13 15 11 973 13 12 11 16 19 626 1637 13 15 9 5512 10 568 21 8 2936 23 18 12 504 13 12 18 19 12 618 11 14 8 14 14 12 17100 734 180 27 10 30 14 29 299 18 13 13 24 414 12 15 16 20 12 20 35 61 18 15 16 15 10 7 477 10 12 21 12 306 12 9 22 307 9 14 11 8 18 9 15 20 12 723 999 16 10 12 25 26 10 20 8 16 18 11 15 10 19 14 75 10 17 9 32 14 168 9 523 51 196 967 29 8 25 1871 1012 11 21 17 31 20 2930 11 17 1475 50 279 8 10 10 9 18 9 16 9 371 8 968 6 21 11 1016 12 69 19 11 12 18 11 101 1817 1472 12 18 15 11 17 15 250 7 13 17 11 26 12 59 7 11 19 13 16 394 13 11 787 15 13 23 137 18 1025 9 16 15 9 15 29 21 19 218 27 9 23 16 14 308 9 10 12 9 9 19 11 20 32 17 16 514 17 15 52 9 16 23 18 11 15 3441 20 18 14 9 13 21 24 19 13 16 14 17 16 19 8 11 12 15 18 20 14 14 7 16 12 13 2407 249 654 12 12 19 16 603 15 9 231 1520 18 33 8 15 33 17 12 946 20 100 70 12 18 18 17 14 16 10 22 22 11 23 9 29 19 27 17 21 15 238 15 16 22 23 13 13 19 6 14 14 562 970 15 13 12 16 20 20 11 10 11 16 15 12 18 1175 745 854 18 22 25 17 10 13 10 8 13 13 15 23 430 1473 12 1560 17 16 26 18 12 18 1233 41 21 709 19 11 41 16 11 13 9 28 13 17 12 20 9 649 15 23 14 12 20 13 27 103 11 13 10 11 55 25 13 14 38 13 11 26 15 25 55 12 15 17 20 20 6 752 21 15 13 12 21 11 17 26 15 11 26 9 11 20 266 12 22 12 10 10 8 24 20 16 14 16 23 22 11 10 6 18 8 19 9 24 22 16 7 9 13 13 13 27 18 14 9 203 27 148 12 17 14 1015 18 11 12 24 22 958 96 18 142 9 13 9 9 9 12 20 1037 148 9 54 41 293 16 7 1613 28 21 18 12 1536 1473 13 12 29 983 16 962 649 17 16 9 29 9 21 971 21 2022 12 16 19 20 17 16 20 13 16 2221 13 159 2581 10 16 8 14 13 21 7 21 15 10 12 13 389 16 1013 13 352 151 1020 14 21 17 19 965 12 383 11 16 16 11 1014 55 388 9128 19 14 12 16 518 19 22 13 12 19 16 14 990 11 1362 17 10 6 14 21 212 28 6 22 20 1253 12 6 24 10 15 288 1998 18 15 15 15 14 13 8 19 7 13 13 14 649 13 18 1514 15 627 12 13 18 14 30 15 8 10 486 18 12 400 256 163 14 18 15 19 19 27 18 356 14 11 11 10 11 7 1457 21 18 25 131 752 17 13 27 16 1105 7 19 18 14 11 15 10 12 18 18 18 11 280 9 16 21 10 18 11 1047 12 18 1356 11 26 20 12 9 1472 384 8 14 17 19 18 14 15 15 71 12 34 13 30 14 12 11 19 11 511 9 14 10 15 6 23 16 274 29 16 12 17 14 103 672 12 25 18 660 24 17 16 7341 10 20 23 22 14 9 11 15 21 397 5 15 12 11 136 22 209 98 14 18 12 17 31 173 17 14 15 785 16 11 12 12 10 18 23 16 61 16 15 18 12 202 11 20 12 16 7 18 15 25 10 31 14 25 13 10 532 972 20 361 10 22 11 18 16 18 258 16 19 16 20 11 1480 15 9 16 18 16 14 13 21 12 16 18 362 15 12 1517 12 23 14 1032 21 324 14 13 21 15 383 1092 1476 10 10 1480 14 13 25 21 22 15 15 12 16 20 23 269 13 12 8 9 14 9 10 21 5 12 10 64 18 12 
To predecode: 0
Predecoding something: 0
Predecode request dropped: 0
sizeofblock_0 0
sizeofblock_1 59259
sizeofblock_2 81077
sizeofblock_3 0
sizeofblock_4 0
sizeofblock_5 0
sizeofblock_6 0
sizeofblock_7 0
sizeofblock_8 0
Variant_0 Correct: 1608782 Incorrect: 0 Accuracy: 1
Variant_1 Correct: 5713162 Incorrect: 0 Accuracy: 1
Variant_2 Correct: 0 Incorrect: 0 Accuracy: -nan
Variant_3 Correct: 0 Incorrect: 0 Accuracy: -nan
