
*** ChampSim Multicore Out-of-Order Simulator ***

Warmup Instructions: 50000000
Simulation Instructions: 50000000
Number of CPUs: 1
LLC sets: 2048
LLC ways: 16
Off-chip DRAM Size: 4096 MB Channels: 1 Width: 64-bit Data Rate: 6400 MT/s
CPU 0 runs ./micro_traces/srv286.trace.gz
.gz
ITLB has LRU replacement policy
DTLB has LRU replacement policy
STLB has LRU replacement policy
CPU 0 L1I next line prefetcher
L1I has LRU replacement policy
L1D has LRU replacement policy
Initialize SRRIP state for L2C
Initialize DRRIP state for LLC
Heartbeat CPU 0 instructions: 10000003 cycles: 2797734 heartbeat IPC: 3.57432 cumulative IPC: 3.57432 (Simulation time: 0 hr 1 min 40 sec) 
Heartbeat CPU 0 instructions: 20000000 cycles: 5596623 heartbeat IPC: 3.57285 cumulative IPC: 3.57358 (Simulation time: 0 hr 3 min 22 sec) 
Heartbeat CPU 0 instructions: 30000001 cycles: 8393359 heartbeat IPC: 3.5756 cumulative IPC: 3.57425 (Simulation time: 0 hr 5 min 3 sec) 
Heartbeat CPU 0 instructions: 40000000 cycles: 11191595 heartbeat IPC: 3.57368 cumulative IPC: 3.57411 (Simulation time: 0 hr 6 min 40 sec) 
Heartbeat CPU 0 instructions: 50000003 cycles: 13988834 heartbeat IPC: 3.57495 cumulative IPC: 3.57428 (Simulation time: 0 hr 8 min 21 sec) 

Warmup complete CPU 0 instructions: 50000003 cycles: 13988834 (Simulation time: 0 hr 8 min 21 sec) 

Cycle: 20000000 FTQ IN: 56548683 FTQ occupancy: 17.2358 DECODE IN: 56548661 DECODE occupancy: 45.036 ROB IN: 56548654 ROB occupancy: 280.056 ROB OUT: 56548654
Heartbeat CPU 0 instructions: 60000000 cycles: 23172838 heartbeat IPC: 1.08885 cumulative IPC: 1.08885 (Simulation time: 0 hr 9 min 41 sec) 
Cycle: 30000000 FTQ IN: 10982163 FTQ occupancy: 3.62745 DECODE IN: 10982179 DECODE occupancy: 9.61467 ROB IN: 10982186 ROB occupancy: 118.109 ROB OUT: 10982181
Heartbeat CPU 0 instructions: 70000000 cycles: 32305693 heartbeat IPC: 1.09495 cumulative IPC: 1.09189 (Simulation time: 0 hr 10 min 57 sec) 
Cycle: 40000000 FTQ IN: 10878212 FTQ occupancy: 3.79176 DECODE IN: 10878218 DECODE occupancy: 10.0926 ROB IN: 10878200 ROB occupancy: 121.207 ROB OUT: 10878093
Heartbeat CPU 0 instructions: 80000002 cycles: 41447966 heartbeat IPC: 1.09382 cumulative IPC: 1.09253 (Simulation time: 0 hr 12 min 15 sec) 
Cycle: 50000000 FTQ IN: 11092776 FTQ occupancy: 3.66926 DECODE IN: 11092754 DECODE occupancy: 9.76476 ROB IN: 11092772 ROB occupancy: 120.388 ROB OUT: 11092862
Heartbeat CPU 0 instructions: 90000000 cycles: 50453086 heartbeat IPC: 1.11048 cumulative IPC: 1.09696 (Simulation time: 0 hr 13 min 33 sec) 
Heartbeat CPU 0 instructions: 100000001 cycles: 59478885 heartbeat IPC: 1.10794 cumulative IPC: 1.09914 (Simulation time: 0 hr 14 min 49 sec) 
Finished CPU 0 instructions: 50000002 cycles: 45490052 cumulative IPC: 1.09914 (Simulation time: 0 hr 14 min 49 sec) 

ChampSim completed all CPUs

Region of Interest Statistics

CPU 0 cumulative IPC: 1.09914 instructions: 50000002 cycles: 45490052
 Fetch stage stalled: 73.4312  Sim cycles: 45490052 fetch stall cycle: 33403898
 Empty decode stage: 58.3252  Sim cycles: 45490052 fetch stall cycle: 26532164
ITLB TOTAL     ACCESS:    7630979  HIT:    7024523  MISS:     606456  HIT %:    92.0527  MISS %:    7.94729   MPKI: 12.1291
ITLB LOAD TRANSLATION INSTRUCTION	ACCESS:    5868447  HIT:    5738979  MISS:     129468  HIT %:    97.7938  MISS %:    2.20617  MPKI: 2.58936
ITLB TRANSLATION FROM L1D PREFETCHER INSTRUCTION	ACCESS:    1762532  HIT:    1285544  MISS:     476988  HIT %:    72.9373  MISS %:    27.0627  MPKI: 9.53976

ITLB AVERAGE MISS LATENCY: 106166 cycles
ITLB RQ	ACCESS:   11550728	FORWARD:          0	MERGED:    3781361	TO_CACHE:    7769367

DTLB TOTAL     ACCESS:    9383842  HIT:    8911150  MISS:     472692  HIT %:    94.9627  MISS %:     5.0373   MPKI: 9.45384
DTLB LOAD TRANSLATION DATA	ACCESS:    9383842  HIT:    8911150  MISS:     472692  HIT %:    94.9627  MISS %:     5.0373  MPKI: 9.45384

DTLB AVERAGE MISS LATENCY: 9.3581 cycles
DTLB RQ	ACCESS:   13651761	FORWARD:          0	MERGED:    4234489	TO_CACHE:    9417272

STLB TOTAL     ACCESS:    1328893  HIT:    1326756  MISS:       2137  HIT %:    99.8392  MISS %:   0.160811   MPKI: 0.04274
STLB LOAD TRANSLATION INSTRUCTION	ACCESS:     127671  HIT:     127511  MISS:        160  HIT %:    99.8747  MISS %:   0.125322  MPKI: 0.0032
STLB TRANSLATION FROM L1D PREFETCHER INSTRUCTION	ACCESS:     478785  HIT:     478680  MISS:        105  HIT %:    99.9781  MISS %:  0.0219305  MPKI: 0.0021
STLB LOAD TRANSLATION DATA	ACCESS:     472692  HIT:     470836  MISS:       1856  HIT %:    99.6074  MISS %:   0.392645  MPKI: 0.03712
STLB TRANSLATION FROM L1D PREFETCHER DATA	ACCESS:     249745  HIT:     249729  MISS:         16  HIT %:    99.9936  MISS %: 0.00640653  MPKI: 0.00032

STLB AVERAGE MISS LATENCY: 78.7169 cycles
STLB RQ	ACCESS:    1455038	FORWARD:          0	MERGED:     122366	TO_CACHE:    1332672

STLB Hit, L1D data hit: 0
STLB Hit, L2C data hit: 0
STLB Hit, LLC data hit: 0
STLB Hit, LLC data miss: 0
STLB STLB hints to L2: 0
L1D TOTAL     ACCESS:   13399086  HIT:   12286922  MISS:    1112164  HIT %:    91.6997  MISS %:     8.3003   MPKI: 22.2433
L1D LOAD DATA	ACCESS:    6843600  HIT:    6111498  MISS:     732102  HIT %:    89.3024  MISS %:    10.6976  MPKI: 14.642
L1D RFO DATA	ACCESS:    6227237  HIT:    5940387  MISS:     286850  HIT %:    95.3936  MISS %:    4.60638  MPKI: 5.737
L1D PREFETCH DATA	ACCESS:     328249  HIT:     235037  MISS:      93212  HIT %:    71.6033  MISS %:    28.3967  MPKI: 1.86424

L1D PREFETCH  REQUESTED:     744590  ISSUED:     744590  USEFUL:      34854  USELESS:      67784
L1D USEFUL LOAD PREFETCHES:      34854 PREFETCH ISSUED TO LOWER LEVEL:     102767  ACCURACY: 33.9156
 TIMELY PREFETCHES:      34854 LATE PREFETCHES: 9451 DROPPED PREFETCHES: 4
L1D AVERAGE MISS LATENCY: 316870 cycles
L1D RQ	ACCESS:   10925931	FORWARD:          0	MERGED:    3880513	TO_CACHE:    6881010
L1D WQ	ACCESS:    6941569	FORWARD:     164710	MERGED:     170818	TO_CACHE:    6770751
L1D PQ	ACCESS:     372446	FORWARD:          0	MERGED:          0	TO_CACHE:     372144

L1D UNIQUE REGIONS ACCESSED: 0
L1D REGIONS CONFLICTS: 0
L1D Cross Page Prefetch Requests: 6548
L1D Same Page Prefetch Requests: 748131
L1D ROI Sum of L1D PQ occupancy: 4769776
L1D PREFETCHES PUSHED FROM L2C: 0
L1I TOTAL     ACCESS:   11267655  HIT:    7640183  MISS:    3627472  HIT %:    67.8063  MISS %:    32.1937   MPKI: 72.5494
L1I LOAD INSTRUCTION	ACCESS:    6679939  HIT:    6187954  MISS:     491985  HIT %:    92.6349  MISS %:    7.36511  MPKI: 9.8397
L1I PREFETCH INSTRUCTION	ACCESS:    4587716  HIT:    1452229  MISS:    3135487  HIT %:    31.6547  MISS %:    68.3453  MPKI: 62.7097

L1I PREFETCH  REQUESTED:    5121808  ISSUED:    5121725  USEFUL:    2392126  USELESS:     784788
L1I USEFUL LOAD PREFETCHES:    2392126 PREFETCH ISSUED TO LOWER LEVEL:    3176821  ACCURACY: 75.2994
 TIMELY PREFETCHES:    2392126 LATE PREFETCHES: 41336 DROPPED PREFETCHES: 10231
L1I AVERAGE MISS LATENCY: 412796 cycles
L1I RQ	ACCESS:    9425266	FORWARD:          0	MERGED:    2725663	TO_CACHE:    6699603
L1I PQ	ACCESS:    5121725	FORWARD:          0	MERGED:     270600	TO_CACHE:    4851125

L1BTB TOTAL     ACCESS:    5670065  HIT:    2053544  MISS:    3616521  HIT %:    36.2173  MISS %:    63.7827   MPKI: 72.3304
L1BTB BRANCH_DIRECT_JUMP	ACCESS:     548066  HIT:     145514  MISS:     402552	AVERAGE STALL: 19.5225
L1BTB BRANCH_INDIRECT	ACCESS:     183282  HIT:      66460  MISS:     116822	AVERAGE STALL: 78.1031
L1BTB BRANCH_CONDITIONAL	ACCESS:    2712398  HIT:    1423490  MISS:    1288908	AVERAGE STALL: 19.6453
L1BTB BRANCH_DIRECT_CALL	ACCESS:     941934  HIT:     105863  MISS:     836071	AVERAGE STALL: 20.3397
L1BTB BRANCH_INDIRECT_CALL	ACCESS:     171231  HIT:      21369  MISS:     149862	AVERAGE STALL: 101.081
L1BTB BRANCH_RETURN	ACCESS:    1113154  HIT:     290848  MISS:     822306	AVERAGE STALL: 21.7282
L1BTB BRANCH_OTHER ACCESS:          0  HIT:          0  MISS:          0	AVERAGE STALL: -nan
L1BTB TOTAL ROB OCCUPANCY AT BTB MISS: 29.6373

L2BTB TOTAL     ACCESS:    3591105  HIT:    2557311  MISS:    1033794  HIT %:    71.2124  MISS %:    28.7876   MPKI: 20.6759
L2BTB BRANCH_DIRECT_JUMP	ACCESS:     398348  HIT:     281369  MISS:     116979	AVERAGE STALL: 19.5225
L2BTB BRANCH_INDIRECT	ACCESS:     106580  HIT:      93413  MISS:      13167	AVERAGE STALL: 78.1031
L2BTB BRANCH_CONDITIONAL	ACCESS:    1288908  HIT:     916102  MISS:     372806	AVERAGE STALL: 19.6453
L2BTB BRANCH_DIRECT_CALL	ACCESS:     836071  HIT:     568687  MISS:     267384	AVERAGE STALL: 20.3397
L2BTB BRANCH_INDIRECT_CALL	ACCESS:     140288  HIT:      91602  MISS:      48686	AVERAGE STALL: 101.081
L2BTB BRANCH_RETURN	ACCESS:     820910  HIT:     606138  MISS:     214772	AVERAGE STALL: 21.7282
L2BTB BRANCH_OTHER ACCESS:          0  HIT:          0  MISS:          0	AVERAGE STALL: -nan
L2BTB TOTAL ROB OCCUPANCY AT BTB MISS: 103.68

L2C TOTAL     ACCESS:    6602046  HIT:    5585581  MISS:    1016465  HIT %:    84.6038  MISS %:    15.3962   MPKI: 20.3293
L2C LOAD INSTRUCTION	ACCESS:     450649  HIT:     361203  MISS:      89446  HIT %:    80.1517  MISS %:    19.8483  MPKI: 1.78892
L2C PREFETCH INSTRUCTION	ACCESS:    3176822  HIT:    2804699  MISS:     372123  HIT %:    88.2863  MISS %:    11.7137  MPKI: 7.44246
L2C LOAD TRANSLATION INSTRUCTION	ACCESS:        181  HIT:         56  MISS:        125  HIT %:    30.9392  MISS %:    69.0608  MPKI: 0.0025
L2C TRANSLATION FROM L1D PREFETCHER INSTRUCTION	ACCESS:       5392  HIT:       5222  MISS:        170  HIT %:    96.8472  MISS %:    3.15282  MPKI: 0.0034
L2C LOAD DATA	ACCESS:     722634  HIT:     572093  MISS:     150541  HIT %:    79.1677  MISS %:    20.8323  MPKI: 3.01082
L2C RFO DATA	ACCESS:     286719  HIT:     192977  MISS:      93742  HIT %:    67.3053  MISS %:    32.6947  MPKI: 1.87484
L2C PREFETCH DATA	ACCESS:    1437967  HIT:    1169193  MISS:     268774  HIT %:    81.3088  MISS %:    18.6912  MPKI: 5.37548
L2C WRITEBACK DATA	ACCESS:     519705  HIT:     479688  MISS:      40017  HIT %:    92.3001  MISS %:    7.69995  MPKI: 0.80034
L2C LOAD TRANSLATION DATA	ACCESS:       1942  HIT:        429  MISS:       1513  HIT %:    22.0906  MISS %:    77.9094  MPKI: 0.03026
L2C TRANSLATION FROM L1D PREFETCHER DATA	ACCESS:         35  HIT:         21  MISS:         14  HIT %:         60  MISS %:         40  MPKI: 0.00028

L2C PREFETCH  REQUESTED:    3294516  ISSUED:    3294516  USEFUL:      32938  USELESS:     609865
L2C USEFUL LOAD PREFETCHES:      32938 PREFETCH ISSUED TO LOWER LEVEL:     642047  ACCURACY: 5.13015
 TIMELY PREFETCHES:      32938 LATE PREFETCHES: 1151 DROPPED PREFETCHES: 0
L2C AVERAGE MISS LATENCY: 33.9472 cycles
L2C RQ	ACCESS:    1467596	FORWARD:          0	MERGED:          0	TO_CACHE:    1467552
L2C WQ	ACCESS:     519705	FORWARD:         44	MERGED:          0	TO_CACHE:     519705
L2C PQ	ACCESS:    6574104	FORWARD:          0	MERGED:    1941430	TO_CACHE:    4632674

L2C Dense regions hint from L2: 0
PSCL5 TOTAL     ACCESS:      11780  HIT:       5890  MISS:       5890  HIT %:         50  MISS %:         50   MPKI: 0.1178
PSCL5 LOAD TRANSLATION INSTRUCTION	ACCESS:       4008  HIT:       2004  MISS:       2004  HIT %:         50  MISS %:         50  MPKI: 0.04008
PSCL5 TRANSLATION FROM L1D PREFETCHER INSTRUCTION	ACCESS:       7772  HIT:       3886  MISS:       3886  HIT %:         50  MISS %:         50  MPKI: 0.07772


PSCL4 TOTAL     ACCESS:      11528  HIT:       5759  MISS:       5769  HIT %:    49.9566  MISS %:    50.0434   MPKI: 0.11538
PSCL4 LOAD TRANSLATION INSTRUCTION	ACCESS:       2816  HIT:       1910  MISS:        906  HIT %:    67.8267  MISS %:    32.1733  MPKI: 0.01812
PSCL4 TRANSLATION FROM L1D PREFETCHER INSTRUCTION	ACCESS:       5800  HIT:       3849  MISS:       1951  HIT %:    66.3621  MISS %:    33.6379  MPKI: 0.03902
PSCL4 LOAD TRANSLATION DATA	ACCESS:       1014  HIT:          0  MISS:       1014  HIT %:          0  MISS %:        100  MPKI: 0.02028
PSCL4 TRANSLATION FROM L1D PREFETCHER DATA	ACCESS:       1898  HIT:          0  MISS:       1898  HIT %:          0  MISS %:        100  MPKI: 0.03796


PSCL3 TOTAL     ACCESS:      11654  HIT:       5822  MISS:       5832  HIT %:    49.9571  MISS %:    50.0429   MPKI: 0.11664
PSCL3 LOAD TRANSLATION INSTRUCTION	ACCESS:       2879  HIT:       1973  MISS:        906  HIT %:    68.5307  MISS %:    31.4693  MPKI: 0.01812
PSCL3 TRANSLATION FROM L1D PREFETCHER INSTRUCTION	ACCESS:       5800  HIT:       3849  MISS:       1951  HIT %:    66.3621  MISS %:    33.6379  MPKI: 0.03902
PSCL3 LOAD TRANSLATION DATA	ACCESS:       1077  HIT:          0  MISS:       1077  HIT %:          0  MISS %:        100  MPKI: 0.02154
PSCL3 TRANSLATION FROM L1D PREFETCHER DATA	ACCESS:       1898  HIT:          0  MISS:       1898  HIT %:          0  MISS %:        100  MPKI: 0.03796


PSCL2 TOTAL     ACCESS:       8658  HIT:       4266  MISS:       4392  HIT %:    49.2723  MISS %:    50.7277   MPKI: 0.08784
PSCL2 LOAD TRANSLATION INSTRUCTION	ACCESS:       2077  HIT:       1897  MISS:        180  HIT %:    91.3337  MISS %:    8.66635  MPKI: 0.0036
PSCL2 TRANSLATION FROM L1D PREFETCHER INSTRUCTION	ACCESS:       4703  HIT:       2369  MISS:       2334  HIT %:    50.3721  MISS %:    49.6279  MPKI: 0.04668
PSCL2 LOAD TRANSLATION DATA	ACCESS:       1843  HIT:          0  MISS:       1843  HIT %:          0  MISS %:        100  MPKI: 0.03686
PSCL2 TRANSLATION FROM L1D PREFETCHER DATA	ACCESS:         35  HIT:          0  MISS:         35  HIT %:          0  MISS %:        100  MPKI: 0.0007


LLC TOTAL     ACCESS:    1114155  HIT:    1082464  MISS:      31691  HIT %:    97.1556  MISS %:     2.8444   MPKI: 0.63382
LLC LOAD INSTRUCTION	ACCESS:      88982  HIT:      88478  MISS:        504  HIT %:    99.4336  MISS %:   0.566407  MPKI: 0.01008
LLC PREFETCH INSTRUCTION	ACCESS:     370183  HIT:     369462  MISS:        721  HIT %:    99.8052  MISS %:   0.194769  MPKI: 0.01442
LLC LOAD TRANSLATION INSTRUCTION	ACCESS:        125  HIT:         86  MISS:         39  HIT %:       68.8  MISS %:       31.2  MPKI: 0.00078
LLC TRANSLATION FROM L1D PREFETCHER INSTRUCTION	ACCESS:        170  HIT:        153  MISS:         17  HIT %:         90  MISS %:         10  MPKI: 0.00034
LLC LOAD DATA	ACCESS:     149845  HIT:     146051  MISS:       3794  HIT %:    97.4681  MISS %:    2.53195  MPKI: 0.07588
LLC RFO DATA	ACCESS:      93712  HIT:      78125  MISS:      15587  HIT %:    83.3671  MISS %:    16.6329  MPKI: 0.31174
LLC PREFETCH DATA	ACCESS:     271862  HIT:     261226  MISS:      10636  HIT %:    96.0877  MISS %:    3.91228  MPKI: 0.21272
LLC WRITEBACK DATA	ACCESS:     137749  HIT:     137479  MISS:        270  HIT %:     99.804  MISS %:   0.196009  MPKI: 0.0054
LLC LOAD TRANSLATION DATA	ACCESS:       1513  HIT:       1390  MISS:        123  HIT %:    91.8705  MISS %:    8.12954  MPKI: 0.00246
LLC TRANSLATION FROM L1D PREFETCHER DATA	ACCESS:         14  HIT:         14  MISS:          0  HIT %:        100  MISS %:          0  MPKI: 0

LLC AVERAGE MISS LATENCY: 163.297 cycles
LLC RQ	ACCESS:     334400	FORWARD:          0	MERGED:          0	TO_CACHE:     334361
LLC WQ	ACCESS:     137749	FORWARD:         42	MERGED:          0	TO_CACHE:     137749
LLC PQ	ACCESS:     642047	FORWARD:          0	MERGED:          0	TO_CACHE:     642044

LLC Dense regions hint to LLC: 0

RAW hits: 1711275
Loads Generated: 12637205
Loads sent to L1D: 10925931
Stores Generated: 6941569
Stores sent to L1D: 6941569
Major fault: 0 Minor fault: 2562
Allocated PAGES: 2562
I-Shadow cache 408 bytes
Touched + WorthPF tables 12288 bytes 
MMA filter 174 bytes 
FNL filter 272 bytes 
TOTAL PREFETCHER STORAGE SIZE: 31318 bytes
CPU 0 L1I next line prefetcher final stats

stream: 
stream:times selected: 1187555
stream:pref_filled: 118169
stream:pref_useful: 21759
stream:pref_late: 8036
stream:misses: 8452
stream:misses_by_poll: 0

CS: 
CS:times selected: 177128
CS:pref_filled: 53310
CS:pref_useful: 30088
CS:pref_late: 13843
CS:misses: 23506
CS:misses_by_poll: 4

CPLX: 
CPLX:times selected: 1009223
CPLX:pref_filled: 19240
CPLX:pref_useful: 3935
CPLX:pref_late: 3403
CPLX:misses: 95431
CPLX:misses_by_poll: 2

NL_L1: 
NL:times selected: 19667
NL:pref_filled: 552
NL:pref_useful: 213
NL:pref_late: 398
NL:misses: 1555
NL:misses_by_poll: 0

total selections: 2393573
total_filled: 93212
total_useful: 34854
total_late: 27276
total_polluted: 6
total_misses_after_warmup: 769514
conflicts: 5665337

test: 117648

DRAM Statistics
 CHANNEL 0
 RQ ROW_BUFFER_HIT:      11189  ROW_BUFFER_MISS:      20224
 DBUS_CONGESTED:          9
 WQ ROW_BUFFER_HIT:       1755  ROW_BUFFER_MISS:      13765  FULL:          0

 AVG_CONGESTED_CYCLE: 6

CPU 0 Branch Prediction Accuracy: 99.8145% MPKI: 0.339 Average ROB Occupancy at Mispredict: 125.524
Branch types
NOT_BRANCH: 40860644 81.7213%
BRANCH_DIRECT_JUMP: 548066 1.09613%
BRANCH_INDIRECT: 183282 0.366564%
BRANCH_CONDITIONAL: 6181384 12.3628%
BRANCH_DIRECT_CALL: 941934 1.88387%
BRANCH_INDIRECT_CALL: 171231 0.342462%
BRANCH_RETURN: 1113154 2.22631%
BRANCH_OTHER: 0 0%

DRAM PAGES: 1048576
Allocated PAGES: 2562
Average_ROB_Occupancy: 122.541
Average_Decode_Occupancy: 10.0362
Average_FTQ_Occupancy: 3.76483
Indirect max targets: 14 Average targets: 1.15512
Branch_type:  BRANCH_DIRECT_JUMP:  Count Percentage: 2.90143 7.5637 3.70446 8.67973 2.40218 5.96739 0.993393 67.7877 
Branch_type:  BRANCH_INDIRECT:  Count Percentage: 11.7418 3.4892 2.53946 0 1.33657 9.68025 19.2208 51.9919 
Branch_type:  BRANCH_CONDITIONAL:  Count Percentage: 21.072 3.16387 1.72308 8.67059 1.57307 4.79695 1.82362 57.1768 
Branch_type:  BRANCH_DIRECT_CALL:  Count Percentage: 0.759336 1.296 1.43871 4.21002 3.32107 2.35744 0.731303 85.8861 
Branch_type:  BRANCH_INDIRECT_CALL:  Count Percentage: 9.55031 0.569946 2.99346 4.84731 1.03465 1.71042 1.28274 78.0112 
Branch_type:  BRANCH_RETURN:  Count Percentage: 3.98547 0.696497 1.27129 9.26402 3.10398 6.1894 2.96919 72.5201 
Branch_type:  BRANCH_DIRECT_JUMP:  Total Count: 31795 82886 40595 95116 26324 65393 10886 742845 
Branch_type:  BRANCH_INDIRECT:  Total Count: 42950 12763 9289 0 4889 35409 70307 190179 
Branch_type:  BRANCH_CONDITIONAL:  Total Count: 2603928 390968 212925 1071448 194389 592772 225350 7065485 
Branch_type:  BRANCH_DIRECT_CALL:  Total Count: 14329 24456 27149 79445 62670 44486 13800 1620709 
Branch_type:  BRANCH_INDIRECT_CALL:  Total Count: 32759 1955 10268 16627 3549 5867 4400 267590 
Branch_type:  BRANCH_RETURN:  Total Count: 88911 15538 28361 206669 69246 138078 66239 1617836 
Number of unique branch instructions: 10227
Upper 32 bits: 
aaaa
ffff
ffff0000
Unique upper 32 bits: 3
Unique upper 36 bits: 3
Unique upper 40 bits: 5
Unique upper 44 bits: 32
Unique upper 48 bits: 157
Offset_3 4203
Offset_4 265
Offset_5 469
Offset_6 514
Offset_7 602
Offset_8 528
Offset_9 488
Offset_10 399
Offset_11 324
Offset_12 296
Offset_13 212
Offset_14 231
Offset_15 193
Offset_16 227
Offset_17 154
Offset_18 126
Offset_19 245
Offset_20 144
Offset_21 261
Offset_22 394
Offset_23 241
Offset_24 354
Offset_25 88
Offset_47 86
Offset_64 1
decode_dispatch_called: 20849042 45.8321
Dispatch_width: 0 10130321 48.5889 22.2693
Dispatch_width: 1 702878 3.37127 1.54512
Dispatch_width: 2 997803 4.78585 2.19345
Dispatch_width: 3 693333 3.32549 1.52414
Dispatch_width: 4 2104228 10.0927 4.62569
Dispatch_width: 5 518460 2.48673 1.13972
Dispatch_width: 6 5702019 27.3491 12.5347
Empty_decode_cycles: 24641010 54.1679
ROB_full_cycles: 2447180 5.37959
Starvation_cycles_per_kilo_instr: 373.409
Starvation_cycles_per_kilo_instr_3: 347.182
Starvation_cycles_per_kilo_instr_0: 323.241
Branch_type_1  (3,1)  (4,10)  (5,39)  (6,70)  (7,118)  (8,130)  (9,129)  (10,101)  (11,72)  (12,51)  (13,8)  (14,2)  (15,3)  (16,4)  (18,1)  (19,4)  (20,2)  (21,1)  (22,3)  (23,2)  (24,10)  (25,12) 
Branch_type_2  (3,1)  (5,1)  (8,3)  (9,3)  (12,1)  (13,1)  (14,1)  (16,3)  (17,2)  (20,2)  (21,2)  (23,5)  (24,1)  (47,40) 
Branch_type_3  (3,4201)  (4,255)  (5,425)  (6,428)  (7,451)  (8,333)  (9,269)  (10,162)  (11,133)  (12,58)  (13,7) 
Branch_type_4  (6,4)  (7,8)  (8,26)  (9,55)  (10,63)  (11,62)  (12,102)  (13,90)  (14,103)  (15,92)  (16,102)  (17,70)  (18,57)  (19,118)  (20,74)  (21,141)  (22,209)  (23,136)  (24,204)  (25,72) 
Branch_type_5  (8,2)  (9,1)  (10,4)  (11,5)  (12,3)  (13,14)  (14,16)  (15,11)  (16,20)  (17,11)  (18,16)  (19,13)  (20,11)  (21,13)  (22,42)  (23,26)  (24,41) 
Branch_type_6  (5,4)  (6,12)  (7,25)  (8,34)  (9,31)  (10,69)  (11,52)  (12,81)  (13,92)  (14,109)  (15,87)  (16,98)  (17,71)  (18,52)  (19,110)  (20,55)  (21,104)  (22,140)  (23,72)  (24,98)  (25,4)  (47,46)  (64,1) 
Unique trigger count: 
BTB PER SET UNIQUE ADDR: 24 27 21 25 25 25 17 24 13 26 19 29 26 20 23 18 21 21 22 26 21 20 24 26 19 25 25 24 24 22 22 24 28 16 16 22 23 26 15 19 23 22 24 29 20 14 26 17 26 21 29 20 23 26 21 11 21 17 16 26 21 31 23 25 23 26 26 17 30 25 23 21 29 18 17 15 15 24 19 32 26 15 22 29 27 21 26 21 17 40 19 15 25 19 14 26 18 20 27 28 35 32 24 20 24 19 23 25 14 19 20 32 23 20 21 14 25 28 23 22 25 17 21 17 23 21 12 23 32 18 19 30 22 30 20 29 15 27 21 33 21 29 23 22 23 24 28 20 15 22 23 27 16 22 17 30 25 26 26 25 25 24 28 27 21 23 26 17 28 19 20 27 24 24 24 21 22 21 21 26 19 21 21 28 33 30 16 24 27 20 22 18 18 30 25 15 17 24 22 23 28 25 19 19 19 21 23 22 21 23 20 26 19 21 23 24 21 27 15 36 15 27 16 22 19 26 32 28 18 29 21 13 25 30 22 27 28 20 23 19 23 23 30 28 20 20 20 22 24 23 29 29 25 18 27 27 20 17 19 21 25 18 10 22 21 16 21 19 20 21 22 23 18 15 16 17 23 28 22 22 15 25 18 19 26 18 18 33 31 27 25 18 23 25 16 29 24 27 26 25 21 19 20 37 23 30 25 22 31 25 22 28 21 34 28 13 28 24 21 28 21 29 16 22 26 27 24 18 23 17 22 29 18 21 21 25 17 20 17 37 24 25 16 27 27 28 18 23 21 23 25 23 27 25 25 26 24 26 19 17 19 29 21 31 24 26 13 23 27 25 23 17 22 26 17 31 25 27 20 26 24 24 17 20 21 21 27 30 26 23 30 14 27 31 16 16 21 18 30 23 22 26 24 24 27 27 26 28 25 23 24 19 18 28 22 23 20 32 36 33 20 24 25 27 29 20 26 20 26 21 29 25 19 24 28 29 25 20 20 27 25 22 18 31 31 20 16 25 28 26 28 37 25 18 29 31 26 28 18 30 18 23 20 28 33 22 23 24 28 27 24 27 26 24 25 35 26 34 18 25 34 27 21 25 16 25 36 31 28 23 20 26 18 19 17 21 25 25 21 26 21 30 19 34 20 20 17 30 29 29 24 33 23 22 20 26 23 32 17 17 16 22 25 15 24 33 35 15 16 32 27 24 24 24 26 29 20 23 26 24 28 20 25 25 26 32 15 25 16 24 24 30 24 23 20 24 24 24 31 25 22 34 22 23 24 31 23 28 23 28 28 27 29 35 25 29 29 31 21 23 27 26 15 25 26 25 21 24 34 29 21 22 24 17 28 19 16 23 25 22 24 21 24 13 24 25 33 22 21 24 33 27 21 17 10 30 15 27 21 26 29 24 20 19 20 32 22 30 18 24 20 29 31 25 23 23 26 29 23 26 23 26 26 34 26 27 20 25 34 21 17 24 20 19 31 25 22 23 28 22 24 15 26 31 21 26 19 23 18 22 24 20 21 26 35 22 25 26 28 32 21 29 20 27 27 22 22 22 26 28 24 24 22 16 16 22 18 26 21 25 14 26 27 32 12 30 21 17 18 17 22 23 17 23 19 20 33 24 20 28 25 25 22 21 20 21 25 23 20 20 24 20 22 21 23 25 27 29 37 21 21 21 20 25 32 30 24 24 23 19 22 21 25 23 18 22 33 22 19 18 24 14 14 23 25 28 15 26 22 26 25 28 19 18 24 16 29 22 24 30 15 26 21 22 25 23 18 26 22 14 17 14 30 27 23 31 20 19 28 23 35 25 32 29 35 21 25 21 24 20 20 37 30 30 19 27 38 32 12 27 24 30 17 28 26 22 21 23 24 27 23 30 26 22 18 27 26 24 26 24 28 23 22 24 25 28 19 36 19 27 24 22 18 20 29 31 31 28 26 28 26 25 19 27 28 17 24 19 30 20 19 28 27 22 24 14 21 21 19 24 28 14 20 29 25 26 30 23 24 23 28 17 22 23 24 27 31 23 20 18 23 21 22 26 14 28 20 27 23 32 19 26 23 24 25 26 35 21 24 25 25 24 18 26 21 18 14 29 18 16 31 32 28 20 21 31 22 21 25 27 17 31 24 23 22 24 24 29 22 27 23 24 18 25 21 25 26 22 26 25 26 24 23 33 30 23 28 25 19 26 24 28 28 22 28 19 35 32 29 35 18 30 27 24 21 31 36 19 27 23 29 26 26 23 22 20 21 24 29 23 30 30 21 22 27 28 20 32 20 28 27 25 26 18 19 21 13 19 9 14 21 29 22 16 
BTB PER SET COUNT: 2197 2331 2634 2164 2704 2115 1907 1793 1633 2202 1269 2619 12197 1726 1933 1061 2141 2371 1789 2231 1871 1681 2106 2252 1134 1997 2258 1928 2253 1885 1881 2495 2093 859 1175 1953 1899 2431 1104 2249 1642 1649 2464 2296 1884 677 2228 1487 2192 1727 2353 1478 1988 2243 1665 886 1608 1401 1303 2147 1765 2817 2026 1768 2426 2171 1858 1504 2187 1960 2602 2064 2582 1465 1252 890 874 2263 1490 2608 2419 984 2024 2669 2130 1905 2233 2273 1785 3856 1487 1440 2262 2008 853 2007 1535 1560 2292 3586 3687 2612 2198 1780 3564 1350 1726 2265 1715 3049 1944 2968 2268 1624 1768 1116 2133 2345 2438 2055 2381 1412 1622 1139 1816 1472 786 2760 3390 1735 1491 3097 1523 2553 1636 2296 1420 2276 1562 2786 1769 2139 1827 1815 1852 1763 2547 1433 1068 1797 1846 2045 1409 1671 967 3052 2707 2214 2271 2391 2064 1919 2696 2247 1612 2221 1887 1530 2298 1784 1495 2478 1873 1724 2075 1822 1777 1573 1769 2587 1505 2018 1807 2183 2799 3102 964 1978 2384 2377 1749 1368 1173 2582 2132 1237 1266 1940 1595 1591 2140 1855 1972 1569 1086 2008 1774 1981 1946 2297 1503 2171 1333 3135 1946 2449 1561 2384 1651 3613 1099 2156 1315 1662 1617 2219 2801 2346 1379 3288 1631 542 1648 2324 1482 6793 2371 1598 2304 1132 1903 2064 2982 2810 1736 2080 1314 1913 2047 1613 1915 2143 1997 1634 2001 2438 1501 1423 1377 1797 2228 1498 350 1866 2066 842 1693 1524 2317 1826 1533 1893 1243 869 1473 1183 2054 2377 1886 2015 959 2146 1523 1831 2175 1490 1333 2959 3074 2427 2137 1230 1837 2438 1103 2826 2347 2086 1752 2201 1606 1462 1849 2897 1914 2944 1914 1761 2860 2181 2551 2198 1256 3122 3126 1372 2469 1805 1703 2817 1454 3277 1032 1620 2652 2605 2290 1383 1718 1141 1764 2856 1223 1539 1962 1810 1215 1789 1204 3650 2045 2931 1201 2047 2505 1889 1355 1729 1841 2233 2211 1890 2513 1825 1699 2589 2113 2612 1526 1279 1258 2774 1413 2752 1989 3018 751 1646 1843 1637 2139 1283 2258 2406 1211 2653 1913 2549 1746 2489 2277 2063 1612 1003 1176 1725 3100 2602 2170 2216 2214 886 2410 2415 1410 1251 1386 1536 2811 2112 1564 2171 2117 1525 2326 2206 2210 2119 1390 2171 2103 1354 1440 2614 1597 1844 1852 4838 3338 2537 1373 2180 2308 1928 2339 1723 2571 1435 1553 1846 2647 2035 1408 1746 2685 2408 1967 1659 1758 1846 2810 1445 1305 2781 2836 1888 1381 1989 2397 1788 2401 3929 1918 1575 2624 3142 1994 2617 1422 2375 1299 1834 1510 2556 2792 1772 6916 1948 2507 2099 2119 2141 2004 1765 1913 2943 1994 3293 1356 1885 2782 2388 1660 2249 1400 1962 3382 2568 2571 1808 1798 2354 4633 1122 1036 1724 2865 2618 1633 2333 1532 2904 1482 3270 1497 1222 1243 2872 2648 1991 1832 3324 2591 2398 1668 2706 1372 2846 1207 1352 894 2031 2150 1233 1794 2910 3408 2104 1073 4151 3107 2104 2073 1810 2415 2645 2185 2534 1975 2045 2250 1668 2451 2007 2316 2721 997 2221 1207 2347 1738 2764 2057 2196 1518 1452 1922 1920 2334 2270 1335 2860 1626 1946 2349 2607 1760 2189 1699 2615 2640 2244 3169 2941 2126 2537 2595 2789 1767 1894 2410 2174 1025 3114 2100 2215 1791 2142 3181 2782 1940 1860 2272 1047 1904 1368 1775 2428 1995 1451 1332 1837 1778 1022 2015 2111 2599 2043 1349 1802 2884 2579 2094 1184 766 2496 1036 2343 2275 2378 2775 1838 1047 1494 1677 2861 1539 2843 2143 2045 1641 3010 3245 1741 1881 1715 2125 2462 1715 2331 2195 2216 2560 2638 3068 2344 1414 2316 3651 1192 1083 2232 1205 1759 3372 1886 1652 1879 2310 2074 2177 661 2398 2749 5802 2626 1410 1980 2177 1841 1676 1830 1496 2309 3003 2082 2070 2710 2332 2984 1965 2563 1934 2355 2766 1975 1879 2021 2162 2550 1570 2399 2114 867 1411 1773 1706 2400 1703 2058 1418 2279 2406 2827 849 2375 1896 1381 1133 1140 1931 2232 1267 1875 1687 1489 3403 2180 1550 2768 2392 2405 1625 1993 1644 1689 1815 2287 1842 2236 2256 6194 1711 1880 1823 2163 2222 3110 3744 1585 1868 1422 1875 2234 3153 2755 2255 1898 1992 1630 2527 1538 2549 2201 1277 1962 2691 2345 1818 1116 2101 1028 740 1822 2613 2841 1248 2113 1169 2171 1776 2458 1811 1409 2099 1339 2317 1923 1541 2666 1852 2229 2020 1724 2053 1891 1498 2199 1516 1057 1298 1361 2119 2353 1743 2863 1737 1381 1703 2124 3240 2020 2558 2495 2870 1602 1799 1899 1771 1631 1442 5319 2658 2504 1765 3034 2796 3168 1112 2914 1932 2916 1254 2539 2849 1899 1497 2093 2096 2662 2104 2996 2091 1966 1257 2807 1925 2048 2435 1829 2397 2003 1968 1860 2239 2318 1674 3268 1547 5188 2557 1936 1552 1672 2785 2598 2839 2296 2588 2171 2615 1961 1685 1989 2875 1138 1851 1022 2876 1505 1601 2722 2287 1653 1951 866 1703 2063 2521 1966 2119 938 1523 2975 2342 2375 2378 1969 1932 1951 2261 1138 3019 2475 1494 2527 2842 1641 1630 1559 2158 1631 1819 2255 785 2327 1683 2665 1765 2775 1809 1915 2014 2267 2542 2398 3643 2108 2037 2058 1983 2188 1345 2378 1361 1569 683 2637 1219 1248 2191 2696 3025 1468 1772 3048 2032 1618 2351 2311 1302 3187 2118 1534 1873 2062 1858 2493 2139 2249 2139 2410 1963 3724 1735 2119 2533 1719 2038 2281 2038 2076 1674 2613 2558 1461 2821 2163 1460 2145 1939 2948 2469 1759 2532 1609 3396 2317 2709 3265 1789 2435 2382 2063 1540 3210 4231 1371 2327 2095 2201 2684 1860 1795 2394 1894 1469 3210 2370 2194 2605 3032 1639 1808 2363 2075 1519 3116 1721 2287 2517 2349 2312 1224 1308 1876 1024 1687 540 1244 1566 3014 2136 1129 
