
*** ChampSim Multicore Out-of-Order Simulator ***

Warmup Instructions: 50000000
Simulation Instructions: 50000000
Number of CPUs: 1
LLC sets: 2048
LLC ways: 16
Off-chip DRAM Size: 4096 MB Channels: 1 Width: 64-bit Data Rate: 6400 MT/s
CPU 0 runs ./micro_traces/srv292.trace.gz
.gz
ITLB has LRU replacement policy
DTLB has LRU replacement policy
STLB has LRU replacement policy
FDIP Prefetcher at L1I
L1I has LRU replacement policy
L1D has LRU replacement policy
Initialize SRRIP state for L2C
Initialize DRRIP state for LLC
Heartbeat CPU 0 instructions: 10000003 cycles: 2798819 heartbeat IPC: 3.57294 cumulative IPC: 3.57294 (Simulation time: 0 hr 1 min 35 sec) 
Heartbeat CPU 0 instructions: 20000003 cycles: 5597014 heartbeat IPC: 3.57373 cumulative IPC: 3.57333 (Simulation time: 0 hr 3 min 9 sec) 
Heartbeat CPU 0 instructions: 30000003 cycles: 8395680 heartbeat IPC: 3.57313 cumulative IPC: 3.57327 (Simulation time: 0 hr 4 min 44 sec) 
Heartbeat CPU 0 instructions: 40000003 cycles: 11193050 heartbeat IPC: 3.57479 cumulative IPC: 3.57365 (Simulation time: 0 hr 6 min 17 sec) 
Heartbeat CPU 0 instructions: 50000000 cycles: 13990180 heartbeat IPC: 3.57509 cumulative IPC: 3.57394 (Simulation time: 0 hr 7 min 53 sec) 

Warmup complete CPU 0 instructions: 50000004 cycles: 13990181 (Simulation time: 0 hr 7 min 53 sec) 

Cycle: 20000000 FTQ IN: 58069293 FTQ occupancy: 19.138 DECODE IN: 58069205 DECODE occupancy: 49.5503 ROB IN: 58069145 ROB occupancy: 301.525 ROB OUT: 58069083
Heartbeat CPU 0 instructions: 60000003 cycles: 21528412 heartbeat IPC: 1.32657 cumulative IPC: 1.32657 (Simulation time: 0 hr 9 min 29 sec) 
Heartbeat CPU 0 instructions: 70000001 cycles: 29084638 heartbeat IPC: 1.32341 cumulative IPC: 1.32499 (Simulation time: 0 hr 11 min 3 sec) 
Cycle: 30000000 FTQ IN: 13147220 FTQ occupancy: 10.3608 DECODE IN: 13147276 DECODE occupancy: 25.5668 ROB IN: 13147336 ROB occupancy: 192.029 ROB OUT: 13147322
Heartbeat CPU 0 instructions: 80000001 cycles: 36544672 heartbeat IPC: 1.34048 cumulative IPC: 1.33011 (Simulation time: 0 hr 12 min 38 sec) 
Cycle: 40000000 FTQ IN: 13291322 FTQ occupancy: 10.3751 DECODE IN: 13291344 DECODE occupancy: 25.5166 ROB IN: 13291344 ROB occupancy: 192.473 ROB OUT: 13291410
Heartbeat CPU 0 instructions: 90000001 cycles: 44149966 heartbeat IPC: 1.31487 cumulative IPC: 1.32627 (Simulation time: 0 hr 14 min 11 sec) 
Cycle: 50000000 FTQ IN: 13347613 FTQ occupancy: 10.1876 DECODE IN: 13347509 DECODE occupancy: 25.3246 ROB IN: 13347468 ROB occupancy: 191.834 ROB OUT: 13347478
Heartbeat CPU 0 instructions: 100000000 cycles: 51708055 heartbeat IPC: 1.32309 cumulative IPC: 1.32563 (Simulation time: 0 hr 15 min 41 sec) 
Finished CPU 0 instructions: 50000000 cycles: 37717875 cumulative IPC: 1.32563 (Simulation time: 0 hr 15 min 41 sec) 

ChampSim completed all CPUs

Region of Interest Statistics

CPU 0 cumulative IPC: 1.32563 instructions: 50000000 cycles: 37717875
 Fetch stage stalled: 61.2858  Sim cycles: 37717875 fetch stall cycle: 23115687
 Empty decode stage: 44.9627  Sim cycles: 37717875 fetch stall cycle: 16958990
ITLB TOTAL     ACCESS:    5793707  HIT:    5300230  MISS:     493477  HIT %:    91.4825  MISS %:    8.51747   MPKI: 9.86954
ITLB LOAD TRANSLATION INSTRUCTION	ACCESS:    5668137  HIT:    5174660  MISS:     493477  HIT %:    91.2938  MISS %:    8.70616  MPKI: 9.86954
ITLB TRANSLATION FROM L1D PREFETCHER INSTRUCTION	ACCESS:     125570  HIT:     125570  MISS:          0  HIT %:        100  MISS %:          0  MPKI: 0

ITLB AVERAGE MISS LATENCY: 9.07291 cycles
ITLB RQ	ACCESS:    7884731	FORWARD:          0	MERGED:    1637264	TO_CACHE:    6247467

DTLB TOTAL     ACCESS:    9053373  HIT:    8584525  MISS:     468848  HIT %:    94.8213  MISS %:    5.17871   MPKI: 9.37696
DTLB LOAD TRANSLATION DATA	ACCESS:    9053373  HIT:    8584525  MISS:     468848  HIT %:    94.8213  MISS %:    5.17871  MPKI: 9.37696

DTLB AVERAGE MISS LATENCY: 9.36258 cycles
DTLB RQ	ACCESS:   13433029	FORWARD:          0	MERGED:    4341986	TO_CACHE:    9091043

STLB TOTAL     ACCESS:    1210992  HIT:    1208569  MISS:       2423  HIT %:    99.7999  MISS %:   0.200084   MPKI: 0.04846
STLB LOAD TRANSLATION INSTRUCTION	ACCESS:     493478  HIT:     493009  MISS:        469  HIT %:     99.905  MISS %:  0.0950397  MPKI: 0.00938
STLB LOAD TRANSLATION DATA	ACCESS:     468532  HIT:     466602  MISS:       1930  HIT %:    99.5881  MISS %:   0.411925  MPKI: 0.0386
STLB TRANSLATION FROM L1D PREFETCHER DATA	ACCESS:     248982  HIT:     248958  MISS:         24  HIT %:    99.9904  MISS %: 0.00963925  MPKI: 0.00048

STLB AVERAGE MISS LATENCY: 73.8729 cycles
STLB RQ	ACCESS:    1328722	FORWARD:          0	MERGED:     117694	TO_CACHE:    1211028

STLB Hit, L1D data hit: 0
STLB Hit, L2C data hit: 0
STLB Hit, LLC data hit: 0
STLB Hit, LLC data miss: 0
STLB STLB hints to L2: 0
L1D TOTAL     ACCESS:   13183956  HIT:   12068929  MISS:    1115027  HIT %:    91.5425  MISS %:    8.45745   MPKI: 22.3005
L1D LOAD DATA	ACCESS:    6639907  HIT:    5905667  MISS:     734240  HIT %:     88.942  MISS %:     11.058  MPKI: 14.6848
L1D RFO DATA	ACCESS:    6214654  HIT:    5928064  MISS:     286590  HIT %:    95.3885  MISS %:    4.61152  MPKI: 5.7318
L1D PREFETCH DATA	ACCESS:     329395  HIT:     235198  MISS:      94197  HIT %:     71.403  MISS %:     28.597  MPKI: 1.88394

L1D PREFETCH  REQUESTED:     733105  ISSUED:     733105  USEFUL:      32926  USELESS:      68509
L1D USEFUL LOAD PREFETCHES:      32926 PREFETCH ISSUED TO LOWER LEVEL:     101482  ACCURACY: 32.4452
 TIMELY PREFETCHES:      32926 LATE PREFETCHES: 7252 DROPPED PREFETCHES: 4
L1D AVERAGE MISS LATENCY: 218270 cycles
L1D RQ	ACCESS:   10743479	FORWARD:          0	MERGED:    3909019	TO_CACHE:    6673414
L1D WQ	ACCESS:    6953069	FORWARD:     161359	MERGED:     193454	TO_CACHE:    6759615
L1D PQ	ACCESS:     366709	FORWARD:          0	MERGED:          0	TO_CACHE:     366396

L1D UNIQUE REGIONS ACCESSED: 0
L1D REGIONS CONFLICTS: 0
L1D Cross Page Prefetch Requests: 5713
L1D Same Page Prefetch Requests: 743009
L1D ROI Sum of L1D PQ occupancy: 4664606
L1D PREFETCHES PUSHED FROM L2C: 0
L1I TOTAL     ACCESS:    7104021  HIT:    4340421  MISS:    2763600  HIT %:    61.0981  MISS %:    38.9019   MPKI: 55.272
L1I LOAD INSTRUCTION	ACCESS:    6468532  HIT:    3704932  MISS:    2763600  HIT %:    57.2762  MISS %:    42.7238  MPKI: 55.272
L1I PREFETCH INSTRUCTION	ACCESS:     635489  HIT:     635489  MISS:          0  HIT %:        100  MISS %:          0  MPKI: 0

L1I PREFETCH  REQUESTED:    1506652  ISSUED:    1506652  USEFUL:          0  USELESS:          0
L1I USEFUL LOAD PREFETCHES:          0 PREFETCH ISSUED TO LOWER LEVEL:          0  ACCURACY: -nan
 TIMELY PREFETCHES:          0 LATE PREFETCHES: 0 DROPPED PREFETCHES: 0
L1I AVERAGE MISS LATENCY: 17.2954 cycles
L1I RQ	ACCESS:    9473574	FORWARD:          0	MERGED:    2683993	TO_CACHE:    6789581
L1I PQ	ACCESS:    1506652	FORWARD:          0	MERGED:     411502	TO_CACHE:    1095150

L1BTB TOTAL     ACCESS:    5672575  HIT:    2043880  MISS:    3628695  HIT %:    36.0309  MISS %:    63.9691   MPKI: 72.5739
L1BTB BRANCH_DIRECT_JUMP	ACCESS:     549329  HIT:     144796  MISS:     404533	AVERAGE STALL: 38.9163
L1BTB BRANCH_INDIRECT	ACCESS:     183301  HIT:      66218  MISS:     117083	AVERAGE STALL: 127.163
L1BTB BRANCH_CONDITIONAL	ACCESS:    2713605  HIT:    1419589  MISS:    1294016	AVERAGE STALL: 50.9472
L1BTB BRANCH_DIRECT_CALL	ACCESS:     942115  HIT:     104243  MISS:     837872	AVERAGE STALL: 50.4809
L1BTB BRANCH_INDIRECT_CALL	ACCESS:     171051  HIT:      20709  MISS:     150342	AVERAGE STALL: 142.596
L1BTB BRANCH_RETURN	ACCESS:    1113174  HIT:     288325  MISS:     824849	AVERAGE STALL: 46.4503
L1BTB BRANCH_OTHER ACCESS:          0  HIT:          0  MISS:          0	AVERAGE STALL: -nan
L1BTB TOTAL ROB OCCUPANCY AT BTB MISS: 5.0657

L2BTB1 TOTAL     ACCESS:    3603217  HIT:    3478833  MISS:     124384  HIT %:     96.548  MISS %:    3.45203   MPKI: 2.48768
L2BTB1 BRANCH_DIRECT_JUMP	ACCESS:     400334  HIT:     391983  MISS:       8351	AVERAGE STALL: 38.9163
L2BTB1 BRANCH_INDIRECT	ACCESS:     106797  HIT:      95800  MISS:      10997	AVERAGE STALL: 127.163
L2BTB1 BRANCH_CONDITIONAL	ACCESS:    1294016  HIT:    1278744  MISS:      15272	AVERAGE STALL: 50.9472
L2BTB1 BRANCH_DIRECT_CALL	ACCESS:     837872  HIT:     814848  MISS:      23024	AVERAGE STALL: 50.4809
L2BTB1 BRANCH_INDIRECT_CALL	ACCESS:     140753  HIT:     127387  MISS:      13366	AVERAGE STALL: 142.596
L2BTB1 BRANCH_RETURN	ACCESS:     823445  HIT:     770071  MISS:      53374	AVERAGE STALL: 46.4503
L2BTB1 BRANCH_OTHER ACCESS:          0  HIT:          0  MISS:          0	AVERAGE STALL: -nan
L2BTB1 TOTAL ROB OCCUPANCY AT BTB MISS: 147.783

L2C TOTAL     ACCESS:    4488924  HIT:    4011285  MISS:     477639  HIT %:    89.3596  MISS %:    10.6404   MPKI: 9.55278
L2C LOAD INSTRUCTION	ACCESS:    2763600  HIT:    2498246  MISS:     265354  HIT %:    90.3982  MISS %:    9.60175  MPKI: 5.30708
L2C LOAD TRANSLATION INSTRUCTION	ACCESS:        527  HIT:        243  MISS:        284  HIT %:    46.1101  MISS %:    53.8899  MPKI: 0.00568
L2C LOAD DATA	ACCESS:     726962  HIT:     655382  MISS:      71580  HIT %:    90.1535  MISS %:    9.84646  MPKI: 1.4316
L2C RFO DATA	ACCESS:     286523  HIT:     232313  MISS:      54210  HIT %:    81.0801  MISS %:    18.9199  MPKI: 1.0842
L2C PREFETCH DATA	ACCESS:     183833  HIT:     115007  MISS:      68826  HIT %:    62.5606  MISS %:    37.4394  MPKI: 1.37652
L2C WRITEBACK DATA	ACCESS:     525411  HIT:     509489  MISS:      15922  HIT %:    96.9696  MISS %:    3.03039  MPKI: 0.31844
L2C LOAD TRANSLATION DATA	ACCESS:       2018  HIT:        577  MISS:       1441  HIT %:    28.5927  MISS %:    71.4073  MPKI: 0.02882
L2C TRANSLATION FROM L1D PREFETCHER DATA	ACCESS:         50  HIT:         28  MISS:         22  HIT %:         56  MISS %:         44  MPKI: 0.00044

L2C PREFETCH  REQUESTED:      90034  ISSUED:      90034  USEFUL:       7576  USELESS:      62035
L2C USEFUL LOAD PREFETCHES:       7576 PREFETCH ISSUED TO LOWER LEVEL:      69360  ACCURACY: 10.9227
 TIMELY PREFETCHES:       7576 LATE PREFETCHES: 534 DROPPED PREFETCHES: 0
L2C AVERAGE MISS LATENCY: 39.1446 cycles
L2C RQ	ACCESS:    3779744	FORWARD:          0	MERGED:          0	TO_CACHE:    3779685
L2C WQ	ACCESS:     525411	FORWARD:         59	MERGED:          0	TO_CACHE:     525411
L2C PQ	ACCESS:     191516	FORWARD:          0	MERGED:       3752	TO_CACHE:     187764

L2C Dense regions hint from L2: 0
PSCL5 TOTAL     ACCESS:       4854  HIT:       2427  MISS:       2427  HIT %:         50  MISS %:         50   MPKI: 0.04854
PSCL5 LOAD TRANSLATION INSTRUCTION	ACCESS:       4760  HIT:       2380  MISS:       2380  HIT %:         50  MISS %:         50  MPKI: 0.0476
PSCL5 TRANSLATION FROM L1D PREFETCHER INSTRUCTION	ACCESS:         94  HIT:         47  MISS:         47  HIT %:         50  MISS %:         50  MPKI: 0.00094


PSCL4 TOTAL     ACCESS:       4095  HIT:       2044  MISS:       2051  HIT %:    49.9145  MISS %:    50.0855   MPKI: 0.04102
PSCL4 LOAD TRANSLATION INSTRUCTION	ACCESS:       3451  HIT:       2012  MISS:       1439  HIT %:    58.3019  MISS %:    41.6981  MPKI: 0.02878
PSCL4 TRANSLATION FROM L1D PREFETCHER INSTRUCTION	ACCESS:         61  HIT:         32  MISS:         29  HIT %:     52.459  MISS %:     47.541  MPKI: 0.00058
PSCL4 LOAD TRANSLATION DATA	ACCESS:        580  HIT:          0  MISS:        580  HIT %:          0  MISS %:        100  MPKI: 0.0116
PSCL4 TRANSLATION FROM L1D PREFETCHER DATA	ACCESS:          3  HIT:          0  MISS:          3  HIT %:          0  MISS %:        100  MPKI: 6e-05


PSCL3 TOTAL     ACCESS:       4450  HIT:       2215  MISS:       2235  HIT %:    49.7753  MISS %:    50.2247   MPKI: 0.0447
PSCL3 LOAD TRANSLATION INSTRUCTION	ACCESS:       3736  HIT:       2179  MISS:       1557  HIT %:    58.3244  MISS %:    41.6756  MPKI: 0.03114
PSCL3 TRANSLATION FROM L1D PREFETCHER INSTRUCTION	ACCESS:         67  HIT:         36  MISS:         31  HIT %:    53.7313  MISS %:    46.2687  MPKI: 0.00062
PSCL3 LOAD TRANSLATION DATA	ACCESS:        642  HIT:          0  MISS:        642  HIT %:          0  MISS %:        100  MPKI: 0.01284
PSCL3 TRANSLATION FROM L1D PREFETCHER DATA	ACCESS:          5  HIT:          0  MISS:          5  HIT %:          0  MISS %:        100  MPKI: 0.0001


PSCL2 TOTAL     ACCESS:       4708  HIT:       2281  MISS:       2427  HIT %:    48.4494  MISS %:    51.5506   MPKI: 0.04854
PSCL2 LOAD TRANSLATION INSTRUCTION	ACCESS:       2706  HIT:       2235  MISS:        471  HIT %:    82.5942  MISS %:    17.4058  MPKI: 0.00942
PSCL2 TRANSLATION FROM L1D PREFETCHER INSTRUCTION	ACCESS:         46  HIT:         46  MISS:          0  HIT %:        100  MISS %:          0  MPKI: 0
PSCL2 LOAD TRANSLATION DATA	ACCESS:       1910  HIT:          0  MISS:       1910  HIT %:          0  MISS %:        100  MPKI: 0.0382
PSCL2 TRANSLATION FROM L1D PREFETCHER DATA	ACCESS:         46  HIT:          0  MISS:         46  HIT %:          0  MISS %:        100  MPKI: 0.00092


LLC TOTAL     ACCESS:     537515  HIT:     507022  MISS:      30493  HIT %:     94.327  MISS %:    5.67296   MPKI: 0.60986
LLC LOAD INSTRUCTION	ACCESS:     265354  HIT:     263889  MISS:       1465  HIT %:    99.4479  MISS %:   0.552093  MPKI: 0.0293
LLC LOAD TRANSLATION INSTRUCTION	ACCESS:        284  HIT:        249  MISS:         35  HIT %:    87.6761  MISS %:    12.3239  MPKI: 0.0007
LLC LOAD DATA	ACCESS:      71053  HIT:      67589  MISS:       3464  HIT %:    95.1248  MISS %:    4.87523  MPKI: 0.06928
LLC RFO DATA	ACCESS:      54194  HIT:      38867  MISS:      15327  HIT %:    71.7183  MISS %:    28.2817  MPKI: 0.30654
LLC PREFETCH DATA	ACCESS:      69360  HIT:      59628  MISS:       9732  HIT %:    85.9689  MISS %:    14.0311  MPKI: 0.19464
LLC WRITEBACK DATA	ACCESS:      75807  HIT:      75444  MISS:        363  HIT %:    99.5212  MISS %:   0.478848  MPKI: 0.00726
LLC LOAD TRANSLATION DATA	ACCESS:       1441  HIT:       1335  MISS:        106  HIT %:     92.644  MISS %:      7.356  MPKI: 0.00212
LLC TRANSLATION FROM L1D PREFETCHER DATA	ACCESS:         22  HIT:         21  MISS:          1  HIT %:    95.4545  MISS %:    4.54545  MPKI: 2e-05

LLC AVERAGE MISS LATENCY: 157.462 cycles
LLC RQ	ACCESS:     392357	FORWARD:          0	MERGED:          0	TO_CACHE:     392348
LLC WQ	ACCESS:      75807	FORWARD:          9	MERGED:          0	TO_CACHE:      75807
LLC PQ	ACCESS:      69360	FORWARD:          0	MERGED:          0	TO_CACHE:      69360

LLC Dense regions hint to LLC: 0

RAW hits: 1901614
Loads Generated: 12645093
Loads sent to L1D: 10743479
Stores Generated: 6953059
Stores sent to L1D: 6953069
Major fault: 0 Minor fault: 2608
Allocated PAGES: 2608

stream: 
stream:times selected: 1184868
stream:pref_filled: 120623
stream:pref_useful: 23575
stream:pref_late: 6293
stream:misses: 6782
stream:misses_by_poll: 0

CS: 
CS:times selected: 179578
CS:pref_filled: 59995
CS:pref_useful: 35469
CS:pref_late: 6290
CS:misses: 15639
CS:misses_by_poll: 2

CPLX: 
CPLX:times selected: 1003893
CPLX:pref_filled: 19090
CPLX:pref_useful: 4177
CPLX:pref_late: 2925
CPLX:misses: 87253
CPLX:misses_by_poll: 3

NL_L1: 
NL:times selected: 18221
NL:pref_filled: 549
NL:pref_useful: 204
NL:pref_late: 193
NL:misses: 901
NL:misses_by_poll: 0

total selections: 2386560
total_filled: 94197
total_useful: 32926
total_late: 16935
total_polluted: 5
total_misses_after_warmup: 767747
conflicts: 5571277

test: 114322

DRAM Statistics
 CHANNEL 0
 RQ ROW_BUFFER_HIT:      11407  ROW_BUFFER_MISS:      18716
 DBUS_CONGESTED:         13
 WQ ROW_BUFFER_HIT:       1627  ROW_BUFFER_MISS:      12841  FULL:          0

 AVG_CONGESTED_CYCLE: 7

CPU 0 Branch Prediction Accuracy: 99.8137% MPKI: 0.34044 Average ROB Occupancy at Mispredict: 166.722
Branch types
NOT_BRANCH: 40860731 81.7215%
BRANCH_DIRECT_JUMP: 549329 1.09866%
BRANCH_INDIRECT: 183301 0.366602%
BRANCH_CONDITIONAL: 6179925 12.3598%
BRANCH_DIRECT_CALL: 942115 1.88423%
BRANCH_INDIRECT_CALL: 171051 0.342102%
BRANCH_RETURN: 1113174 2.22635%
BRANCH_OTHER: 0 0%

DRAM PAGES: 1048576
Allocated PAGES: 2608
Average_ROB_Occupancy: 193.039
Average_Decode_Occupancy: 25.4019
Average_FTQ_Occupancy: 10.3012
Indirect max targets: 14 Average targets: 1.16118
Branch_type:  BRANCH_DIRECT_JUMP:  Count Percentage: 2.92003 7.34816 3.58526 14.466 1.6983 5.97264 1.00011 63.0094 
Branch_type:  BRANCH_INDIRECT:  Count Percentage: 11.75 3.46846 12.2466 23.3449 1.33541 14.5654 1.06434 32.2248 
Branch_type:  BRANCH_CONDITIONAL:  Count Percentage: 21.4662 2.9529 2.49668 9.07685 1.07333 4.53334 0.581155 57.8196 
Branch_type:  BRANCH_DIRECT_CALL:  Count Percentage: 0.752114 1.28736 1.45002 5.41881 2.00958 2.55916 0.801063 85.7219 
Branch_type:  BRANCH_INDIRECT_CALL:  Count Percentage: 9.56945 0.579887 2.99759 4.8655 0.000876404 3.52168 0 78.465 
Branch_type:  BRANCH_RETURN:  Count Percentage: 4.43908 0.700207 3.56211 9.46465 2.13403 5.19111 1.00792 73.5009 
Branch_type:  BRANCH_DIRECT_JUMP:  Total Count: 32070 80703 39376 158877 18652 65596 10984 692017 
Branch_type:  BRANCH_INDIRECT:  Total Count: 43088 12719 44909 85607 4897 53412 3903 118170 
Branch_type:  BRANCH_CONDITIONAL:  Total Count: 2652196 364837 308471 1121466 132612 560105 71803 7143739 
Branch_type:  BRANCH_DIRECT_CALL:  Total Count: 14167 24249 27313 102070 37853 48205 15089 1614677 
Branch_type:  BRANCH_INDIRECT_CALL:  Total Count: 32757 1985 10261 16655 3 12055 0 268592 
Branch_type:  BRANCH_RETURN:  Total Count: 98848 15592 79320 210756 47520 115594 22444 1636696 
Number of unique branch instructions: 10544
Upper 32 bits: 
aaaa
ffff
ffff0000
Unique upper 32 bits: 3
Unique upper 36 bits: 3
Unique upper 40 bits: 5
Unique upper 44 bits: 32
Unique upper 48 bits: 157
Offset_3 4348
Offset_4 272
Offset_5 484
Offset_6 529
Offset_7 626
Offset_8 546
Offset_9 505
Offset_10 413
Offset_11 341
Offset_12 313
Offset_13 217
Offset_14 242
Offset_15 200
Offset_16 236
Offset_17 166
Offset_18 129
Offset_19 252
Offset_20 142
Offset_21 261
Offset_22 408
Offset_23 243
Offset_24 350
Offset_25 92
Offset_47 86
decode_dispatch_called: 22586470 59.8827
Dispatch_width: 0 11842247 52.4307 31.3969
Dispatch_width: 1 697399 3.08768 1.84899
Dispatch_width: 2 687664 3.04458 1.82318
Dispatch_width: 3 424132 1.87781 1.12449
Dispatch_width: 4 3370060 14.9207 8.93491
Dispatch_width: 5 215476 0.954005 0.571284
Dispatch_width: 6 5349492 23.6845 14.1829
Empty_decode_cycles: 15131405 40.1173
ROB_full_cycles: 5231724 13.8707
Starvation_cycles_per_kilo_instr: 271.367
Starvation_cycles_per_kilo_instr_3: 235.511
Starvation_cycles_per_kilo_instr_0: 217.419
Branch_type_1  (3,1)  (4,12)  (5,39)  (6,74)  (7,122)  (8,137)  (9,135)  (10,103)  (11,74)  (12,51)  (13,8)  (14,2)  (15,3)  (16,4)  (18,1)  (19,4)  (20,2)  (21,1)  (22,3)  (23,2)  (24,10)  (25,12) 
Branch_type_2  (3,1)  (4,1)  (5,1)  (8,3)  (9,3)  (12,1)  (13,1)  (14,1)  (16,3)  (17,2)  (20,2)  (21,2)  (23,5)  (24,1)  (47,39) 
Branch_type_3  (3,4346)  (4,259)  (5,440)  (6,440)  (7,473)  (8,343)  (9,276)  (10,168)  (11,143)  (12,60)  (13,7) 
Branch_type_4  (6,3)  (7,8)  (8,26)  (9,54)  (10,67)  (11,62)  (12,111)  (13,92)  (14,109)  (15,95)  (16,107)  (17,76)  (18,60)  (19,122)  (20,72)  (21,141)  (22,218)  (23,137)  (24,200)  (25,76) 
Branch_type_5  (8,2)  (9,1)  (10,4)  (11,5)  (12,3)  (13,14)  (14,16)  (15,11)  (16,20)  (17,13)  (18,16)  (19,13)  (20,12)  (21,13)  (22,42)  (23,26)  (24,41) 
Branch_type_6  (5,4)  (6,12)  (7,23)  (8,35)  (9,36)  (10,71)  (11,57)  (12,87)  (13,95)  (14,114)  (15,91)  (16,102)  (17,75)  (18,52)  (19,113)  (20,54)  (21,104)  (22,145)  (23,73)  (24,98)  (25,4)  (47,47) 
Unique trigger count: 
L2BTB1 1536 4
L2BTB2 1536 4
L2BTB3 1536 4
L2BTB4 224 4
