
*** ChampSim Multicore Out-of-Order Simulator ***

Warmup Instructions: 50000000
Simulation Instructions: 50000000
Number of CPUs: 1
LLC sets: 2048
LLC ways: 16
Off-chip DRAM Size: 4096 MB Channels: 1 Width: 64-bit Data Rate: 6400 MT/s
CPU 0 runs ./micro_traces/srv347.trace.gz
.gz
ITLB has LRU replacement policy
DTLB has LRU replacement policy
STLB has LRU replacement policy
FDIP Prefetcher at L1I
L1I has LRU replacement policy
L1D has LRU replacement policy
Initialize SRRIP state for L2C
Initialize DRRIP state for LLC
Heartbeat_Variant_0 : 1342 0.327637 per_variant_size: 0 1342 0 0 0 0 0 0 0 
Heartbeat_Variant_1 : 2560 0.625 per_variant_size: 0 539 2021 0 0 0 0 0 0 
Heartbeat_Variant_2 : 0 0 per_variant_size: 0 0 0 0 0 0 0 0 0 
Heartbeat_Variant_3 : 0 0 per_variant_size: 0 0 0 0 0 0 0 0 0 
Heartbeat_Variant_0_evicts 0 : 5823 1 : 563 2 : 0 3 : 0 
Heartbeat_Variant_1_evicts 0 : 494 1 : 0 2 : 0 3 : 0 
Heartbeat_Variant_2_evicts 0 : 0 1 : 0 2 : 0 3 : 0 
Heartbeat_Variant_3_evicts 0 : 0 1 : 0 2 : 0 3 : 0 
Heartbeat CPU 0 instructions: 10000001 cycles: 2796514 heartbeat IPC: 3.57588 cumulative IPC: 3.57588 (Simulation time: 0 hr 1 min 39 sec) 
Heartbeat_Variant_0 : 1360 0.332031 per_variant_size: 0 1360 0 0 0 0 0 0 0 
Heartbeat_Variant_1 : 2601 0.63501 per_variant_size: 0 483 2118 0 0 0 0 0 0 
Heartbeat_Variant_2 : 0 0 per_variant_size: 0 0 0 0 0 0 0 0 0 
Heartbeat_Variant_3 : 0 0 per_variant_size: 0 0 0 0 0 0 0 0 0 
Heartbeat_Variant_0_evicts 0 : 5685 1 : 187 2 : 0 3 : 0 
Heartbeat_Variant_1_evicts 0 : 187 1 : 0 2 : 0 3 : 0 
Heartbeat_Variant_2_evicts 0 : 0 1 : 0 2 : 0 3 : 0 
Heartbeat_Variant_3_evicts 0 : 0 1 : 0 2 : 0 3 : 0 
Heartbeat CPU 0 instructions: 20000003 cycles: 5593824 heartbeat IPC: 3.57486 cumulative IPC: 3.57537 (Simulation time: 0 hr 3 min 18 sec) 
Heartbeat_Variant_0 : 1363 0.332764 per_variant_size: 0 1363 0 0 0 0 0 0 0 
Heartbeat_Variant_1 : 2624 0.640625 per_variant_size: 0 469 2155 0 0 0 0 0 0 
Heartbeat_Variant_2 : 0 0 per_variant_size: 0 0 0 0 0 0 0 0 0 
Heartbeat_Variant_3 : 0 0 per_variant_size: 0 0 0 0 0 0 0 0 0 
Heartbeat_Variant_0_evicts 0 : 5487 1 : 106 2 : 0 3 : 0 
Heartbeat_Variant_1_evicts 0 : 112 1 : 0 2 : 0 3 : 0 
Heartbeat_Variant_2_evicts 0 : 0 1 : 0 2 : 0 3 : 0 
Heartbeat_Variant_3_evicts 0 : 0 1 : 0 2 : 0 3 : 0 
Heartbeat CPU 0 instructions: 30000003 cycles: 8389894 heartbeat IPC: 3.57645 cumulative IPC: 3.57573 (Simulation time: 0 hr 4 min 55 sec) 
Heartbeat_Variant_0 : 1373 0.335205 per_variant_size: 0 1373 0 0 0 0 0 0 0 
Heartbeat_Variant_1 : 2620 0.639648 per_variant_size: 0 458 2162 0 0 0 0 0 0 
Heartbeat_Variant_2 : 0 0 per_variant_size: 0 0 0 0 0 0 0 0 0 
Heartbeat_Variant_3 : 0 0 per_variant_size: 0 0 0 0 0 0 0 0 0 
Heartbeat_Variant_0_evicts 0 : 5679 1 : 104 2 : 0 3 : 0 
Heartbeat_Variant_1_evicts 0 : 96 1 : 0 2 : 0 3 : 0 
Heartbeat_Variant_2_evicts 0 : 0 1 : 0 2 : 0 3 : 0 
Heartbeat_Variant_3_evicts 0 : 0 1 : 0 2 : 0 3 : 0 
Heartbeat CPU 0 instructions: 40000002 cycles: 11185819 heartbeat IPC: 3.57663 cumulative IPC: 3.57596 (Simulation time: 0 hr 6 min 33 sec) 
Heartbeat_Variant_0 : 1372 0.334961 per_variant_size: 0 1372 0 0 0 0 0 0 0 
Heartbeat_Variant_1 : 2621 0.639893 per_variant_size: 0 468 2153 0 0 0 0 0 0 
Heartbeat_Variant_2 : 0 0 per_variant_size: 0 0 0 0 0 0 0 0 0 
Heartbeat_Variant_3 : 0 0 per_variant_size: 0 0 0 0 0 0 0 0 0 
Heartbeat_Variant_0_evicts 0 : 5508 1 : 2 2 : 0 3 : 0 
Heartbeat_Variant_1_evicts 0 : 3 1 : 0 2 : 0 3 : 0 
Heartbeat_Variant_2_evicts 0 : 0 1 : 0 2 : 0 3 : 0 
Heartbeat_Variant_3_evicts 0 : 0 1 : 0 2 : 0 3 : 0 
Heartbeat CPU 0 instructions: 50000000 cycles: 13982153 heartbeat IPC: 3.57611 cumulative IPC: 3.57599 (Simulation time: 0 hr 8 min 13 sec) 

Warmup complete CPU 0 instructions: 50000004 cycles: 13982154 (Simulation time: 0 hr 8 min 13 sec) 

Cycle: 20000000 FTQ IN: 57817043 FTQ occupancy: 18.704 DECODE IN: 57817043 DECODE occupancy: 48.2364 ROB IN: 57817043 ROB occupancy: 295.93 ROB OUT: 57816978
Heartbeat_Variant_0 : 1384 0.337891 per_variant_size: 0 1384 0 0 0 0 0 0 0 
Heartbeat_Variant_1 : 2628 0.641602 per_variant_size: 0 453 2175 0 0 0 0 0 0 
Heartbeat_Variant_2 : 0 0 per_variant_size: 0 0 0 0 0 0 0 0 0 
Heartbeat_Variant_3 : 0 0 per_variant_size: 0 0 0 0 0 0 0 0 0 
Heartbeat_Variant_0_evicts 0 : 5707 1 : 153 2 : 0 3 : 0 
Heartbeat_Variant_1_evicts 0 : 146 1 : 0 2 : 0 3 : 0 
Heartbeat_Variant_2_evicts 0 : 0 1 : 0 2 : 0 3 : 0 
Heartbeat_Variant_3_evicts 0 : 0 1 : 0 2 : 0 3 : 0 
Heartbeat CPU 0 instructions: 60000000 cycles: 21660660 heartbeat IPC: 1.30234 cumulative IPC: 1.30234 (Simulation time: 0 hr 9 min 45 sec) 
Heartbeat_Variant_0 : 1383 0.337646 per_variant_size: 0 1383 0 0 0 0 0 0 0 
Heartbeat_Variant_1 : 2629 0.641846 per_variant_size: 0 450 2179 0 0 0 0 0 0 
Heartbeat_Variant_2 : 0 0 per_variant_size: 0 0 0 0 0 0 0 0 0 
Heartbeat_Variant_3 : 0 0 per_variant_size: 0 0 0 0 0 0 0 0 0 
Heartbeat_Variant_0_evicts 0 : 5600 1 : 7 2 : 0 3 : 0 
Heartbeat_Variant_1_evicts 0 : 8 1 : 0 2 : 0 3 : 0 
Heartbeat_Variant_2_evicts 0 : 0 1 : 0 2 : 0 3 : 0 
Heartbeat_Variant_3_evicts 0 : 0 1 : 0 2 : 0 3 : 0 
Heartbeat CPU 0 instructions: 70000002 cycles: 29230161 heartbeat IPC: 1.32109 cumulative IPC: 1.31165 (Simulation time: 0 hr 11 min 15 sec) 
Cycle: 30000000 FTQ IN: 13213398 FTQ occupancy: 8.53854 DECODE IN: 13213350 DECODE occupancy: 20.6376 ROB IN: 13213335 ROB occupancy: 173.834 ROB OUT: 13213052
Heartbeat_Variant_0 : 1383 0.337646 per_variant_size: 0 1383 0 0 0 0 0 0 0 
Heartbeat_Variant_1 : 2643 0.645264 per_variant_size: 0 459 2184 0 0 0 0 0 0 
Heartbeat_Variant_2 : 0 0 per_variant_size: 0 0 0 0 0 0 0 0 0 
Heartbeat_Variant_3 : 0 0 per_variant_size: 0 0 0 0 0 0 0 0 0 
Heartbeat_Variant_0_evicts 0 : 5615 1 : 213 2 : 0 3 : 0 
Heartbeat_Variant_1_evicts 0 : 216 1 : 0 2 : 0 3 : 0 
Heartbeat_Variant_2_evicts 0 : 0 1 : 0 2 : 0 3 : 0 
Heartbeat_Variant_3_evicts 0 : 0 1 : 0 2 : 0 3 : 0 
Heartbeat CPU 0 instructions: 80000001 cycles: 36936590 heartbeat IPC: 1.29762 cumulative IPC: 1.30694 (Simulation time: 0 hr 12 min 46 sec) 
Cycle: 40000000 FTQ IN: 12998051 FTQ occupancy: 8.5725 DECODE IN: 12998078 DECODE occupancy: 20.4107 ROB IN: 12998093 ROB occupancy: 171.849 ROB OUT: 12998220
Heartbeat_Variant_0 : 1382 0.337402 per_variant_size: 0 1382 0 0 0 0 0 0 0 
Heartbeat_Variant_1 : 2644 0.645508 per_variant_size: 0 468 2176 0 0 0 0 0 0 
Heartbeat_Variant_2 : 0 0 per_variant_size: 0 0 0 0 0 0 0 0 0 
Heartbeat_Variant_3 : 0 0 per_variant_size: 0 0 0 0 0 0 0 0 0 
Heartbeat_Variant_0_evicts 0 : 5617 1 : 15 2 : 0 3 : 0 
Heartbeat_Variant_1_evicts 0 : 16 1 : 0 2 : 0 3 : 0 
Heartbeat_Variant_2_evicts 0 : 0 1 : 0 2 : 0 3 : 0 
Heartbeat_Variant_3_evicts 0 : 0 1 : 0 2 : 0 3 : 0 
Heartbeat CPU 0 instructions: 90000000 cycles: 44508720 heartbeat IPC: 1.32063 cumulative IPC: 1.31033 (Simulation time: 0 hr 14 min 19 sec) 
Cycle: 50000000 FTQ IN: 13236760 FTQ occupancy: 8.5136 DECODE IN: 13236781 DECODE occupancy: 20.4729 ROB IN: 13236781 ROB occupancy: 172.656 ROB OUT: 13236671
Heartbeat_Variant_0 : 1384 0.337891 per_variant_size: 0 1384 0 0 0 0 0 0 0 
Heartbeat_Variant_1 : 2644 0.645508 per_variant_size: 0 453 2191 0 0 0 0 0 0 
Heartbeat_Variant_2 : 0 0 per_variant_size: 0 0 0 0 0 0 0 0 0 
Heartbeat_Variant_3 : 0 0 per_variant_size: 0 0 0 0 0 0 0 0 0 
Heartbeat_Variant_0_evicts 0 : 5558 1 : 48 2 : 0 3 : 0 
Heartbeat_Variant_1_evicts 0 : 47 1 : 0 2 : 0 3 : 0 
Heartbeat_Variant_2_evicts 0 : 0 1 : 0 2 : 0 3 : 0 
Heartbeat_Variant_3_evicts 0 : 0 1 : 0 2 : 0 3 : 0 
Heartbeat CPU 0 instructions: 100000000 cycles: 52169047 heartbeat IPC: 1.30543 cumulative IPC: 1.30935 (Simulation time: 0 hr 15 min 47 sec) 
Finished CPU 0 instructions: 50000000 cycles: 38186894 cumulative IPC: 1.30935 (Simulation time: 0 hr 15 min 47 sec) 

ChampSim completed all CPUs

Region of Interest Statistics

CPU 0 cumulative IPC: 1.30935 instructions: 50000000 cycles: 38186894
 Fetch stage stalled: 64.7443  Sim cycles: 38186894 fetch stall cycle: 24723852
 Empty decode stage: 62.5938  Sim cycles: 38186894 fetch stall cycle: 23902638
ITLB TOTAL     ACCESS:    5845364  HIT:    5351280  MISS:     494084  HIT %:    91.5474  MISS %:    8.45258   MPKI: 9.88168
ITLB LOAD TRANSLATION INSTRUCTION	ACCESS:    5730208  HIT:    5236124  MISS:     494084  HIT %:    91.3776  MISS %:    8.62244  MPKI: 9.88168
ITLB TRANSLATION FROM L1D PREFETCHER INSTRUCTION	ACCESS:     115156  HIT:     115156  MISS:          0  HIT %:        100  MISS %:          0  MPKI: 0

ITLB AVERAGE MISS LATENCY: 9.05386 cycles
ITLB RQ	ACCESS:    7964210	FORWARD:          0	MERGED:    1707556	TO_CACHE:    6256654

DTLB TOTAL     ACCESS:    9100703  HIT:    8629501  MISS:     471202  HIT %:    94.8224  MISS %:    5.17764   MPKI: 9.42404
DTLB LOAD TRANSLATION DATA	ACCESS:    9100703  HIT:    8629501  MISS:     471202  HIT %:    94.8224  MISS %:    5.17764  MPKI: 9.42404

DTLB AVERAGE MISS LATENCY: 9.32084 cycles
DTLB RQ	ACCESS:   13438278	FORWARD:          0	MERGED:    4300023	TO_CACHE:    9138255

STLB TOTAL     ACCESS:    1214956  HIT:    1212898  MISS:       2058  HIT %:    99.8306  MISS %:   0.169389   MPKI: 0.04116
STLB LOAD TRANSLATION INSTRUCTION	ACCESS:     494084  HIT:     493825  MISS:        259  HIT %:    99.9476  MISS %:  0.0524202  MPKI: 0.00518
STLB LOAD TRANSLATION DATA	ACCESS:     471065  HIT:     469295  MISS:       1770  HIT %:    99.6243  MISS %:   0.375744  MPKI: 0.0354
STLB TRANSLATION FROM L1D PREFETCHER DATA	ACCESS:     249807  HIT:     249778  MISS:         29  HIT %:    99.9884  MISS %:   0.011609  MPKI: 0.00058

STLB AVERAGE MISS LATENCY: 72.4028 cycles
STLB RQ	ACCESS:    1341993	FORWARD:          0	MERGED:     126996	TO_CACHE:    1214997

STLB Hit, L1D data hit: 0
STLB Hit, L2C data hit: 0
STLB Hit, LLC data hit: 0
STLB Hit, LLC data miss: 0
STLB STLB hints to L2: 0
L1D TOTAL     ACCESS:   13187101  HIT:   12057970  MISS:    1129131  HIT %:    91.4376  MISS %:    8.56239   MPKI: 22.5826
L1D LOAD DATA	ACCESS:    6655439  HIT:    5910616  MISS:     744823  HIT %:    88.8088  MISS %:    11.1912  MPKI: 14.8965
L1D RFO DATA	ACCESS:    6203072  HIT:    5915188  MISS:     287884  HIT %:     95.359  MISS %:    4.64099  MPKI: 5.75768
L1D PREFETCH DATA	ACCESS:     328590  HIT:     232166  MISS:      96424  HIT %:    70.6552  MISS %:    29.3448  MPKI: 1.92848

L1D PREFETCH  REQUESTED:     753757  ISSUED:     753757  USEFUL:      37893  USELESS:      68755
L1D USEFUL LOAD PREFETCHES:      37893 PREFETCH ISSUED TO LOWER LEVEL:     106651  ACCURACY: 35.5299
 TIMELY PREFETCHES:      37893 LATE PREFETCHES: 10199 DROPPED PREFETCHES: 9
L1D AVERAGE MISS LATENCY: 301620 cycles
L1D RQ	ACCESS:   10754798	FORWARD:          0	MERGED:    3908047	TO_CACHE:    6687936
L1D WQ	ACCESS:    6939464	FORWARD:     159158	MERGED:     189122	TO_CACHE:    6750342
L1D PQ	ACCESS:     377050	FORWARD:          0	MERGED:          0	TO_CACHE:     376707

L1D UNIQUE REGIONS ACCESSED: 0
L1D REGIONS CONFLICTS: 0
L1D Cross Page Prefetch Requests: 6983
L1D Same Page Prefetch Requests: 756554
L1D ROI Sum of L1D PQ occupancy: 4793458
L1D PREFETCHES PUSHED FROM L2C: 0
L1I TOTAL     ACCESS:    7223435  HIT:    4463232  MISS:    2760203  HIT %:    61.7882  MISS %:    38.2118   MPKI: 55.2041
L1I LOAD INSTRUCTION	ACCESS:    6576143  HIT:    3815940  MISS:    2760203  HIT %:     58.027  MISS %:     41.973  MPKI: 55.2041
L1I PREFETCH INSTRUCTION	ACCESS:     647292  HIT:     647292  MISS:          0  HIT %:        100  MISS %:          0  MPKI: 0

L1I PREFETCH  REQUESTED:    1529702  ISSUED:    1529702  USEFUL:          0  USELESS:          0
L1I USEFUL LOAD PREFETCHES:          0 PREFETCH ISSUED TO LOWER LEVEL:          0  ACCURACY: -nan
 TIMELY PREFETCHES:          0 LATE PREFETCHES: 0 DROPPED PREFETCHES: 0
L1I AVERAGE MISS LATENCY: 17.2257 cycles
L1I RQ	ACCESS:    9443018	FORWARD:          0	MERGED:    2587288	TO_CACHE:    6855730
L1I PQ	ACCESS:    1529702	FORWARD:          0	MERGED:     421222	TO_CACHE:    1108480

L1BTB TOTAL     ACCESS:    5672117  HIT:    2048348  MISS:    3623769  HIT %:    36.1126  MISS %:    63.8874   MPKI: 72.4754
L1BTB BRANCH_DIRECT_JUMP	ACCESS:     546800 HIT:     144229 MISS:     402571 AVERAGE STALL: 34.4378 AVERAGE FETCH STALL: 14.771 AVERAGE FETCH QUEUE STALL: 7.20763 AVERAGE DECODE STALL: 11.5482 AVERAGE EXECUTE STALL: 2.36285e+15
L1BTB BRANCH_INDIRECT	ACCESS:     182471 HIT:      65864 MISS:     116607 AVERAGE STALL: 77.5487 AVERAGE FETCH STALL: 11.2781 AVERAGE FETCH QUEUE STALL: 6.59754 AVERAGE DECODE STALL: 7.32507 AVERAGE EXECUTE STALL: 51.386
L1BTB BRANCH_CONDITIONAL	ACCESS:    2712001 HIT:    1421451 MISS:    1290550 AVERAGE STALL: 38.6857 AVERAGE FETCH STALL: 17.8339 AVERAGE FETCH QUEUE STALL: 11.7192 AVERAGE DECODE STALL: 8.39267 AVERAGE EXECUTE STALL: 3.01812e+15
L1BTB BRANCH_DIRECT_CALL	ACCESS:     943844 HIT:     105220 MISS:     838624 AVERAGE STALL: 93.1024 AVERAGE FETCH STALL: 21.3343 AVERAGE FETCH QUEUE STALL: 40.0087 AVERAGE DECODE STALL: 31.0662 AVERAGE EXECUTE STALL: 8.91147e+15
L1BTB BRANCH_INDIRECT_CALL	ACCESS:     171581 HIT:      21361 MISS:     150220 AVERAGE STALL: 100.794 AVERAGE FETCH STALL: 13.4076 AVERAGE FETCH QUEUE STALL: 4.23722 AVERAGE DECODE STALL: 6.85823 AVERAGE EXECUTE STALL: 75.8018
L1BTB BRANCH_RETURN	ACCESS:    1115420 HIT:     290223 MISS:     825197 AVERAGE STALL: 39.0708 AVERAGE FETCH STALL: 16.6826 AVERAGE FETCH QUEUE STALL: 3.08333 AVERAGE DECODE STALL: 5.11243 AVERAGE EXECUTE STALL: 4.27107e+14
L1BTB BRANCH_OTHER ACCESS:          0 HIT:          0 MISS:          0 AVERAGE STALL: -nan AVERAGE FETCH STALL: -nan AVERAGE FETCH QUEUE STALL: -nan AVERAGE DECODE STALL: -nan AVERAGE EXECUTE STALL: -nan
L1BTB TOTAL ROB OCCUPANCY AT BTB MISS: 1.93741

L2BTB TOTAL     ACCESS:    3598453  HIT:    3531896  MISS:      66557  HIT %:    98.1504  MISS %:     1.8496   MPKI: 1.33114
L2BTB BRANCH_DIRECT_JUMP	ACCESS:     398427 HIT:     394761 MISS:       3666 AVERAGE STALL: 34.4378 AVERAGE FETCH STALL: 14.771 AVERAGE FETCH QUEUE STALL: 7.20763 AVERAGE DECODE STALL: 11.5482 AVERAGE EXECUTE STALL: 2.36285e+15
L2BTB BRANCH_INDIRECT	ACCESS:     106330 HIT:     103621 MISS:       2709 AVERAGE STALL: 77.5487 AVERAGE FETCH STALL: 11.2781 AVERAGE FETCH QUEUE STALL: 6.59754 AVERAGE DECODE STALL: 7.32507 AVERAGE EXECUTE STALL: 51.386
L2BTB BRANCH_CONDITIONAL	ACCESS:    1290550 HIT:    1284399 MISS:       6151 AVERAGE STALL: 38.6857 AVERAGE FETCH STALL: 17.8339 AVERAGE FETCH QUEUE STALL: 11.7192 AVERAGE DECODE STALL: 8.39267 AVERAGE EXECUTE STALL: 3.01812e+15
L2BTB BRANCH_DIRECT_CALL	ACCESS:     838624 HIT:     836543 MISS:       2081 AVERAGE STALL: 93.1024 AVERAGE FETCH STALL: 21.3343 AVERAGE FETCH QUEUE STALL: 40.0087 AVERAGE DECODE STALL: 31.0662 AVERAGE EXECUTE STALL: 8.91147e+15
L2BTB BRANCH_INDIRECT_CALL	ACCESS:     140721 HIT:     130574 MISS:      10147 AVERAGE STALL: 100.794 AVERAGE FETCH STALL: 13.4076 AVERAGE FETCH QUEUE STALL: 4.23722 AVERAGE DECODE STALL: 6.85823 AVERAGE EXECUTE STALL: 75.8018
L2BTB BRANCH_RETURN	ACCESS:     823801 HIT:     781998 MISS:      41803 AVERAGE STALL: 39.0708 AVERAGE FETCH STALL: 16.6826 AVERAGE FETCH QUEUE STALL: 3.08333 AVERAGE DECODE STALL: 5.11243 AVERAGE EXECUTE STALL: 4.27107e+14
L2BTB BRANCH_OTHER ACCESS:          0 HIT:          0 MISS:          0 AVERAGE STALL: -nan AVERAGE FETCH STALL: -nan AVERAGE FETCH QUEUE STALL: -nan AVERAGE DECODE STALL: -nan AVERAGE EXECUTE STALL: -nan
L2BTB TOTAL ROB OCCUPANCY AT BTB MISS: 105.484

L2C TOTAL     ACCESS:    4499732  HIT:    4018738  MISS:     480994  HIT %:    89.3106  MISS %:    10.6894   MPKI: 9.61988
L2C LOAD INSTRUCTION	ACCESS:    2760203  HIT:    2494492  MISS:     265711  HIT %:    90.3735  MISS %:     9.6265  MPKI: 5.31422
L2C LOAD TRANSLATION INSTRUCTION	ACCESS:        292  HIT:         72  MISS:        220  HIT %:    24.6575  MISS %:    75.3425  MPKI: 0.0044
L2C LOAD DATA	ACCESS:     734596  HIT:     659440  MISS:      75156  HIT %:    89.7691  MISS %:    10.2309  MPKI: 1.50312
L2C RFO DATA	ACCESS:     287832  HIT:     235719  MISS:      52113  HIT %:    81.8946  MISS %:    18.1054  MPKI: 1.04226
L2C PREFETCH DATA	ACCESS:     191019  HIT:     119552  MISS:      71467  HIT %:    62.5864  MISS %:    37.4136  MPKI: 1.42934
L2C WRITEBACK DATA	ACCESS:     523896  HIT:     508883  MISS:      15013  HIT %:    97.1344  MISS %:    2.86565  MPKI: 0.30026
L2C LOAD TRANSLATION DATA	ACCESS:       1837  HIT:        545  MISS:       1292  HIT %:    29.6679  MISS %:    70.3321  MPKI: 0.02584
L2C TRANSLATION FROM L1D PREFETCHER DATA	ACCESS:         57  HIT:         35  MISS:         22  HIT %:    61.4035  MISS %:    38.5965  MPKI: 0.00044

L2C PREFETCH  REQUESTED:      91720  ISSUED:      91720  USEFUL:       8555  USELESS:      63411
L2C USEFUL LOAD PREFETCHES:       8555 PREFETCH ISSUED TO LOWER LEVEL:      71803  ACCURACY: 11.9145
 TIMELY PREFETCHES:       8555 LATE PREFETCHES: 336 DROPPED PREFETCHES: 0
L2C AVERAGE MISS LATENCY: 39.1457 cycles
L2C RQ	ACCESS:    3784869	FORWARD:          0	MERGED:          0	TO_CACHE:    3784818
L2C WQ	ACCESS:     523896	FORWARD:         51	MERGED:          0	TO_CACHE:     523896
L2C PQ	ACCESS:     198371	FORWARD:          0	MERGED:       3561	TO_CACHE:     194810

L2C Dense regions hint from L2: 0
PSCL5 TOTAL     ACCESS:       4146  HIT:       2073  MISS:       2073  HIT %:         50  MISS %:         50   MPKI: 0.04146
PSCL5 LOAD TRANSLATION INSTRUCTION	ACCESS:       4032  HIT:       2016  MISS:       2016  HIT %:         50  MISS %:         50  MPKI: 0.04032
PSCL5 TRANSLATION FROM L1D PREFETCHER INSTRUCTION	ACCESS:        114  HIT:         57  MISS:         57  HIT %:         50  MISS %:         50  MPKI: 0.00114


PSCL4 TOTAL     ACCESS:       3945  HIT:       1967  MISS:       1978  HIT %:    49.8606  MISS %:    50.1394   MPKI: 0.03956
PSCL4 LOAD TRANSLATION INSTRUCTION	ACCESS:       3109  HIT:       1910  MISS:       1199  HIT %:    61.4345  MISS %:    38.5655  MPKI: 0.02398
PSCL4 TRANSLATION FROM L1D PREFETCHER INSTRUCTION	ACCESS:         97  HIT:         57  MISS:         40  HIT %:    58.7629  MISS %:    41.2371  MPKI: 0.0008
PSCL4 LOAD TRANSLATION DATA	ACCESS:        722  HIT:          0  MISS:        722  HIT %:          0  MISS %:        100  MPKI: 0.01444
PSCL4 TRANSLATION FROM L1D PREFETCHER DATA	ACCESS:         17  HIT:          0  MISS:         17  HIT %:          0  MISS %:        100  MPKI: 0.00034


PSCL3 TOTAL     ACCESS:       3979  HIT:       1984  MISS:       1995  HIT %:    49.8618  MISS %:    50.1382   MPKI: 0.0399
PSCL3 LOAD TRANSLATION INSTRUCTION	ACCESS:       3126  HIT:       1927  MISS:       1199  HIT %:    61.6443  MISS %:    38.3557  MPKI: 0.02398
PSCL3 TRANSLATION FROM L1D PREFETCHER INSTRUCTION	ACCESS:         97  HIT:         57  MISS:         40  HIT %:    58.7629  MISS %:    41.2371  MPKI: 0.0008
PSCL3 LOAD TRANSLATION DATA	ACCESS:        739  HIT:          0  MISS:        739  HIT %:          0  MISS %:        100  MPKI: 0.01478
PSCL3 TRANSLATION FROM L1D PREFETCHER DATA	ACCESS:         17  HIT:          0  MISS:         17  HIT %:          0  MISS %:        100  MPKI: 0.00034


PSCL2 TOTAL     ACCESS:       4055  HIT:       1982  MISS:       2073  HIT %:    48.8779  MISS %:    51.1221   MPKI: 0.04146
PSCL2 LOAD TRANSLATION INSTRUCTION	ACCESS:       2185  HIT:       1925  MISS:        260  HIT %:    88.1007  MISS %:    11.8993  MPKI: 0.0052
PSCL2 TRANSLATION FROM L1D PREFETCHER INSTRUCTION	ACCESS:         57  HIT:         57  MISS:          0  HIT %:        100  MISS %:          0  MPKI: 0
PSCL2 LOAD TRANSLATION DATA	ACCESS:       1756  HIT:          0  MISS:       1756  HIT %:          0  MISS %:        100  MPKI: 0.03512
PSCL2 TRANSLATION FROM L1D PREFETCHER DATA	ACCESS:         57  HIT:          0  MISS:         57  HIT %:          0  MISS %:        100  MPKI: 0.00114


LLC TOTAL     ACCESS:     540347  HIT:     510013  MISS:      30334  HIT %:    94.3862  MISS %:     5.6138   MPKI: 0.60668
LLC LOAD INSTRUCTION	ACCESS:     265711  HIT:     264752  MISS:        959  HIT %:    99.6391  MISS %:   0.360918  MPKI: 0.01918
LLC LOAD TRANSLATION INSTRUCTION	ACCESS:        220  HIT:        185  MISS:         35  HIT %:    84.0909  MISS %:    15.9091  MPKI: 0.0007
LLC LOAD DATA	ACCESS:      74871  HIT:      71344  MISS:       3527  HIT %:    95.2892  MISS %:    4.71077  MPKI: 0.07054
LLC RFO DATA	ACCESS:      52056  HIT:      36713  MISS:      15343  HIT %:     70.526  MISS %:     29.474  MPKI: 0.30686
LLC PREFETCH DATA	ACCESS:      71803  HIT:      61778  MISS:      10025  HIT %:    86.0382  MISS %:    13.9618  MPKI: 0.2005
LLC WRITEBACK DATA	ACCESS:      74372  HIT:      73994  MISS:        378  HIT %:    99.4917  MISS %:   0.508256  MPKI: 0.00756
LLC LOAD TRANSLATION DATA	ACCESS:       1292  HIT:       1226  MISS:         66  HIT %:    94.8916  MISS %:    5.10836  MPKI: 0.00132
LLC TRANSLATION FROM L1D PREFETCHER DATA	ACCESS:         22  HIT:         21  MISS:          1  HIT %:    95.4545  MISS %:    4.54545  MPKI: 2e-05

LLC AVERAGE MISS LATENCY: 158.555 cycles
LLC RQ	ACCESS:     394178	FORWARD:          0	MERGED:          0	TO_CACHE:     394172
LLC WQ	ACCESS:      74372	FORWARD:          6	MERGED:          0	TO_CACHE:      74372
LLC PQ	ACCESS:      71803	FORWARD:          0	MERGED:          0	TO_CACHE:      71803

LLC Dense regions hint to LLC: 0

RAW hits: 1876556
Loads Generated: 12631354
Loads sent to L1D: 10754798
Stores Generated: 6939455
Stores sent to L1D: 6939464
Major fault: 0 Minor fault: 2545
Allocated PAGES: 2545

stream: 
stream:times selected: 1193149
stream:pref_filled: 123498
stream:pref_useful: 25785
stream:pref_late: 7781
stream:misses: 9075
stream:misses_by_poll: 0

CS: 
CS:times selected: 183703
CS:pref_filled: 62500
CS:pref_useful: 38556
CS:pref_late: 8432
CS:misses: 19210
CS:misses_by_poll: 5

CPLX: 
CPLX:times selected: 1008327
CPLX:pref_filled: 20721
CPLX:pref_useful: 5289
CPLX:pref_late: 2749
CPLX:misses: 102349
CPLX:misses_by_poll: 1

NL_L1: 
NL:times selected: 20628
NL:pref_filled: 561
NL:pref_useful: 243
NL:pref_late: 388
NL:misses: 1927
NL:misses_by_poll: 0

total selections: 2405807
total_filled: 96424
total_useful: 37893
total_late: 21034
total_polluted: 6
total_misses_after_warmup: 777327
conflicts: 5566575

test: 115651

DRAM Statistics
 CHANNEL 0
 RQ ROW_BUFFER_HIT:      11282  ROW_BUFFER_MISS:      18658
 DBUS_CONGESTED:          5
 WQ ROW_BUFFER_HIT:       1488  ROW_BUFFER_MISS:      12789  FULL:          0

 AVG_CONGESTED_CYCLE: 4

CPU 0 Branch Prediction Accuracy: 99.8249% MPKI: 0.3202 Average ROB Occupancy at Mispredict: 157.51
Branch types
NOT_BRANCH: 40854005 81.708%
BRANCH_DIRECT_JUMP: 546800 1.0936%
BRANCH_INDIRECT: 182471 0.364942%
BRANCH_CONDITIONAL: 6185633 12.3713%
BRANCH_DIRECT_CALL: 943844 1.88769%
BRANCH_INDIRECT_CALL: 171581 0.343162%
BRANCH_RETURN: 1115420 2.23084%
BRANCH_OTHER: 0 0%

DRAM PAGES: 1048576
Allocated PAGES: 2545
Average_ROB_Occupancy: 174.26
Average_Decode_Occupancy: 20.6071
Average_FTQ_Occupancy: 8.60837
Indirect max targets: 14 Average targets: 1.14527
Branch_type:  BRANCH_DIRECT_JUMP:  Count Percentage: 3.2862 6.37764 4.42912 3.4393 10.298 8.94487 1.699 61.5258 
Branch_type:  BRANCH_INDIRECT:  Count Percentage: 13.7527 6.27805 2.49788 3.76809 9.67582 16.6075 3.22427 44.1956 
Branch_type:  BRANCH_CONDITIONAL:  Count Percentage: 21.1143 3.89119 1.60996 3.09363 6.18125 13.3239 0.99324 49.7925 
Branch_type:  BRANCH_DIRECT_CALL:  Count Percentage: 0.767939 1.27833 1.00376 2.45461 4.77144 4.22695 0.884209 84.6128 
Branch_type:  BRANCH_INDIRECT_CALL:  Count Percentage: 9.53303 0 2.98947 4.27835 0 5.50908 0.992612 76.6975 
Branch_type:  BRANCH_RETURN:  Count Percentage: 4.53487 2.24545 1.879 3.16351 7.80553 14.6065 1.382 64.3831 
Branch_type:  BRANCH_DIRECT_JUMP:  Total Count: 35889 69651 48371 37561 112466 97688 18555 671931 
Branch_type:  BRANCH_INDIRECT:  Total Count: 50097 22869 9099 13726 35246 60496 11745 160991 
Branch_type:  BRANCH_CONDITIONAL:  Total Count: 2610553 481102 199053 382493 764242 1647351 122803 6156287 
Branch_type:  BRANCH_DIRECT_CALL:  Total Count: 14524 24177 18984 46424 90242 79944 16723 1600277 
Branch_type:  BRANCH_INDIRECT_CALL:  Total Count: 32788 0 10282 14715 0 18948 3414 263794 
Branch_type:  BRANCH_RETURN:  Total Count: 101401 50209 42015 70737 174534 326606 30902 1439627 
Number of unique branch instructions: 9923
Upper 32 bits: 
aaaa
ffff
ffff0000
Unique upper 32 bits: 3
Unique upper 36 bits: 3
Unique upper 40 bits: 5
Unique upper 44 bits: 32
Unique upper 48 bits: 154
Variant_0 : 1384 0.337891
Variant_1 : 2644 0.645508
Variant_2 : 0 0
Variant_3 : 0 0
Offset_3 4076
Offset_4 256
Offset_5 452
Offset_6 505
Offset_7 581
Offset_8 512
Offset_9 471
Offset_10 381
Offset_11 310
Offset_12 272
Offset_13 203
Offset_14 227
Offset_15 193
Offset_16 224
Offset_17 145
Offset_18 118
Offset_19 235
Offset_20 137
Offset_21 235
Offset_22 391
Offset_23 245
Offset_24 331
Offset_25 88
Offset_47 82
decode_dispatch_called: 21726369 56.8948
Dispatch_width: 0 11182515 51.4698 29.2836
Dispatch_width: 1 670030 3.08395 1.75461
Dispatch_width: 2 712814 3.28087 1.86665
Dispatch_width: 3 458023 2.10814 1.19942
Dispatch_width: 4 2705475 12.4525 7.08483
Dispatch_width: 5 276769 1.27389 0.724775
Dispatch_width: 6 5720743 26.3309 14.9809
Empty_decode_cycles: 16460525 43.1052
ROB_full_cycles: 4098033 10.7315
Starvation_cycles_per_kilo_instr: 283.681
Starvation_cycles_per_kilo_instr_3: 253.859
Starvation_cycles_per_kilo_instr_0: 235.45
Branch_type_1  (3,1)  (4,11)  (5,37)  (6,70)  (7,115)  (8,130)  (9,123)  (10,97)  (11,70)  (12,43)  (13,5)  (14,2)  (15,3)  (16,4)  (18,1)  (19,4)  (20,2)  (21,1)  (22,3)  (23,2)  (24,10)  (25,12) 
Branch_type_2  (3,1)  (5,1)  (8,3)  (9,3)  (12,1)  (13,1)  (14,1)  (16,3)  (17,2)  (20,2)  (21,2)  (23,5)  (24,1)  (47,38) 
Branch_type_3  (3,4074)  (4,245)  (5,410)  (6,420)  (7,436)  (8,317)  (9,258)  (10,152)  (11,125)  (12,52)  (13,4) 
Branch_type_4  (6,3)  (7,8)  (8,26)  (9,53)  (10,64)  (11,58)  (12,97)  (13,88)  (14,100)  (15,91)  (16,100)  (17,65)  (18,53)  (19,115)  (20,72)  (21,124)  (22,208)  (23,138)  (24,192)  (25,72) 
Branch_type_5  (8,2)  (9,1)  (10,3)  (11,5)  (12,3)  (13,14)  (14,16)  (15,11)  (16,20)  (17,11)  (18,16)  (19,12)  (20,10)  (21,13)  (22,42)  (23,26)  (24,37) 
Branch_type_6  (5,4)  (6,12)  (7,22)  (8,34)  (9,33)  (10,65)  (11,52)  (12,76)  (13,91)  (14,108)  (15,88)  (16,97)  (17,67)  (18,48)  (19,104)  (20,51)  (21,95)  (22,138)  (23,74)  (24,91)  (25,4)  (47,44) 
Unique trigger count: 
Variant_0_evicts_0 : 0
Variant_0_evicts_1 : 0
Variant_0_evicts_2 : 0
Variant_0_evicts_3 : 0
Variant_1_evicts_0 : 0
Variant_1_evicts_1 : 0
Variant_1_evicts_2 : 0
Variant_1_evicts_3 : 0
Variant_2_evicts_0 : 0
Variant_2_evicts_1 : 0
Variant_2_evicts_2 : 0
Variant_2_evicts_3 : 0
Variant_3_evicts_0 : 0
Variant_3_evicts_1 : 0
Variant_3_evicts_2 : 0
Variant_3_evicts_3 : 0
BTB PER SET UNIQUE ADDR: 11 10 7 12 11 9 11 8 6 12 8 14 12 8 13 8 8 10 9 12 9 9 12 9 9 12 13 11 10 9 8 10 11 8 6 8 11 11 9 7 11 11 10 13 7 7 11 7 11 9 12 8 8 10 10 6 7 7 10 11 8 13 12 9 11 13 8 6 9 9 9 12 11 7 11 9 6 11 9 12 10 7 6 12 9 13 13 8 5 11 5 8 7 9 6 13 8 9 8 10 10 11 9 9 9 8 10 12 10 10 9 9 11 10 9 9 11 11 8 12 11 11 9 7 9 7 6 7 16 7 9 9 11 13 9 9 10 11 9 15 7 8 7 7 8 11 15 9 8 8 14 12 10 8 9 12 10 8 10 7 11 8 13 10 11 9 9 8 13 9 9 11 8 9 7 8 10 7 9 10 7 9 8 10 9 14 6 9 10 7 10 9 8 11 12 10 8 9 10 10 12 9 8 7 12 12 9 7 9 11 14 11 11 10 9 11 6 11 9 12 4 11 8 7 8 14 15 12 9 11 12 6 10 10 7 10 11 10 9 6 8 9 13 11 11 6 12 9 8 11 14 10 10 9 9 13 9 6 8 10 12 9 3 14 9 6 7 7 12 11 9 12 7 5 7 10 8 10 8 12 9 9 9 9 12 9 7 11 11 11 11 7 16 14 8 11 8 9 10 10 7 13 11 18 12 9 7 11 9 11 7 11 8 14 11 7 12 13 13 11 13 12 6 9 9 11 10 9 9 8 9 12 8 9 8 13 8 8 8 16 9 13 8 14 12 6 8 7 9 13 7 8 11 9 10 9 8 11 7 9 6 16 8 11 10 11 6 10 13 10 10 5 10 11 12 17 8 13 13 13 9 10 6 10 9 11 12 11 10 9 15 9 9 15 10 9 8 7 13 12 7 13 8 8 7 9 7 13 8 6 12 8 7 12 10 11 11 10 15 11 7 11 14 13 9 6 12 13 12 8 16 7 9 10 7 13 10 10 8 8 11 7 7 10 12 5 11 10 13 12 9 12 9 11 14 11 9 11 7 12 7 8 10 10 12 10 9 8 6 11 9 8 12 13 13 12 10 12 7 7 10 7 9 10 10 10 9 13 17 9 11 8 11 10 9 11 10 7 8 9 10 12 10 13 8 7 6 11 11 11 10 13 10 10 8 11 8 12 8 8 12 10 9 6 12 12 15 7 9 12 9 13 11 12 9 8 9 11 7 9 17 7 11 8 10 11 10 12 8 9 10 15 11 11 14 11 11 9 11 8 11 11 7 10 10 13 7 11 12 10 11 10 10 14 12 9 11 12 10 7 10 11 6 6 9 10 8 12 13 9 7 8 10 9 8 10 7 8 11 9 9 10 7 7 8 10 13 8 9 7 11 12 7 10 5 13 10 14 11 13 9 10 10 7 10 10 7 13 7 8 6 13 12 11 7 11 10 9 9 10 11 11 12 12 9 7 8 11 15 9 8 11 7 10 13 13 10 12 11 8 7 9 12 12 10 12 9 11 9 8 11 10 9 11 16 6 9 9 9 7 9 13 8 16 10 8 9 9 12 10 11 10 11 6 9 10 7 8 8 12 7 12 9 8 9 10 10 12 10 7 9 8 7 10 6 10 15 8 6 11 10 7 7 10 5 10 12 5 9 11 10 10 12 8 5 9 11 11 10 7 9 8 9 9 11 11 8 9 13 8 16 11 10 10 8 10 13 12 6 6 13 7 8 6 11 13 9 10 7 13 12 11 11 6 12 9 10 9 13 11 10 8 9 9 8 10 7 13 9 9 7 5 8 11 9 16 7 7 12 10 11 13 11 12 14 10 8 11 7 8 7 13 9 11 10 10 13 13 7 15 12 15 9 11 10 10 9 12 11 10 13 12 14 13 9 6 11 9 14 8 12 11 9 10 10 12 12 8 9 12 6 9 11 15 12 13 12 10 6 12 10 13 7 12 11 6 11 9 14 9 9 15 9 12 12 5 8 7 8 7 14 6 10 11 10 11 12 12 11 8 11 8 12 10 9 14 16 11 7 9 13 8 10 9 8 8 10 11 10 13 9 12 8 11 9 9 16 9 12 8 8 11 7 10 11 8 4 9 11 7 11 11 9 9 10 11 12 7 12 13 6 11 12 7 11 11 10 10 8 12 12 8 7 8 8 11 10 7 11 7 13 11 9 12 9 7 11 11 9 9 9 20 11 11 9 11 18 14 9 12 9 10 11 11 10 14 8 8 12 9 11 8 7 8 13 7 6 7 10 7 11 13 9 7 16 12 6 11 10 11 11 11 11 11 11 12 10 6 7 8 7 13 11 11 
BTB PER SET COUNT: 15 10 1924 15 14 10 13 9 1474 16 11 44 4727 13 20 8 2447 15 12 15 11 694 836 9 12 12 14 104 362 1059 10 16 15 10 6 8 12 12 11 8 13 21 12 19 12 126 18 7 1028 16 16 49 8 14 23 311 8 8 415 13 8 2954 306 9 13 403 9 7 11 9 15 297 14 7 13 9 6 11 14 15 469 7 11 19 10 15 16 11 1386 12 5 788 488 524 6 16 511 12 9 11 13 16 12 10 3763 10 10 17 1868 10 9 27 1484 12 9 9 12 13 1282 408 19 14 9 8 9 80 6 7 22 962 9 9 18 15 10 11 998 17 9 20 9 14 9 8 9 14 25 11 10 11 14 262 1072 8 11 18 13 8 12 7 14 11 140 10 45 11 13 10 25 1477 9 14 9 10 7 8 15 7 12 10 1089 9 967 11 18 669 7 9 13 964 12 10 8 13 18 131 13 11 20 13 16 9 998 10 13 17 9 9 11 1346 19 15 16 9623 9 303 6 13 1653 17 4 20 12 7 10 24 20 12 807 15 15 7 10 15 967 10 12 13 689 6 10 10 15 13 14 1011 13 12 8 14 21 15 10 12 18 18 9 7 9 11 982 10 3 498 9 6 10 7 1005 14 11 129 7 6 946 12 8 13 10 15 19 18 9 13 14 12 7 19 21 11 12 7 17 17 8 12 1446 12 16 40 7 17 520 23 21 10 13 14 11 388 10 11 8 17 16 11 17 16 14 17 22 235 6 10 9 12 179 14 11 10 11 24 49 10 10 17 9 998 8 20 11 19 14 18 15 6 8 9 10 81 7 1638 16 12 13 9 8 17 139 11 7 21 8 15 11 1760 6 11 15 10 10 352 11 14 573 17 10 17 20 45 269 11 7 13 10 14 12 11 17 1150 127 14 13 17 15 11 9 7 20 1486 7 14 441 9 8 12 10 493 12 6 1223 8 7 19 14 15 12 65 17 13 7 14 20 16 10 6 16 13 20 8 18 7 10 11 7 17 11 12 10 10 16 7 44 12 2471 5 12 17 14 17 42 12 11 12 390 13 10 12 8 15 8 10 12 10 22 16 9 11 6 11 9 12 16 15 27 13 11 12 7 8 11 9 10 14 220 970 11 15 27 350 238 12 2506 10 9 1921 10 9 9 11 10 14 13 90 8 7 9 15 12 11 18 13 21 512 8 11 19 18 11 12 12 12 10 511 14 17 17 1059 10 2023 11 16 18 13 9 10 11 970 8 11 23 9 16 9 14 13 13 20 9 13 10 18 1002 525 21 13 14 12 19 11 13 66 8 14 1501 21 111 12 14 10 18 11 13 16 15 9 17 17 12 8 11 12 7 2944 9 15 8 13 27 15 2102 967 12 9 17 16 7 357 11 10 11 10 8 9 9 16 16 1384 9 8 13 1482 8 15 5 23 10 22 12 21 10 15 11 966 14 10 10 18 7 9 6 23 17 11 7 12 10 847 9 13 11 24 14 16 323 148 8 16 18 9 8 12 7 10 29 151 13 14 12 657 9 10 14 13 15865 12 20 1000 2812 11 14 11 1000 14 25 7 9 10 14 8 13 16 1477 34 12 8 9 12 15 11 12 10 23 6 2467 15 8 11 13 17 995 23 1167 11 13 11 13 14 11 7 9 8 965 10 7 13 27 18 7 15 201 73 7 374 6 11 15 7 744 12 17 3252 16 8 6 1753 487 15 12 14 968 9 240 11 18 12 10 9 24 11 105 19 12 800 10 12 16 339 6 8 18 7 10 332 2697 16 9 13 11 22 15 364 18 7 16 10 13 9 13 20 51 9 9 11 9 14 9 14 10 13 10 29 10 13 10 759 10 8 15 1283 79 16 11 15 22 12 12 14 7 8 7 5982 17 16 12 47 20 2503 8 2474 12 1082 15 12 11 16 17 16 17 12 18 16 17 13 37 1984 16 12 37 8 16 1005 12 13 12 15 19 8 9 1858 9 770 22 18 198 17 14 10 9 18 968 1242 7 13 12 6 18 11 20 15 209 35 13 12 17 5 9 7 8 11 16 8 16 14 969 341 17 16 12 8 13 9 1059 52 10 24 23 12 9 13 19 10 17 11 8 14 15 12 156 14 9 558 8 13 9 10 101 15 23 49 8 17 967 10 16 9 5 10 17 9 14 12 1374 12 10 197 12 10 15 16 6 1049 14 7 11 13 10 15 10 15 353 998 9 494 10 12 12 7 11 9 16 17 969 13 11 7 440 14 52 11 65 265 20 15 10 12 26 16 489 208 9 10 16 480 13 19 9 618 15 10 13 9 9 8 1483 9 6 1479 10 331 11 206 14 8 18 13 7 17 11 352 1816 14 13 19 14 14 11 15 7 9 8 15 13 15 
To predecode: 0
Predecoding something: 0
Predecode request dropped: 0
sizeofblock_0 0
sizeofblock_1 50055
sizeofblock_2 88355
sizeofblock_3 0
sizeofblock_4 0
sizeofblock_5 0
sizeofblock_6 0
sizeofblock_7 0
sizeofblock_8 0
Variant_0 Correct: 1612593 Incorrect: 0 Accuracy: 1
Variant_1 Correct: 5731751 Incorrect: 0 Accuracy: 1
Variant_2 Correct: 0 Incorrect: 0 Accuracy: -nan
Variant_3 Correct: 0 Incorrect: 0 Accuracy: -nan
