
*** ChampSim Multicore Out-of-Order Simulator ***

Warmup Instructions: 50000000
Simulation Instructions: 50000000
Number of CPUs: 1
LLC sets: 2048
LLC ways: 16
Off-chip DRAM Size: 4096 MB Channels: 1 Width: 64-bit Data Rate: 6400 MT/s
CPU 0 runs ./micro_traces/srv301.trace.gz
.gz
ITLB has LRU replacement policy
DTLB has LRU replacement policy
STLB has LRU replacement policy
FDIP Prefetcher at L1I
L1I has LRU replacement policy
L1D has LRU replacement policy
Initialize SRRIP state for L2C
Initialize DRRIP state for LLC
Heartbeat CPU 0 instructions: 10000000 cycles: 2798074 heartbeat IPC: 3.57389 cumulative IPC: 3.57389 (Simulation time: 0 hr 1 min 41 sec) 
Heartbeat CPU 0 instructions: 20000003 cycles: 5596565 heartbeat IPC: 3.57336 cumulative IPC: 3.57362 (Simulation time: 0 hr 3 min 15 sec) 
Heartbeat CPU 0 instructions: 30000001 cycles: 8393792 heartbeat IPC: 3.57497 cumulative IPC: 3.57407 (Simulation time: 0 hr 4 min 50 sec) 
Heartbeat CPU 0 instructions: 40000000 cycles: 11191008 heartbeat IPC: 3.57498 cumulative IPC: 3.5743 (Simulation time: 0 hr 6 min 22 sec) 
Heartbeat CPU 0 instructions: 50000002 cycles: 13989475 heartbeat IPC: 3.57339 cumulative IPC: 3.57412 (Simulation time: 0 hr 7 min 55 sec) 

Warmup complete CPU 0 instructions: 50000002 cycles: 13989475 (Simulation time: 0 hr 7 min 55 sec) 

Cycle: 20000000 FTQ IN: 55359416 FTQ occupancy: 17.422 DECODE IN: 55359407 DECODE occupancy: 44.5986 ROB IN: 55359407 ROB occupancy: 266.122 ROB OUT: 55359407
Heartbeat CPU 0 instructions: 60000002 cycles: 25303558 heartbeat IPC: 0.883854 cumulative IPC: 0.883854 (Simulation time: 0 hr 9 min 11 sec) 
Cycle: 30000000 FTQ IN: 8793038 FTQ occupancy: 4.39897 DECODE IN: 8793047 DECODE occupancy: 8.52475 ROB IN: 8793046 ROB occupancy: 72.3454 ROB OUT: 8793046
Heartbeat CPU 0 instructions: 70000000 cycles: 36553151 heartbeat IPC: 0.888921 cumulative IPC: 0.88638 (Simulation time: 0 hr 10 min 29 sec) 
Cycle: 40000000 FTQ IN: 8945991 FTQ occupancy: 4.74595 DECODE IN: 8945976 DECODE occupancy: 9.30324 ROB IN: 8945977 ROB occupancy: 79.9665 ROB OUT: 8945977
Heartbeat CPU 0 instructions: 80000000 cycles: 47577487 heartbeat IPC: 0.907084 cumulative IPC: 0.893176 (Simulation time: 0 hr 11 min 47 sec) 
Cycle: 50000000 FTQ IN: 9164120 FTQ occupancy: 4.67386 DECODE IN: 9164126 DECODE occupancy: 9.22153 ROB IN: 9164126 ROB occupancy: 80.195 ROB OUT: 9164073
Heartbeat CPU 0 instructions: 90000000 cycles: 57506273 heartbeat IPC: 1.00717 cumulative IPC: 0.919185 (Simulation time: 0 hr 13 min 13 sec) 
Cycle: 60000000 FTQ IN: 11649451 FTQ occupancy: 10.4081 DECODE IN: 11649346 DECODE occupancy: 25.9923 ROB IN: 11649286 ROB occupancy: 176.839 ROB OUT: 11648987
Heartbeat CPU 0 instructions: 100000001 cycles: 66835290 heartbeat IPC: 1.07192 cumulative IPC: 0.946149 (Simulation time: 0 hr 14 min 36 sec) 
Finished CPU 0 instructions: 50000003 cycles: 52845816 cumulative IPC: 0.946149 (Simulation time: 0 hr 14 min 36 sec) 

ChampSim completed all CPUs

Region of Interest Statistics

CPU 0 cumulative IPC: 0.946149 instructions: 50000003 cycles: 52845816
 Fetch stage stalled: 73.8861  Sim cycles: 52845816 fetch stall cycle: 39045706
 Empty decode stage: 62.7039  Sim cycles: 52845816 fetch stall cycle: 33136369
ITLB TOTAL     ACCESS:    5950156  HIT:    5515314  MISS:     434842  HIT %:    92.6919  MISS %:    7.30808   MPKI: 8.69684
ITLB LOAD TRANSLATION INSTRUCTION	ACCESS:    5856590  HIT:    5421748  MISS:     434842  HIT %:    92.5752  MISS %:    7.42483  MPKI: 8.69684
ITLB TRANSLATION FROM L1D PREFETCHER INSTRUCTION	ACCESS:      93566  HIT:      93566  MISS:          0  HIT %:        100  MISS %:          0  MPKI: 0

ITLB AVERAGE MISS LATENCY: 9.07438 cycles
ITLB RQ	ACCESS:    7599440	FORWARD:          0	MERGED:    1260286	TO_CACHE:    6339154

DTLB TOTAL     ACCESS:    9714291  HIT:    9267676  MISS:     446615  HIT %:    95.4025  MISS %:     4.5975   MPKI: 8.9323
DTLB LOAD TRANSLATION DATA	ACCESS:    9714291  HIT:    9267676  MISS:     446615  HIT %:    95.4025  MISS %:     4.5975  MPKI: 8.9323

DTLB AVERAGE MISS LATENCY: 9.31916 cycles
DTLB RQ	ACCESS:   13876512	FORWARD:          0	MERGED:    4133316	TO_CACHE:    9743196

STLB TOTAL     ACCESS:    1089109  HIT:    1086967  MISS:       2142  HIT %:    99.8033  MISS %:   0.196675   MPKI: 0.04284
STLB LOAD TRANSLATION INSTRUCTION	ACCESS:     434842  HIT:     434367  MISS:        475  HIT %:    99.8908  MISS %:   0.109235  MPKI: 0.0095
STLB LOAD TRANSLATION DATA	ACCESS:     446343  HIT:     444698  MISS:       1645  HIT %:    99.6314  MISS %:   0.368551  MPKI: 0.0329
STLB TRANSLATION FROM L1D PREFETCHER DATA	ACCESS:     207924  HIT:     207902  MISS:         22  HIT %:    99.9894  MISS %:  0.0105808  MPKI: 0.00044

STLB AVERAGE MISS LATENCY: 73.338 cycles
STLB RQ	ACCESS:    1188679	FORWARD:          0	MERGED:      99520	TO_CACHE:    1089159

STLB Hit, L1D data hit: 0
STLB Hit, L2C data hit: 0
STLB Hit, LLC data hit: 0
STLB Hit, LLC data miss: 0
STLB STLB hints to L2: 0
L1D TOTAL     ACCESS:   13675486  HIT:   12695223  MISS:     980263  HIT %:     92.832  MISS %:    7.16803   MPKI: 19.6053
L1D LOAD DATA	ACCESS:    7075204  HIT:    6425589  MISS:     649615  HIT %:    90.8184  MISS %:    9.18157  MPKI: 12.9923
L1D RFO DATA	ACCESS:    6327003  HIT:    6076476  MISS:     250527  HIT %:    96.0404  MISS %:    3.95965  MPKI: 5.01054
L1D PREFETCH DATA	ACCESS:     273279  HIT:     193158  MISS:      80121  HIT %:    70.6816  MISS %:    29.3184  MPKI: 1.60242

L1D PREFETCH  REQUESTED:     614655  ISSUED:     614655  USEFUL:      28304  USELESS:      58748
L1D USEFUL LOAD PREFETCHES:      28304 PREFETCH ISSUED TO LOWER LEVEL:      87109  ACCURACY: 32.4926
 TIMELY PREFETCHES:      28304 LATE PREFETCHES: 6953 DROPPED PREFETCHES: 8
L1D AVERAGE MISS LATENCY: 286632 cycles
L1D RQ	ACCESS:   11062435	FORWARD:          0	MERGED:    3776961	TO_CACHE:    7099986
L1D WQ	ACCESS:    6957598	FORWARD:     185701	MERGED:     181072	TO_CACHE:    6776526
L1D PQ	ACCESS:     307434	FORWARD:          0	MERGED:          0	TO_CACHE:     307221

L1D UNIQUE REGIONS ACCESSED: 0
L1D REGIONS CONFLICTS: 0
L1D Cross Page Prefetch Requests: 5388
L1D Same Page Prefetch Requests: 686129
L1D ROI Sum of L1D PQ occupancy: 3902876
L1D PREFETCHES PUSHED FROM L2C: 0
L1I TOTAL     ACCESS:    7354600  HIT:    4928291  MISS:    2426309  HIT %:    67.0096  MISS %:    32.9904   MPKI: 48.5262
L1I LOAD INSTRUCTION	ACCESS:    6823818  HIT:    4397509  MISS:    2426309  HIT %:    64.4435  MISS %:    35.5565  MPKI: 48.5262
L1I PREFETCH INSTRUCTION	ACCESS:     530782  HIT:     530782  MISS:          0  HIT %:        100  MISS %:          0  MPKI: 0

L1I PREFETCH  REQUESTED:     885035  ISSUED:     885035  USEFUL:          0  USELESS:          0
L1I USEFUL LOAD PREFETCHES:          0 PREFETCH ISSUED TO LOWER LEVEL:          0  ACCURACY: -nan
 TIMELY PREFETCHES:          0 LATE PREFETCHES: 0 DROPPED PREFETCHES: 0
L1I AVERAGE MISS LATENCY: 16.9617 cycles
L1I RQ	ACCESS:    9599342	FORWARD:          0	MERGED:    2651549	TO_CACHE:    6947793
L1I PQ	ACCESS:     885035	FORWARD:          0	MERGED:     233388	TO_CACHE:     651647

L1BTB TOTAL     ACCESS:    5842609  HIT:    2391487  MISS:    3451122  HIT %:    40.9318  MISS %:    59.0682   MPKI: 69.0224
L1BTB BRANCH_DIRECT_JUMP	ACCESS:     550522  HIT:     175578  MISS:     374944	AVERAGE STALL: 30.7442
L1BTB BRANCH_INDIRECT	ACCESS:     180197  HIT:      63726  MISS:     116471	AVERAGE STALL: 73.4037
L1BTB BRANCH_CONDITIONAL	ACCESS:    2723079  HIT:    1508719  MISS:    1214360	AVERAGE STALL: 31.3906
L1BTB BRANCH_DIRECT_CALL	ACCESS:    1021694  HIT:     213448  MISS:     808246	AVERAGE STALL: 32.6066
L1BTB BRANCH_INDIRECT_CALL	ACCESS:     172711  HIT:      33444  MISS:     139267	AVERAGE STALL: 95.4753
L1BTB BRANCH_RETURN	ACCESS:    1194406  HIT:     396572  MISS:     797834	AVERAGE STALL: 32.4527
L1BTB BRANCH_OTHER ACCESS:          0  HIT:          0  MISS:          0	AVERAGE STALL: -nan
L1BTB TOTAL ROB OCCUPANCY AT BTB MISS: 16.4965

L2BTB TOTAL     ACCESS:    3429318  HIT:    2544659  MISS:     884659  HIT %:    74.2031  MISS %:    25.7969   MPKI: 17.6932
L2BTB BRANCH_DIRECT_JUMP	ACCESS:     371497  HIT:     271399  MISS:     100098	AVERAGE STALL: 30.7442
L2BTB BRANCH_INDIRECT	ACCESS:     107458  HIT:      96067  MISS:      11391	AVERAGE STALL: 73.4037
L2BTB BRANCH_CONDITIONAL	ACCESS:    1214360  HIT:     895492  MISS:     318868	AVERAGE STALL: 31.3906
L2BTB BRANCH_DIRECT_CALL	ACCESS:     808246  HIT:     580732  MISS:     227514	AVERAGE STALL: 32.6066
L2BTB BRANCH_INDIRECT_CALL	ACCESS:     131167  HIT:      89691  MISS:      41476	AVERAGE STALL: 95.4753
L2BTB BRANCH_RETURN	ACCESS:     796590  HIT:     611278  MISS:     185312	AVERAGE STALL: 32.4527
L2BTB BRANCH_OTHER ACCESS:          0  HIT:          0  MISS:          0	AVERAGE STALL: -nan
L2BTB TOTAL ROB OCCUPANCY AT BTB MISS: 64.354

L2C TOTAL     ACCESS:    3943178  HIT:    3553643  MISS:     389535  HIT %:    90.1213  MISS %:    9.87871   MPKI: 7.7907
L2C LOAD INSTRUCTION	ACCESS:    2426308  HIT:    2219051  MISS:     207257  HIT %:    91.4579  MISS %:    8.54207  MPKI: 4.14514
L2C LOAD TRANSLATION INSTRUCTION	ACCESS:        511  HIT:        148  MISS:        363  HIT %:    28.9628  MISS %:    71.0372  MPKI: 0.00726
L2C LOAD DATA	ACCESS:     642651  HIT:     578642  MISS:      64009  HIT %:    90.0399  MISS %:    9.96015  MPKI: 1.28018
L2C RFO DATA	ACCESS:     250478  HIT:     206599  MISS:      43879  HIT %:    82.4819  MISS %:    17.5181  MPKI: 0.87758
L2C PREFETCH DATA	ACCESS:     160104  HIT:      99155  MISS:      60949  HIT %:    61.9316  MISS %:    38.0684  MPKI: 1.21898
L2C WRITEBACK DATA	ACCESS:     461343  HIT:     449589  MISS:      11754  HIT %:    97.4522  MISS %:    2.54778  MPKI: 0.23508
L2C LOAD TRANSLATION DATA	ACCESS:       1735  HIT:        427  MISS:       1308  HIT %:     24.611  MISS %:     75.389  MPKI: 0.02616
L2C TRANSLATION FROM L1D PREFETCHER DATA	ACCESS:         48  HIT:         32  MISS:         16  HIT %:    66.6667  MISS %:    33.3333  MPKI: 0.00032

L2C PREFETCH  REQUESTED:      78574  ISSUED:      78574  USEFUL:       6938  USELESS:      54393
L2C USEFUL LOAD PREFETCHES:       6938 PREFETCH ISSUED TO LOWER LEVEL:      61346  ACCURACY: 11.3096
 TIMELY PREFETCHES:       6938 LATE PREFETCHES: 397 DROPPED PREFETCHES: 0
L2C AVERAGE MISS LATENCY: 39.2466 cycles
L2C RQ	ACCESS:    3321757	FORWARD:          0	MERGED:          0	TO_CACHE:    3321732
L2C WQ	ACCESS:     461343	FORWARD:         25	MERGED:          0	TO_CACHE:     461343
L2C PQ	ACCESS:     165683	FORWARD:          0	MERGED:       2513	TO_CACHE:     163170

L2C Dense regions hint from L2: 0
PSCL5 TOTAL     ACCESS:       4310  HIT:       2155  MISS:       2155  HIT %:         50  MISS %:         50   MPKI: 0.0431
PSCL5 LOAD TRANSLATION INSTRUCTION	ACCESS:       4214  HIT:       2107  MISS:       2107  HIT %:         50  MISS %:         50  MPKI: 0.04214
PSCL5 TRANSLATION FROM L1D PREFETCHER INSTRUCTION	ACCESS:         96  HIT:         48  MISS:         48  HIT %:         50  MISS %:         50  MPKI: 0.00096


PSCL4 TOTAL     ACCESS:       2962  HIT:       1477  MISS:       1485  HIT %:     49.865  MISS %:     50.135   MPKI: 0.0297
PSCL4 LOAD TRANSLATION INSTRUCTION	ACCESS:       1473  HIT:       1443  MISS:         30  HIT %:    97.9633  MISS %:    2.03666  MPKI: 0.0006
PSCL4 TRANSLATION FROM L1D PREFETCHER INSTRUCTION	ACCESS:         34  HIT:         34  MISS:          0  HIT %:        100  MISS %:          0  MPKI: 0
PSCL4 LOAD TRANSLATION DATA	ACCESS:       1421  HIT:          0  MISS:       1421  HIT %:          0  MISS %:        100  MPKI: 0.02842
PSCL4 TRANSLATION FROM L1D PREFETCHER DATA	ACCESS:         34  HIT:          0  MISS:         34  HIT %:          0  MISS %:        100  MPKI: 0.00068


PSCL3 TOTAL     ACCESS:       3977  HIT:       1979  MISS:       1998  HIT %:    49.7611  MISS %:    50.2389   MPKI: 0.03996
PSCL3 LOAD TRANSLATION INSTRUCTION	ACCESS:       2570  HIT:       1939  MISS:        631  HIT %:    75.4475  MISS %:    24.5525  MPKI: 0.01262
PSCL3 TRANSLATION FROM L1D PREFETCHER INSTRUCTION	ACCESS:         53  HIT:         40  MISS:         13  HIT %:    75.4717  MISS %:    24.5283  MPKI: 0.00026
PSCL3 LOAD TRANSLATION DATA	ACCESS:       1327  HIT:          0  MISS:       1327  HIT %:          0  MISS %:        100  MPKI: 0.02654
PSCL3 TRANSLATION FROM L1D PREFETCHER DATA	ACCESS:         27  HIT:          0  MISS:         27  HIT %:          0  MISS %:        100  MPKI: 0.00054


PSCL2 TOTAL     ACCESS:       4194  HIT:       2039  MISS:       2155  HIT %:    48.6171  MISS %:    51.3829   MPKI: 0.0431
PSCL2 LOAD TRANSLATION INSTRUCTION	ACCESS:       2481  HIT:       1991  MISS:        490  HIT %:    80.2499  MISS %:    19.7501  MPKI: 0.0098
PSCL2 TRANSLATION FROM L1D PREFETCHER INSTRUCTION	ACCESS:         48  HIT:         48  MISS:          0  HIT %:        100  MISS %:          0  MPKI: 0
PSCL2 LOAD TRANSLATION DATA	ACCESS:       1617  HIT:          0  MISS:       1617  HIT %:          0  MISS %:        100  MPKI: 0.03234
PSCL2 TRANSLATION FROM L1D PREFETCHER DATA	ACCESS:         48  HIT:          0  MISS:         48  HIT %:          0  MISS %:        100  MPKI: 0.00096


LLC TOTAL     ACCESS:     440466  HIT:     415393  MISS:      25073  HIT %:    94.3076  MISS %:    5.69238   MPKI: 0.50146
LLC LOAD INSTRUCTION	ACCESS:     207257  HIT:     206097  MISS:       1160  HIT %:    99.4403  MISS %:   0.559692  MPKI: 0.0232
LLC LOAD TRANSLATION INSTRUCTION	ACCESS:        363  HIT:        325  MISS:         38  HIT %:    89.5317  MISS %:    10.4683  MPKI: 0.00076
LLC LOAD DATA	ACCESS:      63627  HIT:      60295  MISS:       3332  HIT %:    94.7632  MISS %:    5.23677  MPKI: 0.06664
LLC RFO DATA	ACCESS:      43838  HIT:      32845  MISS:      10993  HIT %:    74.9236  MISS %:    25.0764  MPKI: 0.21986
LLC PREFETCH DATA	ACCESS:      61346  HIT:      52315  MISS:       9031  HIT %:    85.2786  MISS %:    14.7214  MPKI: 0.18062
LLC WRITEBACK DATA	ACCESS:      62711  HIT:      62297  MISS:        414  HIT %:    99.3398  MISS %:   0.660171  MPKI: 0.00828
LLC LOAD TRANSLATION DATA	ACCESS:       1308  HIT:       1203  MISS:        105  HIT %:    91.9725  MISS %:    8.02752  MPKI: 0.0021
LLC TRANSLATION FROM L1D PREFETCHER DATA	ACCESS:         16  HIT:         16  MISS:          0  HIT %:        100  MISS %:          0  MPKI: 0

LLC AVERAGE MISS LATENCY: 156.693 cycles
LLC RQ	ACCESS:     316435	FORWARD:          0	MERGED:          0	TO_CACHE:     316409
LLC WQ	ACCESS:      62711	FORWARD:         26	MERGED:          0	TO_CACHE:      62711
LLC PQ	ACCESS:      61346	FORWARD:          0	MERGED:          0	TO_CACHE:      61346

LLC Dense regions hint to LLC: 0

RAW hits: 1678207
Loads Generated: 12740642
Loads sent to L1D: 11062435
Stores Generated: 6957586
Stores sent to L1D: 6957598
Major fault: 0 Minor fault: 2555
Allocated PAGES: 2555

stream: 
stream:times selected: 1118096
stream:pref_filled: 113941
stream:pref_useful: 22535
stream:pref_late: 6431
stream:misses: 5975
stream:misses_by_poll: 0

CS: 
CS:times selected: 161935
CS:pref_filled: 56652
CS:pref_useful: 33252
CS:pref_late: 6233
CS:misses: 14577
CS:misses_by_poll: 4

CPLX: 
CPLX:times selected: 954955
CPLX:pref_filled: 18327
CPLX:pref_useful: 4054
CPLX:pref_late: 2990
CPLX:misses: 82461
CPLX:misses_by_poll: 1

NL_L1: 
NL:times selected: 22719
NL:pref_filled: 564
NL:pref_useful: 246
NL:pref_late: 194
NL:misses: 828
NL:misses_by_poll: 0

total selections: 2257705
total_filled: 80121
total_useful: 28304
total_late: 16945
total_polluted: 5
total_misses_after_warmup: 674396
conflicts: 5843323

test: 117785

DRAM Statistics
 CHANNEL 0
 RQ ROW_BUFFER_HIT:       8513  ROW_BUFFER_MISS:      16138
 DBUS_CONGESTED:          7
 WQ ROW_BUFFER_HIT:       1247  ROW_BUFFER_MISS:      10822  FULL:          0

 AVG_CONGESTED_CYCLE: 4

CPU 0 Branch Prediction Accuracy: 99.8142% MPKI: 0.34676 Average ROB Occupancy at Mispredict: 116.966
Branch types
NOT_BRANCH: 40668620 81.3372%
BRANCH_DIRECT_JUMP: 550522 1.10104%
BRANCH_INDIRECT: 180197 0.360394%
BRANCH_CONDITIONAL: 6211450 12.4229%
BRANCH_DIRECT_CALL: 1021694 2.04339%
BRANCH_INDIRECT_CALL: 172711 0.345422%
BRANCH_RETURN: 1194406 2.38881%
BRANCH_OTHER: 0 0%

DRAM PAGES: 1048576
Allocated PAGES: 2555
Average_ROB_Occupancy: 98.0915
Average_Decode_Occupancy: 12.4363
Average_FTQ_Occupancy: 5.77281
Indirect max targets: 14 Average targets: 1.17981
Branch_type:  BRANCH_DIRECT_JUMP:  Count Percentage: 3.51883 4.82301 3.34978 8.43137 8.25386 5.88989 4.57344 61.1598 
Branch_type:  BRANCH_INDIRECT:  Count Percentage: 11.0281 3.21185 2.31018 18.4055 12.4856 2.64284 2.97137 46.9446 
Branch_type:  BRANCH_CONDITIONAL:  Count Percentage: 20.0361 2.44915 2.24138 9.14932 3.02301 4.22902 1.15979 57.7122 
Branch_type:  BRANCH_DIRECT_CALL:  Count Percentage: 0.348109 1.64048 0.638573 3.69267 2.06227 2.53535 3.09631 85.9862 
Branch_type:  BRANCH_INDIRECT_CALL:  Count Percentage: 8.95544 0 2.80752 0.00465399 0 2.13705 3.14115 82.9542 
Branch_type:  BRANCH_RETURN:  Count Percentage: 3.57183 1.69715 0.92131 8.44241 4.76302 4.79477 2.32511 73.4844 
Branch_type:  BRANCH_DIRECT_JUMP:  Total Count: 38675 53009 36817 92668 90717 64735 50266 672199 
Branch_type:  BRANCH_INDIRECT:  Total Count: 40080 11673 8396 66892 45377 9605 10799 170613 
Branch_type:  BRANCH_CONDITIONAL:  Total Count: 2481525 303334 277601 1133168 374408 523776 143643 7147816 
Branch_type:  BRANCH_DIRECT_CALL:  Total Count: 6836 32215 12540 72515 40498 49788 60804 1688558 
Branch_type:  BRANCH_INDIRECT_CALL:  Total Count: 30788 0 9652 16 0 7347 10799 285189 
Branch_type:  BRANCH_RETURN:  Total Count: 82454 39178 21268 194889 109952 110685 53674 1696352 
Number of unique branch instructions: 10867
Upper 32 bits: 
aaaa
ffff
ffff0000
Unique upper 32 bits: 3
Unique upper 36 bits: 3
Unique upper 40 bits: 5
Unique upper 44 bits: 32
Unique upper 48 bits: 159
Offset_3 4515
Offset_4 261
Offset_5 485
Offset_6 540
Offset_7 646
Offset_8 581
Offset_9 534
Offset_10 424
Offset_11 361
Offset_12 324
Offset_13 237
Offset_14 249
Offset_15 194
Offset_16 229
Offset_17 173
Offset_18 153
Offset_19 265
Offset_20 140
Offset_21 235
Offset_22 415
Offset_23 241
Offset_24 352
Offset_25 118
Offset_47 96
Offset_64 2
decode_dispatch_called: 21396663 40.4888
Dispatch_width: 0 10706530 50.0383 20.2599
Dispatch_width: 1 735130 3.43572 1.39108
Dispatch_width: 2 801143 3.74424 1.516
Dispatch_width: 3 591788 2.7658 1.11984
Dispatch_width: 4 2553962 11.9363 4.83286
Dispatch_width: 5 377594 1.76473 0.71452
Dispatch_width: 6 5630516 26.3149 10.6546
Empty_decode_cycles: 31449153 59.5112
ROB_full_cycles: 3293283 6.23187
Starvation_cycles_per_kilo_instr: 439.22
Starvation_cycles_per_kilo_instr_3: 409.905
Starvation_cycles_per_kilo_instr_0: 388.624
Branch_type_1  (3,1)  (4,7)  (5,39)  (6,74)  (7,128)  (8,148)  (9,139)  (10,113)  (11,81)  (12,55)  (13,11)  (14,2)  (15,3)  (16,4)  (18,1)  (19,5)  (20,2)  (21,1)  (22,3)  (23,2)  (24,10)  (25,13)  (64,1) 
Branch_type_2  (3,1)  (4,1)  (5,1)  (8,4)  (9,4)  (10,1)  (12,1)  (13,1)  (14,1)  (16,3)  (17,2)  (20,2)  (21,2)  (23,5)  (24,1)  (47,44) 
Branch_type_3  (3,4513)  (4,253)  (5,441)  (6,450)  (7,488)  (8,364)  (9,295)  (10,170)  (11,140)  (12,62)  (13,10) 
Branch_type_4  (6,3)  (7,8)  (8,25)  (9,55)  (10,67)  (11,71)  (12,114)  (13,101)  (14,111)  (15,92)  (16,101)  (17,82)  (18,67)  (19,129)  (20,71)  (21,124)  (22,220)  (23,136)  (24,208)  (25,101) 
Branch_type_5  (8,3)  (9,1)  (10,4)  (11,6)  (12,3)  (13,14)  (14,17)  (15,11)  (16,22)  (17,11)  (18,23)  (19,15)  (20,11)  (21,13)  (22,43)  (23,26)  (24,37) 
Branch_type_6  (5,4)  (6,13)  (7,22)  (8,37)  (9,40)  (10,69)  (11,63)  (12,89)  (13,100)  (14,118)  (15,88)  (16,99)  (17,78)  (18,62)  (19,116)  (20,54)  (21,95)  (22,149)  (23,72)  (24,96)  (25,4)  (47,52)  (64,1) 
Unique trigger count: 
BTB PER SET UNIQUE ADDR: 23 26 21 28 27 26 17 28 14 25 21 30 27 20 24 17 22 23 23 26 26 23 24 29 19 25 24 26 25 23 23 24 28 15 17 23 24 25 14 19 21 23 27 28 20 14 28 17 26 22 30 19 25 27 23 14 22 19 19 27 23 33 26 24 24 25 24 15 30 25 22 23 29 18 20 16 15 25 20 32 25 15 24 30 27 25 26 22 18 41 20 15 26 21 13 28 22 20 28 27 35 30 25 19 23 21 22 24 14 21 21 34 26 20 22 14 28 28 26 22 24 20 21 17 25 21 13 26 32 21 20 30 23 30 20 33 15 27 23 31 21 28 23 25 25 23 27 20 15 23 25 27 16 21 18 30 26 28 26 25 27 22 30 32 21 25 26 18 30 20 23 28 24 24 24 22 22 22 21 25 18 22 21 31 35 31 17 25 28 20 24 18 17 29 25 16 17 25 21 22 29 26 19 21 18 22 23 24 21 25 22 30 22 21 24 26 21 27 18 36 15 29 17 25 21 28 31 27 18 33 22 13 24 30 19 27 27 20 21 18 23 23 30 28 20 23 20 22 25 23 30 28 26 19 27 26 19 19 21 22 25 18 10 22 22 14 20 21 24 22 20 26 18 14 16 18 26 28 22 25 16 24 20 20 26 19 19 33 32 27 25 19 24 28 16 30 24 28 28 24 22 23 20 39 23 28 25 23 34 25 22 29 22 37 29 14 28 23 21 29 20 30 18 22 27 28 24 18 23 17 22 33 19 22 22 28 18 20 19 38 23 24 15 25 25 26 20 23 23 22 25 24 28 23 21 29 24 27 20 17 19 29 21 35 25 26 16 23 27 22 25 18 22 27 18 32 24 28 22 25 25 24 18 18 20 24 30 34 26 24 31 16 28 30 18 17 20 19 31 26 20 26 24 24 28 28 27 27 22 23 27 20 17 29 22 23 23 31 38 31 20 25 24 26 31 20 28 19 26 23 32 23 21 23 30 29 27 20 22 26 27 19 23 30 33 19 17 25 29 26 26 38 26 18 29 33 26 29 19 30 19 22 20 27 33 20 23 25 27 26 24 30 27 25 24 36 26 34 18 24 33 28 20 26 17 27 35 33 29 24 22 27 19 19 18 20 30 28 21 27 23 34 19 35 23 21 20 32 29 28 25 33 25 23 23 27 23 32 17 18 19 23 27 18 24 34 37 15 15 34 27 28 24 23 26 32 22 25 27 24 26 21 26 25 30 32 14 28 18 22 23 33 24 24 19 24 23 23 31 26 23 34 22 28 26 29 22 32 25 30 28 25 32 37 22 28 27 30 23 26 29 27 17 25 24 26 21 26 35 29 21 22 25 16 27 18 15 24 28 22 27 21 23 14 27 25 33 22 22 26 32 25 21 16 10 31 19 29 21 29 32 27 17 20 21 31 19 33 18 25 21 28 31 25 25 22 26 29 22 26 22 26 26 34 27 26 21 25 34 23 17 23 21 21 30 24 25 24 29 23 23 14 25 31 23 26 18 22 19 20 27 22 22 26 33 22 27 26 28 32 22 30 23 27 25 23 22 26 25 31 23 24 24 16 16 23 17 27 19 27 16 26 27 35 13 29 24 18 19 15 24 26 18 25 19 21 34 25 20 32 25 25 21 22 19 22 27 24 22 19 24 21 23 20 23 29 27 32 37 23 22 21 21 26 36 30 23 23 23 19 24 20 25 24 21 23 33 22 20 20 26 15 13 24 25 29 17 24 24 29 24 30 22 19 25 17 30 24 23 30 17 25 23 21 25 23 20 26 21 15 17 14 29 26 20 31 23 20 25 24 39 25 32 28 34 21 25 22 24 20 20 35 30 29 19 25 37 32 13 28 27 33 19 27 27 22 19 29 26 27 25 29 28 23 20 28 27 24 26 22 26 24 22 26 28 27 22 37 23 27 24 21 18 24 31 31 34 29 29 28 25 26 19 28 29 17 24 18 32 19 21 30 26 23 23 15 23 21 19 23 32 15 20 30 25 27 32 21 25 21 24 19 22 23 23 31 31 23 22 21 22 23 21 25 16 29 24 27 23 34 19 26 23 26 26 29 37 22 26 26 27 27 18 25 20 19 15 31 20 18 30 33 29 19 20 32 23 21 27 28 18 30 23 25 25 24 26 28 24 27 23 24 19 25 20 26 26 24 27 26 25 27 23 32 30 25 30 26 21 27 24 27 28 21 27 22 35 30 30 35 21 29 26 27 21 31 39 18 29 27 27 27 24 24 23 19 23 24 31 22 31 31 20 24 27 27 17 33 21 28 26 27 27 18 18 22 15 19 13 14 20 31 23 16 
BTB PER SET COUNT: 2191 2299 2649 1984 2633 1930 1769 1688 1607 2006 1204 2528 12639 1725 1704 1058 2059 2190 1525 2030 1770 1617 2063 2029 1041 1867 2117 1830 2088 1790 1784 2448 1935 822 1087 1791 1806 2132 1034 2147 1382 1565 2366 2156 1728 620 2090 1399 2054 1621 2375 1291 1936 2094 1622 863 1484 1458 1314 1992 1589 2910 1948 1864 2270 2003 1608 1419 2072 1845 2240 1954 2446 1411 1218 827 833 2145 1439 2477 2355 986 1849 2446 2012 1826 2126 2092 1593 3648 1395 1285 2098 1818 812 1941 1391 1436 2086 3561 3464 2527 1991 1573 3237 1237 1594 2163 1368 3186 1783 2799 2229 1510 1564 1130 2001 2146 2399 1938 2000 1312 1513 1032 1769 1503 762 2527 3178 1615 1320 2837 1403 2265 1583 2095 1303 2200 1567 2667 1591 2057 1583 1740 1756 1615 2385 1386 974 1735 1668 1880 1329 1566 871 2776 2381 2067 2180 2316 1823 1762 2415 2154 1512 2128 1842 1382 2220 1468 1496 2114 1891 1672 1918 1845 1677 1547 1639 2246 1453 1870 1661 2019 2768 3017 1004 1799 2172 2175 1636 1219 1020 2533 1900 1201 1236 1721 1513 1427 1905 1905 1723 1447 1050 1768 1656 1687 1788 2255 1384 2116 1244 3758 1841 2253 1587 2273 1557 3252 986 1878 1253 1652 1580 2004 2610 2046 1259 2981 1463 581 1737 2136 1288 6414 2115 1533 2124 1033 1687 1846 2807 2418 1650 1887 1265 1763 1961 1453 1767 1983 2001 1447 1873 2293 1440 1330 1252 1581 1962 1348 344 1684 1927 756 1693 1376 2297 1750 1523 1717 1096 916 1374 1114 2001 2325 1730 1859 923 2082 1377 1774 1853 1480 1225 2565 2826 2155 1824 1164 1829 2322 1017 2591 2207 2045 1615 1948 1466 1481 1792 2827 1889 2651 1782 1625 2689 2148 2441 2087 1346 2916 2803 1401 2448 1678 1587 2520 1518 3070 1003 1582 2378 2251 2108 1233 1606 991 1637 2694 1227 1385 1755 1561 1203 1575 1017 3323 1822 2846 1158 1882 2206 1772 1421 1644 1646 1940 1965 1682 2349 1660 1575 2373 2088 2446 1467 1205 1278 2664 1416 2489 1819 2809 640 1631 1719 1406 1948 1235 2168 2157 1124 2628 1768 2228 1606 2368 2213 1995 1480 865 1068 1587 2826 2299 2013 2052 2040 882 2101 2280 1279 1199 1301 1455 2690 2095 1557 1927 1954 1426 2031 2076 1974 2081 1356 1948 1919 1292 1324 2466 1439 1782 1654 3926 3089 2481 1321 1956 2284 1754 2170 1689 2522 1278 1661 1854 2568 1939 1322 1576 2495 2138 1701 1524 1666 1768 2577 1421 1367 2611 2822 1726 1258 1875 2235 1745 2178 3680 1726 1482 2362 2978 1798 2327 1282 2071 1239 1699 1413 2252 2556 1632 7033 1757 2269 1960 1960 1934 1797 1621 1898 2766 1748 3047 1155 1689 2495 2207 1472 2067 1412 1791 3138 2402 2485 1634 1636 2071 4100 1055 998 1634 2451 2617 1573 2041 1413 2597 1328 3121 1457 1196 1205 2627 2559 1928 1772 3002 2562 2306 1570 2394 1351 2626 1117 1248 839 1773 2150 1203 1750 2807 3198 2052 1000 4015 2888 1931 1842 1671 2315 2323 2143 2153 1837 1816 2137 1493 2284 1969 2122 2507 1000 2114 1090 2145 1745 2575 2069 2061 1264 1279 1816 1708 2259 1937 1213 2696 1569 1897 2161 2436 1638 2129 1690 2484 2480 2080 2863 2839 1811 2473 2474 2475 1711 1752 2227 2082 912 2742 1990 2193 1672 1896 2874 2522 1837 1677 2081 980 1794 1193 1880 2085 1824 1349 1258 1688 1727 913 1939 2091 2403 2516 1285 1598 2649 2342 2125 1103 680 2453 997 2239 1976 2298 2688 1631 950 1349 1459 2834 1528 2419 1973 1804 1606 2898 2895 1693 1746 1616 2193 2426 1526 2149 2010 2088 2349 2501 2840 2091 1296 2187 3397 1138 1020 2118 1125 1660 3038 1835 1439 1636 2178 1872 1950 627 2243 2592 4833 2431 1279 1782 2203 1586 1612 1622 1353 2137 2811 1913 1946 2500 2192 2749 1774 2377 1833 2154 2494 1954 1720 1926 2219 2256 1583 2341 2053 869 1353 1667 1648 2269 1447 1814 1412 2190 2256 2660 751 2159 1719 1348 1081 1012 1789 2044 1151 1760 1533 1453 2989 1983 1404 2427 2143 2322 1485 1738 1669 1575 1600 2216 1585 1794 2082 5357 1607 1653 1680 1945 2212 2917 3463 1640 1681 1297 1823 2166 2740 2485 2143 1663 1775 1459 2419 1327 2393 1806 1232 1866 2480 1964 1669 1110 1975 978 718 1694 2479 2704 1205 1874 1144 2011 1714 2339 1624 1339 2045 1257 2136 1717 1507 2520 1609 2075 1761 1535 1790 1813 1258 2151 1373 994 1197 1433 2036 2277 1521 2544 1554 1226 1693 2035 3096 1843 2501 2313 2681 1484 1784 1870 1759 1445 1350 4914 2503 2235 1627 2660 2481 3115 1090 2686 1688 2581 1201 2278 2461 1786 1382 1949 2067 2536 1886 2901 1972 1952 1100 2629 1796 1860 2274 1657 2304 1824 1962 1828 2083 2019 1618 3060 1420 4149 2436 1793 1404 1583 2550 2303 2638 2267 2447 1902 2338 2028 1548 2000 2684 1173 1761 923 2604 1381 1561 2646 2190 1575 1807 871 1532 1974 2336 1846 2025 859 1433 2685 2081 2173 2282 1852 1695 1804 2169 1044 2742 2457 1418 2321 2660 1559 1538 1445 2060 1564 1601 2102 770 2214 1484 2554 1603 2586 1618 1784 1801 2153 2412 2141 3249 1849 1865 1934 1951 1994 1222 2263 1352 1607 598 2485 1143 1171 2091 2585 2813 1383 1594 3070 1856 1457 2334 2149 1282 2971 1973 1457 1792 1978 1571 2258 2147 2071 2053 2209 1833 3157 1649 1959 2173 1644 1814 1994 1867 2053 1576 2464 2363 1367 2597 2086 1373 1994 1858 2596 2275 1586 2503 1420 3169 2171 2619 3122 1825 2159 2166 1992 1378 3169 3939 1295 2392 1963 2029 2509 1705 1889 2232 1688 1331 2195 2104 1993 2403 2893 1533 1687 2104 1987 1443 2888 1571 2193 2337 2160 2109 1268 1346 1656 906 1460 522 1144 1479 2799 1961 1023 
