
*** ChampSim Multicore Out-of-Order Simulator ***

Warmup Instructions: 50000000
Simulation Instructions: 50000000
Number of CPUs: 1
LLC sets: 2048
LLC ways: 16
Off-chip DRAM Size: 4096 MB Channels: 1 Width: 64-bit Data Rate: 6400 MT/s
CPU 0 runs ./micro_traces/srv307.trace.gz
.gz
ITLB has LRU replacement policy
DTLB has LRU replacement policy
STLB has LRU replacement policy
FDIP Prefetcher at L1I
L1I has LRU replacement policy
L1D has LRU replacement policy
Initialize SRRIP state for L2C
Initialize DRRIP state for LLC
Heartbeat CPU 0 instructions: 10000002 cycles: 2797445 heartbeat IPC: 3.57469 cumulative IPC: 3.57469 (Simulation time: 0 hr 2 min 11 sec) 
Heartbeat CPU 0 instructions: 20000003 cycles: 5593836 heartbeat IPC: 3.57604 cumulative IPC: 3.57536 (Simulation time: 0 hr 4 min 14 sec) 
Heartbeat CPU 0 instructions: 30000003 cycles: 8391893 heartbeat IPC: 3.57391 cumulative IPC: 3.57488 (Simulation time: 0 hr 6 min 15 sec) 
Heartbeat CPU 0 instructions: 40000003 cycles: 11188932 heartbeat IPC: 3.57521 cumulative IPC: 3.57496 (Simulation time: 0 hr 8 min 28 sec) 
Heartbeat CPU 0 instructions: 50000002 cycles: 13985855 heartbeat IPC: 3.57536 cumulative IPC: 3.57504 (Simulation time: 0 hr 10 min 31 sec) 

Warmup complete CPU 0 instructions: 50000002 cycles: 13985855 (Simulation time: 0 hr 10 min 31 sec) 

Cycle: 20000000 FTQ IN: 57638546 FTQ occupancy: 19.2233 DECODE IN: 57638546 DECODE occupancy: 49.4793 ROB IN: 57638546 ROB occupancy: 299.835 ROB OUT: 57638372
Heartbeat CPU 0 instructions: 60000002 cycles: 21816730 heartbeat IPC: 1.277 cumulative IPC: 1.277 (Simulation time: 0 hr 12 min 43 sec) 
Heartbeat CPU 0 instructions: 70000002 cycles: 29497070 heartbeat IPC: 1.30203 cumulative IPC: 1.28939 (Simulation time: 0 hr 14 min 57 sec) 
Cycle: 30000000 FTQ IN: 13019261 FTQ occupancy: 10.3914 DECODE IN: 13019261 DECODE occupancy: 25.1308 ROB IN: 13019261 ROB occupancy: 190.889 ROB OUT: 13019311
Heartbeat CPU 0 instructions: 80000000 cycles: 37278622 heartbeat IPC: 1.28509 cumulative IPC: 1.28795 (Simulation time: 0 hr 17 min 3 sec) 
Cycle: 40000000 FTQ IN: 12652563 FTQ occupancy: 10.3652 DECODE IN: 12652456 DECODE occupancy: 24.6988 ROB IN: 12652456 ROB occupancy: 185.014 ROB OUT: 12652457
Heartbeat CPU 0 instructions: 90000003 cycles: 45153521 heartbeat IPC: 1.26986 cumulative IPC: 1.28338 (Simulation time: 0 hr 19 min 24 sec) 
Cycle: 50000000 FTQ IN: 12965112 FTQ occupancy: 10.3457 DECODE IN: 12965198 DECODE occupancy: 24.9375 ROB IN: 12965190 ROB occupancy: 187.689 ROB OUT: 12965101
*** Reached end of trace for Core: 0 Repeating trace: ./micro_traces/srv307.trace.gz
Heartbeat CPU 0 instructions: 100000000 cycles: 52865041 heartbeat IPC: 1.29676 cumulative IPC: 1.28604 (Simulation time: 0 hr 21 min 13 sec) 
Finished CPU 0 instructions: 50000001 cycles: 38879187 cumulative IPC: 1.28604 (Simulation time: 0 hr 21 min 13 sec) 

ChampSim completed all CPUs

Region of Interest Statistics

CPU 0 cumulative IPC: 1.28604 instructions: 50000001 cycles: 38879187
 Fetch stage stalled: 60.1858  Sim cycles: 38879187 fetch stall cycle: 23399746
 Empty decode stage: 45.6829  Sim cycles: 38879187 fetch stall cycle: 17761129
ITLB TOTAL     ACCESS:    5678245  HIT:    5186327  MISS:     491918  HIT %:    91.3368  MISS %:     8.6632   MPKI: 9.83836
ITLB LOAD TRANSLATION INSTRUCTION	ACCESS:    5552707  HIT:    5060789  MISS:     491918  HIT %:    91.1409  MISS %:    8.85907  MPKI: 9.83836
ITLB TRANSLATION FROM L1D PREFETCHER INSTRUCTION	ACCESS:     125538  HIT:     125538  MISS:          0  HIT %:        100  MISS %:          0  MPKI: 0

ITLB AVERAGE MISS LATENCY: 9.0602 cycles
ITLB RQ	ACCESS:    7644960	FORWARD:          0	MERGED:    1475972	TO_CACHE:    6168988

DTLB TOTAL     ACCESS:    9084150  HIT:    8614317  MISS:     469833  HIT %:     94.828  MISS %:    5.17201   MPKI: 9.39666
DTLB LOAD TRANSLATION DATA	ACCESS:    9084150  HIT:    8614317  MISS:     469833  HIT %:     94.828  MISS %:    5.17201  MPKI: 9.39666

DTLB AVERAGE MISS LATENCY: 9.34198 cycles
DTLB RQ	ACCESS:   13425185	FORWARD:          0	MERGED:    4304612	TO_CACHE:    9120573

STLB TOTAL     ACCESS:    1211744  HIT:    1209654  MISS:       2090  HIT %:    99.8275  MISS %:   0.172479   MPKI: 0.0418
STLB LOAD TRANSLATION INSTRUCTION	ACCESS:     491917  HIT:     491649  MISS:        268  HIT %:    99.9455  MISS %:  0.0544807  MPKI: 0.00536
STLB LOAD TRANSLATION DATA	ACCESS:     469613  HIT:     467817  MISS:       1796  HIT %:    99.6176  MISS %:   0.382443  MPKI: 0.03592
STLB TRANSLATION FROM L1D PREFETCHER DATA	ACCESS:     250214  HIT:     250188  MISS:         26  HIT %:    99.9896  MISS %:  0.0103911  MPKI: 0.00052

STLB AVERAGE MISS LATENCY: 78.1167 cycles
STLB RQ	ACCESS:    1333328	FORWARD:          0	MERGED:     121543	TO_CACHE:    1211785

STLB Hit, L1D data hit: 0
STLB Hit, L2C data hit: 0
STLB Hit, LLC data hit: 0
STLB Hit, LLC data miss: 0
STLB STLB hints to L2: 0
L1D TOTAL     ACCESS:   13181508  HIT:   12068802  MISS:    1112706  HIT %:    91.5586  MISS %:    8.44142   MPKI: 22.2541
L1D LOAD DATA	ACCESS:    6635786  HIT:    5902074  MISS:     733712  HIT %:    88.9431  MISS %:    11.0569  MPKI: 14.6742
L1D RFO DATA	ACCESS:    6214934  HIT:    5929493  MISS:     285441  HIT %:    95.4072  MISS %:    4.59282  MPKI: 5.70882
L1D PREFETCH DATA	ACCESS:     330788  HIT:     237235  MISS:      93553  HIT %:    71.7181  MISS %:    28.2819  MPKI: 1.87106

L1D PREFETCH  REQUESTED:     743452  ISSUED:     743452  USEFUL:      33875  USELESS:      67670
L1D USEFUL LOAD PREFETCHES:      33875 PREFETCH ISSUED TO LOWER LEVEL:     101654  ACCURACY: 33.3238
 TIMELY PREFETCHES:      33875 LATE PREFETCHES: 8023 DROPPED PREFETCHES: 10
L1D AVERAGE MISS LATENCY: 235967 cycles
L1D RQ	ACCESS:   10752565	FORWARD:          0	MERGED:    3916100	TO_CACHE:    6670657
L1D WQ	ACCESS:    6943592	FORWARD:     166106	MERGED:     189064	TO_CACHE:    6754528
L1D PQ	ACCESS:     371875	FORWARD:          0	MERGED:          0	TO_CACHE:     371577

L1D UNIQUE REGIONS ACCESSED: 0
L1D REGIONS CONFLICTS: 0
L1D Cross Page Prefetch Requests: 6953
L1D Same Page Prefetch Requests: 752788
L1D ROI Sum of L1D PQ occupancy: 4725221
L1D PREFETCHES PUSHED FROM L2C: 0
L1I TOTAL     ACCESS:    6993617  HIT:    4238938  MISS:    2754679  HIT %:    60.6115  MISS %:    39.3885   MPKI: 55.0936
L1I LOAD INSTRUCTION	ACCESS:    6406413  HIT:    3651734  MISS:    2754679  HIT %:    57.0012  MISS %:    42.9988  MPKI: 55.0936
L1I PREFETCH INSTRUCTION	ACCESS:     587204  HIT:     587204  MISS:          0  HIT %:        100  MISS %:          0  MPKI: 0

L1I PREFETCH  REQUESTED:    1365045  ISSUED:    1365045  USEFUL:          0  USELESS:          0
L1I USEFUL LOAD PREFETCHES:          0 PREFETCH ISSUED TO LOWER LEVEL:          0  ACCURACY: -nan
 TIMELY PREFETCHES:          0 LATE PREFETCHES: 0 DROPPED PREFETCHES: 0
L1I AVERAGE MISS LATENCY: 17.3515 cycles
L1I RQ	ACCESS:    9499824	FORWARD:          0	MERGED:    2833662	TO_CACHE:    6666162
L1I PQ	ACCESS:    1365045	FORWARD:          0	MERGED:     386247	TO_CACHE:     978798

L1BTB TOTAL     ACCESS:    5670181  HIT:    2051539  MISS:    3618642  HIT %:    36.1812  MISS %:    63.8188   MPKI: 72.3728
L1BTB BRANCH_DIRECT_JUMP	ACCESS:     548687 HIT:     145651 MISS:     403036 AVERAGE STALL: 42.3137 AVERAGE FETCH STALL: 19.171 AVERAGE FETCH QUEUE STALL: 10.9811 AVERAGE DECODE STALL: 11.3249 AVERAGE EXECUTE STALL: 6.19143e+14
L1BTB BRANCH_INDIRECT	ACCESS:     183413 HIT:      66309 MISS:     117104 AVERAGE STALL: 101.222 AVERAGE FETCH STALL: 13.5926 AVERAGE FETCH QUEUE STALL: 12.5399 AVERAGE DECODE STALL: 10.9543 AVERAGE EXECUTE STALL: 63.1969
L1BTB BRANCH_CONDITIONAL	ACCESS:    2714088 HIT:    1424819 MISS:    1289269 AVERAGE STALL: 46.3978 AVERAGE FETCH STALL: 22.9972 AVERAGE FETCH QUEUE STALL: 12.5936 AVERAGE DECODE STALL: 10.0483 AVERAGE EXECUTE STALL: 2.54666e+14
L1BTB BRANCH_DIRECT_CALL	ACCESS:     941312 HIT:     104658 MISS:     836654 AVERAGE STALL: 44.1752 AVERAGE FETCH STALL: 21.9016 AVERAGE FETCH QUEUE STALL: 11.7537 AVERAGE DECODE STALL: 9.77658 AVERAGE EXECUTE STALL: 3.44573e+14
L1BTB BRANCH_INDIRECT_CALL	ACCESS:     170683 HIT:      20678 MISS:     150005 AVERAGE STALL: 125.124 AVERAGE FETCH STALL: 14.738 AVERAGE FETCH QUEUE STALL: 11.9391 AVERAGE DECODE STALL: 8.64926 AVERAGE EXECUTE STALL: 89.2745
L1BTB BRANCH_RETURN	ACCESS:    1111998 HIT:     289424 MISS:     822574 AVERAGE STALL: 43.2098 AVERAGE FETCH STALL: 18.4753 AVERAGE FETCH QUEUE STALL: 7.0711 AVERAGE DECODE STALL: 6.44306 AVERAGE EXECUTE STALL: 2.65432e+14
L1BTB BRANCH_OTHER ACCESS:          0 HIT:          0 MISS:          0 AVERAGE STALL: -nan AVERAGE FETCH STALL: -nan AVERAGE FETCH QUEUE STALL: -nan AVERAGE DECODE STALL: -nan AVERAGE EXECUTE STALL: -nan
L1BTB TOTAL ROB OCCUPANCY AT BTB MISS: 9.51414

L2BTB TOTAL     ACCESS:    3593161  HIT:    3352725  MISS:     240436  HIT %:    93.3085  MISS %:    6.69149   MPKI: 4.80872
L2BTB BRANCH_DIRECT_JUMP	ACCESS:     398812 HIT:     373183 MISS:      25629 AVERAGE STALL: 42.3137 AVERAGE FETCH STALL: 19.171 AVERAGE FETCH QUEUE STALL: 10.9811 AVERAGE DECODE STALL: 11.3249 AVERAGE EXECUTE STALL: 6.19143e+14
L2BTB BRANCH_INDIRECT	ACCESS:     106840 HIT:     102188 MISS:       4652 AVERAGE STALL: 101.222 AVERAGE FETCH STALL: 13.5926 AVERAGE FETCH QUEUE STALL: 12.5399 AVERAGE DECODE STALL: 10.9543 AVERAGE EXECUTE STALL: 63.1969
L2BTB BRANCH_CONDITIONAL	ACCESS:    1289269 HIT:    1216320 MISS:      72949 AVERAGE STALL: 46.3978 AVERAGE FETCH STALL: 22.9972 AVERAGE FETCH QUEUE STALL: 12.5936 AVERAGE DECODE STALL: 10.0483 AVERAGE EXECUTE STALL: 2.54666e+14
L2BTB BRANCH_DIRECT_CALL	ACCESS:     836654 HIT:     783035 MISS:      53619 AVERAGE STALL: 44.1752 AVERAGE FETCH STALL: 21.9016 AVERAGE FETCH QUEUE STALL: 11.7537 AVERAGE DECODE STALL: 9.77658 AVERAGE EXECUTE STALL: 3.44573e+14
L2BTB BRANCH_INDIRECT_CALL	ACCESS:     140406 HIT:     124988 MISS:      15418 AVERAGE STALL: 125.124 AVERAGE FETCH STALL: 14.738 AVERAGE FETCH QUEUE STALL: 11.9391 AVERAGE DECODE STALL: 8.64926 AVERAGE EXECUTE STALL: 89.2745
L2BTB BRANCH_RETURN	ACCESS:     821180 HIT:     753011 MISS:      68169 AVERAGE STALL: 43.2098 AVERAGE FETCH STALL: 18.4753 AVERAGE FETCH QUEUE STALL: 7.0711 AVERAGE DECODE STALL: 6.44306 AVERAGE EXECUTE STALL: 2.65432e+14
L2BTB BRANCH_OTHER ACCESS:          0 HIT:          0 MISS:          0 AVERAGE STALL: -nan AVERAGE FETCH STALL: -nan AVERAGE FETCH QUEUE STALL: -nan AVERAGE DECODE STALL: -nan AVERAGE EXECUTE STALL: -nan
L2BTB TOTAL ROB OCCUPANCY AT BTB MISS: 143.191

L2C TOTAL     ACCESS:    4485835  HIT:    3972935  MISS:     512900  HIT %:    88.5662  MISS %:    11.4338   MPKI: 10.258
L2C LOAD INSTRUCTION	ACCESS:    2754679  HIT:    2489756  MISS:     264923  HIT %:    90.3828  MISS %:     9.6172  MPKI: 5.29846
L2C LOAD TRANSLATION INSTRUCTION	ACCESS:        306  HIT:         66  MISS:        240  HIT %:    21.5686  MISS %:    78.4314  MPKI: 0.0048
L2C LOAD DATA	ACCESS:     725675  HIT:     635304  MISS:      90371  HIT %:    87.5466  MISS %:    12.4534  MPKI: 1.80742
L2C RFO DATA	ACCESS:     285337  HIT:     227845  MISS:      57492  HIT %:    79.8512  MISS %:    20.1488  MPKI: 1.14984
L2C PREFETCH DATA	ACCESS:     197991  HIT:     118361  MISS:      79630  HIT %:     59.781  MISS %:     40.219  MPKI: 1.5926
L2C WRITEBACK DATA	ACCESS:     519930  HIT:     501060  MISS:      18870  HIT %:    96.3707  MISS %:    3.62933  MPKI: 0.3774
L2C LOAD TRANSLATION DATA	ACCESS:       1863  HIT:        508  MISS:       1355  HIT %:    27.2678  MISS %:    72.7322  MPKI: 0.0271
L2C TRANSLATION FROM L1D PREFETCHER DATA	ACCESS:         54  HIT:         35  MISS:         19  HIT %:    64.8148  MISS %:    35.1852  MPKI: 0.00038

L2C PREFETCH  REQUESTED:     104926  ISSUED:     104926  USEFUL:       9317  USELESS:      71078
L2C USEFUL LOAD PREFETCHES:       9317 PREFETCH ISSUED TO LOWER LEVEL:      80264  ACCURACY: 11.6079
 TIMELY PREFETCHES:       9317 LATE PREFETCHES: 634 DROPPED PREFETCHES: 0
L2C AVERAGE MISS LATENCY: 38.0048 cycles
L2C RQ	ACCESS:    3767959	FORWARD:          0	MERGED:          0	TO_CACHE:    3767919
L2C WQ	ACCESS:     519930	FORWARD:         40	MERGED:          0	TO_CACHE:     519930
L2C PQ	ACCESS:     206580	FORWARD:          0	MERGED:       3569	TO_CACHE:     203011

L2C Dense regions hint from L2: 0
PSCL5 TOTAL     ACCESS:       4206  HIT:       2103  MISS:       2103  HIT %:         50  MISS %:         50   MPKI: 0.04206
PSCL5 LOAD TRANSLATION INSTRUCTION	ACCESS:       4100  HIT:       2050  MISS:       2050  HIT %:         50  MISS %:         50  MPKI: 0.041
PSCL5 TRANSLATION FROM L1D PREFETCHER INSTRUCTION	ACCESS:        106  HIT:         53  MISS:         53  HIT %:         50  MISS %:         50  MPKI: 0.00106


PSCL4 TOTAL     ACCESS:       3973  HIT:       1982  MISS:       1991  HIT %:    49.8867  MISS %:    50.1133   MPKI: 0.03982
PSCL4 LOAD TRANSLATION INSTRUCTION	ACCESS:       3558  HIT:       1936  MISS:       1622  HIT %:    54.4126  MISS %:    45.5874  MPKI: 0.03244
PSCL4 TRANSLATION FROM L1D PREFETCHER INSTRUCTION	ACCESS:         91  HIT:         46  MISS:         45  HIT %:    50.5495  MISS %:    49.4505  MPKI: 0.0009
PSCL4 LOAD TRANSLATION DATA	ACCESS:        323  HIT:          0  MISS:        323  HIT %:          0  MISS %:        100  MPKI: 0.00646
PSCL4 TRANSLATION FROM L1D PREFETCHER DATA	ACCESS:          1  HIT:          0  MISS:          1  HIT %:          0  MISS %:        100  MPKI: 2e-05


PSCL3 TOTAL     ACCESS:       4035  HIT:       2013  MISS:       2022  HIT %:    49.8885  MISS %:    50.1115   MPKI: 0.04044
PSCL3 LOAD TRANSLATION INSTRUCTION	ACCESS:       3589  HIT:       1967  MISS:       1622  HIT %:    54.8064  MISS %:    45.1936  MPKI: 0.03244
PSCL3 TRANSLATION FROM L1D PREFETCHER INSTRUCTION	ACCESS:         91  HIT:         46  MISS:         45  HIT %:    50.5495  MISS %:    49.4505  MPKI: 0.0009
PSCL3 LOAD TRANSLATION DATA	ACCESS:        354  HIT:          0  MISS:        354  HIT %:          0  MISS %:        100  MPKI: 0.00708
PSCL3 TRANSLATION FROM L1D PREFETCHER DATA	ACCESS:          1  HIT:          0  MISS:          1  HIT %:          0  MISS %:        100  MPKI: 2e-05


PSCL2 TOTAL     ACCESS:       4096  HIT:       1995  MISS:       2101  HIT %:    48.7061  MISS %:    51.2939   MPKI: 0.04202
PSCL2 LOAD TRANSLATION INSTRUCTION	ACCESS:       2220  HIT:       1943  MISS:        277  HIT %:    87.5225  MISS %:    12.4775  MPKI: 0.00554
PSCL2 TRANSLATION FROM L1D PREFETCHER INSTRUCTION	ACCESS:         52  HIT:         52  MISS:          0  HIT %:        100  MISS %:          0  MPKI: 0
PSCL2 LOAD TRANSLATION DATA	ACCESS:       1772  HIT:          0  MISS:       1772  HIT %:          0  MISS %:        100  MPKI: 0.03544
PSCL2 TRANSLATION FROM L1D PREFETCHER DATA	ACCESS:         52  HIT:          0  MISS:         52  HIT %:          0  MISS %:        100  MPKI: 0.00104


LLC TOTAL     ACCESS:     579337  HIT:     549839  MISS:      29498  HIT %:    94.9083  MISS %:    5.09168   MPKI: 0.58996
LLC LOAD INSTRUCTION	ACCESS:     264923  HIT:     263615  MISS:       1308  HIT %:    99.5063  MISS %:   0.493728  MPKI: 0.02616
LLC LOAD TRANSLATION INSTRUCTION	ACCESS:        240  HIT:        199  MISS:         41  HIT %:    82.9167  MISS %:    17.0833  MPKI: 0.00082
LLC LOAD DATA	ACCESS:      89776  HIT:      86120  MISS:       3656  HIT %:    95.9276  MISS %:    4.07236  MPKI: 0.07312
LLC RFO DATA	ACCESS:      57450  HIT:      43334  MISS:      14116  HIT %:    75.4291  MISS %:    24.5709  MPKI: 0.28232
LLC PREFETCH DATA	ACCESS:      80263  HIT:      70347  MISS:       9916  HIT %:    87.6456  MISS %:    12.3544  MPKI: 0.19832
LLC WRITEBACK DATA	ACCESS:      85311  HIT:      84963  MISS:        348  HIT %:    99.5921  MISS %:   0.407919  MPKI: 0.00696
LLC LOAD TRANSLATION DATA	ACCESS:       1355  HIT:       1245  MISS:        110  HIT %:    91.8819  MISS %:    8.11808  MPKI: 0.0022
LLC TRANSLATION FROM L1D PREFETCHER DATA	ACCESS:         19  HIT:         16  MISS:          3  HIT %:    84.2105  MISS %:    15.7895  MPKI: 6e-05

LLC AVERAGE MISS LATENCY: 156.797 cycles
LLC RQ	ACCESS:     413767	FORWARD:          0	MERGED:          0	TO_CACHE:     413764
LLC WQ	ACCESS:      85311	FORWARD:          4	MERGED:          0	TO_CACHE:      85311
LLC PQ	ACCESS:      80264	FORWARD:          0	MERGED:          0	TO_CACHE:      80263

LLC Dense regions hint to LLC: 0

RAW hits: 1884842
Loads Generated: 12637409
Loads sent to L1D: 10752565
Stores Generated: 6943578
Stores sent to L1D: 6943592
Major fault: 0 Minor fault: 2597
Allocated PAGES: 2597

stream: 
stream:times selected: 1189247
stream:pref_filled: 121264
stream:pref_useful: 24068
stream:pref_late: 6909
stream:misses: 8180
stream:misses_by_poll: 0

CS: 
CS:times selected: 178900
CS:pref_filled: 58657
CS:pref_useful: 35383
CS:pref_late: 6913
CS:misses: 16339
CS:misses_by_poll: 1

CPLX: 
CPLX:times selected: 1009169
CPLX:pref_filled: 19317
CPLX:pref_useful: 4539
CPLX:pref_late: 3035
CPLX:misses: 92932
CPLX:misses_by_poll: 1

NL_L1: 
NL:times selected: 20591
NL:pref_filled: 691
NL:pref_useful: 322
NL:pref_late: 290
NL:misses: 1811
NL:misses_by_poll: 0

total selections: 2397907
total_filled: 93553
total_useful: 33875
total_late: 18528
total_polluted: 2
total_misses_after_warmup: 768587
conflicts: 5559167

test: 116726

DRAM Statistics
 CHANNEL 0
 RQ ROW_BUFFER_HIT:      10642  ROW_BUFFER_MISS:      18502
 DBUS_CONGESTED:         14
 WQ ROW_BUFFER_HIT:       1556  ROW_BUFFER_MISS:      12559  FULL:          0

 AVG_CONGESTED_CYCLE: 5

CPU 0 Branch Prediction Accuracy: 99.8062% MPKI: 0.3542 Average ROB Occupancy at Mispredict: 169.856
Branch types
NOT_BRANCH: 40859587 81.7192%
BRANCH_DIRECT_JUMP: 548687 1.09737%
BRANCH_INDIRECT: 183413 0.366826%
BRANCH_CONDITIONAL: 6184311 12.3686%
BRANCH_DIRECT_CALL: 941312 1.88262%
BRANCH_INDIRECT_CALL: 170683 0.341366%
BRANCH_RETURN: 1111998 2.224%
BRANCH_OTHER: 0 0%

DRAM PAGES: 1048576
Allocated PAGES: 2597
Average_ROB_Occupancy: 188.537
Average_Decode_Occupancy: 24.8751
Average_FTQ_Occupancy: 10.3645
Indirect max targets: 14 Average targets: 1.17949
Branch_type:  BRANCH_DIRECT_JUMP:  Count Percentage: 2.13511 6.66011 4.42913 9.17952 2.14341 11.106 1.30623 63.0405 
Branch_type:  BRANCH_INDIRECT:  Count Percentage: 11.7665 3.41891 2.57045 0 1.33488 25.0078 2.26981 53.6317 
Branch_type:  BRANCH_CONDITIONAL:  Count Percentage: 23.7814 3.96613 1.66544 5.35678 1.33255 8.30763 0.679899 54.9101 
Branch_type:  BRANCH_DIRECT_CALL:  Count Percentage: 0.260656 1.74958 1.29739 4.76305 1.86053 2.83297 0.860961 86.3749 
Branch_type:  BRANCH_INDIRECT_CALL:  Count Percentage: 9.56943 0 2.99878 8.7333 0 2.55105 1.29145 74.856 
Branch_type:  BRANCH_RETURN:  Count Percentage: 4.1121 4.94812 1.17108 6.181 3.19112 9.15942 1.70725 69.5299 
Branch_type:  BRANCH_DIRECT_JUMP:  Total Count: 23407 73014 48556 100634 23498 121754 14320 691105 
Branch_type:  BRANCH_INDIRECT:  Total Count: 43130 12532 9422 0 4893 91666 8320 196587 
Branch_type:  BRANCH_CONDITIONAL:  Total Count: 2939750 490275 205874 662181 164724 1026951 84046 6787738 
Branch_type:  BRANCH_DIRECT_CALL:  Total Count: 4910 32957 24439 89722 35047 53365 16218 1627052 
Branch_type:  BRANCH_INDIRECT_CALL:  Total Count: 32744 0 10261 29883 0 8729 4419 256137 
Branch_type:  BRANCH_RETURN:  Total Count: 91566 110182 26077 137635 71058 203957 38016 1548254 
Number of unique branch instructions: 10693
Upper 32 bits: 
aaaa
ffff
ffff0000
Unique upper 32 bits: 3
Unique upper 36 bits: 3
Unique upper 40 bits: 5
Unique upper 44 bits: 32
Unique upper 48 bits: 157
Offset_3 4443
Offset_4 257
Offset_5 476
Offset_6 538
Offset_7 636
Offset_8 580
Offset_9 513
Offset_10 417
Offset_11 348
Offset_12 321
Offset_13 236
Offset_14 247
Offset_15 199
Offset_16 227
Offset_17 163
Offset_18 152
Offset_19 257
Offset_20 144
Offset_21 235
Offset_22 408
Offset_23 241
Offset_24 342
Offset_25 117
Offset_47 92
decode_dispatch_called: 22509523 57.8961
Dispatch_width: 0 11710467 52.0245 30.1201
Dispatch_width: 1 718976 3.1941 1.84926
Dispatch_width: 2 714694 3.17507 1.83824
Dispatch_width: 3 420713 1.86904 1.0821
Dispatch_width: 4 3430180 15.2388 8.82266
Dispatch_width: 5 218180 0.969279 0.561174
Dispatch_width: 6 5296313 23.5292 13.6225
Empty_decode_cycles: 16369664 42.1039
ROB_full_cycles: 5479377 14.0933
Starvation_cycles_per_kilo_instr: 281.035
Starvation_cycles_per_kilo_instr_3: 244.551
Starvation_cycles_per_kilo_instr_0: 226.008
Branch_type_1  (3,1)  (4,7)  (5,38)  (6,74)  (7,125)  (8,148)  (9,135)  (10,110)  (11,77)  (12,55)  (13,11)  (14,2)  (15,3)  (16,4)  (18,1)  (19,5)  (20,2)  (21,1)  (22,3)  (23,2)  (24,10)  (25,12) 
Branch_type_2  (3,1)  (4,1)  (5,1)  (8,4)  (9,4)  (10,1)  (12,1)  (13,1)  (14,1)  (16,3)  (17,2)  (20,2)  (21,2)  (23,5)  (24,1)  (47,41) 
Branch_type_3  (3,4441)  (4,249)  (5,433)  (6,447)  (7,480)  (8,362)  (9,281)  (10,167)  (11,135)  (12,62)  (13,10) 
Branch_type_4  (6,4)  (7,8)  (8,26)  (9,55)  (10,66)  (11,70)  (12,113)  (13,100)  (14,111)  (15,95)  (16,100)  (17,75)  (18,65)  (19,124)  (20,73)  (21,124)  (22,214)  (23,136)  (24,198)  (25,101) 
Branch_type_5  (8,3)  (9,1)  (10,4)  (11,5)  (12,3)  (13,14)  (14,16)  (15,11)  (16,22)  (17,11)  (18,23)  (19,14)  (20,11)  (21,13)  (22,43)  (23,26)  (24,37) 
Branch_type_6  (5,4)  (6,13)  (7,23)  (8,37)  (9,37)  (10,69)  (11,61)  (12,87)  (13,100)  (14,117)  (15,90)  (16,98)  (17,75)  (18,63)  (19,114)  (20,56)  (21,95)  (22,148)  (23,72)  (24,96)  (25,4)  (47,51) 
aaaaab1fc620: 2ac9e77e 2aca717c 2aca8eff 2acaf6bc 2acaf9aa 2acaf9f1 2acb1abc 2acb1b7f 2acd4e22 2acdb712 2acf5f9e 2ad0ef44 2ad3f15c 2ad414e6 2ad60e42 2ad8609c 2ad99830 2ada35cc 2ada4676 2ada6612 2adf183e 2adf30e5 2adf5602 2adf785c 2ae11572 2aeb2dcf 2aee101b 2aee1ae1 2b156a8c 2b156b61 2b156bea 2b167f35 2b177656 2b17feec 2b1a3e5a 
aaaaab1fc640: 2ac9ec07 2aca656e 2aca801d 2acaea11 2acaee73 2acb13ee 2acb1470 2acd462b 2ad0ef5d 2ad3f3fe 2ad86e9b 2ada1641 2ada4115 2ada6638 2adf30d4 2ae12e57 2aee1033 2b1693ab 2b16948c 2b169491 2b17d915 2b17fa85 2b17fccd 
aaaaab1fcb00: 2acf2d72 2acf3734 2acf604c 2acfa5b7 2ad397b5 2ad3b800 2ae8af7d 2ae8aff0 2ae9aaba 2aea9fc6 2aeaa358 2aee910b 2aee91cf 2aee928e 2aee92e4 2af6fe87 2af70dfe 2b16850c 2b16c4a2 2b1765f4 2b178094 2b17d925 2b17db06 2b17ec8f 
aaaaab1fcb10: 2acf2d95 2acf3758 2acf6052 2acfa5f4 2ad397c3 2ad3b81c 2ae8af88 2ae8affe 2ae9aacf 2aeaa017 2aeaa36d 2aee9114 2aee91d8 2aee934d 2aee9353 2af6fe8c 2af70e22 2b168526 2b16c542 2b176609 2b1780a3 2b17d95d 2b17db44 2b17ecac 
aaaaac68f310: 2ac9ec8c 2ac9fb44 2ac9fbd2 2aca59ab 2acac04c 2acaf6e0 2acaf6ec 2acaf6f9 2acaf700 2acaf708 2acf2d90 2ad3cfbd 2ad3cfc4 2ad3d000 2ad3f35f 2ad4955d 2ad49571 2ad4f3f2 2ad4f400 2ad5f240 2ad5f37c 2ad5f86a 2ad5f86f 2ad5f880 2ad5fc0d 2ad5fc14 2ad5fc21 2ad5fe1b 2ad873bb 2ad873e3 2ad8a6b2 2ad9086e 2ad93096 2ad9bbb2 2ada152c 2ada1554 2ada3332 2ada5522 2adf3130 2adf313c 2adf3a3f 2adf3bd9 2adf5788 2adf7a8d 2ae07f6b 2ae0857a 2ae0857e 2ae08630 2ae08634 2ae08637 2ae08642 2ae0866f 2ae086e4 2ae086ec 2ae08717 2ae0871b 2aee0170 2aee1d38 2aee75f4 2aee7662 2aee85ca 2aee85e4 2aee8eef 2af70b84 2af74e8f 2b17d843 
aaaaac690ef0: 2aca598b 2acb111b 2acb175f 2acb1772 2acbfaf4 2acbfb00 2acf374f 2acf6d43 2acfa5c8 2ad3baf1 2ad3d4ac 2ad3d4b8 2ad3f1cf 2ad486b2 2ad5a59b 2ad5fc64 2ad5fcf9 2ad6121c 2ad906e9 2ad907bf 2ad9bada 2ada16ce 2ada1ad5 2ada43df 2ada64c0 2ada72ee 2adeb71a 2adf3bcb 2adf7a38 2adf7c6a 2adf8872 2adf8880 2adf9959 2adf9abe 2ae07f78 2ae08503 2ae08754 2ae12e80 2aea3bea 2aecb509 2aee00b0 2aee2bdd 2aee5467 2aee5601 2aee8f20 2af703fd 2af7048b 2af74e74 
Unique trigger count: 
1 10188
2 562
3 90
4 31
5 13
6 13
7 7
8 2
9 3
10 2
11 1
12 1
13 1
14 3
16 2
19 2
23 1
24 2
35 1
48 1
66 1
BTB PER SET UNIQUE ADDR: 6 7 6 5 3 4 7 9 10 2 5 2 8 5 4 4 6 4 8 9 6 8 7 8 8 11 1 7 6 6 10 10 6 5 8 4 4 7 6 3 8 5 6 10 9 8 5 12 11 6 5 3 13 2 2 7 5 5 9 8 4 11 4 8 5 10 8 9 6 7 6 2 6 5 6 7 6 15 6 5 8 7 7 6 7 8 7 8 8 11 10 9 9 6 7 5 11 8 5 5 8 7 9 9 7 8 7 8 7 5 6 7 4 8 5 11 3 8 6 2 8 9 4 3 6 4 4 7 11 8 11 3 11 6 9 7 5 3 6 8 8 8 7 7 5 11 5 8 12 7 7 14 6 10 6 9 7 9 8 11 11 8 11 5 12 7 3 4 13 7 6 4 8 7 4 3 6 8 11 5 6 6 10 8 9 12 6 6 6 8 5 8 7 7 6 10 11 4 11 6 4 6 9 4 8 4 5 8 7 2 3 6 9 9 7 6 4 9 7 6 6 4 6 7 7 8 13 7 3 11 13 9 4 5 6 9 11 6 4 5 4 3 11 8 16 11 1 7 6 8 9 10 6 7 5 12 4 7 10 6 8 5 7 4 9 15 5 5 7 5 7 7 4 9 10 9 7 5 4 9 8 5 9 5 9 9 7 7 8 4 5 7 4 12 7 3 5 10 6 6 6 6 5 4 7 4 6 4 12 9 6 4 8 4 6 5 10 13 6 5 7 11 5 9 5 6 6 10 3 1 9 2 5 7 9 5 8 9 8 1 6 6 2 9 7 7 3 9 11 6 5 13 11 6 8 7 7 2 8 5 7 11 6 8 11 8 4 4 4 5 8 4 7 5 8 4 11 8 7 10 10 7 7 13 6 5 8 5 8 4 9 6 8 4 7 4 5 6 2 8 7 5 7 7 5 6 8 5 4 3 5 4 11 7 2 6 9 4 2 7 2 6 7 8 11 9 5 2 4 9 3 4 15 5 8 10 6 6 7 4 5 6 10 3 7 9 6 6 5 5 6 3 4 3 9 3 5 7 9 6 5 4 6 12 6 5 12 4 6 7 2 6 10 8 5 3 10 5 3 3 5 2 3 4 3 7 8 4 7 2 13 4 5 8 2 11 4 7 5 5 11 3 5 4 2 5 5 3 4 6 8 4 8 11 3 4 2 10 6 9 7 4 8 6 11 9 6 9 9 8 6 6 6 8 5 7 7 1 6 4 5 8 10 4 9 5 10 13 14 11 7 8 7 7 2 6 9 3 7 4 10 5 9 5 5 6 10 9 11 7 7 4 11 11 6 7 7 12 3 9 13 5 2 6 5 3 3 14 7 5 8 8 4 7 5 5 9 5 6 5 12 5 11 11 7 5 5 9 8 5 8 8 7 6 8 5 7 5 5 7 8 7 11 4 5 10 8 8 4 6 8 7 7 7 7 8 6 7 6 4 11 8 4 6 3 3 7 8 8 7 7 4 10 3 5 2 11 5 6 8 12 3 6 11 7 7 7 6 6 10 7 8 6 8 11 8 8 6 8 6 8 11 9 6 8 8 6 8 7 6 3 8 3 5 5 7 10 7 7 9 3 11 4 5 7 12 4 4 5 5 7 7 6 6 5 7 12 6 1 8 5 3 5 4 4 3 4 9 2 11 8 11 8 3 7 7 10 3 6 4 5 8 5 10 4 5 6 4 6 7 6 3 5 7 2 5 5 10 9 4 5 6 6 7 7 6 14 7 6 3 10 7 0 5 7 5 6 10 3 3 8 6 4 6 10 9 9 7 3 9 3 9 6 7 6 13 12 5 5 5 12 4 8 4 8 6 7 9 5 7 3 5 6 5 5 7 1 5 5 10 7 4 9 4 5 5 6 3 7 6 7 3 7 4 10 5 4 5 6 5 5 5 6 6 5 7 9 6 6 4 8 8 6 9 6 10 7 5 7 6 7 7 4 4 12 7 6 8 10 9 4 6 6 9 7 2 2 6 7 4 3 7 6 7 10 5 7 5 5 8 9 4 4 7 5 3 8 12 5 3 12 8 4 6 10 7 7 11 6 8 9 7 5 4 3 9 6 6 8 6 9 7 9 6 9 8 6 5 5 12 6 4 11 10 6 8 10 10 3 10 8 9 6 4 6 8 9 8 9 6 9 3 13 8 4 7 9 13 6 9 6 7 10 5 3 9 10 9 10 5 3 6 3 10 13 6 8 5 4 7 13 6 4 6 5 7 4 5 9 7 8 7 7 11 5 11 7 11 5 6 5 5 6 4 7 6 7 6 6 7 9 4 9 7 11 4 9 5 3 8 11 6 14 5 
BTB PER SET COUNT: 6 7 6 5 3 5 8 28 2971 2 5 2 9 5 4 7 7 4 8 1477 6 9 10 8 8 2487 1 8 1471 6 4438 412 7 8 12 5 2935 7 9 3 13 5 12 34 1972 14 5 5440 3212 6 5 6 11700 2 2 7 6 5 14 105 5 2603 4 8 5 1401 8 14 7 7 6 2 7 5 6 7 502 3607 6 5 8 7 7 6 504 14 8 8 9 480 2088 478 32 7 7 5 3469 12 5 5 8 7 14 2169 7 10 7 8 8 5 6 8 4 9 5 4117 4 8 6 2 8 15 4 4 502 4 5 7 2028 9 575 3 4979 9 18 7 5 3 7 9 9 11 9 8 5 31 7 8 3095 7 8 3304 6 3470 14 13 7 13 8 742 1006 8 2995 5 46 1950 3 4 9666 8 6 4 10 147 5 5 6 503 986 5 6 6 62 11 12 1990 6 6 6 13 5 8 7 7 6 37 996 4 23 7 4 7 10 4 9 4 5 2463 10 2 3 9 13 11 7 7 4 310 8 6 7 4 6 7 7 9 5469 1985 5 3946 8135 10 4 5 6 14 3465 6 4 5 4 3 1497 8 12204 276 1 8 6 9 11 492 6 8 5 2843 5 7 36 7 11 6 7 4 2217 9740 975 6 7 5 7 7 5 14 35 14 8 5 4 10 11 5 23 6 1500 3469 7 7 8 4 5 7 498 2987 9 3 8 4541 7 6 6 7 5 4 8 4 6 4 1515 1510 7 4 8 4 6 7 21 4717 6 7 7 435 5 11 7 6 7 20 4 1 1005 2 5 9 989 7 1004 9 8 1 6 6 2 1001 998 8 4 10 24 11 5 122 23 977 8 9 11 2 9 50 10 32 6 9 39 14 4 6 5 6 9 4 8 5 8 4 3683 9 7 2281 54 7 7 5891 7 7 10 5 8 4 34 8 9 5 7 6 1472 8 2 8 9 5 9 9 6 6 2940 5 4 2334 12 4 524 9 972 7 142 4 2 1456 2 6 7 9 50 11 9 2 4 10 146 6 5707 5 9 2048 8 6 8 4 7 7 16 3 10 16 7 978 5 6 6 3 5 4 378 4 5 10 508 6 993 4 15 68 32 6 1339 4 7 8 2 8 48 506 137 3 20744 6 3 3 5 2 3 498 3 7 281 372 7 2 68 4 7 8 2 2499 6 9 6 5 3957 9 13 4 2 6 5 4 4 6 9 5 8 34 6 4 2 6749 7 512 11 1469 11 455 225 13 6 13 38 8 6 6 6 10 5 503 7 1 10 4 6 8 25 7 11 5 16 4219 4965 4951 11 9 9 8 2 7 985 3 7 4 4258 6 16 6 5 6 44 12 2973 8 7 5 1508 3473 7 7 7 3468 4 31 7133 49 3 6 1471 3 3 5446 8 5 10 10 5 979 976 7 14 5 6 5 24 9 1258 52 10 2977 6 1724 11 6 11 12 7 6 9 7 950 5 7 7 11 788 2999 4 1471 33 8 137 7 6 502 1472 8 12 8 8 8 7 7 4 2492 9 4 6 3 4 9 9 505 7 8 4 1009 3 5 3 2482 5 1492 9 11351 4 6 5737 7 1001 2940 999 7 37 505 8 7 12 3965 999 505 6 630 6 9 1396 9 997 14669 1000 6 1864 1472 9 3 1002 3 9 5 7 2962 7 9 39 3 2000 4 5 154 4459 4 1470 5 1471 207 8 9 6 997 8 1492 772 1 8 8 5 5 4 4 5 4 676 3 3477 9 1237 980 3 9 8 13 4 6 4 6 8 5 6297 5 7 502 6 6 995 6 3 6 528 2 5 5 2982 2475 974 5 8 977 8 7 6 8176 8 7 3 30 7 0 128 9 1472 9 3662 3 3 8 9 5 6 1864 29 36 9 444 16 3 2864 6 8 213 3740 3417 6 5 5 3491 4 214 5 1990 1474 8 21 5 9 3 6 7 474 7 9 2 5 6 1371 7 4 1269 369 5 9 976 3 7 64 7 3 7 4 1118 5 6 6 6 5 209 5 7 1473 5 12 11 6 8 4 8 8 8 10 6 6276 7 6 7 13 8 7 4 4 6231 977 11 996 2479 14 4 7 6 21 9 2 4 7 9 4 3 7 7 7 110 8 7 6 5 8 12 4 4 8 5 3 8 1504 7 3 5545 8 154 59 15 9 8 1865 7 13 87 8 5 4 4 12 6 996 8 6 12 7 33 7 12 9 7 7 6 140 7 502 3470 2463 7 9 5026 1265 3 18 9 23 6 974 8 10 18 259 15 6 15 3 5671 9 7 8 41 4466 8 2721 6 504 2972 5 5 15 34 13 13 10 3 6 3 403 59 7 981 6 5 7 3487 8 499 8 5 11 4 7 13 7 9 12 7 3474 5 53 7 3961 9 11 6 6 6 4 10 7 8 8 7 9 1991 4 2460 398 1250 6 38 6 3 9 1505 7 3982 5 
