
*** ChampSim Multicore Out-of-Order Simulator ***

Warmup Instructions: 50000000
Simulation Instructions: 50000000
Number of CPUs: 1
LLC sets: 2048
LLC ways: 16
Off-chip DRAM Size: 4096 MB Channels: 1 Width: 64-bit Data Rate: 6400 MT/s
CPU 0 runs ./micro_traces/srv389.trace.gz
.gz
ITLB has LRU replacement policy
DTLB has LRU replacement policy
STLB has LRU replacement policy
FDIP Prefetcher at L1I
L1I has LRU replacement policy
L1D has LRU replacement policy
Initialize SRRIP state for L2C
Initialize DRRIP state for LLC
Heartbeat_Variant_0 : 1346 0.328613 per_variant_size: 0 1346 0 0 0 0 0 0 0 
Heartbeat_Variant_1 : 2562 0.625488 per_variant_size: 0 496 2066 0 0 0 0 0 0 
Heartbeat_Variant_2 : 0 0 per_variant_size: 0 0 0 0 0 0 0 0 0 
Heartbeat_Variant_3 : 0 0 per_variant_size: 0 0 0 0 0 0 0 0 0 
Heartbeat_Variant_0_evicts 0 : 5814 1 : 592 2 : 0 3 : 0 
Heartbeat_Variant_1_evicts 0 : 558 1 : 0 2 : 0 3 : 0 
Heartbeat_Variant_2_evicts 0 : 0 1 : 0 2 : 0 3 : 0 
Heartbeat_Variant_3_evicts 0 : 0 1 : 0 2 : 0 3 : 0 
Heartbeat CPU 0 instructions: 10000003 cycles: 2794582 heartbeat IPC: 3.57835 cumulative IPC: 3.57835 (Simulation time: 0 hr 1 min 37 sec) 
Heartbeat_Variant_0 : 1371 0.334717 per_variant_size: 0 1371 0 0 0 0 0 0 0 
Heartbeat_Variant_1 : 2610 0.637207 per_variant_size: 0 485 2125 0 0 0 0 0 0 
Heartbeat_Variant_2 : 0 0 per_variant_size: 0 0 0 0 0 0 0 0 0 
Heartbeat_Variant_3 : 0 0 per_variant_size: 0 0 0 0 0 0 0 0 0 
Heartbeat_Variant_0_evicts 0 : 5721 1 : 498 2 : 0 3 : 0 
Heartbeat_Variant_1_evicts 0 : 489 1 : 0 2 : 0 3 : 0 
Heartbeat_Variant_2_evicts 0 : 0 1 : 0 2 : 0 3 : 0 
Heartbeat_Variant_3_evicts 0 : 0 1 : 0 2 : 0 3 : 0 
Heartbeat CPU 0 instructions: 20000003 cycles: 5589503 heartbeat IPC: 3.57792 cumulative IPC: 3.57814 (Simulation time: 0 hr 3 min 17 sec) 
Heartbeat_Variant_0 : 1369 0.334229 per_variant_size: 0 1369 0 0 0 0 0 0 0 
Heartbeat_Variant_1 : 2619 0.639404 per_variant_size: 0 478 2141 0 0 0 0 0 0 
Heartbeat_Variant_2 : 0 0 per_variant_size: 0 0 0 0 0 0 0 0 0 
Heartbeat_Variant_3 : 0 0 per_variant_size: 0 0 0 0 0 0 0 0 0 
Heartbeat_Variant_0_evicts 0 : 5501 1 : 25 2 : 0 3 : 0 
Heartbeat_Variant_1_evicts 0 : 28 1 : 0 2 : 0 3 : 0 
Heartbeat_Variant_2_evicts 0 : 0 1 : 0 2 : 0 3 : 0 
Heartbeat_Variant_3_evicts 0 : 0 1 : 0 2 : 0 3 : 0 
Heartbeat CPU 0 instructions: 30000000 cycles: 8384427 heartbeat IPC: 3.57791 cumulative IPC: 3.57806 (Simulation time: 0 hr 4 min 55 sec) 
Heartbeat_Variant_0 : 1374 0.335449 per_variant_size: 0 1374 0 0 0 0 0 0 0 
Heartbeat_Variant_1 : 2639 0.644287 per_variant_size: 0 452 2187 0 0 0 0 0 0 
Heartbeat_Variant_2 : 0 0 per_variant_size: 0 0 0 0 0 0 0 0 0 
Heartbeat_Variant_3 : 0 0 per_variant_size: 0 0 0 0 0 0 0 0 0 
Heartbeat_Variant_0_evicts 0 : 5658 1 : 361 2 : 0 3 : 0 
Heartbeat_Variant_1_evicts 0 : 361 1 : 0 2 : 0 3 : 0 
Heartbeat_Variant_2_evicts 0 : 0 1 : 0 2 : 0 3 : 0 
Heartbeat_Variant_3_evicts 0 : 0 1 : 0 2 : 0 3 : 0 
Heartbeat CPU 0 instructions: 40000003 cycles: 11179019 heartbeat IPC: 3.57834 cumulative IPC: 3.57813 (Simulation time: 0 hr 6 min 31 sec) 
Heartbeat_Variant_0 : 1382 0.337402 per_variant_size: 0 1382 0 0 0 0 0 0 0 
Heartbeat_Variant_1 : 2645 0.645752 per_variant_size: 0 428 2217 0 0 0 0 0 0 
Heartbeat_Variant_2 : 0 0 per_variant_size: 0 0 0 0 0 0 0 0 0 
Heartbeat_Variant_3 : 0 0 per_variant_size: 0 0 0 0 0 0 0 0 0 
Heartbeat_Variant_0_evicts 0 : 5624 1 : 365 2 : 0 3 : 0 
Heartbeat_Variant_1_evicts 0 : 359 1 : 0 2 : 0 3 : 0 
Heartbeat_Variant_2_evicts 0 : 0 1 : 0 2 : 0 3 : 0 
Heartbeat_Variant_3_evicts 0 : 0 1 : 0 2 : 0 3 : 0 
Heartbeat CPU 0 instructions: 50000000 cycles: 13973338 heartbeat IPC: 3.57869 cumulative IPC: 3.57824 (Simulation time: 0 hr 8 min 9 sec) 

Warmup complete CPU 0 instructions: 50000004 cycles: 13973339 (Simulation time: 0 hr 8 min 9 sec) 

*** Reached end of trace for Core: 0 Repeating trace: ./micro_traces/srv389.trace.gz
Cycle: 20000000 FTQ IN: 57644178 FTQ occupancy: 18.7028 DECODE IN: 57644039 DECODE occupancy: 48.0379 ROB IN: 57643979 ROB occupancy: 293.914 ROB OUT: 57643627
Heartbeat_Variant_0 : 1385 0.338135 per_variant_size: 0 1385 0 0 0 0 0 0 0 
Heartbeat_Variant_1 : 2661 0.649658 per_variant_size: 0 452 2209 0 0 0 0 0 0 
Heartbeat_Variant_2 : 0 0 per_variant_size: 0 0 0 0 0 0 0 0 0 
Heartbeat_Variant_3 : 0 0 per_variant_size: 0 0 0 0 0 0 0 0 0 
Heartbeat_Variant_0_evicts 0 : 5763 1 : 456 2 : 0 3 : 0 
Heartbeat_Variant_1_evicts 0 : 458 1 : 0 2 : 0 3 : 0 
Heartbeat_Variant_2_evicts 0 : 0 1 : 0 2 : 0 3 : 0 
Heartbeat_Variant_3_evicts 0 : 0 1 : 0 2 : 0 3 : 0 
Heartbeat CPU 0 instructions: 60000000 cycles: 21800743 heartbeat IPC: 1.27756 cumulative IPC: 1.27756 (Simulation time: 0 hr 9 min 39 sec) 
Heartbeat_Variant_0 : 1398 0.341309 per_variant_size: 0 1398 0 0 0 0 0 0 0 
Heartbeat_Variant_1 : 2660 0.649414 per_variant_size: 0 411 2249 0 0 0 0 0 0 
Heartbeat_Variant_2 : 0 0 per_variant_size: 0 0 0 0 0 0 0 0 0 
Heartbeat_Variant_3 : 0 0 per_variant_size: 0 0 0 0 0 0 0 0 0 
Heartbeat_Variant_0_evicts 0 : 5830 1 : 406 2 : 0 3 : 0 
Heartbeat_Variant_1_evicts 0 : 395 1 : 0 2 : 0 3 : 0 
Heartbeat_Variant_2_evicts 0 : 0 1 : 0 2 : 0 3 : 0 
Heartbeat_Variant_3_evicts 0 : 0 1 : 0 2 : 0 3 : 0 
Heartbeat CPU 0 instructions: 70000002 cycles: 29542191 heartbeat IPC: 1.29175 cumulative IPC: 1.28462 (Simulation time: 0 hr 11 min 8 sec) 
Cycle: 30000000 FTQ IN: 12958420 FTQ occupancy: 8.6786 DECODE IN: 12958525 DECODE occupancy: 20.2083 ROB IN: 12958581 ROB occupancy: 169.904 ROB OUT: 12958668
Heartbeat_Variant_0 : 1402 0.342285 per_variant_size: 0 1402 0 0 0 0 0 0 0 
Heartbeat_Variant_1 : 2658 0.648926 per_variant_size: 0 415 2243 0 0 0 0 0 0 
Heartbeat_Variant_2 : 0 0 per_variant_size: 0 0 0 0 0 0 0 0 0 
Heartbeat_Variant_3 : 0 0 per_variant_size: 0 0 0 0 0 0 0 0 0 
Heartbeat_Variant_0_evicts 0 : 5496 1 : 44 2 : 0 3 : 0 
Heartbeat_Variant_1_evicts 0 : 40 1 : 0 2 : 0 3 : 0 
Heartbeat_Variant_2_evicts 0 : 0 1 : 0 2 : 0 3 : 0 
Heartbeat_Variant_3_evicts 0 : 0 1 : 0 2 : 0 3 : 0 
Heartbeat CPU 0 instructions: 80000002 cycles: 37121845 heartbeat IPC: 1.31932 cumulative IPC: 1.29598 (Simulation time: 0 hr 12 min 37 sec) 
Cycle: 40000000 FTQ IN: 13202357 FTQ occupancy: 8.4935 DECODE IN: 13202360 DECODE occupancy: 19.8098 ROB IN: 13202304 ROB occupancy: 171.246 ROB OUT: 13202217
Heartbeat_Variant_0 : 1399 0.341553 per_variant_size: 0 1399 0 0 0 0 0 0 0 
Heartbeat_Variant_1 : 2662 0.649902 per_variant_size: 0 413 2249 0 0 0 0 0 0 
Heartbeat_Variant_2 : 0 0 per_variant_size: 0 0 0 0 0 0 0 0 0 
Heartbeat_Variant_3 : 0 0 per_variant_size: 0 0 0 0 0 0 0 0 0 
Heartbeat_Variant_0_evicts 0 : 5572 1 : 127 2 : 0 3 : 0 
Heartbeat_Variant_1_evicts 0 : 130 1 : 0 2 : 0 3 : 0 
Heartbeat_Variant_2_evicts 0 : 0 1 : 0 2 : 0 3 : 0 
Heartbeat_Variant_3_evicts 0 : 0 1 : 0 2 : 0 3 : 0 
Heartbeat CPU 0 instructions: 90000001 cycles: 44767974 heartbeat IPC: 1.30785 cumulative IPC: 1.29893 (Simulation time: 0 hr 14 min 8 sec) 
Cycle: 50000000 FTQ IN: 13012655 FTQ occupancy: 8.59285 DECODE IN: 13012673 DECODE occupancy: 19.9568 ROB IN: 13012696 ROB occupancy: 169.766 ROB OUT: 13012716
Heartbeat_Variant_0 : 1396 0.34082 per_variant_size: 0 1396 0 0 0 0 0 0 0 
Heartbeat_Variant_1 : 2669 0.651611 per_variant_size: 0 412 2257 0 0 0 0 0 0 
Heartbeat_Variant_2 : 0 0 per_variant_size: 0 0 0 0 0 0 0 0 0 
Heartbeat_Variant_3 : 0 0 per_variant_size: 0 0 0 0 0 0 0 0 0 
Heartbeat_Variant_0_evicts 0 : 5719 1 : 528 2 : 0 3 : 0 
Heartbeat_Variant_1_evicts 0 : 533 1 : 0 2 : 0 3 : 0 
Heartbeat_Variant_2_evicts 0 : 0 1 : 0 2 : 0 3 : 0 
Heartbeat_Variant_3_evicts 0 : 0 1 : 0 2 : 0 3 : 0 
Heartbeat CPU 0 instructions: 100000001 cycles: 52436544 heartbeat IPC: 1.30402 cumulative IPC: 1.29994 (Simulation time: 0 hr 15 min 36 sec) 
Finished CPU 0 instructions: 50000001 cycles: 38463206 cumulative IPC: 1.29994 (Simulation time: 0 hr 15 min 36 sec) 

ChampSim completed all CPUs

Region of Interest Statistics

CPU 0 cumulative IPC: 1.29994 instructions: 50000001 cycles: 38463206
 Fetch stage stalled: 64.8885  Sim cycles: 38463206 fetch stall cycle: 24958204
 Empty decode stage: 63.4311  Sim cycles: 38463206 fetch stall cycle: 24397633
ITLB TOTAL     ACCESS:    5872041  HIT:    5380751  MISS:     491290  HIT %:    91.6334  MISS %:     8.3666   MPKI: 9.8258
ITLB LOAD TRANSLATION INSTRUCTION	ACCESS:    5757994  HIT:    5266704  MISS:     491290  HIT %:    91.4677  MISS %:    8.53231  MPKI: 9.8258
ITLB TRANSLATION FROM L1D PREFETCHER INSTRUCTION	ACCESS:     114047  HIT:     114047  MISS:          0  HIT %:        100  MISS %:          0  MPKI: 0

ITLB AVERAGE MISS LATENCY: 9.05183 cycles
ITLB RQ	ACCESS:    7972443	FORWARD:          0	MERGED:    1693759	TO_CACHE:    6278684

DTLB TOTAL     ACCESS:    9085115  HIT:    8610504  MISS:     474611  HIT %:    94.7759  MISS %:    5.22405   MPKI: 9.49222
DTLB LOAD TRANSLATION DATA	ACCESS:    9085115  HIT:    8610504  MISS:     474611  HIT %:    94.7759  MISS %:    5.22405  MPKI: 9.49222

DTLB AVERAGE MISS LATENCY: 9.29118 cycles
DTLB RQ	ACCESS:   13408389	FORWARD:          0	MERGED:    4286049	TO_CACHE:    9122340

STLB TOTAL     ACCESS:    1221763  HIT:    1219565  MISS:       2198  HIT %:    99.8201  MISS %:   0.179904   MPKI: 0.04396
STLB LOAD TRANSLATION INSTRUCTION	ACCESS:     491290  HIT:     491021  MISS:        269  HIT %:    99.9452  MISS %:  0.0547538  MPKI: 0.00538
STLB LOAD TRANSLATION DATA	ACCESS:     474504  HIT:     472596  MISS:       1908  HIT %:    99.5979  MISS %:   0.402104  MPKI: 0.03816
STLB TRANSLATION FROM L1D PREFETCHER DATA	ACCESS:     255969  HIT:     255948  MISS:         21  HIT %:    99.9918  MISS %: 0.00820412  MPKI: 0.00042

STLB AVERAGE MISS LATENCY: 62.404 cycles
STLB RQ	ACCESS:    1366758	FORWARD:          0	MERGED:     144956	TO_CACHE:    1221802

STLB Hit, L1D data hit: 0
STLB Hit, L2C data hit: 0
STLB Hit, LLC data hit: 0
STLB Hit, LLC data miss: 0
STLB STLB hints to L2: 0
L1D TOTAL     ACCESS:   13159073  HIT:   11993754  MISS:    1165319  HIT %:    91.1444  MISS %:    8.85563   MPKI: 23.3064
L1D LOAD DATA	ACCESS:    6654017  HIT:    5886374  MISS:     767643  HIT %:    88.4635  MISS %:    11.5365  MPKI: 15.3529
L1D RFO DATA	ACCESS:    6170455  HIT:    5878219  MISS:     292236  HIT %:    95.2639  MISS %:    4.73605  MPKI: 5.84472
L1D PREFETCH DATA	ACCESS:     334601  HIT:     229161  MISS:     105440  HIT %:    68.4878  MISS %:    31.5122  MPKI: 2.1088

L1D PREFETCH  REQUESTED:     802028  ISSUED:     802028  USEFUL:      50326  USELESS:      69476
L1D USEFUL LOAD PREFETCHES:      50326 PREFETCH ISSUED TO LOWER LEVEL:     119857  ACCURACY: 41.9884
 TIMELY PREFETCHES:      50326 LATE PREFETCHES: 14376 DROPPED PREFETCHES: 1
L1D AVERAGE MISS LATENCY: 402239 cycles
L1D RQ	ACCESS:   10751872	FORWARD:          0	MERGED:    3900158	TO_CACHE:    6689373
L1D WQ	ACCESS:    6906967	FORWARD:     162655	MERGED:     187951	TO_CACHE:    6719016
L1D PQ	ACCESS:     401171	FORWARD:          0	MERGED:          0	TO_CACHE:     400857

L1D UNIQUE REGIONS ACCESSED: 0
L1D REGIONS CONFLICTS: 0
L1D Cross Page Prefetch Requests: 5901
L1D Same Page Prefetch Requests: 806168
L1D ROI Sum of L1D PQ occupancy: 5095663
L1D PREFETCHES PUSHED FROM L2C: 0
L1I TOTAL     ACCESS:    7223954  HIT:    4473544  MISS:    2750410  HIT %:    61.9265  MISS %:    38.0735   MPKI: 55.0082
L1I LOAD INSTRUCTION	ACCESS:    6587551  HIT:    3837141  MISS:    2750410  HIT %:    58.2484  MISS %:    41.7516  MPKI: 55.0082
L1I PREFETCH INSTRUCTION	ACCESS:     636403  HIT:     636403  MISS:          0  HIT %:        100  MISS %:          0  MPKI: 0

L1I PREFETCH  REQUESTED:    1514187  ISSUED:    1514187  USEFUL:          0  USELESS:          0
L1I USEFUL LOAD PREFETCHES:          0 PREFETCH ISSUED TO LOWER LEVEL:          0  ACCURACY: -nan
 TIMELY PREFETCHES:          0 LATE PREFETCHES: 0 DROPPED PREFETCHES: 0
L1I AVERAGE MISS LATENCY: 17.622 cycles
L1I RQ	ACCESS:    9451931	FORWARD:          0	MERGED:    2576729	TO_CACHE:    6875202
L1I PQ	ACCESS:    1514187	FORWARD:          0	MERGED:     416946	TO_CACHE:    1097241

L1BTB TOTAL     ACCESS:    5678623  HIT:    2070691  MISS:    3607932  HIT %:    36.4647  MISS %:    63.5353   MPKI: 72.1586
L1BTB BRANCH_DIRECT_JUMP	ACCESS:     543113 HIT:     143336 MISS:     399777 AVERAGE STALL: 33.3689 AVERAGE FETCH STALL: 15.1329 AVERAGE FETCH QUEUE STALL: 7.20152 AVERAGE DECODE STALL: 10.1083 AVERAGE EXECUTE STALL: 2.33061e+15
L1BTB BRANCH_INDIRECT	ACCESS:     180923 HIT:      65106 MISS:     115817 AVERAGE STALL: 78.8215 AVERAGE FETCH STALL: 10.6384 AVERAGE FETCH QUEUE STALL: 8.98375 AVERAGE DECODE STALL: 7.32534 AVERAGE EXECUTE STALL: 50.9117
L1BTB BRANCH_CONDITIONAL	ACCESS:    2730504 HIT:    1445858 MISS:    1284646 AVERAGE STALL: 38.5136 AVERAGE FETCH STALL: 22.2696 AVERAGE FETCH QUEUE STALL: 7.80714 AVERAGE DECODE STALL: 7.78405 AVERAGE EXECUTE STALL: 1.97207e+15
L1BTB BRANCH_DIRECT_CALL	ACCESS:     941024 HIT:     104517 MISS:     836507 AVERAGE STALL: 45.3449 AVERAGE FETCH STALL: 24.5001 AVERAGE FETCH QUEUE STALL: 11.6546 AVERAGE DECODE STALL: 8.51844 AVERAGE EXECUTE STALL: 4.27899e+15
L1BTB BRANCH_INDIRECT_CALL	ACCESS:     171031 HIT:      21624 MISS:     149407 AVERAGE STALL: 102.387 AVERAGE FETCH STALL: 12.8018 AVERAGE FETCH QUEUE STALL: 5.44322 AVERAGE DECODE STALL: 7.02629 AVERAGE EXECUTE STALL: 76.6069
L1BTB BRANCH_RETURN	ACCESS:    1112028 HIT:     290250 MISS:     821778 AVERAGE STALL: 40.0883 AVERAGE FETCH STALL: 17.2279 AVERAGE FETCH QUEUE STALL: 3.18098 AVERAGE DECODE STALL: 5.29846 AVERAGE EXECUTE STALL: 4.21794e+14
L1BTB BRANCH_OTHER ACCESS:          0 HIT:          0 MISS:          0 AVERAGE STALL: -nan AVERAGE FETCH STALL: -nan AVERAGE FETCH QUEUE STALL: -nan AVERAGE DECODE STALL: -nan AVERAGE EXECUTE STALL: -nan
L1BTB TOTAL ROB OCCUPANCY AT BTB MISS: 2.16618

L2BTB TOTAL     ACCESS:    3582979  HIT:    3509179  MISS:      73800  HIT %:    97.9403  MISS %:    2.05974   MPKI: 1.476
L2BTB BRANCH_DIRECT_JUMP	ACCESS:     395683 HIT:     391853 MISS:       3830 AVERAGE STALL: 33.3689 AVERAGE FETCH STALL: 15.1329 AVERAGE FETCH QUEUE STALL: 7.20152 AVERAGE DECODE STALL: 10.1083 AVERAGE EXECUTE STALL: 2.33061e+15
L2BTB BRANCH_INDIRECT	ACCESS:     105604 HIT:     102892 MISS:       2712 AVERAGE STALL: 78.8215 AVERAGE FETCH STALL: 10.6384 AVERAGE FETCH QUEUE STALL: 8.98375 AVERAGE DECODE STALL: 7.32534 AVERAGE EXECUTE STALL: 50.9117
L2BTB BRANCH_CONDITIONAL	ACCESS:    1284646 HIT:    1275207 MISS:       9439 AVERAGE STALL: 38.5136 AVERAGE FETCH STALL: 22.2696 AVERAGE FETCH QUEUE STALL: 7.80714 AVERAGE DECODE STALL: 7.78405 AVERAGE EXECUTE STALL: 1.97207e+15
L2BTB BRANCH_DIRECT_CALL	ACCESS:     836507 HIT:     832167 MISS:       4340 AVERAGE STALL: 45.3449 AVERAGE FETCH STALL: 24.5001 AVERAGE FETCH QUEUE STALL: 11.6546 AVERAGE DECODE STALL: 8.51844 AVERAGE EXECUTE STALL: 4.27899e+15
L2BTB BRANCH_INDIRECT_CALL	ACCESS:     139987 HIT:     129056 MISS:      10931 AVERAGE STALL: 102.387 AVERAGE FETCH STALL: 12.8018 AVERAGE FETCH QUEUE STALL: 5.44322 AVERAGE DECODE STALL: 7.02629 AVERAGE EXECUTE STALL: 76.6069
L2BTB BRANCH_RETURN	ACCESS:     820552 HIT:     778004 MISS:      42548 AVERAGE STALL: 40.0883 AVERAGE FETCH STALL: 17.2279 AVERAGE FETCH QUEUE STALL: 3.18098 AVERAGE DECODE STALL: 5.29846 AVERAGE EXECUTE STALL: 4.21794e+14
L2BTB BRANCH_OTHER ACCESS:          0 HIT:          0 MISS:          0 AVERAGE STALL: -nan AVERAGE FETCH STALL: -nan AVERAGE FETCH QUEUE STALL: -nan AVERAGE DECODE STALL: -nan AVERAGE EXECUTE STALL: -nan
L2BTB TOTAL ROB OCCUPANCY AT BTB MISS: 105.9

L2C TOTAL     ACCESS:    4538439  HIT:    3986134  MISS:     552305  HIT %:    87.8305  MISS %:    12.1695   MPKI: 11.0461
L2C LOAD INSTRUCTION	ACCESS:    2750409  HIT:    2448776  MISS:     301633  HIT %:    89.0332  MISS %:    10.9668  MPKI: 6.03266
L2C LOAD TRANSLATION INSTRUCTION	ACCESS:        313  HIT:         87  MISS:        226  HIT %:    27.7955  MISS %:    72.2045  MPKI: 0.00452
L2C LOAD DATA	ACCESS:     753238  HIT:     664522  MISS:      88716  HIT %:     88.222  MISS %:     11.778  MPKI: 1.77432
L2C RFO DATA	ACCESS:     292175  HIT:     231018  MISS:      61157  HIT %:    79.0684  MISS %:    20.9316  MPKI: 1.22314
L2C PREFETCH DATA	ACCESS:     211011  HIT:     128631  MISS:      82380  HIT %:    60.9594  MISS %:    39.0406  MPKI: 1.6476
L2C WRITEBACK DATA	ACCESS:     529254  HIT:     512541  MISS:      16713  HIT %:    96.8422  MISS %:    3.15784  MPKI: 0.33426
L2C LOAD TRANSLATION DATA	ACCESS:       2005  HIT:        533  MISS:       1472  HIT %:    26.5835  MISS %:    73.4165  MPKI: 0.02944
L2C TRANSLATION FROM L1D PREFETCHER DATA	ACCESS:         34  HIT:         26  MISS:          8  HIT %:    76.4706  MISS %:    23.5294  MPKI: 0.00016

L2C PREFETCH  REQUESTED:      99443  ISSUED:      99443  USEFUL:       9417  USELESS:      73526
L2C USEFUL LOAD PREFETCHES:       9417 PREFETCH ISSUED TO LOWER LEVEL:      82850  ACCURACY: 11.3663
 TIMELY PREFETCHES:       9417 LATE PREFETCHES: 470 DROPPED PREFETCHES: 0
L2C AVERAGE MISS LATENCY: 37.4179 cycles
L2C RQ	ACCESS:    3798224	FORWARD:          0	MERGED:          0	TO_CACHE:    3798175
L2C WQ	ACCESS:     529254	FORWARD:         49	MERGED:          0	TO_CACHE:     529254
L2C PQ	ACCESS:     219300	FORWARD:          0	MERGED:       3342	TO_CACHE:     215958

L2C Dense regions hint from L2: 0
PSCL5 TOTAL     ACCESS:       4398  HIT:       2199  MISS:       2199  HIT %:         50  MISS %:         50   MPKI: 0.04398
PSCL5 LOAD TRANSLATION INSTRUCTION	ACCESS:       4330  HIT:       2165  MISS:       2165  HIT %:         50  MISS %:         50  MPKI: 0.0433
PSCL5 TRANSLATION FROM L1D PREFETCHER INSTRUCTION	ACCESS:         68  HIT:         34  MISS:         34  HIT %:         50  MISS %:         50  MPKI: 0.00068


PSCL4 TOTAL     ACCESS:       4079  HIT:       2037  MISS:       2042  HIT %:    49.9387  MISS %:    50.0613   MPKI: 0.04084
PSCL4 LOAD TRANSLATION INSTRUCTION	ACCESS:       2136  HIT:       2003  MISS:        133  HIT %:    93.7734  MISS %:    6.22659  MPKI: 0.00266
PSCL4 TRANSLATION FROM L1D PREFETCHER INSTRUCTION	ACCESS:         34  HIT:         34  MISS:          0  HIT %:        100  MISS %:          0  MPKI: 0
PSCL4 LOAD TRANSLATION DATA	ACCESS:       1875  HIT:          0  MISS:       1875  HIT %:          0  MISS %:        100  MPKI: 0.0375
PSCL4 TRANSLATION FROM L1D PREFETCHER DATA	ACCESS:         34  HIT:          0  MISS:         34  HIT %:          0  MISS %:        100  MPKI: 0.00068


PSCL3 TOTAL     ACCESS:       4302  HIT:       2145  MISS:       2157  HIT %:    49.8605  MISS %:    50.1395   MPKI: 0.04314
PSCL3 LOAD TRANSLATION INSTRUCTION	ACCESS:       2326  HIT:       2111  MISS:        215  HIT %:    90.7567  MISS %:    9.24334  MPKI: 0.0043
PSCL3 TRANSLATION FROM L1D PREFETCHER INSTRUCTION	ACCESS:         34  HIT:         34  MISS:          0  HIT %:        100  MISS %:          0  MPKI: 0
PSCL3 LOAD TRANSLATION DATA	ACCESS:       1908  HIT:          0  MISS:       1908  HIT %:          0  MISS %:        100  MPKI: 0.03816
PSCL3 TRANSLATION FROM L1D PREFETCHER DATA	ACCESS:         34  HIT:          0  MISS:         34  HIT %:          0  MISS %:        100  MPKI: 0.00068


PSCL2 TOTAL     ACCESS:       4258  HIT:       2059  MISS:       2199  HIT %:     48.356  MISS %:     51.644   MPKI: 0.04398
PSCL2 LOAD TRANSLATION INSTRUCTION	ACCESS:       2294  HIT:       2025  MISS:        269  HIT %:    88.2738  MISS %:    11.7262  MPKI: 0.00538
PSCL2 TRANSLATION FROM L1D PREFETCHER INSTRUCTION	ACCESS:         34  HIT:         34  MISS:          0  HIT %:        100  MISS %:          0  MPKI: 0
PSCL2 LOAD TRANSLATION DATA	ACCESS:       1896  HIT:          0  MISS:       1896  HIT %:          0  MISS %:        100  MPKI: 0.03792
PSCL2 TRANSLATION FROM L1D PREFETCHER DATA	ACCESS:         34  HIT:          0  MISS:         34  HIT %:          0  MISS %:        100  MPKI: 0.00068


LLC TOTAL     ACCESS:     623684  HIT:     596958  MISS:      26726  HIT %:    95.7148  MISS %:    4.28518   MPKI: 0.53452
LLC LOAD INSTRUCTION	ACCESS:     301633  HIT:     300555  MISS:       1078  HIT %:    99.6426  MISS %:   0.357388  MPKI: 0.02156
LLC LOAD TRANSLATION INSTRUCTION	ACCESS:        226  HIT:        191  MISS:         35  HIT %:    84.5133  MISS %:    15.4867  MPKI: 0.0007
LLC LOAD DATA	ACCESS:      88269  HIT:      84748  MISS:       3521  HIT %:    96.0111  MISS %:    3.98894  MPKI: 0.07042
LLC RFO DATA	ACCESS:      61131  HIT:      49233  MISS:      11898  HIT %:    80.5369  MISS %:    19.4631  MPKI: 0.23796
LLC PREFETCH DATA	ACCESS:      82850  HIT:      72974  MISS:       9876  HIT %:    88.0797  MISS %:    11.9203  MPKI: 0.19752
LLC WRITEBACK DATA	ACCESS:      88095  HIT:      87867  MISS:        228  HIT %:    99.7412  MISS %:   0.258812  MPKI: 0.00456
LLC LOAD TRANSLATION DATA	ACCESS:       1472  HIT:       1383  MISS:         89  HIT %:    93.9538  MISS %:     6.0462  MPKI: 0.00178
LLC TRANSLATION FROM L1D PREFETCHER DATA	ACCESS:          8  HIT:          7  MISS:          1  HIT %:       87.5  MISS %:       12.5  MPKI: 2e-05

LLC AVERAGE MISS LATENCY: 171.545 cycles
LLC RQ	ACCESS:     452742	FORWARD:          0	MERGED:          0	TO_CACHE:     452739
LLC WQ	ACCESS:      88095	FORWARD:          3	MERGED:          0	TO_CACHE:      88095
LLC PQ	ACCESS:      82850	FORWARD:          0	MERGED:          0	TO_CACHE:      82850

LLC Dense regions hint to LLC: 0

RAW hits: 1857897
Loads Generated: 12609767
Loads sent to L1D: 10751872
Stores Generated: 6906960
Stores sent to L1D: 6906967
Major fault: 0 Minor fault: 2327
Allocated PAGES: 2327

stream: 
stream:times selected: 1241516
stream:pref_filled: 126472
stream:pref_useful: 29053
stream:pref_late: 9779
stream:misses: 10421
stream:misses_by_poll: 0

CS: 
CS:times selected: 197124
CS:pref_filled: 73302
CS:pref_useful: 50167
CS:pref_late: 10568
CS:misses: 26215
CS:misses_by_poll: 4

CPLX: 
CPLX:times selected: 1043234
CPLX:pref_filled: 25506
CPLX:pref_useful: 7879
CPLX:pref_late: 4128
CPLX:misses: 133821
CPLX:misses_by_poll: 2

NL_L1: 
NL:times selected: 12837
NL:pref_filled: 1075
NL:pref_useful: 301
NL:pref_late: 507
NL:misses: 2087
NL:misses_by_poll: 0

total selections: 2494711
total_filled: 105440
total_useful: 50326
total_late: 27557
total_polluted: 6
total_misses_after_warmup: 803003
conflicts: 5545651

test: 119296

DRAM Statistics
 CHANNEL 0
 RQ ROW_BUFFER_HIT:       9457  ROW_BUFFER_MISS:      17036
 DBUS_CONGESTED:         20
 WQ ROW_BUFFER_HIT:       1451  ROW_BUFFER_MISS:      10778  FULL:          0

 AVG_CONGESTED_CYCLE: 4

CPU 0 Branch Prediction Accuracy: 99.8183% MPKI: 0.33278 Average ROB Occupancy at Mispredict: 158.391
Branch types
NOT_BRANCH: 40841493 81.683%
BRANCH_DIRECT_JUMP: 543113 1.08623%
BRANCH_INDIRECT: 180923 0.361846%
BRANCH_CONDITIONAL: 6210177 12.4204%
BRANCH_DIRECT_CALL: 941024 1.88205%
BRANCH_INDIRECT_CALL: 171031 0.342062%
BRANCH_RETURN: 1112028 2.22406%
BRANCH_OTHER: 0 0%

DRAM PAGES: 1048576
Allocated PAGES: 2327
Average_ROB_Occupancy: 170.77
Average_Decode_Occupancy: 19.9841
Average_FTQ_Occupancy: 8.59379
Indirect max targets: 14 Average targets: 1.15203
Branch_type:  BRANCH_DIRECT_JUMP:  Count Percentage: 3.73147 6.46184 3.50168 14.4724 1.69056 6.28938 0.979254 62.8734 
Branch_type:  BRANCH_INDIRECT:  Count Percentage: 11.7645 3.39273 12.1567 23.397 1.34469 14.4954 1.08284 32.3661 
Branch_type:  BRANCH_CONDITIONAL:  Count Percentage: 22.2014 2.82195 2.45874 8.87684 1.05477 4.4822 0.577416 57.5267 
Branch_type:  BRANCH_DIRECT_CALL:  Count Percentage: 0.765578 1.29424 1.39204 5.39421 1.96913 2.65414 0.796975 85.7337 
Branch_type:  BRANCH_INDIRECT_CALL:  Count Percentage: 9.51968 0.551227 2.98404 4.81572 0 3.85275 0 78.2766 
Branch_type:  BRANCH_RETURN:  Count Percentage: 4.40139 0.720689 3.66244 9.02288 2.11177 5.29992 1.01244 73.7685 
Branch_type:  BRANCH_DIRECT_JUMP:  Total Count: 40483 70105 37990 157012 18341 68234 10624 682119 
Branch_type:  BRANCH_INDIRECT:  Total Count: 42502 12257 43919 84527 4858 52368 3912 116930 
Branch_type:  BRANCH_CONDITIONAL:  Total Count: 2755795 350281 305196 1101857 130926 556362 71673 7140620 
Branch_type:  BRANCH_DIRECT_CALL:  Total Count: 14435 24403 26247 101708 37128 50044 15027 1616512 
Branch_type:  BRANCH_INDIRECT_CALL:  Total Count: 32623 1889 10226 16503 0 13203 0 268246 
Branch_type:  BRANCH_RETURN:  Total Count: 98106 16064 81635 201118 47071 118134 22567 1644284 
Number of unique branch instructions: 10407
Upper 32 bits: 
aaaa
ffff
ffff0000
Unique upper 32 bits: 3
Unique upper 36 bits: 3
Unique upper 40 bits: 5
Unique upper 44 bits: 32
Unique upper 48 bits: 156
Variant_0 : 1396 0.34082
Variant_1 : 2669 0.651611
Variant_2 : 0 0
Variant_3 : 0 0
Offset_3 4310
Offset_4 258
Offset_5 473
Offset_6 537
Offset_7 615
Offset_8 538
Offset_9 489
Offset_10 410
Offset_11 343
Offset_12 277
Offset_13 223
Offset_14 229
Offset_15 199
Offset_16 232
Offset_17 164
Offset_18 135
Offset_19 246
Offset_20 147
Offset_21 246
Offset_22 408
Offset_23 245
Offset_24 333
Offset_25 88
Offset_47 82
Offset_64 1
decode_dispatch_called: 21494113 55.8823
Dispatch_width: 0 11052227 51.4198 28.7345
Dispatch_width: 1 654012 3.04275 1.70036
Dispatch_width: 2 669294 3.11385 1.74009
Dispatch_width: 3 455705 2.12014 1.18478
Dispatch_width: 4 2527552 11.7593 6.57135
Dispatch_width: 5 281919 1.31161 0.732958
Dispatch_width: 6 5853404 27.2326 15.2182
Empty_decode_cycles: 16969093 44.1177
ROB_full_cycles: 3830351 9.95848
Starvation_cycles_per_kilo_instr: 287.794
Starvation_cycles_per_kilo_instr_3: 259.7
Starvation_cycles_per_kilo_instr_0: 241.91
Branch_type_1  (3,1)  (4,7)  (5,36)  (6,75)  (7,118)  (8,135)  (9,129)  (10,106)  (11,79)  (12,44)  (13,4)  (14,2)  (15,3)  (16,4)  (18,1)  (19,4)  (20,2)  (21,1)  (22,3)  (23,2)  (24,10)  (25,12) 
Branch_type_2  (3,1)  (5,1)  (8,3)  (9,3)  (12,1)  (13,1)  (14,1)  (16,3)  (17,2)  (20,2)  (21,2)  (23,5)  (24,1)  (47,37) 
Branch_type_3  (3,4308)  (4,251)  (5,432)  (6,445)  (7,463)  (8,337)  (9,269)  (10,174)  (11,138)  (12,49)  (13,4)  (21,1) 
Branch_type_4  (6,4)  (7,8)  (8,30)  (9,52)  (10,61)  (11,63)  (12,102)  (13,100)  (14,100)  (15,96)  (16,105)  (17,76)  (18,62)  (19,120)  (20,74)  (21,130)  (22,219)  (23,138)  (24,194)  (25,72) 
Branch_type_5  (8,2)  (9,1)  (10,3)  (11,5)  (12,3)  (13,14)  (14,16)  (15,11)  (16,20)  (17,12)  (18,16)  (19,12)  (20,12)  (21,13)  (22,42)  (23,26)  (24,36) 
Branch_type_6  (5,4)  (6,13)  (7,26)  (8,31)  (9,35)  (10,66)  (11,58)  (12,78)  (13,100)  (14,110)  (15,89)  (16,100)  (17,74)  (18,56)  (19,110)  (20,57)  (21,99)  (22,144)  (23,74)  (24,92)  (25,4)  (47,45)  (64,1) 
Unique trigger count: 
Variant_0_evicts_0 : 0
Variant_0_evicts_1 : 0
Variant_0_evicts_2 : 0
Variant_0_evicts_3 : 0
Variant_1_evicts_0 : 0
Variant_1_evicts_1 : 0
Variant_1_evicts_2 : 0
Variant_1_evicts_3 : 0
Variant_2_evicts_0 : 0
Variant_2_evicts_1 : 0
Variant_2_evicts_2 : 0
Variant_2_evicts_3 : 0
Variant_3_evicts_0 : 0
Variant_3_evicts_1 : 0
Variant_3_evicts_2 : 0
Variant_3_evicts_3 : 0
BTB PER SET UNIQUE ADDR: 12 16 9 16 11 16 12 17 10 15 16 17 15 15 12 9 10 10 8 18 11 12 17 15 10 15 13 17 11 11 14 13 17 9 10 13 12 16 8 11 13 14 11 17 12 11 16 11 11 10 17 9 12 9 12 4 12 11 9 14 12 12 16 13 13 14 15 8 17 13 14 14 14 12 11 12 10 20 10 14 17 8 13 18 14 12 16 12 12 21 13 7 13 11 9 15 14 14 18 19 26 16 13 12 15 11 10 12 7 9 9 15 16 12 9 7 11 13 13 15 15 9 11 11 12 16 6 10 21 12 11 13 11 15 11 18 10 15 15 19 7 8 10 12 14 13 13 10 6 16 13 11 9 14 15 14 19 14 11 13 14 13 17 16 13 16 17 10 12 15 10 12 13 15 14 13 12 13 16 10 10 12 13 16 18 22 4 14 11 8 10 10 12 17 13 13 10 15 9 13 15 12 14 10 14 10 12 12 5 13 13 16 12 15 10 17 16 12 12 19 8 19 9 15 11 15 19 16 10 15 13 8 15 16 12 12 15 13 13 9 12 13 15 14 12 10 9 9 18 17 14 17 16 10 15 12 8 13 12 15 13 9 8 16 13 11 12 14 17 15 16 16 12 8 11 9 12 17 12 13 12 17 9 13 19 9 12 14 16 13 9 12 15 10 9 12 16 14 15 14 12 14 10 17 16 21 15 13 16 14 10 19 11 20 15 8 15 15 18 20 12 10 10 16 10 19 12 9 12 11 15 22 11 12 11 18 9 10 8 18 13 17 8 14 15 11 10 14 12 12 17 13 17 15 14 10 13 12 7 13 11 21 7 18 11 14 9 13 18 12 14 9 15 13 11 15 16 16 12 13 11 11 12 9 11 14 14 16 15 16 14 11 17 20 8 10 9 12 15 12 9 13 14 12 19 13 15 13 13 10 16 9 13 18 11 13 9 14 20 16 14 11 15 16 17 12 15 13 13 13 18 14 12 12 10 16 14 11 14 10 11 12 13 19 18 7 13 14 15 14 14 20 15 11 13 20 16 14 8 17 12 9 12 13 18 10 14 13 13 12 15 13 16 17 18 21 14 17 11 13 19 14 11 15 8 13 20 19 15 15 13 16 15 11 13 12 11 15 14 11 11 15 13 19 14 13 7 19 12 16 21 17 16 13 15 18 10 16 9 10 10 8 12 11 11 17 16 9 9 18 17 15 21 13 15 15 8 10 14 16 14 9 10 10 18 18 10 15 8 13 14 19 12 13 12 19 13 13 19 12 9 14 9 14 17 12 14 15 9 17 15 14 21 22 16 14 15 18 10 13 15 15 10 11 14 11 10 11 13 14 11 12 13 9 14 15 11 14 15 14 14 10 11 10 8 17 17 17 13 13 13 17 15 12 7 12 12 16 11 17 13 14 10 8 16 12 11 15 13 13 12 16 13 13 11 16 14 16 11 15 14 14 13 15 13 12 14 16 21 11 10 13 13 11 20 15 13 13 17 8 13 7 18 15 10 13 8 16 13 14 14 11 11 16 18 14 17 18 14 18 12 16 13 13 13 14 15 12 14 18 13 10 9 11 12 16 10 18 7 18 9 14 14 13 10 16 17 11 11 14 16 15 11 13 14 10 17 15 12 13 13 10 11 13 13 10 14 13 10 13 15 15 13 12 10 15 15 17 20 11 8 11 12 15 17 14 13 11 7 14 14 13 17 13 9 14 17 16 12 10 17 9 8 12 13 16 10 16 13 11 15 14 10 14 11 8 14 11 17 16 9 15 14 9 11 15 13 13 11 6 9 9 14 12 12 14 11 10 17 9 20 19 15 22 16 17 14 14 18 9 12 18 16 16 14 14 16 17 12 15 12 20 9 16 20 15 8 15 14 21 14 11 16 11 11 18 14 14 12 12 14 14 16 16 14 17 14 18 12 16 11 12 9 18 15 16 13 18 14 14 12 11 15 11 18 11 14 16 15 11 8 20 16 14 13 8 12 10 11 19 12 8 14 16 15 13 12 12 15 15 15 15 14 10 12 18 15 18 15 13 13 11 15 15 9 12 8 18 14 18 14 16 12 18 14 12 15 14 9 13 17 13 11 10 9 10 8 12 12 11 18 18 17 13 11 23 14 15 16 15 11 18 13 15 13 12 11 15 16 19 15 17 10 13 14 13 13 13 11 12 21 11 12 18 17 11 17 14 11 17 14 14 14 15 11 8 15 15 15 17 16 13 14 16 10 15 15 13 12 12 14 14 16 16 13 11 12 15 14 11 16 21 12 16 14 16 14 19 12 13 13 17 16 11 14 12 10 13 7 9 11 17 14 10 
BTB PER SET COUNT: 960 31 1904 23 21 17 1249 34 17 22 25 33 18090 34 14 18 15 12 8 42 16 17 500 102 18 20 22 28 20 13 345 25 25 11 14 774 14 25 8 1991 17 20 15 30 455 24 29 15 319 434 25 375 21 15 17 167 22 12 12 19 18 12 21 18 17 23 26 1465 28 20 1476 64 35 17 16 16 15 1226 14 17 583 9 210 30 27 22 21 16 297 34 19 199 17 19 11 21 122 15 23 2385 52 115 17 14 4934 18 14 18 10 11 9 27 138 17 18 1422 24 18 1718 116 37 15 12 12 14 171 8 27 38 586 16 1099 15 22 29 36 949 27 29 39 8 11 19 20 17 25 28 527 7 25 15 234 1079 21 18 23 25 20 17 14 31 142 469 20 836 30 28 15 16 1635 14 15 26 20 29 532 15 19 165 15 291 15 131 29 34 850 4 25 452 472 11 10 19 22 24 125 14 992 11 306 21 123 1008 16 17 11 16 178 5 943 22 26 16 1284 15 586 27 952 2700 23 12 38 15 24 18 31 26 19 15 28 20 10 23 31 15 15 37 73 47 10 1285 26 453 112 17 21 11 10 266 28 28 25 22 10 33 20 87 599 14 20 21 14 12 40 17 12 18 24 415 25 26 87 16 9 13 16 24 22 21 31 25 33 917 511 36 10 15 24 24 14 14 21 21 19 15 22 23 16 22 274 16 23 10 29 21 32 28 60 30 131 1001 32 15 33 1487 956 23 35 28 32 15 2943 10 21 217 33 19 20 18 13 27 39 29 16 13 43 15 1012 11 27 17 1265 8 174 27 13 17 26 13 20 139 593 22 26 20 13 19 15 238 46 13 36 8 29 11 265 10 22 32 18 20 171 21 366 452 23 25 22 119 532 155 24 187 11 13 15 30 30 27 30 22 19 40 1755 9 955 9 17 455 1379 15 21 45 15 32 23 25 113 17 17 659 13 18 29 15 19 11 2467 264 23 32 25 23 28 33 23 49 23 14 20 30 26 21 24 15 27 23 16 17 19 15 19 18 27 21 8 826 30 28 20 28 335 31 13 20 1678 24 18 8 23 21 10 20 19 32 110 2666 19 30 19 22 19 23 28 31 45 19 26 16 15 34 23 14 23 9 21 37 28 21 24 26 19 2172 19 24 19 700 1007 25 18 20 19 19 63 19 15 10 38 17 21 480 99 382 931 19 32 10 20 11 14 15 11 14 12 14 29 400 1487 17 3405 34 21 41 37 32 21 14 16 24 648 16 10 17 20 26 559 14 20 10 20 21 36 689 34 29 27 15 21 41 16 12 103 12 21 53 27 32 22 16 825 547 23 34 28 183 19 39 31 15 16 29 29 22 3702 21 27 13 15 22 22 14 16 20 10 18 19 35 103 494 19 19 12 14 14 10 35 33 109 21 26 23 490 31 16 7 12 20 18 14 44 19 30 14 12 20 21 16 18 459 23 14 29 19 21 13 19 21 539 16 237 19 20 16 524 1578 162 159 31 36 13 11 22 21 16 51 215 17 78 127 104 22 7 26 28 16 16 11 1544 574 36 22 12 740 33 44 263 32 33 27 46 19 25 1004 258 1912 16 23 17 60 27 20 10 9 19 2457 27 19 34 13 30 494 22 22 22 13 160 29 21 12 25 20 378 929 19 97 13 306 19 16 17 67 100 13 581 21 10 22 24 957 3469 45 10552 19 17 16 1531 263 25 149 16 14 28 20 24 1151 21 468 16 8 23 25 22 561 19 10 23 39 758 17 13 27 10 10 19 29 23 14 31 26 130 16 41 17 21 17 10 24 749 25 25 1338 29 711 9 16 25 18 28 17 6 18 855 24 15 1122 20 218 13 27 903 30 32 23 196 453 27 25 21 29 9 16 754 26 22 27 55 308 1656 17 23 14 882 12 26 38 30 9 20 38 32 26 17 22 18 557 31 25 28 21 211 21 317 31 28 68 23 29 26 14 186 644 549 11 36 47 28 18 25 21 16 959 12 22 17 867 15 31 32 17 17 350 31 26 19 19 9 16 13 2542 31 18 10 17 31 332 854 12 14 30 656 19 1427 517 2917 14 27 30 27 25 17 21 22 29 300 14 14 9 36 137 53 36 792 19 34 20 22 40 715 11 78 27 19 15 14 14 14 10 28 23 21 32 25 609 18 59 40 24 19 126 24 15 306 19 29 15 309 20 26 24 33 281 38 12 2831 18 19 22 22 19 12 132 29 14 30 27 15 1390 24 36 22 23 22 18 19 489 10 29 28 96 33 714 21 24 445 14 23 172 17 18 20 22 345 28 40 1317 15 20 1406 35 16 26 43 13 28 25 23 23 38 18 1004 2047 25 34 12 18 23 17 143 7 11 19 34 19 15 
To predecode: 0
Predecoding something: 0
Predecode request dropped: 0
sizeofblock_0 0
sizeofblock_1 60440
sizeofblock_2 86522
sizeofblock_3 0
sizeofblock_4 0
sizeofblock_5 0
sizeofblock_6 0
sizeofblock_7 0
sizeofblock_8 0
Variant_0 Correct: 1602274 Incorrect: 0 Accuracy: 1
Variant_1 Correct: 5706596 Incorrect: 0 Accuracy: 1
Variant_2 Correct: 0 Incorrect: 0 Accuracy: -nan
Variant_3 Correct: 0 Incorrect: 0 Accuracy: -nan
