
*** ChampSim Multicore Out-of-Order Simulator ***

Warmup Instructions: 50000000
Simulation Instructions: 50000000
Number of CPUs: 1
LLC sets: 2048
LLC ways: 16
Off-chip DRAM Size: 4096 MB Channels: 1 Width: 64-bit Data Rate: 6400 MT/s
CPU 0 runs ./micro_traces/srv385.trace.gz
.gz
ITLB has LRU replacement policy
DTLB has LRU replacement policy
STLB has LRU replacement policy
FDIP Prefetcher at L1I
L1I has LRU replacement policy
L1D has LRU replacement policy
Initialize SRRIP state for L2C
Initialize DRRIP state for LLC
Heartbeat_Variant_0 : 1324 0.323242 per_variant_size: 0 1324 0 0 0 0 0 0 0 
Heartbeat_Variant_1 : 1211 0.295654 per_variant_size: 0 594 617 0 0 0 0 0 0 
Heartbeat_Variant_2 : 1298 0.316895 per_variant_size: 0 513 381 224 180 0 0 0 0 
Heartbeat_Variant_3 : 0 0 per_variant_size: 0 0 0 0 0 0 0 0 0 
Heartbeat_Variant_0_evicts 0 : 5767 1 : 229 2 : 273 3 : 0 
Heartbeat_Variant_1_evicts 0 : 235 1 : 0 2 : 372 3 : 0 
Heartbeat_Variant_2_evicts 0 : 216 1 : 379 2 : 0 3 : 0 
Heartbeat_Variant_3_evicts 0 : 0 1 : 0 2 : 0 3 : 0 
Heartbeat CPU 0 instructions: 10000001 cycles: 2797428 heartbeat IPC: 3.57471 cumulative IPC: 3.57471 (Simulation time: 0 hr 1 min 43 sec) 
Heartbeat_Variant_0 : 1326 0.32373 per_variant_size: 0 1326 0 0 0 0 0 0 0 
Heartbeat_Variant_1 : 1217 0.297119 per_variant_size: 0 596 621 0 0 0 0 0 0 
Heartbeat_Variant_2 : 1303 0.318115 per_variant_size: 0 510 387 227 179 0 0 0 0 
Heartbeat_Variant_3 : 0 0 per_variant_size: 0 0 0 0 0 0 0 0 0 
Heartbeat_Variant_0_evicts 0 : 5575 1 : 10 2 : 21 3 : 0 
Heartbeat_Variant_1_evicts 0 : 12 1 : 0 2 : 211 3 : 0 
Heartbeat_Variant_2_evicts 0 : 21 1 : 212 2 : 0 3 : 0 
Heartbeat_Variant_3_evicts 0 : 0 1 : 0 2 : 0 3 : 0 
Heartbeat CPU 0 instructions: 20000000 cycles: 5594455 heartbeat IPC: 3.57522 cumulative IPC: 3.57497 (Simulation time: 0 hr 3 min 24 sec) 
Heartbeat_Variant_0 : 1364 0.333008 per_variant_size: 0 1364 0 0 0 0 0 0 0 
Heartbeat_Variant_1 : 1242 0.303223 per_variant_size: 0 577 665 0 0 0 0 0 0 
Heartbeat_Variant_2 : 1337 0.326416 per_variant_size: 0 520 382 237 198 0 0 0 0 
Heartbeat_Variant_3 : 0 0 per_variant_size: 0 0 0 0 0 0 0 0 0 
Heartbeat_Variant_0_evicts 0 : 5767 1 : 158 2 : 151 3 : 0 
Heartbeat_Variant_1_evicts 0 : 167 1 : 0 2 : 324 3 : 0 
Heartbeat_Variant_2_evicts 0 : 133 1 : 328 2 : 0 3 : 0 
Heartbeat_Variant_3_evicts 0 : 0 1 : 0 2 : 0 3 : 0 
Heartbeat CPU 0 instructions: 30000000 cycles: 8391265 heartbeat IPC: 3.5755 cumulative IPC: 3.57515 (Simulation time: 0 hr 5 min 2 sec) 
Heartbeat_Variant_0 : 1363 0.332764 per_variant_size: 0 1363 0 0 0 0 0 0 0 
Heartbeat_Variant_1 : 1245 0.303955 per_variant_size: 0 576 669 0 0 0 0 0 0 
Heartbeat_Variant_2 : 1336 0.326172 per_variant_size: 0 520 381 233 202 0 0 0 0 
Heartbeat_Variant_3 : 0 0 per_variant_size: 0 0 0 0 0 0 0 0 0 
Heartbeat_Variant_0_evicts 0 : 5648 1 : 0 2 : 0 3 : 0 
Heartbeat_Variant_1_evicts 0 : 1 1 : 0 2 : 200 3 : 0 
Heartbeat_Variant_2_evicts 0 : 0 1 : 198 2 : 0 3 : 0 
Heartbeat_Variant_3_evicts 0 : 0 1 : 0 2 : 0 3 : 0 
Heartbeat CPU 0 instructions: 40000000 cycles: 11188194 heartbeat IPC: 3.57535 cumulative IPC: 3.5752 (Simulation time: 0 hr 6 min 40 sec) 
Heartbeat_Variant_0 : 1360 0.332031 per_variant_size: 0 1360 0 0 0 0 0 0 0 
Heartbeat_Variant_1 : 1254 0.306152 per_variant_size: 0 580 674 0 0 0 0 0 0 
Heartbeat_Variant_2 : 1357 0.331299 per_variant_size: 0 531 394 236 196 0 0 0 0 
Heartbeat_Variant_3 : 0 0 per_variant_size: 0 0 0 0 0 0 0 0 0 
Heartbeat_Variant_0_evicts 0 : 5602 1 : 92 2 : 91 3 : 0 
Heartbeat_Variant_1_evicts 0 : 98 1 : 0 2 : 290 3 : 0 
Heartbeat_Variant_2_evicts 0 : 97 1 : 295 2 : 0 3 : 0 
Heartbeat_Variant_3_evicts 0 : 0 1 : 0 2 : 0 3 : 0 
Heartbeat CPU 0 instructions: 50000002 cycles: 13984538 heartbeat IPC: 3.5761 cumulative IPC: 3.57538 (Simulation time: 0 hr 8 min 19 sec) 

Warmup complete CPU 0 instructions: 50000002 cycles: 13984538 (Simulation time: 0 hr 8 min 19 sec) 

Cycle: 20000000 FTQ IN: 57942293 FTQ occupancy: 18.6285 DECODE IN: 57942266 DECODE occupancy: 48.118 ROB IN: 57942266 ROB occupancy: 295.222 ROB OUT: 57942264
Heartbeat_Variant_0 : 1366 0.333496 per_variant_size: 0 1366 0 0 0 0 0 0 0 
Heartbeat_Variant_1 : 1254 0.306152 per_variant_size: 0 584 670 0 0 0 0 0 0 
Heartbeat_Variant_2 : 1354 0.330566 per_variant_size: 0 530 390 233 201 0 0 0 0 
Heartbeat_Variant_3 : 0 0 per_variant_size: 0 0 0 0 0 0 0 0 0 
Heartbeat_Variant_0_evicts 0 : 5624 1 : 30 2 : 16 3 : 0 
Heartbeat_Variant_1_evicts 0 : 23 1 : 0 2 : 225 3 : 0 
Heartbeat_Variant_2_evicts 0 : 18 1 : 218 2 : 0 3 : 0 
Heartbeat_Variant_3_evicts 0 : 0 1 : 0 2 : 0 3 : 0 
Heartbeat CPU 0 instructions: 60000003 cycles: 21556438 heartbeat IPC: 1.32067 cumulative IPC: 1.32067 (Simulation time: 0 hr 9 min 53 sec) 
Heartbeat_Variant_0 : 1362 0.33252 per_variant_size: 0 1362 0 0 0 0 0 0 0 
Heartbeat_Variant_1 : 1260 0.307617 per_variant_size: 0 589 671 0 0 0 0 0 0 
Heartbeat_Variant_2 : 1356 0.331055 per_variant_size: 0 527 392 241 196 0 0 0 0 
Heartbeat_Variant_3 : 0 0 per_variant_size: 0 0 0 0 0 0 0 0 0 
Heartbeat_Variant_0_evicts 0 : 5553 1 : 12 2 : 7 3 : 0 
Heartbeat_Variant_1_evicts 0 : 15 1 : 0 2 : 211 3 : 0 
Heartbeat_Variant_2_evicts 0 : 10 1 : 210 2 : 0 3 : 0 
Heartbeat_Variant_3_evicts 0 : 0 1 : 0 2 : 0 3 : 0 
Heartbeat CPU 0 instructions: 70000003 cycles: 29217322 heartbeat IPC: 1.30533 cumulative IPC: 1.31296 (Simulation time: 0 hr 11 min 29 sec) 
Cycle: 30000000 FTQ IN: 13049496 FTQ occupancy: 8.61286 DECODE IN: 13049492 DECODE occupancy: 20.4402 ROB IN: 13049432 ROB occupancy: 171.077 ROB OUT: 13049389
Heartbeat_Variant_0 : 1371 0.334717 per_variant_size: 0 1371 0 0 0 0 0 0 0 
Heartbeat_Variant_1 : 1262 0.308105 per_variant_size: 0 578 684 0 0 0 0 0 0 
Heartbeat_Variant_2 : 1362 0.33252 per_variant_size: 0 527 389 253 193 0 0 0 0 
Heartbeat_Variant_3 : 0 0 per_variant_size: 0 0 0 0 0 0 0 0 0 
Heartbeat_Variant_0_evicts 0 : 5667 1 : 64 2 : 61 3 : 0 
Heartbeat_Variant_1_evicts 0 : 57 1 : 0 2 : 247 3 : 0 
Heartbeat_Variant_2_evicts 0 : 62 1 : 242 2 : 0 3 : 0 
Heartbeat_Variant_3_evicts 0 : 0 1 : 0 2 : 0 3 : 0 
Heartbeat CPU 0 instructions: 80000001 cycles: 36807314 heartbeat IPC: 1.31752 cumulative IPC: 1.31448 (Simulation time: 0 hr 13 min 3 sec) 
Cycle: 40000000 FTQ IN: 13223134 FTQ occupancy: 8.56096 DECODE IN: 13223092 DECODE occupancy: 20.6081 ROB IN: 13223152 ROB occupancy: 172.519 ROB OUT: 13223171
Heartbeat_Variant_0 : 1371 0.334717 per_variant_size: 0 1371 0 0 0 0 0 0 0 
Heartbeat_Variant_1 : 1263 0.30835 per_variant_size: 0 580 683 0 0 0 0 0 0 
Heartbeat_Variant_2 : 1364 0.333008 per_variant_size: 0 530 388 256 190 0 0 0 0 
Heartbeat_Variant_3 : 0 0 per_variant_size: 0 0 0 0 0 0 0 0 0 
Heartbeat_Variant_0_evicts 0 : 5599 1 : 7 2 : 17 3 : 0 
Heartbeat_Variant_1_evicts 0 : 8 1 : 0 2 : 203 3 : 0 
Heartbeat_Variant_2_evicts 0 : 17 1 : 203 2 : 0 3 : 0 
Heartbeat_Variant_3_evicts 0 : 0 1 : 0 2 : 0 3 : 0 
Heartbeat CPU 0 instructions: 90000000 cycles: 44459898 heartbeat IPC: 1.30675 cumulative IPC: 1.31254 (Simulation time: 0 hr 14 min 36 sec) 
Cycle: 50000000 FTQ IN: 13063848 FTQ occupancy: 8.69947 DECODE IN: 13063892 DECODE occupancy: 20.6163 ROB IN: 13063832 ROB occupancy: 170.654 ROB OUT: 13063741
Heartbeat_Variant_0 : 1380 0.336914 per_variant_size: 0 1380 0 0 0 0 0 0 0 
Heartbeat_Variant_1 : 1263 0.30835 per_variant_size: 0 591 672 0 0 0 0 0 0 
Heartbeat_Variant_2 : 1367 0.33374 per_variant_size: 0 534 392 239 202 0 0 0 0 
Heartbeat_Variant_3 : 0 0 per_variant_size: 0 0 0 0 0 0 0 0 0 
Heartbeat_Variant_0_evicts 0 : 5760 1 : 120 2 : 125 3 : 0 
Heartbeat_Variant_1_evicts 0 : 119 1 : 0 2 : 271 3 : 0 
Heartbeat_Variant_2_evicts 0 : 121 1 : 271 2 : 0 3 : 0 
Heartbeat_Variant_3_evicts 0 : 0 1 : 0 2 : 0 3 : 0 
Heartbeat CPU 0 instructions: 100000002 cycles: 52052034 heartbeat IPC: 1.31715 cumulative IPC: 1.31346 (Simulation time: 0 hr 16 min 4 sec) 
Finished CPU 0 instructions: 50000000 cycles: 38067496 cumulative IPC: 1.31346 (Simulation time: 0 hr 16 min 4 sec) 

ChampSim completed all CPUs

Region of Interest Statistics

CPU 0 cumulative IPC: 1.31346 instructions: 50000000 cycles: 38067496
 Fetch stage stalled: 64.6753  Sim cycles: 38067496 fetch stall cycle: 24620276
 Empty decode stage: 62.7678  Sim cycles: 38067496 fetch stall cycle: 23894134
ITLB TOTAL     ACCESS:    5867106  HIT:    5372904  MISS:     494202  HIT %:    91.5767  MISS %:    8.42327   MPKI: 9.88404
ITLB LOAD TRANSLATION INSTRUCTION	ACCESS:    5756139  HIT:    5261937  MISS:     494202  HIT %:    91.4143  MISS %:    8.58565  MPKI: 9.88404
ITLB TRANSLATION FROM L1D PREFETCHER INSTRUCTION	ACCESS:     110967  HIT:     110967  MISS:          0  HIT %:        100  MISS %:          0  MPKI: 0

ITLB AVERAGE MISS LATENCY: 9.05449 cycles
ITLB RQ	ACCESS:    7985774	FORWARD:          0	MERGED:    1708136	TO_CACHE:    6277638

DTLB TOTAL     ACCESS:    9105794  HIT:    8629231  MISS:     476563  HIT %:    94.7664  MISS %:    5.23362   MPKI: 9.53126
DTLB LOAD TRANSLATION DATA	ACCESS:    9105794  HIT:    8629231  MISS:     476563  HIT %:    94.7664  MISS %:    5.23362  MPKI: 9.53126

DTLB AVERAGE MISS LATENCY: 9.30783 cycles
DTLB RQ	ACCESS:   13450782	FORWARD:          0	MERGED:    4308314	TO_CACHE:    9142468

STLB TOTAL     ACCESS:    1219936  HIT:    1217952  MISS:       1984  HIT %:    99.8374  MISS %:   0.162631   MPKI: 0.03968
STLB LOAD TRANSLATION INSTRUCTION	ACCESS:     494202  HIT:     493956  MISS:        246  HIT %:    99.9502  MISS %:  0.0497772  MPKI: 0.00492
STLB LOAD TRANSLATION DATA	ACCESS:     476527  HIT:     474814  MISS:       1713  HIT %:    99.6405  MISS %:   0.359476  MPKI: 0.03426
STLB TRANSLATION FROM L1D PREFETCHER DATA	ACCESS:     249207  HIT:     249182  MISS:         25  HIT %:      99.99  MISS %:  0.0100318  MPKI: 0.0005

STLB AVERAGE MISS LATENCY: 71.4078 cycles
STLB RQ	ACCESS:    1339680	FORWARD:          0	MERGED:     119705	TO_CACHE:    1219975

STLB Hit, L1D data hit: 0
STLB Hit, L2C data hit: 0
STLB Hit, LLC data hit: 0
STLB Hit, LLC data miss: 0
STLB STLB hints to L2: 0
L1D TOTAL     ACCESS:   13202109  HIT:   12088439  MISS:    1113670  HIT %:    91.5645  MISS %:    8.43555   MPKI: 22.2734
L1D LOAD DATA	ACCESS:    6662386  HIT:    5926746  MISS:     735640  HIT %:    88.9583  MISS %:    11.0417  MPKI: 14.7128
L1D RFO DATA	ACCESS:    6212037  HIT:    5926649  MISS:     285388  HIT %:    95.4059  MISS %:    4.59411  MPKI: 5.70776
L1D PREFETCH DATA	ACCESS:     327686  HIT:     235044  MISS:      92642  HIT %:    71.7284  MISS %:    28.2716  MPKI: 1.85284

L1D PREFETCH  REQUESTED:     738119  ISSUED:     738119  USEFUL:      33181  USELESS:      68409
L1D USEFUL LOAD PREFETCHES:      33181 PREFETCH ISSUED TO LOWER LEVEL:     101659  ACCURACY: 32.6395
 TIMELY PREFETCHES:      33181 LATE PREFETCHES: 8966 DROPPED PREFETCHES: 6
L1D AVERAGE MISS LATENCY: 269998 cycles
L1D RQ	ACCESS:   10758702	FORWARD:          0	MERGED:    3899122	TO_CACHE:    6695201
L1D WQ	ACCESS:    6943836	FORWARD:     164668	MERGED:     188255	TO_CACHE:    6755581
L1D PQ	ACCESS:     369204	FORWARD:          0	MERGED:          0	TO_CACHE:     368915

L1D UNIQUE REGIONS ACCESSED: 0
L1D REGIONS CONFLICTS: 0
L1D Cross Page Prefetch Requests: 7023
L1D Same Page Prefetch Requests: 747196
L1D ROI Sum of L1D PQ occupancy: 4687494
L1D PREFETCHES PUSHED FROM L2C: 0
L1I TOTAL     ACCESS:    7238631  HIT:    4474954  MISS:    2763677  HIT %:    61.8204  MISS %:    38.1796   MPKI: 55.2735
L1I LOAD INSTRUCTION	ACCESS:    6602610  HIT:    3838933  MISS:    2763677  HIT %:    58.1427  MISS %:    41.8573  MPKI: 55.2735
L1I PREFETCH INSTRUCTION	ACCESS:     636021  HIT:     636021  MISS:          0  HIT %:        100  MISS %:          0  MPKI: 0

L1I PREFETCH  REQUESTED:    1527429  ISSUED:    1527429  USEFUL:          0  USELESS:          0
L1I USEFUL LOAD PREFETCHES:          0 PREFETCH ISSUED TO LOWER LEVEL:          0  ACCURACY: -nan
 TIMELY PREFETCHES:          0 LATE PREFETCHES: 0 DROPPED PREFETCHES: 0
L1I AVERAGE MISS LATENCY: 17.2147 cycles
L1I RQ	ACCESS:    9440927	FORWARD:          0	MERGED:    2562708	TO_CACHE:    6878219
L1I PQ	ACCESS:    1527429	FORWARD:          0	MERGED:     419874	TO_CACHE:    1107555

L1BTB TOTAL     ACCESS:    5671892  HIT:    2043712  MISS:    3628180  HIT %:    36.0323  MISS %:    63.9677   MPKI: 72.5636
L1BTB BRANCH_DIRECT_JUMP	ACCESS:     548746  HIT:     144632  MISS:     404114	AVERAGE STALL: 34.8982
L1BTB BRANCH_INDIRECT	ACCESS:     183366  HIT:      66349  MISS:     117017	AVERAGE STALL: 77.0039
L1BTB BRANCH_CONDITIONAL	ACCESS:    2710563  HIT:    1417654  MISS:    1292909	AVERAGE STALL: 48.1007
L1BTB BRANCH_DIRECT_CALL	ACCESS:     943396  HIT:     104638  MISS:     838758	AVERAGE STALL: 51.8801
L1BTB BRANCH_INDIRECT_CALL	ACCESS:     171214  HIT:      20845  MISS:     150369	AVERAGE STALL: 103.336
L1BTB BRANCH_RETURN	ACCESS:    1114607  HIT:     289594  MISS:     825013	AVERAGE STALL: 39.1656
L1BTB BRANCH_OTHER ACCESS:          0  HIT:          0  MISS:          0	AVERAGE STALL: -nan
L1BTB TOTAL ROB OCCUPANCY AT BTB MISS: 1.90169

L2BTB TOTAL     ACCESS:    3602729  HIT:    3537863  MISS:      64866  HIT %:    98.1995  MISS %:    1.80047   MPKI: 1.29732
L2BTB BRANCH_DIRECT_JUMP	ACCESS:     399920  HIT:     394910  MISS:       5010	AVERAGE STALL: 34.8982
L2BTB BRANCH_INDIRECT	ACCESS:     106719  HIT:     104047  MISS:       2672	AVERAGE STALL: 77.0039
L2BTB BRANCH_CONDITIONAL	ACCESS:    1292909  HIT:    1289616  MISS:       3293	AVERAGE STALL: 48.1007
L2BTB BRANCH_DIRECT_CALL	ACCESS:     838758  HIT:     837926  MISS:        832	AVERAGE STALL: 51.8801
L2BTB BRANCH_INDIRECT_CALL	ACCESS:     140807  HIT:     130623  MISS:      10184	AVERAGE STALL: 103.336
L2BTB BRANCH_RETURN	ACCESS:     823616  HIT:     780741  MISS:      42875	AVERAGE STALL: 39.1656
L2BTB BRANCH_OTHER ACCESS:          0  HIT:          0  MISS:          0	AVERAGE STALL: -nan
L2BTB TOTAL ROB OCCUPANCY AT BTB MISS: 106.368

L2C TOTAL     ACCESS:    4487808  HIT:    3986193  MISS:     501615  HIT %:    88.8227  MISS %:    11.1773   MPKI: 10.0323
L2C LOAD INSTRUCTION	ACCESS:    2763677  HIT:    2498308  MISS:     265369  HIT %:     90.398  MISS %:    9.60203  MPKI: 5.30738
L2C LOAD TRANSLATION INSTRUCTION	ACCESS:        276  HIT:         73  MISS:        203  HIT %:    26.4493  MISS %:    73.5507  MPKI: 0.00406
L2C LOAD DATA	ACCESS:     726661  HIT:     644115  MISS:      82546  HIT %:    88.6404  MISS %:    11.3596  MPKI: 1.65092
L2C RFO DATA	ACCESS:     285312  HIT:     227837  MISS:      57475  HIT %:    79.8554  MISS %:    20.1446  MPKI: 1.1495
L2C PREFETCH DATA	ACCESS:     189520  HIT:     113842  MISS:      75678  HIT %:    60.0686  MISS %:    39.9314  MPKI: 1.51356
L2C WRITEBACK DATA	ACCESS:     520535  HIT:     501502  MISS:      19033  HIT %:    96.3436  MISS %:    3.65643  MPKI: 0.38066
L2C LOAD TRANSLATION DATA	ACCESS:       1785  HIT:        485  MISS:       1300  HIT %:    27.1709  MISS %:    72.8291  MPKI: 0.026
L2C TRANSLATION FROM L1D PREFETCHER DATA	ACCESS:         42  HIT:         31  MISS:         11  HIT %:    73.8095  MISS %:    26.1905  MPKI: 0.00022

L2C PREFETCH  REQUESTED:      95709  ISSUED:      95709  USEFUL:       8409  USELESS:      68022
L2C USEFUL LOAD PREFETCHES:       8409 PREFETCH ISSUED TO LOWER LEVEL:      76454  ACCURACY: 10.9988
 TIMELY PREFETCHES:       8409 LATE PREFETCHES: 776 DROPPED PREFETCHES: 0
L2C AVERAGE MISS LATENCY: 37.4005 cycles
L2C RQ	ACCESS:    3777791	FORWARD:          0	MERGED:          0	TO_CACHE:    3777753
L2C WQ	ACCESS:     520535	FORWARD:         38	MERGED:          0	TO_CACHE:     520535
L2C PQ	ACCESS:     197368	FORWARD:          0	MERGED:       3202	TO_CACHE:     194166

L2C Dense regions hint from L2: 0
PSCL5 TOTAL     ACCESS:       3992  HIT:       1996  MISS:       1996  HIT %:         50  MISS %:         50   MPKI: 0.03992
PSCL5 LOAD TRANSLATION INSTRUCTION	ACCESS:       3908  HIT:       1954  MISS:       1954  HIT %:         50  MISS %:         50  MPKI: 0.03908
PSCL5 TRANSLATION FROM L1D PREFETCHER INSTRUCTION	ACCESS:         84  HIT:         42  MISS:         42  HIT %:         50  MISS %:         50  MPKI: 0.00084


PSCL4 TOTAL     ACCESS:       3775  HIT:       1883  MISS:       1892  HIT %:    49.8808  MISS %:    50.1192   MPKI: 0.03784
PSCL4 LOAD TRANSLATION INSTRUCTION	ACCESS:       2322  HIT:       1841  MISS:        481  HIT %:    79.2851  MISS %:    20.7149  MPKI: 0.00962
PSCL4 TRANSLATION FROM L1D PREFETCHER INSTRUCTION	ACCESS:         55  HIT:         42  MISS:         13  HIT %:    76.3636  MISS %:    23.6364  MPKI: 0.00026
PSCL4 LOAD TRANSLATION DATA	ACCESS:       1369  HIT:          0  MISS:       1369  HIT %:          0  MISS %:        100  MPKI: 0.02738
PSCL4 TRANSLATION FROM L1D PREFETCHER DATA	ACCESS:         29  HIT:          0  MISS:         29  HIT %:          0  MISS %:        100  MPKI: 0.00058


PSCL3 TOTAL     ACCESS:       3853  HIT:       1922  MISS:       1931  HIT %:    49.8832  MISS %:    50.1168   MPKI: 0.03862
PSCL3 LOAD TRANSLATION INSTRUCTION	ACCESS:       2361  HIT:       1880  MISS:        481  HIT %:    79.6273  MISS %:    20.3727  MPKI: 0.00962
PSCL3 TRANSLATION FROM L1D PREFETCHER INSTRUCTION	ACCESS:         55  HIT:         42  MISS:         13  HIT %:    76.3636  MISS %:    23.6364  MPKI: 0.00026
PSCL3 LOAD TRANSLATION DATA	ACCESS:       1408  HIT:          0  MISS:       1408  HIT %:          0  MISS %:        100  MPKI: 0.02816
PSCL3 TRANSLATION FROM L1D PREFETCHER DATA	ACCESS:         29  HIT:          0  MISS:         29  HIT %:          0  MISS %:        100  MPKI: 0.00058


PSCL2 TOTAL     ACCESS:       3903  HIT:       1907  MISS:       1996  HIT %:    48.8599  MISS %:    51.1401   MPKI: 0.03992
PSCL2 LOAD TRANSLATION INSTRUCTION	ACCESS:       2110  HIT:       1865  MISS:        245  HIT %:    88.3886  MISS %:    11.6114  MPKI: 0.0049
PSCL2 TRANSLATION FROM L1D PREFETCHER INSTRUCTION	ACCESS:         42  HIT:         42  MISS:          0  HIT %:        100  MISS %:          0  MPKI: 0
PSCL2 LOAD TRANSLATION DATA	ACCESS:       1709  HIT:          0  MISS:       1709  HIT %:          0  MISS %:        100  MPKI: 0.03418
PSCL2 TRANSLATION FROM L1D PREFETCHER DATA	ACCESS:         42  HIT:          0  MISS:         42  HIT %:          0  MISS %:        100  MPKI: 0.00084


LLC TOTAL     ACCESS:     566316  HIT:     539106  MISS:      27210  HIT %:    95.1953  MISS %:    4.80474   MPKI: 0.5442
LLC LOAD INSTRUCTION	ACCESS:     265369  HIT:     264473  MISS:        896  HIT %:    99.6624  MISS %:   0.337643  MPKI: 0.01792
LLC LOAD TRANSLATION INSTRUCTION	ACCESS:        203  HIT:        169  MISS:         34  HIT %:    83.2512  MISS %:    16.7488  MPKI: 0.00068
LLC LOAD DATA	ACCESS:      81848  HIT:      78628  MISS:       3220  HIT %:    96.0659  MISS %:    3.93412  MPKI: 0.0644
LLC RFO DATA	ACCESS:      57393  HIT:      44038  MISS:      13355  HIT %:    76.7306  MISS %:    23.2694  MPKI: 0.2671
LLC PREFETCH DATA	ACCESS:      76454  HIT:      67144  MISS:       9310  HIT %:    87.8227  MISS %:    12.1773  MPKI: 0.1862
LLC WRITEBACK DATA	ACCESS:      83738  HIT:      83416  MISS:        322  HIT %:    99.6155  MISS %:   0.384533  MPKI: 0.00644
LLC LOAD TRANSLATION DATA	ACCESS:       1300  HIT:       1227  MISS:         73  HIT %:    94.3846  MISS %:    5.61538  MPKI: 0.00146
LLC TRANSLATION FROM L1D PREFETCHER DATA	ACCESS:         11  HIT:         11  MISS:          0  HIT %:        100  MISS %:          0  MPKI: 0

LLC AVERAGE MISS LATENCY: 155.857 cycles
LLC RQ	ACCESS:     406128	FORWARD:          0	MERGED:          0	TO_CACHE:     406124
LLC WQ	ACCESS:      83738	FORWARD:          4	MERGED:          0	TO_CACHE:      83738
LLC PQ	ACCESS:      76454	FORWARD:          0	MERGED:          0	TO_CACHE:      76454

LLC Dense regions hint to LLC: 0

RAW hits: 1874100
Loads Generated: 12632804
Loads sent to L1D: 10758702
Stores Generated: 6943833
Stores sent to L1D: 6943836
Major fault: 0 Minor fault: 2545
Allocated PAGES: 2545

stream: 
stream:times selected: 1188287
stream:pref_filled: 121890
stream:pref_useful: 23372
stream:pref_late: 7264
stream:misses: 7998
stream:misses_by_poll: 0

CS: 
CS:times selected: 180894
CS:pref_filled: 59637
CS:pref_useful: 36429
CS:pref_late: 7617
CS:misses: 16412
CS:misses_by_poll: 4

CPLX: 
CPLX:times selected: 1006271
CPLX:pref_filled: 19400
CPLX:pref_useful: 4391
CPLX:pref_late: 3190
CPLX:misses: 94195
CPLX:misses_by_poll: 0

NL_L1: 
NL:times selected: 20549
NL:pref_filled: 641
NL:pref_useful: 275
NL:pref_late: 387
NL:misses: 1699
NL:misses_by_poll: 0

total selections: 2396001
total_filled: 92642
total_useful: 33181
total_late: 19935
total_polluted: 4
total_misses_after_warmup: 768455
conflicts: 5568400

test: 116687

DRAM Statistics
 CHANNEL 0
 RQ ROW_BUFFER_HIT:       9964  ROW_BUFFER_MISS:      16912
 DBUS_CONGESTED:          7
 WQ ROW_BUFFER_HIT:       1304  ROW_BUFFER_MISS:      11925  FULL:          0

 AVG_CONGESTED_CYCLE: 6

CPU 0 Branch Prediction Accuracy: 99.8223% MPKI: 0.32502 Average ROB Occupancy at Mispredict: 152.983
Branch types
NOT_BRANCH: 40852703 81.7054%
BRANCH_DIRECT_JUMP: 548746 1.09749%
BRANCH_INDIRECT: 183366 0.366732%
BRANCH_CONDITIONAL: 6185517 12.371%
BRANCH_DIRECT_CALL: 943396 1.88679%
BRANCH_INDIRECT_CALL: 171214 0.342428%
BRANCH_RETURN: 1114607 2.22921%
BRANCH_OTHER: 0 0%

DRAM PAGES: 1048576
Allocated PAGES: 2545
Average_ROB_Occupancy: 172.641
Average_Decode_Occupancy: 20.5312
Average_FTQ_Occupancy: 8.5975
Indirect max targets: 14 Average targets: 1.14527
Branch_type:  BRANCH_DIRECT_JUMP:  Count Percentage: 2.51394 6.83069 4.03621 9.36069 1.69652 6.29142 0.26767 69.0029 
Branch_type:  BRANCH_INDIRECT:  Count Percentage: 14.4773 0.804522 2.54797 0 1.33613 9.66983 2.27151 68.8927 
Branch_type:  BRANCH_CONDITIONAL:  Count Percentage: 21.2518 2.5784 1.75294 5.52862 1.27799 9.50553 3.57491 54.5298 
Branch_type:  BRANCH_DIRECT_CALL:  Count Percentage: 0.769917 1.30846 1.28201 4.55414 2.1969 2.67661 0.569341 86.6426 
Branch_type:  BRANCH_INDIRECT_CALL:  Count Percentage: 9.55435 0 2.99454 8.70743 0 2.3401 1.28496 75.1186 
Branch_type:  BRANCH_RETURN:  Count Percentage: 4.90626 0.785382 1.16408 6.19804 2.06156 9.62936 4.27705 70.9783 
Branch_type:  BRANCH_DIRECT_JUMP:  Total Count: 27556 74873 44242 102605 18596 68962 2934 756359 
Branch_type:  BRANCH_INDIRECT:  Total Count: 52995 2945 9327 0 4891 35397 8315 252186 
Branch_type:  BRANCH_CONDITIONAL:  Total Count: 2626633 318679 216656 683313 157954 1174843 441844 6739647 
Branch_type:  BRANCH_DIRECT_CALL:  Total Count: 14525 24685 24186 85917 41446 50496 10741 1634572 
Branch_type:  BRANCH_INDIRECT_CALL:  Total Count: 32761 0 10268 29857 0 8024 4406 257575 
Branch_type:  BRANCH_RETURN:  Total Count: 109422 17516 25962 138232 45978 214759 95389 1582995 
Number of unique branch instructions: 9824
Upper 32 bits: 
aaaa
ffff
ffff0000
Unique upper 32 bits: 3
Unique upper 36 bits: 3
Unique upper 40 bits: 5
Unique upper 44 bits: 32
Unique upper 48 bits: 154
Variant_0 : 1380 0.336914
Variant_1 : 1263 0.30835
Variant_2 : 1367 0.33374
Variant_3 : 0 0
Offset_3 4037
Offset_4 247
Offset_5 449
Offset_6 502
Offset_7 576
Offset_8 508
Offset_9 465
Offset_10 376
Offset_11 303
Offset_12 269
Offset_13 203
Offset_14 227
Offset_15 185
Offset_16 222
Offset_17 146
Offset_18 118
Offset_19 236
Offset_20 136
Offset_21 235
Offset_22 392
Offset_23 241
Offset_24 332
Offset_25 88
Offset_47 82
decode_dispatch_called: 21711352 57.0338
Dispatch_width: 0 11260108 51.8628 29.5793
Dispatch_width: 1 655827 3.02066 1.7228
Dispatch_width: 2 684900 3.15457 1.79917
Dispatch_width: 3 460619 2.12156 1.21001
Dispatch_width: 4 2510103 11.5612 6.59382
Dispatch_width: 5 286971 1.32176 0.753848
Dispatch_width: 6 5852824 26.9574 15.3749
Empty_decode_cycles: 16356144 42.9662
ROB_full_cycles: 3867850 10.1605
Starvation_cycles_per_kilo_instr: 283.468
Starvation_cycles_per_kilo_instr_3: 255.497
Starvation_cycles_per_kilo_instr_0: 237.484
Branch_type_1  (3,1)  (4,9)  (5,37)  (6,70)  (7,114)  (8,127)  (9,122)  (10,97)  (11,67)  (12,43)  (13,5)  (14,2)  (15,3)  (16,4)  (18,1)  (19,4)  (20,2)  (21,1)  (22,3)  (23,2)  (24,10)  (25,12) 
Branch_type_2  (3,1)  (5,1)  (8,3)  (9,3)  (12,1)  (13,1)  (14,1)  (16,3)  (17,2)  (20,2)  (21,2)  (23,5)  (24,1)  (47,38) 
Branch_type_3  (3,4035)  (4,238)  (5,407)  (6,417)  (7,433)  (8,319)  (9,257)  (10,153)  (11,120)  (12,50)  (13,4) 
Branch_type_4  (6,3)  (7,8)  (8,25)  (9,51)  (10,60)  (11,59)  (12,96)  (13,88)  (14,100)  (15,87)  (16,99)  (17,65)  (18,53)  (19,115)  (20,71)  (21,124)  (22,208)  (23,136)  (24,193)  (25,72) 
Branch_type_5  (8,2)  (9,1)  (10,3)  (11,5)  (12,3)  (13,14)  (14,16)  (15,11)  (16,20)  (17,11)  (18,16)  (19,12)  (20,10)  (21,13)  (22,42)  (23,26)  (24,37) 
Branch_type_6  (5,4)  (6,12)  (7,21)  (8,32)  (9,31)  (10,63)  (11,52)  (12,76)  (13,91)  (14,108)  (15,84)  (16,96)  (17,68)  (18,48)  (19,105)  (20,51)  (21,95)  (22,139)  (23,72)  (24,91)  (25,4)  (47,44) 
Unique trigger count: 
Variant_0_evicts_0 : 0
Variant_0_evicts_1 : 0
Variant_0_evicts_2 : 0
Variant_0_evicts_3 : 0
Variant_1_evicts_0 : 0
Variant_1_evicts_1 : 0
Variant_1_evicts_2 : 0
Variant_1_evicts_3 : 0
Variant_2_evicts_0 : 0
Variant_2_evicts_1 : 0
Variant_2_evicts_2 : 0
Variant_2_evicts_3 : 0
Variant_3_evicts_0 : 0
Variant_3_evicts_1 : 0
Variant_3_evicts_2 : 0
Variant_3_evicts_3 : 0
BTB PER SET UNIQUE ADDR: 8 9 6 12 13 8 8 12 11 9 13 16 19 8 9 13 6 7 6 8 11 10 13 7 10 10 10 8 11 10 12 11 13 6 7 12 13 14 9 12 7 9 14 11 9 8 12 7 11 6 15 11 8 10 9 5 8 9 7 9 12 13 9 9 9 12 11 7 16 11 10 13 13 6 9 7 5 9 8 12 13 7 9 9 11 13 13 8 6 16 7 6 15 4 6 9 10 7 8 10 17 15 13 11 10 6 12 13 7 9 7 13 12 11 12 4 8 10 10 10 11 9 8 7 11 9 5 9 14 12 7 10 11 9 5 13 8 13 13 22 8 11 12 13 9 9 16 7 5 10 13 8 9 9 11 14 15 12 13 9 14 6 15 14 8 12 10 7 7 7 11 7 10 11 4 12 10 7 8 9 5 11 9 10 13 12 5 12 10 10 10 11 8 11 11 12 5 12 12 10 13 13 7 8 6 8 12 13 10 8 10 9 10 8 11 15 10 10 13 19 7 13 10 9 7 10 17 10 7 13 8 7 10 13 4 9 10 10 13 8 11 9 12 11 9 9 10 9 9 10 12 7 13 9 9 13 10 8 9 8 11 9 5 11 8 4 8 9 7 9 5 9 4 5 9 9 8 13 12 9 8 11 6 9 11 7 12 15 16 13 10 8 10 15 6 11 15 8 9 15 8 11 9 9 11 7 13 11 12 7 11 15 8 14 8 6 10 9 16 9 10 13 7 11 10 10 12 12 7 9 11 7 9 10 10 9 12 6 6 15 9 7 6 12 16 13 8 11 8 10 7 5 10 5 14 11 9 8 7 7 10 9 8 12 9 9 6 12 13 11 8 6 10 13 7 13 13 14 13 13 15 9 7 10 8 9 7 9 12 11 14 7 10 13 7 6 8 12 9 8 11 11 12 9 17 11 11 10 13 10 8 3 9 16 10 10 9 19 18 13 11 10 11 11 11 9 11 11 12 10 13 7 8 7 8 12 10 7 7 8 10 7 9 10 19 11 6 12 10 8 14 10 15 8 14 17 16 14 8 13 6 8 14 9 10 13 7 13 5 12 8 12 8 7 15 15 7 14 7 13 15 7 11 12 8 10 17 11 13 11 7 13 7 6 8 10 12 9 9 8 11 14 10 16 9 9 6 15 16 12 10 15 5 8 9 13 12 10 8 10 9 9 10 8 13 14 14 8 8 14 12 13 10 8 12 16 8 10 13 13 11 8 10 10 11 16 10 11 8 11 12 17 15 13 9 9 13 8 11 12 9 11 10 7 9 9 9 12 8 9 11 12 17 9 11 10 9 13 9 9 15 10 7 11 12 11 13 5 16 12 6 12 8 8 12 7 8 9 8 11 9 8 8 5 12 9 12 7 8 10 16 9 8 11 5 10 11 8 9 12 12 15 6 8 9 11 7 16 9 12 6 13 10 9 8 9 16 11 6 19 11 10 15 8 12 12 9 11 12 10 11 9 11 12 8 11 11 12 9 10 9 6 13 16 9 12 7 9 12 8 14 7 12 12 10 6 13 15 11 14 15 12 9 16 15 12 12 6 18 11 13 13 10 5 10 12 10 12 6 12 6 11 12 7 5 14 12 8 7 5 11 11 10 10 6 9 13 13 8 11 13 9 10 11 11 11 11 6 9 11 13 7 11 10 9 7 13 11 12 10 10 9 11 9 12 15 11 9 8 7 12 12 12 10 11 8 9 7 7 5 9 7 9 9 11 12 13 10 7 10 7 20 9 5 8 8 14 6 11 9 8 10 9 10 12 10 6 9 10 5 8 7 12 10 14 13 10 11 11 10 13 11 14 9 17 12 11 9 8 15 8 15 12 8 10 11 15 14 6 15 8 14 10 11 11 7 8 8 16 11 9 10 10 8 12 14 10 8 11 9 13 10 7 11 9 19 8 11 9 8 8 12 11 14 13 14 9 10 12 10 10 10 10 14 9 9 11 9 14 6 8 9 14 11 15 7 13 8 9 9 7 8 11 8 15 14 15 9 12 14 12 8 9 11 8 10 14 11 10 7 12 9 11 13 8 10 6 11 8 12 12 10 13 14 10 9 11 12 11 7 9 13 9 4 7 10 7 9 13 8 10 19 16 11 9 7 11 9 10 10 7 12 10 10 9 12 12 13 8 10 8 11 9 12 9 9 7 9 12 9 9 11 11 16 14 12 12 10 8 15 8 14 10 11 14 10 11 10 11 10 11 7 8 6 7 15 13 12 13 8 12 9 8 12 9 11 8 10 13 8 12 12 7 11 14 12 7 12 9 12 11 13 9 7 13 9 6 9 7 8 12 14 14 9 
BTB PER SET COUNT: 11 11 1968 21 1168 10 8 741 1481 9 15 72 1080 12 14 16 981 11 369 8 16 13 786 7 12 13 14 1142 13 13 153 15 15 6 11 983 18 344 11 2282 7 12 18 16 10 10 18 8 14 7 16 424 13 10 11 5 8 11 9 10 12 15 10 12 9 15 14 866 17 11 10 296 15 9 13 10 9 9 17 14 16 8 12 15 15 13 15 10 6 22 12 826 511 4 6 9 14 8 9 11 24 735 14 13 1973 6 15 13 949 10 8 19 487 11 17 4 11 11 1472 12 17 11 11 8 11 13 7 11 20 886 7 11 12 12 6 13 976 22 17 29 14 20 17 19 14 203 376 10 5 14 20 173 1597 9 13 23 1456 12 15 126 24 211 39 19 41 23 12 7 9 1740 12 10 14 14 4 14 13 9 9 993 266 246 33 10 17 12 6 21 12 1249 12 11 13 11 11 150 5 336 17 14 13 93 8 12 12 9 14 26 12 8 13 13 12 12 11 17 13 12 2169 26 8 19 405 9 13 27 19 10 10 16 12 10 14 23 4 19245 11 15 16 8 16 10 477 505 12 769 12 13 9 12 17 7 15 9 9 22 13 30 10 12 69 12 5 228 8 4 8 10 1543 11 6 9 4 5 9 9 10 14 19 777 11 16 6 9 11 10 12 20 17 15 13 9 10 516 8 11 2593 11 11 21 10 12 10 15 13 7 114 13 224 8 11 17 9 18 1157 8 12 18 19 16 14 5509 11 12 12 12 14 19 8 13 15 14 13 12 11 13 16 7 7 22 10 207 6 23 25 14 8 15 9 15 10 1473 17 6 14 11 9 8 492 8 12 9 8 14 14 11 6 15 19 14 10 730 13 15 8 19 13 16 15 47 275 9 984 11 9 10 396 9 18 69 23 8 13 21 7 6 9 20 10 8 11 13 14 9 27 14 13 447 18 13 8 3 11 996 12 16 12 155 20 18 20 33 19 14 15 17 1458 17 16 12 17 8 11 8 13 24 15 301 9 11 10 9 34 13 31 12 6 16 12 9 877 2782 19 9 20 21 17 16 8 18 6 9 24 11 12 17 8 13 5 14 11 16 13 10 21 20 8 17 9 18 23 9 13 15 8 486 31 13 19 11 940 28 8825 7 8 11 1703 13 17 11 16 15 10 162 15 11 8 20 18 12 270 2785 986 698 11 16 13 13 9 12 9 10 10 37 13 17 71 1468 8 64 18 122 260 9 16 20 134 993 13 293 11 9 41 10 17 41 12 15 10 1715 19 21 705 245 14 10 19 8 18 17 9 12 11 8 1528 10 150 16 11 11 12 15 22 11 2446 16 10 17 12 9 17 10 8 928 12 14 399 7 19 12 10 18 9 8 18 15 2330 388 8 11 9 10 16 6 14 12 12 992 10 10 18 769 9 12 7 11 32 8 13 21 23 22 9 989 10 11 7 23 12 22 6 18 13 13 10 12 23 213 6 73 21 13 25 10 1053 161 989 11 19 16 16 9 14 16 10 509 15 15 520 12 10 6 17 18 170 13 8 992 1069 11 20 7 20 12 13 6 21 18 13 23 20 14 12 21 20 20 12 6 23 12 19 13 10 5 2063 15 294 109 7 12 7 18 318 7 8 17 17 9 7 5 384 504 1025 11 7 9 16 21 8 399 18 9 11 1478 2686 12 13 7 984 16 21 13 14 139 9 984 275 16 14 12 622 11 752 82 1154 21 11 13 11 7 1479 18 12 1968 1132 8 10 10 7 5 12 12 10 14 18 18 17 10 9 10 7 30 9 7 11 8 18 9 11 11 538 10 386 10 16 13 7 11 11 5 9 925 18 13 648 18 16 14 16 985 19 27 17 15 21 16 20 9 11 74 8 18 17 11 432 687 22 1942 6 671 11 766 10 19 12 28 10 10 20 11 12 19 12 12 514 1810 13 9 14 10 14 14 7 20 42 27 13 12 13 14677 8 260 13 22 1478 17 13 13 16 10 72 14 10 19 9 14 14 11 16 8 8 12 14 16 19 7 13 11 10 10 8 9 14 11 24 46 16 9 12 18 15 8 9 32 10 17 19 12 1700 10 13 11 11 15 11 17 6 20 10 128 142 457 22 23 12 10 440 242 15 9 11 16 391 4 10 12 7 12 13 10 14 19 1133 13 12 169 12 12 12 11 7 973 15 12 9 18 23 21 9 11 10 97 1479 1484 11 11 13 11 13 13 267 16 704 17 16 15 1484 14 48 20 8 2216 14 15 503 10 18 14 11 19 15 8 11 982 7 189 20 125 14 21 13 12 152 282 10 13 11 1479 20 8 128 329 7 16 17 17 10 15 12 988 501 16 15 7 18 11 7 15 8 9 15 17 19 9 
To predecode: 0
Predecoding something: 0
Predecode request dropped: 0
sizeofblock_0 0
sizeofblock_1 36716
sizeofblock_2 41557
sizeofblock_3 40450
sizeofblock_4 18813
sizeofblock_5 0
sizeofblock_6 0
sizeofblock_7 0
sizeofblock_8 0
Variant_0 Correct: 1613523 Incorrect: 0 Accuracy: 1
Variant_1 Correct: 2091980 Incorrect: 0 Accuracy: 1
Variant_2 Correct: 3643379 Incorrect: 0 Accuracy: 1
Variant_3 Correct: 0 Incorrect: 0 Accuracy: -nan
