
*** ChampSim Multicore Out-of-Order Simulator ***

Warmup Instructions: 50000000
Simulation Instructions: 50000000
Number of CPUs: 1
LLC sets: 2048
LLC ways: 16
Off-chip DRAM Size: 4096 MB Channels: 1 Width: 64-bit Data Rate: 6400 MT/s
CPU 0 runs ./micro_traces/srv307.trace.gz
.gz
ITLB has LRU replacement policy
DTLB has LRU replacement policy
STLB has LRU replacement policy
FDIP Prefetcher at L1I
L1I has LRU replacement policy
L1D has LRU replacement policy
Initialize SRRIP state for L2C
Initialize DRRIP state for LLC
Heartbeat CPU 0 instructions: 10000002 cycles: 2797445 heartbeat IPC: 3.57469 cumulative IPC: 3.57469 (Simulation time: 0 hr 2 min 14 sec) 
Heartbeat CPU 0 instructions: 20000003 cycles: 5593836 heartbeat IPC: 3.57604 cumulative IPC: 3.57536 (Simulation time: 0 hr 4 min 19 sec) 
Heartbeat CPU 0 instructions: 30000003 cycles: 8391893 heartbeat IPC: 3.57391 cumulative IPC: 3.57488 (Simulation time: 0 hr 6 min 21 sec) 
Heartbeat CPU 0 instructions: 40000003 cycles: 11188932 heartbeat IPC: 3.57521 cumulative IPC: 3.57496 (Simulation time: 0 hr 8 min 27 sec) 
Heartbeat CPU 0 instructions: 50000002 cycles: 13985855 heartbeat IPC: 3.57536 cumulative IPC: 3.57504 (Simulation time: 0 hr 10 min 24 sec) 

Warmup complete CPU 0 instructions: 50000002 cycles: 13985855 (Simulation time: 0 hr 10 min 24 sec) 

Cycle: 20000000 FTQ IN: 58267811 FTQ occupancy: 20.6462 DECODE IN: 58267811 DECODE occupancy: 53.5996 ROB IN: 58267811 ROB occupancy: 319.172 ROB OUT: 58267515
Heartbeat CPU 0 instructions: 60000002 cycles: 21241515 heartbeat IPC: 1.37823 cumulative IPC: 1.37823 (Simulation time: 0 hr 12 min 57 sec) 
Heartbeat CPU 0 instructions: 70000002 cycles: 28406627 heartbeat IPC: 1.39565 cumulative IPC: 1.38689 (Simulation time: 0 hr 15 min 24 sec) 
Cycle: 30000000 FTQ IN: 13964480 FTQ occupancy: 15.094 DECODE IN: 13964374 DECODE occupancy: 38.7778 ROB IN: 13964314 ROB occupancy: 252.753 ROB OUT: 13964262
Heartbeat CPU 0 instructions: 80000000 cycles: 35628325 heartbeat IPC: 1.38472 cumulative IPC: 1.38616 (Simulation time: 0 hr 17 min 41 sec) 
Cycle: 40000000 FTQ IN: 13668317 FTQ occupancy: 15.0462 DECODE IN: 13668381 DECODE occupancy: 38.2773 ROB IN: 13668381 ROB occupancy: 248.293 ROB OUT: 13668377
Heartbeat CPU 0 instructions: 90000003 cycles: 42933858 heartbeat IPC: 1.36883 cumulative IPC: 1.38179 (Simulation time: 0 hr 20 min 15 sec) 
Cycle: 50000000 FTQ IN: 14005460 FTQ occupancy: 15.0857 DECODE IN: 14005442 DECODE occupancy: 38.6998 ROB IN: 14005475 ROB occupancy: 250.991 ROB OUT: 14005542
*** Reached end of trace for Core: 0 Repeating trace: ./micro_traces/srv307.trace.gz
Heartbeat CPU 0 instructions: 100000000 cycles: 50065181 heartbeat IPC: 1.40226 cumulative IPC: 1.38584 (Simulation time: 0 hr 22 min 5 sec) 
Finished CPU 0 instructions: 50000001 cycles: 36079327 cumulative IPC: 1.38584 (Simulation time: 0 hr 22 min 5 sec) 

ChampSim completed all CPUs

Region of Interest Statistics

CPU 0 cumulative IPC: 1.38584 instructions: 50000001 cycles: 36079327
 Fetch stage stalled: 45.186  Sim cycles: 36079327 fetch stall cycle: 16302802
 Empty decode stage: 24.3812  Sim cycles: 36079327 fetch stall cycle: 8796565
ITLB TOTAL     ACCESS:    5836990  HIT:    5345028  MISS:     491962  HIT %:    91.5716  MISS %:    8.42835   MPKI: 9.83924
ITLB LOAD TRANSLATION INSTRUCTION	ACCESS:    5703410  HIT:    5211448  MISS:     491962  HIT %:    91.3742  MISS %:    8.62575  MPKI: 9.83924
ITLB TRANSLATION FROM L1D PREFETCHER INSTRUCTION	ACCESS:     133580  HIT:     133580  MISS:          0  HIT %:        100  MISS %:          0  MPKI: 0

ITLB AVERAGE MISS LATENCY: 9.06492 cycles
ITLB RQ	ACCESS:    7950154	FORWARD:          0	MERGED:    1634690	TO_CACHE:    6315464

DTLB TOTAL     ACCESS:    8959741  HIT:    8490420  MISS:     469321  HIT %:    94.7619  MISS %:    5.23811   MPKI: 9.38642
DTLB LOAD TRANSLATION DATA	ACCESS:    8959741  HIT:    8490420  MISS:     469321  HIT %:    94.7619  MISS %:    5.23811  MPKI: 9.38642

DTLB AVERAGE MISS LATENCY: 9.34786 cycles
DTLB RQ	ACCESS:   13326971	FORWARD:          0	MERGED:    4330525	TO_CACHE:    8996446

STLB TOTAL     ACCESS:    1211398  HIT:    1209307  MISS:       2091  HIT %:    99.8274  MISS %:    0.17261   MPKI: 0.04182
STLB LOAD TRANSLATION INSTRUCTION	ACCESS:     491961  HIT:     491692  MISS:        269  HIT %:    99.9453  MISS %:  0.0546791  MPKI: 0.00538
STLB LOAD TRANSLATION DATA	ACCESS:     469321  HIT:     467523  MISS:       1798  HIT %:    99.6169  MISS %:   0.383107  MPKI: 0.03596
STLB TRANSLATION FROM L1D PREFETCHER DATA	ACCESS:     250116  HIT:     250092  MISS:         24  HIT %:    99.9904  MISS %: 0.00959555  MPKI: 0.00048

STLB AVERAGE MISS LATENCY: 78.9804 cycles
STLB RQ	ACCESS:    1333440	FORWARD:          0	MERGED:     122000	TO_CACHE:    1211440

STLB Hit, L1D data hit: 0
STLB Hit, L2C data hit: 0
STLB Hit, LLC data hit: 0
STLB Hit, LLC data miss: 0
STLB STLB hints to L2: 0
L1D TOTAL     ACCESS:   13077955  HIT:   11964842  MISS:    1113113  HIT %:    91.4886  MISS %:    8.51137   MPKI: 22.2623
L1D LOAD DATA	ACCESS:    6544885  HIT:    5811138  MISS:     733747  HIT %:     88.789  MISS %:     11.211  MPKI: 14.6749
L1D RFO DATA	ACCESS:    6202015  HIT:    5916807  MISS:     285208  HIT %:    95.4014  MISS %:    4.59863  MPKI: 5.70416
L1D PREFETCH DATA	ACCESS:     331055  HIT:     236897  MISS:      94158  HIT %:    71.5582  MISS %:    28.4418  MPKI: 1.88316

L1D PREFETCH  REQUESTED:     744714  ISSUED:     744714  USEFUL:      34005  USELESS:      67995
L1D USEFUL LOAD PREFETCHES:      34005 PREFETCH ISSUED TO LOWER LEVEL:     102107  ACCURACY: 33.3033
 TIMELY PREFETCHES:      34005 LATE PREFETCHES: 7871 DROPPED PREFETCHES: 10
L1D AVERAGE MISS LATENCY: 222877 cycles
L1D RQ	ACCESS:   10693167	FORWARD:          0	MERGED:    3946150	TO_CACHE:    6581111
L1D WQ	ACCESS:    6943592	FORWARD:     166306	MERGED:     197732	TO_CACHE:    6745860
L1D PQ	ACCESS:     372557	FORWARD:          0	MERGED:          0	TO_CACHE:     372157

L1D UNIQUE REGIONS ACCESSED: 0
L1D REGIONS CONFLICTS: 0
L1D Cross Page Prefetch Requests: 6903
L1D Same Page Prefetch Requests: 753520
L1D ROI Sum of L1D PQ occupancy: 4734855
L1D PREFETCHES PUSHED FROM L2C: 0
L1I TOTAL     ACCESS:    7130773  HIT:    4376025  MISS:    2754748  HIT %:    61.3682  MISS %:    38.6318   MPKI: 55.095
L1I LOAD INSTRUCTION	ACCESS:    6459417  HIT:    3704669  MISS:    2754748  HIT %:     57.353  MISS %:     42.647  MPKI: 55.095
L1I PREFETCH INSTRUCTION	ACCESS:     671356  HIT:     671356  MISS:          0  HIT %:        100  MISS %:          0  MPKI: 0

L1I PREFETCH  REQUESTED:    1625906  ISSUED:    1625906  USEFUL:          0  USELESS:          0
L1I USEFUL LOAD PREFETCHES:          0 PREFETCH ISSUED TO LOWER LEVEL:          0  ACCURACY: -nan
 TIMELY PREFETCHES:          0 LATE PREFETCHES: 0 DROPPED PREFETCHES: 0
L1I AVERAGE MISS LATENCY: 17.3632 cycles
L1I RQ	ACCESS:    9567846	FORWARD:          0	MERGED:    2815552	TO_CACHE:    6752294
L1I PQ	ACCESS:    1625906	FORWARD:          0	MERGED:     428046	TO_CACHE:    1197860

L1BTB TOTAL     ACCESS:    5670183  HIT:    2051551  MISS:    3618632  HIT %:    36.1814  MISS %:    63.8186   MPKI: 72.3726
L1BTB BRANCH_DIRECT_JUMP	ACCESS:     548687  HIT:     145652  MISS:     403035	AVERAGE STALL: 64.2451
L1BTB BRANCH_INDIRECT	ACCESS:     183413  HIT:      66311  MISS:     117102	AVERAGE STALL: 113.023
L1BTB BRANCH_CONDITIONAL	ACCESS:    2714090  HIT:    1424825  MISS:    1289265	AVERAGE STALL: 94.4312
L1BTB BRANCH_DIRECT_CALL	ACCESS:     941312  HIT:     104658  MISS:     836654	AVERAGE STALL: 81.0871
L1BTB BRANCH_INDIRECT_CALL	ACCESS:     170683  HIT:      20677  MISS:     150006	AVERAGE STALL: 146
L1BTB BRANCH_RETURN	ACCESS:    1111998  HIT:     289428  MISS:     822570	AVERAGE STALL: 50.4921
L1BTB BRANCH_OTHER ACCESS:          0  HIT:          0  MISS:          0	AVERAGE STALL: -nan
L1BTB TOTAL ROB OCCUPANCY AT BTB MISS: 2.40411

L2BTB TOTAL     ACCESS:    3593144  HIT:    3533905  MISS:      59239  HIT %:    98.3513  MISS %:    1.64867   MPKI: 1.18478
L2BTB BRANCH_DIRECT_JUMP	ACCESS:     398811  HIT:     394767  MISS:       4044	AVERAGE STALL: 64.2451
L2BTB BRANCH_INDIRECT	ACCESS:     106832  HIT:     104193  MISS:       2639	AVERAGE STALL: 113.023
L2BTB BRANCH_CONDITIONAL	ACCESS:    1289265  HIT:    1287724  MISS:       1541	AVERAGE STALL: 94.4312
L2BTB BRANCH_DIRECT_CALL	ACCESS:     836654  HIT:     835096  MISS:       1558	AVERAGE STALL: 81.0871
L2BTB BRANCH_INDIRECT_CALL	ACCESS:     140406  HIT:     130270  MISS:      10136	AVERAGE STALL: 146
L2BTB BRANCH_RETURN	ACCESS:     821176  HIT:     781855  MISS:      39321	AVERAGE STALL: 50.4921
L2BTB BRANCH_OTHER ACCESS:          0  HIT:          0  MISS:          0	AVERAGE STALL: -nan
L2BTB TOTAL ROB OCCUPANCY AT BTB MISS: 146.856

L2C TOTAL     ACCESS:    4487070  HIT:    3972193  MISS:     514877  HIT %:    88.5253  MISS %:    11.4747   MPKI: 10.2975
L2C LOAD INSTRUCTION	ACCESS:    2754749  HIT:    2488702  MISS:     266047  HIT %:    90.3422  MISS %:    9.65776  MPKI: 5.32094
L2C LOAD TRANSLATION INSTRUCTION	ACCESS:        307  HIT:         66  MISS:        241  HIT %:    21.4984  MISS %:    78.5016  MPKI: 0.00482
L2C LOAD DATA	ACCESS:     725861  HIT:     634477  MISS:      91384  HIT %:    87.4103  MISS %:    12.5897  MPKI: 1.82768
L2C RFO DATA	ACCESS:     285106  HIT:     227929  MISS:      57177  HIT %:    79.9454  MISS %:    20.0546  MPKI: 1.14354
L2C PREFETCH DATA	ACCESS:     199157  HIT:     119217  MISS:      79940  HIT %:    59.8608  MISS %:    40.1392  MPKI: 1.5988
L2C WRITEBACK DATA	ACCESS:     519973  HIT:     501256  MISS:      18717  HIT %:    96.4004  MISS %:    3.59961  MPKI: 0.37434
L2C LOAD TRANSLATION DATA	ACCESS:       1865  HIT:        513  MISS:       1352  HIT %:    27.5067  MISS %:    72.4933  MPKI: 0.02704
L2C TRANSLATION FROM L1D PREFETCHER DATA	ACCESS:         52  HIT:         33  MISS:         19  HIT %:    63.4615  MISS %:    36.5385  MPKI: 0.00038

L2C PREFETCH  REQUESTED:     105668  ISSUED:     105668  USEFUL:       9253  USELESS:      71384
L2C USEFUL LOAD PREFETCHES:       9253 PREFETCH ISSUED TO LOWER LEVEL:      80510  ACCURACY: 11.493
 TIMELY PREFETCHES:       9253 LATE PREFETCHES: 570 DROPPED PREFETCHES: 0
L2C AVERAGE MISS LATENCY: 37.9914 cycles
L2C RQ	ACCESS:    3767984	FORWARD:          0	MERGED:          0	TO_CACHE:    3767945
L2C WQ	ACCESS:     519973	FORWARD:         40	MERGED:          0	TO_CACHE:     519973
L2C PQ	ACCESS:     207775	FORWARD:          0	MERGED:       3473	TO_CACHE:     204301

L2C Dense regions hint from L2: 0
PSCL5 TOTAL     ACCESS:       4208  HIT:       2104  MISS:       2104  HIT %:         50  MISS %:         50   MPKI: 0.04208
PSCL5 LOAD TRANSLATION INSTRUCTION	ACCESS:       4106  HIT:       2053  MISS:       2053  HIT %:         50  MISS %:         50  MPKI: 0.04106
PSCL5 TRANSLATION FROM L1D PREFETCHER INSTRUCTION	ACCESS:        102  HIT:         51  MISS:         51  HIT %:         50  MISS %:         50  MPKI: 0.00102


PSCL4 TOTAL     ACCESS:       3975  HIT:       1983  MISS:       1992  HIT %:    49.8868  MISS %:    50.1132   MPKI: 0.03984
PSCL4 LOAD TRANSLATION INSTRUCTION	ACCESS:       3563  HIT:       1939  MISS:       1624  HIT %:    54.4204  MISS %:    45.5796  MPKI: 0.03248
PSCL4 TRANSLATION FROM L1D PREFETCHER INSTRUCTION	ACCESS:         87  HIT:         44  MISS:         43  HIT %:    50.5747  MISS %:    49.4253  MPKI: 0.00086
PSCL4 LOAD TRANSLATION DATA	ACCESS:        324  HIT:          0  MISS:        324  HIT %:          0  MISS %:        100  MPKI: 0.00648
PSCL4 TRANSLATION FROM L1D PREFETCHER DATA	ACCESS:          1  HIT:          0  MISS:          1  HIT %:          0  MISS %:        100  MPKI: 2e-05


PSCL3 TOTAL     ACCESS:       4037  HIT:       2014  MISS:       2023  HIT %:    49.8885  MISS %:    50.1115   MPKI: 0.04046
PSCL3 LOAD TRANSLATION INSTRUCTION	ACCESS:       3594  HIT:       1970  MISS:       1624  HIT %:    54.8136  MISS %:    45.1864  MPKI: 0.03248
PSCL3 TRANSLATION FROM L1D PREFETCHER INSTRUCTION	ACCESS:         87  HIT:         44  MISS:         43  HIT %:    50.5747  MISS %:    49.4253  MPKI: 0.00086
PSCL3 LOAD TRANSLATION DATA	ACCESS:        355  HIT:          0  MISS:        355  HIT %:          0  MISS %:        100  MPKI: 0.0071
PSCL3 TRANSLATION FROM L1D PREFETCHER DATA	ACCESS:          1  HIT:          0  MISS:          1  HIT %:          0  MISS %:        100  MPKI: 2e-05


PSCL2 TOTAL     ACCESS:       4098  HIT:       1996  MISS:       2102  HIT %:    48.7067  MISS %:    51.2933   MPKI: 0.04204
PSCL2 LOAD TRANSLATION INSTRUCTION	ACCESS:       2223  HIT:       1946  MISS:        277  HIT %:    87.5394  MISS %:    12.4606  MPKI: 0.00554
PSCL2 TRANSLATION FROM L1D PREFETCHER INSTRUCTION	ACCESS:         50  HIT:         50  MISS:          0  HIT %:        100  MISS %:          0  MPKI: 0
PSCL2 LOAD TRANSLATION DATA	ACCESS:       1775  HIT:          0  MISS:       1775  HIT %:          0  MISS %:        100  MPKI: 0.0355
PSCL2 TRANSLATION FROM L1D PREFETCHER DATA	ACCESS:         50  HIT:          0  MISS:         50  HIT %:          0  MISS %:        100  MPKI: 0.001


LLC TOTAL     ACCESS:     581111  HIT:     551635  MISS:      29476  HIT %:    94.9276  MISS %:    5.07235   MPKI: 0.58952
LLC LOAD INSTRUCTION	ACCESS:     266047  HIT:     264731  MISS:       1316  HIT %:    99.5054  MISS %:   0.494649  MPKI: 0.02632
LLC LOAD TRANSLATION INSTRUCTION	ACCESS:        241  HIT:        200  MISS:         41  HIT %:    82.9876  MISS %:    17.0124  MPKI: 0.00082
LLC LOAD DATA	ACCESS:      90853  HIT:      87166  MISS:       3687  HIT %:    95.9418  MISS %:     4.0582  MPKI: 0.07374
LLC RFO DATA	ACCESS:      57136  HIT:      43005  MISS:      14131  HIT %:    75.2678  MISS %:    24.7322  MPKI: 0.28262
LLC PREFETCH DATA	ACCESS:      80510  HIT:      70679  MISS:       9831  HIT %:    87.7891  MISS %:    12.2109  MPKI: 0.19662
LLC WRITEBACK DATA	ACCESS:      84953  HIT:      84598  MISS:        355  HIT %:    99.5821  MISS %:   0.417878  MPKI: 0.0071
LLC LOAD TRANSLATION DATA	ACCESS:       1352  HIT:       1240  MISS:        112  HIT %:     91.716  MISS %:    8.28402  MPKI: 0.00224
LLC TRANSLATION FROM L1D PREFETCHER DATA	ACCESS:         19  HIT:         16  MISS:          3  HIT %:    84.2105  MISS %:    15.7895  MPKI: 6e-05

LLC AVERAGE MISS LATENCY: 157.205 cycles
LLC RQ	ACCESS:     415651	FORWARD:          0	MERGED:          0	TO_CACHE:     415649
LLC WQ	ACCESS:      84953	FORWARD:          2	MERGED:          0	TO_CACHE:      84953
LLC PQ	ACCESS:      80510	FORWARD:          0	MERGED:          0	TO_CACHE:      80510

LLC Dense regions hint to LLC: 0

RAW hits: 1944240
Loads Generated: 12637409
Loads sent to L1D: 10693167
Stores Generated: 6943578
Stores sent to L1D: 6943592
Major fault: 0 Minor fault: 2597
Allocated PAGES: 2597

stream: 
stream:times selected: 1189408
stream:pref_filled: 121556
stream:pref_useful: 24215
stream:pref_late: 6838
stream:misses: 8091
stream:misses_by_poll: 0

CS: 
CS:times selected: 177615
CS:pref_filled: 58754
CS:pref_useful: 35402
CS:pref_late: 6865
CS:misses: 16244
CS:misses_by_poll: 1

CPLX: 
CPLX:times selected: 1010600
CPLX:pref_filled: 19608
CPLX:pref_useful: 4674
CPLX:pref_late: 3050
CPLX:misses: 93107
CPLX:misses_by_poll: 1

NL_L1: 
NL:times selected: 20606
NL:pref_filled: 702
NL:pref_useful: 317
NL:pref_late: 281
NL:misses: 1807
NL:misses_by_poll: 0

total selections: 2398229
total_filled: 94158
total_useful: 34005
total_late: 18376
total_polluted: 2
total_misses_after_warmup: 769977
conflicts: 5515634

test: 116825

DRAM Statistics
 CHANNEL 0
 RQ ROW_BUFFER_HIT:      10680  ROW_BUFFER_MISS:      18438
 DBUS_CONGESTED:         14
 WQ ROW_BUFFER_HIT:       1585  ROW_BUFFER_MISS:      12500  FULL:          0

 AVG_CONGESTED_CYCLE: 5

CPU 0 Branch Prediction Accuracy: 99.8062% MPKI: 0.3542 Average ROB Occupancy at Mispredict: 187.852
Branch types
NOT_BRANCH: 40859587 81.7192%
BRANCH_DIRECT_JUMP: 548687 1.09737%
BRANCH_INDIRECT: 183413 0.366826%
BRANCH_CONDITIONAL: 6184311 12.3686%
BRANCH_DIRECT_CALL: 941312 1.88262%
BRANCH_INDIRECT_CALL: 170683 0.341366%
BRANCH_RETURN: 1111998 2.224%
BRANCH_OTHER: 0 0%

DRAM PAGES: 1048576
Allocated PAGES: 2597
Average_ROB_Occupancy: 251.852
Average_Decode_Occupancy: 38.5595
Average_FTQ_Occupancy: 15.0825
Indirect max targets: 14 Average targets: 1.17949
Branch_type:  BRANCH_DIRECT_JUMP:  Count Percentage: 2.13511 6.66011 4.42913 9.17952 2.14341 11.106 1.30623 63.0405 
Branch_type:  BRANCH_INDIRECT:  Count Percentage: 11.7665 3.41891 2.57045 0 1.33488 25.0078 2.26981 53.6317 
Branch_type:  BRANCH_CONDITIONAL:  Count Percentage: 23.7814 3.96613 1.66544 5.35678 1.33255 8.30763 0.679899 54.9101 
Branch_type:  BRANCH_DIRECT_CALL:  Count Percentage: 0.260656 1.74958 1.29739 4.76305 1.86053 2.83297 0.860961 86.3749 
Branch_type:  BRANCH_INDIRECT_CALL:  Count Percentage: 9.56943 0 2.99878 8.7333 0 2.55105 1.29145 74.856 
Branch_type:  BRANCH_RETURN:  Count Percentage: 4.1121 4.94812 1.17108 6.181 3.19112 9.15942 1.70725 69.5299 
Branch_type:  BRANCH_DIRECT_JUMP:  Total Count: 23407 73014 48556 100634 23498 121754 14320 691105 
Branch_type:  BRANCH_INDIRECT:  Total Count: 43130 12532 9422 0 4893 91666 8320 196587 
Branch_type:  BRANCH_CONDITIONAL:  Total Count: 2939750 490275 205874 662181 164724 1026951 84046 6787738 
Branch_type:  BRANCH_DIRECT_CALL:  Total Count: 4910 32957 24439 89722 35047 53365 16218 1627052 
Branch_type:  BRANCH_INDIRECT_CALL:  Total Count: 32744 0 10261 29883 0 8729 4419 256137 
Branch_type:  BRANCH_RETURN:  Total Count: 91566 110182 26077 137635 71058 203957 38016 1548254 
Number of unique branch instructions: 10693
Upper 32 bits: 
aaaa
ffff
ffff0000
Unique upper 32 bits: 3
Unique upper 36 bits: 3
Unique upper 40 bits: 5
Unique upper 44 bits: 32
Unique upper 48 bits: 157
Offset_3 4443
Offset_4 257
Offset_5 476
Offset_6 538
Offset_7 636
Offset_8 580
Offset_9 513
Offset_10 417
Offset_11 348
Offset_12 321
Offset_13 236
Offset_14 247
Offset_15 199
Offset_16 227
Offset_17 163
Offset_18 152
Offset_19 257
Offset_20 144
Offset_21 235
Offset_22 408
Offset_23 241
Offset_24 342
Offset_25 117
Offset_47 92
decode_dispatch_called: 26614880 73.7677
Dispatch_width: 0 14445234 54.275 40.0374
Dispatch_width: 1 1038387 3.90153 2.87807
Dispatch_width: 2 853655 3.20744 2.36605
Dispatch_width: 3 491129 1.84532 1.36125
Dispatch_width: 4 6415944 24.1066 17.7829
Dispatch_width: 5 106045 0.398443 0.293922
Dispatch_width: 6 3264486 12.2656 9.04808
Empty_decode_cycles: 9464447 26.2323
ROB_full_cycles: 10426676 28.8993
Starvation_cycles_per_kilo_instr: 223.882
Starvation_cycles_per_kilo_instr_3: 158.662
Starvation_cycles_per_kilo_instr_0: 134.83
Branch_type_1  (3,1)  (4,7)  (5,38)  (6,74)  (7,125)  (8,148)  (9,135)  (10,110)  (11,77)  (12,55)  (13,11)  (14,2)  (15,3)  (16,4)  (18,1)  (19,5)  (20,2)  (21,1)  (22,3)  (23,2)  (24,10)  (25,12) 
Branch_type_2  (3,1)  (4,1)  (5,1)  (8,4)  (9,4)  (10,1)  (12,1)  (13,1)  (14,1)  (16,3)  (17,2)  (20,2)  (21,2)  (23,5)  (24,1)  (47,41) 
Branch_type_3  (3,4441)  (4,249)  (5,433)  (6,447)  (7,480)  (8,362)  (9,281)  (10,167)  (11,135)  (12,62)  (13,10) 
Branch_type_4  (6,4)  (7,8)  (8,26)  (9,55)  (10,66)  (11,70)  (12,113)  (13,100)  (14,111)  (15,95)  (16,100)  (17,75)  (18,65)  (19,124)  (20,73)  (21,124)  (22,214)  (23,136)  (24,198)  (25,101) 
Branch_type_5  (8,3)  (9,1)  (10,4)  (11,5)  (12,3)  (13,14)  (14,16)  (15,11)  (16,22)  (17,11)  (18,23)  (19,14)  (20,11)  (21,13)  (22,43)  (23,26)  (24,37) 
Branch_type_6  (5,4)  (6,13)  (7,23)  (8,37)  (9,37)  (10,69)  (11,61)  (12,87)  (13,100)  (14,117)  (15,90)  (16,98)  (17,75)  (18,63)  (19,114)  (20,56)  (21,95)  (22,148)  (23,72)  (24,96)  (25,4)  (47,51) 
aaaaab1fc620: 2ac9e77e 2aca717c 2aca8eff 2acaf6bc 2acaf9aa 2acaf9f1 2acb1abc 2acb1b7f 2acd4e22 2acdb712 2acf5f9e 2ad0ef44 2ad3f15c 2ad414e6 2ad60e42 2ad8609c 2ad99830 2ada35cc 2ada4676 2ada6612 2adf183e 2adf30e5 2adf5602 2adf785c 2ae11572 2aeb2dcf 2aee101b 2aee1ae1 2b156a8c 2b156b61 2b156bea 2b167f35 2b177656 2b17feec 2b1a3e5a 
aaaaab1fc640: 2ac9ec07 2aca656e 2aca801d 2acaea11 2acaee73 2acb13ee 2acb1470 2acd462b 2ad0ef5d 2ad3f3fe 2ad86e9b 2ada1641 2ada4115 2ada6638 2adf30d4 2ae12e57 2aee1033 2b1693ab 2b16948c 2b169491 2b17d915 2b17fa85 2b17fccd 
aaaaab1fcb00: 2acf2d72 2acf3734 2acf604c 2acfa5b7 2ad397b5 2ad3b800 2ae8af7d 2ae8aff0 2ae9aaba 2aea9fc6 2aeaa358 2aee910b 2aee91cf 2aee928e 2aee92e4 2af6fe87 2af70dfe 2b16850c 2b16c4a2 2b1765f4 2b178094 2b17d925 2b17db06 2b17ec8f 
aaaaab1fcb10: 2acf2d95 2acf3758 2acf6052 2acfa5f4 2ad397c3 2ad3b81c 2ae8af88 2ae8affe 2ae9aacf 2aeaa017 2aeaa36d 2aee9114 2aee91d8 2aee934d 2aee9353 2af6fe8c 2af70e22 2b168526 2b16c542 2b176609 2b1780a3 2b17d95d 2b17db44 2b17ecac 
aaaaac68f310: 2ac9ec8c 2ac9fb44 2ac9fbd2 2aca59ab 2acac04c 2acaf6e0 2acaf6ec 2acaf6f9 2acaf700 2acaf708 2acf2d90 2ad3cfbd 2ad3cfc4 2ad3d000 2ad3f35f 2ad4955d 2ad49571 2ad4f3f2 2ad4f400 2ad5f240 2ad5f37c 2ad5f86a 2ad5f86f 2ad5f880 2ad5fc0d 2ad5fc14 2ad5fc21 2ad5fe1b 2ad873bb 2ad873e3 2ad8a6b2 2ad9086e 2ad93096 2ad9bbb2 2ada152c 2ada1554 2ada3332 2ada5522 2adf3130 2adf313c 2adf3a3f 2adf3bd9 2adf5788 2adf7a8d 2ae07f6b 2ae0857a 2ae0857e 2ae08630 2ae08634 2ae08637 2ae08642 2ae0866f 2ae086e4 2ae086ec 2ae08717 2ae0871b 2aee0170 2aee1d38 2aee75f4 2aee7662 2aee85ca 2aee85e4 2aee8eef 2af70b84 2af74e8f 2b17d843 
aaaaac690ef0: 2aca598b 2acb111b 2acb175f 2acb1772 2acbfaf4 2acbfb00 2acf374f 2acf6d43 2acfa5c8 2ad3baf1 2ad3d4ac 2ad3d4b8 2ad3f1cf 2ad486b2 2ad5a59b 2ad5fc64 2ad5fcf9 2ad6121c 2ad906e9 2ad907bf 2ad9bada 2ada16ce 2ada1ad5 2ada43df 2ada64c0 2ada72ee 2adeb71a 2adf3bcb 2adf7a38 2adf7c6a 2adf8872 2adf8880 2adf9959 2adf9abe 2ae07f78 2ae08503 2ae08754 2ae12e80 2aea3bea 2aecb509 2aee00b0 2aee2bdd 2aee5467 2aee5601 2aee8f20 2af703fd 2af7048b 2af74e74 
Unique trigger count: 
1 10188
2 562
3 90
4 31
5 13
6 13
7 7
8 2
9 3
10 2
11 1
12 1
13 1
14 3
16 2
19 2
23 1
24 2
35 1
48 1
66 1
BTB PER SET UNIQUE ADDR: 0 1 1 1 0 0 0 0 0 0 1 0 1 0 0 1 1 0 0 1 0 1 1 1 0 1 0 1 1 0 1 1 1 1 1 0 0 1 4 0 1 0 1 2 1 1 1 0 1 1 0 0 1 0 0 1 1 2 0 0 0 0 0 1 0 1 0 0 0 1 1 0 1 0 0 0 1 2 2 1 1 1 1 1 1 2 0 1 3 1 1 3 1 1 2 0 0 0 0 0 0 2 1 1 2 1 0 0 0 0 1 1 0 1 0 1 0 0 0 0 1 0 0 0 0 0 0 0 2 1 1 0 0 1 1 0 0 0 0 1 0 0 1 1 2 1 1 1 1 1 0 4 1 0 1 1 0 1 1 0 0 0 0 1 2 1 0 0 2 2 1 0 1 0 0 0 0 1 0 0 0 0 1 0 1 1 1 0 0 0 2 0 1 2 0 1 1 0 0 1 0 1 0 0 0 0 0 1 1 0 0 1 1 1 1 0 0 1 0 0 0 1 1 1 1 0 0 0 0 2 1 0 0 0 0 2 1 1 0 1 1 0 2 1 3 2 0 0 1 0 1 0 0 1 0 3 1 0 0 0 2 1 1 0 2 3 1 0 1 0 0 0 0 1 1 1 1 0 0 1 1 0 0 0 1 1 0 0 0 0 0 0 0 1 0 0 1 2 0 0 1 0 1 0 1 0 2 0 0 0 1 0 0 0 2 0 1 1 0 2 0 0 0 1 0 1 1 2 0 0 0 0 1 0 1 0 1 1 2 0 3 0 0 0 0 1 1 1 1 1 0 2 1 2 1 0 1 0 2 0 0 2 1 0 2 1 0 0 0 0 1 0 0 0 0 1 0 1 1 0 0 0 0 1 0 0 1 0 0 0 0 0 1 0 0 0 0 0 0 1 1 1 0 0 0 0 1 1 0 0 0 0 0 1 1 0 3 0 0 1 1 0 1 2 1 3 0 0 0 0 0 0 1 1 1 0 0 0 0 0 0 2 0 1 0 0 0 0 0 0 0 0 0 1 1 0 1 0 2 1 2 0 1 1 0 0 1 0 1 2 0 0 1 1 2 0 0 1 1 0 0 0 0 2 0 0 1 0 1 1 2 0 0 1 0 2 0 1 0 0 1 0 0 0 0 0 0 0 0 1 1 1 2 2 2 0 0 1 1 3 1 0 1 1 3 1 1 1 1 2 2 1 0 2 1 1 0 0 3 0 0 2 1 1 0 1 3 1 0 1 1 0 0 1 0 1 1 0 2 1 2 0 0 0 0 0 0 0 2 3 1 0 1 1 0 0 0 1 0 0 1 0 1 0 0 0 0 0 0 0 1 0 0 0 0 0 2 0 2 0 1 0 0 1 0 1 0 1 0 0 1 1 0 0 0 1 0 0 0 0 0 0 2 0 1 2 0 0 0 0 2 0 0 2 0 2 0 1 0 1 1 0 1 1 0 0 0 1 0 1 0 0 0 0 0 0 1 0 0 1 1 1 0 1 1 1 1 0 0 0 1 1 1 0 1 1 0 1 1 0 1 0 1 0 0 0 1 1 1 0 0 1 0 1 0 1 1 1 0 1 0 1 0 1 0 0 0 0 0 0 1 1 0 0 1 0 1 1 0 0 0 0 0 0 0 0 0 0 0 1 0 1 0 0 0 0 3 1 1 0 1 1 1 0 1 0 1 0 1 1 0 0 1 0 0 1 1 2 0 0 1 0 0 0 0 0 1 0 0 0 2 0 0 0 0 1 3 0 1 1 1 0 0 0 1 1 1 2 0 0 1 0 0 0 1 1 1 0 0 0 0 0 0 0 0 0 0 0 0 1 0 1 0 0 0 0 1 0 0 0 2 0 1 0 0 0 0 1 0 0 0 1 1 0 0 0 0 0 1 0 0 0 0 1 0 1 0 2 1 0 1 1 1 0 1 0 0 0 0 0 0 0 0 0 0 0 0 0 1 0 0 0 0 0 0 0 0 0 2 1 1 1 0 0 0 0 0 1 0 0 0 0 0 0 0 0 2 0 1 0 0 0 0 1 0 1 0 0 0 1 0 1 0 0 0 0 0 0 0 0 0 1 1 0 1 0 0 0 1 0 0 0 2 0 1 0 0 1 0 0 0 0 0 1 0 0 1 0 0 1 0 0 0 0 0 1 0 2 0 0 2 0 1 1 0 1 4 1 0 1 0 0 0 0 1 0 1 3 0 0 2 1 1 2 1 0 0 2 2 0 2 1 0 0 1 0 0 1 0 2 0 0 1 0 1 1 2 0 0 1 0 0 1 0 0 0 1 2 0 1 1 1 4 2 0 0 0 1 1 1 3 2 1 1 1 0 0 1 1 0 0 0 0 2 0 1 3 0 2 3 0 1 0 2 1 1 2 1 1 0 0 0 0 0 2 0 1 1 2 0 1 3 0 2 0 0 3 0 0 1 0 0 0 1 1 3 1 2 0 2 0 2 1 2 1 0 2 0 0 1 0 2 1 0 1 1 1 1 0 1 0 2 1 1 1 1 1 0 1 2 1 1 1 0 0 1 1 2 1 1 1 1 1 0 2 1 0 0 1 0 0 0 1 0 1 0 0 2 1 2 0 2 1 0 1 0 1 1 0 0 0 0 0 3 0 1 1 1 0 1 0 0 1 0 3 0 0 1 2 4 2 1 0 3 4 0 2 0 0 0 0 1 1 0 1 0 2 3 1 0 0 1 2 1 0 1 0 0 0 2 1 3 0 2 0 1 0 1 2 3 3 0 5 0 0 0 1 1 2 0 2 1 1 1 0 0 0 1 1 1 0 1 1 2 2 0 2 1 0 2 2 2 1 1 0 1 0 0 1 3 4 1 1 1 0 1 2 1 2 0 0 1 1 0 5 2 1 0 0 0 1 1 0 1 1 0 0 1 2 2 0 0 2 0 0 1 0 1 1 0 1 0 0 1 2 0 2 1 3 1 1 1 1 0 1 1 0 2 1 0 0 2 0 1 2 0 0 0 0 1 0 1 0 1 0 2 1 0 0 0 0 0 0 0 0 1 0 0 0 0 1 2 1 0 1 0 0 0 1 2 1 1 1 1 0 2 0 2 2 0 1 0 0 1 1 2 1 1 1 0 1 1 0 0 1 2 0 1 1 0 1 0 0 1 1 1 1 1 1 0 4 1 1 1 0 0 1 3 0 1 0 2 0 1 2 0 0 0 0 1 0 0 0 0 0 1 1 1 0 1 0 0 1 0 1 0 0 0 0 1 0 0 0 0 0 1 1 1 3 1 1 0 1 1 1 0 1 0 0 3 0 0 0 0 0 1 1 0 0 0 0 0 0 0 0 0 0 0 2 0 0 0 1 0 1 0 0 2 0 0 1 1 1 1 1 0 1 1 0 0 2 0 1 1 1 1 0 0 1 0 2 1 0 0 2 0 0 1 0 1 1 1 1 1 0 1 1 1 0 1 1 0 0 0 2 0 1 0 0 0 0 0 0 1 1 0 1 2 1 1 0 0 1 0 0 1 0 0 0 1 1 0 0 1 1 1 1 0 0 1 1 3 1 0 0 1 2 0 0 0 3 1 2 0 2 0 2 1 0 1 1 2 3 0 1 0 2 1 0 5 2 2 1 2 3 0 0 2 0 1 1 0 1 0 1 0 0 1 0 1 2 0 0 0 1 1 2 1 3 0 0 0 3 0 0 2 1 0 0 0 0 3 0 1 0 2 1 0 1 1 1 1 1 1 1 1 1 0 1 0 0 0 1 1 1 2 0 0 1 1 0 1 1 0 0 1 1 0 0 1 0 0 0 2 1 0 0 2 1 0 0 0 0 1 0 0 1 1 2 1 1 1 4 0 1 3 3 2 2 1 0 2 0 0 1 1 0 0 0 0 1 1 2 0 0 1 1 1 1 0 0 0 0 1 2 1 1 1 0 0 1 1 0 0 0 0 1 0 0 0 1 1 0 1 0 0 2 0 2 1 0 0 0 0 0 2 0 0 0 0 0 0 1 0 3 0 2 1 0 0 1 1 0 0 0 0 0 0 0 0 2 1 1 0 1 0 0 1 1 0 0 4 0 0 0 0 1 1 0 0 2 1 3 0 0 1 0 2 1 1 2 0 1 0 3 0 2 0 1 0 1 0 1 1 0 0 1 1 0 0 0 0 1 1 1 0 1 1 1 1 1 0 0 0 0 1 1 0 0 0 0 0 0 2 2 2 0 0 0 1 0 0 0 0 0 1 1 0 0 1 0 0 1 1 0 1 2 0 0 0 0 1 1 1 0 0 0 0 1 0 0 0 0 0 0 0 0 0 1 0 0 1 1 1 0 0 0 0 0 0 0 0 1 1 0 0 1 0 1 0 0 0 0 0 0 0 0 0 0 0 0 0 0 0 2 0 2 2 1 0 0 1 0 0 0 0 0 1 0 2 0 2 0 1 2 4 0 0 0 0 1 1 2 0 0 0 1 1 0 0 0 0 1 3 1 0 1 0 0 0 0 0 2 0 0 1 0 0 0 1 0 0 0 1 2 0 0 0 2 0 0 0 1 1 0 0 0 2 0 1 0 2 0 0 0 0 0 0 2 0 1 0 1 0 2 0 1 1 1 0 0 0 0 0 1 1 0 0 1 1 1 0 1 1 1 1 1 0 0 0 1 2 1 1 0 1 1 1 1 1 0 0 1 2 0 0 1 0 1 3 0 1 0 0 1 0 0 1 2 1 0 2 2 1 1 0 2 1 1 0 0 1 0 0 0 0 0 1 0 1 0 0 0 0 1 1 0 0 0 0 0 0 1 0 1 1 0 1 0 1 0 0 0 0 1 0 0 0 1 0 1 1 0 0 1 1 1 1 0 1 0 0 0 0 0 0 0 0 1 0 0 0 0 1 1 1 2 1 0 1 0 0 0 0 0 1 3 2 1 0 1 2 2 2 2 1 0 0 2 0 1 1 0 1 1 0 2 1 1 1 1 1 2 0 3 0 3 1 3 3 2 2 2 2 2 0 3 0 0 0 2 0 0 1 1 1 4 0 1 1 1 0 1 2 0 0 1 1 0 2 2 1 1 2 2 1 1 2 1 1 1 0 3 1 0 2 2 0 2 2 2 1 0 1 3 2 2 0 0 0 0 0 1 1 1 0 0 0 0 0 0 1 0 0 1 0 0 0 0 0 2 1 2 2 0 1 1 3 1 1 0 0 0 1 0 1 1 0 1 0 0 0 1 1 0 1 0 0 0 0 1 1 0 1 0 1 0 1 1 1 1 0 2 0 2 0 0 0 0 2 0 2 2 0 1 0 1 0 0 0 0 0 2 0 1 0 1 1 2 0 1 0 1 2 2 3 0 0 0 3 1 1 1 0 0 2 0 1 2 0 0 1 0 1 1 1 1 0 0 0 1 2 3 0 0 2 2 1 2 5 2 1 2 0 0 0 1 0 1 3 1 2 3 2 0 1 0 2 0 0 1 1 3 1 1 2 2 0 3 1 1 2 2 2 1 0 2 0 3 2 1 0 0 1 2 0 1 1 0 0 0 0 0 2 1 0 0 0 0 2 0 2 1 1 2 2 0 1 0 0 1 2 2 2 2 0 1 3 0 1 2 0 2 1 0 0 0 0 1 0 1 1 1 2 0 0 1 1 1 0 1 1 2 1 0 1 2 1 0 2 1 1 2 1 3 2 2 0 0 2 3 1 1 0 2 3 0 1 2 0 1 0 0 1 1 1 1 0 2 1 1 2 1 2 1 1 0 2 1 0 0 1 1 0 1 1 1 1 0 0 0 3 0 1 0 1 0 1 1 3 0 0 0 3 0 2 1 1 0 0 1 1 0 1 2 1 1 1 0 1 0 0 1 1 1 0 1 1 0 0 1 1 0 0 0 1 1 0 0 0 1 1 0 0 1 1 0 1 0 0 0 0 0 0 2 2 0 1 1 1 0 0 0 0 0 2 2 1 1 3 0 0 2 0 2 0 2 0 4 2 3 3 1 2 1 0 0 2 0 0 0 0 0 2 0 0 0 0 0 2 2 0 0 2 1 1 1 0 1 2 1 1 2 1 3 4 1 1 1 0 0 0 1 0 0 1 1 1 0 0 1 1 0 0 0 0 1 0 1 0 0 1 0 1 3 2 1 2 0 1 1 4 0 0 1 2 0 0 1 1 3 0 0 2 1 0 0 1 1 1 0 1 1 0 3 0 3 0 0 2 0 1 0 1 3 0 1 0 1 1 3 1 0 1 5 0 0 0 1 0 0 0 1 1 0 1 1 0 2 2 0 1 0 2 2 2 1 0 1 1 1 1 1 2 1 0 1 0 0 2 0 2 1 0 1 2 0 0 0 1 0 3 1 1 3 2 1 1 1 2 0 1 2 0 2 1 0 0 1 1 0 0 3 3 0 0 0 1 0 1 0 1 1 1 2 0 0 1 2 1 1 1 2 0 1 1 0 0 1 1 1 0 1 2 0 1 0 0 0 1 1 1 0 0 1 1 2 0 2 0 1 1 0 0 0 1 0 1 1 1 1 1 1 2 0 2 0 1 2 0 0 2 0 0 0 1 1 3 0 4 0 0 1 2 2 3 0 1 0 2 2 1 0 0 0 0 2 2 0 3 3 1 2 2 1 0 1 3 3 1 0 1 0 0 0 0 0 0 3 1 1 2 1 2 1 2 1 1 2 1 0 2 0 1 0 0 2 0 1 1 1 1 1 0 0 1 2 3 1 0 2 3 2 1 1 2 1 2 2 1 0 0 0 1 2 1 1 1 3 0 0 3 1 1 0 2 2 1 0 1 1 0 0 2 1 0 1 1 0 2 0 1 2 0 3 1 0 0 4 1 1 1 1 0 1 0 1 0 1 1 0 0 2 2 0 1 2 0 0 0 1 1 0 1 0 1 1 1 2 1 1 3 0 0 0 0 0 0 0 1 2 1 1 1 0 0 1 1 1 3 2 0 0 0 2 0 0 1 1 1 1 1 1 1 0 1 0 2 0 1 0 2 1 0 0 0 0 0 1 0 0 0 0 0 0 0 0 1 0 3 1 0 1 0 3 0 0 2 0 0 3 1 1 0 0 1 0 1 1 0 0 0 0 0 1 0 1 1 1 0 2 0 2 0 4 1 2 1 1 1 1 3 1 0 3 0 1 1 1 1 1 1 1 0 1 1 2 1 2 1 0 1 0 0 1 0 0 1 1 1 1 1 1 1 1 1 2 0 1 0 1 1 2 0 2 0 1 0 1 1 1 0 0 0 1 1 1 1 0 1 0 2 1 0 0 2 0 1 1 0 1 1 2 0 3 0 3 1 1 1 1 2 0 0 1 0 1 0 1 0 1 0 1 0 1 2 1 1 1 0 1 2 0 2 1 0 0 1 1 0 1 0 0 0 1 0 1 0 1 0 1 0 0 1 2 1 1 0 1 1 0 1 0 0 2 0 2 2 4 0 0 1 0 1 1 1 0 0 0 0 0 0 1 0 1 1 0 0 0 1 0 0 1 1 0 1 1 0 0 1 1 1 1 1 1 0 2 0 0 0 0 1 2 0 1 1 1 2 1 0 1 0 1 2 1 1 0 0 1 1 3 1 0 1 0 1 3 0 1 0 1 0 0 1 2 0 2 0 0 0 0 2 1 0 2 0 0 0 2 4 1 2 1 0 1 1 0 1 0 0 0 0 0 1 0 1 0 0 0 2 0 0 0 0 0 1 0 0 0 0 1 0 0 1 2 1 0 0 2 0 2 0 0 0 0 1 0 0 2 1 0 0 0 0 0 0 0 0 0 1 1 1 0 2 0 1 2 1 1 0 0 0 2 0 3 1 2 1 0 3 0 0 1 0 1 0 2 0 2 0 1 0 1 0 2 3 0 0 1 0 0 1 1 0 0 0 2 1 0 0 0 1 1 1 2 1 3 0 0 3 1 3 1 1 1 0 2 2 2 1 1 1 2 0 2 0 1 0 2 1 0 1 1 1 2 0 2 1 4 0 0 1 1 1 3 1 1 0 3 0 0 1 2 0 0 0 1 3 1 0 0 0 2 2 1 1 1 4 0 1 1 1 4 0 0 0 1 1 2 1 0 1 1 1 1 1 1 1 0 1 0 1 1 0 1 0 2 0 1 0 1 1 0 2 1 0 1 1 0 0 1 1 0 1 1 0 3 1 1 2 1 0 1 0 0 0 0 2 1 0 0 0 1 1 0 0 1 1 1 1 0 0 2 0 3 1 1 0 0 1 0 1 2 1 0 1 1 1 1 1 0 0 0 0 0 0 1 0 0 2 0 0 0 1 2 0 1 0 1 1 1 1 1 0 1 2 1 1 1 1 1 1 0 0 0 0 1 1 1 2 0 1 1 0 0 1 1 0 2 2 1 0 0 2 0 2 0 1 1 1 0 2 1 0 0 0 0 0 0 1 0 2 3 0 0 0 0 2 1 0 1 2 1 1 0 0 0 0 1 0 0 1 0 2 0 1 0 0 1 1 1 0 1 0 0 1 0 0 0 1 0 0 2 1 0 0 1 4 0 2 1 1 1 0 1 0 1 1 1 2 0 0 2 0 0 1 1 0 0 2 0 1 0 2 0 0 0 1 0 0 0 0 0 1 1 1 1 0 0 0 2 0 0 0 0 1 0 0 0 2 1 0 1 1 1 0 1 0 1 0 0 0 1 1 0 0 2 0 0 1 1 0 0 0 0 0 1 1 1 1 0 1 1 2 1 1 0 0 0 1 0 0 1 1 0 1 0 0 1 0 1 0 1 1 1 2 0 0 0 1 0 0 0 1 0 0 0 0 0 0 0 1 0 0 1 0 1 0 0 0 0 0 0 0 2 1 1 1 0 1 1 0 1 2 0 1 0 2 1 0 0 0 0 0 0 1 0 1 2 0 1 1 1 0 0 1 0 2 0 1 1 0 0 0 0 0 0 1 2 1 1 1 2 0 0 1 1 1 1 3 0 1 2 3 0 0 2 0 1 2 0 0 1 1 1 1 0 2 1 0 1 0 1 1 0 1 0 3 1 0 0 1 1 0 0 1 0 0 1 1 0 1 1 1 1 0 0 0 0 0 2 0 1 0 1 1 1 2 1 2 1 1 1 1 2 0 0 1 0 2 1 0 0 0 3 1 3 0 0 0 3 0 0 0 0 0 0 1 1 1 0 0 0 1 1 0 0 1 1 0 0 1 1 0 0 1 0 0 1 2 0 0 0 0 0 2 2 0 1 1 1 0 0 2 0 0 1 1 1 1 0 0 1 1 3 0 1 0 0 1 0 0 1 1 1 1 0 0 0 1 1 1 1 1 0 1 1 1 1 0 2 0 0 2 0 0 0 2 2 1 0 0 1 1 3 0 1 1 1 0 0 1 2 1 1 1 1 2 2 1 0 3 4 0 2 1 4 1 0 2 1 1 1 4 0 0 0 1 0 3 2 0 1 3 0 1 2 1 1 2 1 0 1 3 0 1 3 0 1 2 1 1 1 1 3 0 0 1 3 1 1 2 1 2 1 0 2 2 2 0 1 1 1 1 1 2 2 0 1 0 1 1 0 0 1 1 2 3 2 0 0 0 1 2 2 1 1 2 0 2 1 0 0 2 1 1 0 0 0 0 2 2 0 1 3 0 1 2 1 1 1 0 1 0 3 1 1 3 5 2 2 1 2 0 1 1 2 1 0 0 1 0 0 1 0 0 2 0 1 0 0 0 1 0 0 0 0 1 1 0 1 1 0 1 1 0 0 0 0 2 1 0 2 2 0 1 4 3 1 2 1 1 2 0 1 1 0 0 0 1 3 1 1 1 2 1 0 1 1 0 0 2 1 2 2 2 1 2 1 2 0 1 2 0 1 1 2 2 1 1 2 1 1 0 3 1 1 2 1 1 1 2 2 1 1 1 0 0 1 2 0 1 2 0 0 1 1 2 0 1 1 2 1 2 3 3 1 1 2 2 1 0 1 1 1 0 1 2 2 2 0 2 0 2 0 0 3 0 1 2 2 1 1 2 2 0 0 0 0 1 2 2 0 1 0 2 1 1 2 0 1 2 0 0 1 0 0 0 0 2 2 1 1 0 0 0 2 1 2 0 1 1 2 1 1 3 0 0 1 2 0 0 1 1 2 1 1 2 1 2 2 0 3 0 0 1 2 0 3 1 1 0 0 1 0 1 0 0 1 1 0 0 1 1 1 1 0 1 2 0 1 1 0 0 1 3 0 0 3 1 2 3 2 1 1 0 0 2 3 1 2 1 1 2 1 1 3 0 0 0 2 0 0 2 0 1 1 0 2 1 0 0 1 0 0 1 0 1 0 0 0 1 0 0 0 0 0 1 1 0 0 2 1 0 2 0 1 1 1 1 0 0 1 0 2 0 2 0 0 1 0 2 1 0 0 1 2 1 2 2 0 0 1 2 0 2 0 0 2 0 0 2 0 2 2 0 3 0 2 0 0 3 0 0 0 0 0 2 2 0 5 0 3 2 4 3 1 3 2 2 0 0 0 0 0 1 4 0 1 2 1 0 0 1 1 1 2 0 0 3 1 0 0 1 0 0 0 1 0 0 1 0 0 4 1 1 2 2 0 2 1 2 1 0 0 2 0 0 1 2 0 0 1 0 2 0 1 1 2 1 2 0 2 0 2 1 3 1 3 0 1 0 2 2 1 0 1 1 0 0 2 2 0 0 1 1 4 1 2 2 0 0 2 0 2 0 1 1 3 1 1 0 3 0 1 2 2 1 3 2 1 0 0 1 0 0 3 1 0 0 3 1 0 0 2 2 0 0 1 2 2 1 0 1 1 1 0 2 1 0 1 2 2 2 2 2 0 1 0 1 1 1 0 1 0 0 0 1 0 1 1 0 0 0 0 2 1 0 1 1 0 1 1 1 0 2 3 1 1 0 1 1 3 0 0 0 0 1 0 2 0 0 2 1 1 1 0 0 0 2 0 0 1 1 1 0 0 1 0 2 0 1 2 1 0 0 0 2 0 0 1 1 0 1 0 0 1 1 0 0 2 2 2 2 0 0 0 3 0 0 1 2 2 1 1 0 2 2 1 2 1 1 1 4 0 1 0 1 1 0 2 1 0 0 0 3 1 0 0 0 2 1 1 0 1 4 1 0 1 1 3 0 1 0 2 2 0 1 0 1 0 0 3 0 2 0 1 0 2 1 2 2 0 0 1 0 0 0 0 1 4 1 1 0 1 0 1 1 1 2 1 0 2 2 1 0 1 0 1 0 0 0 1 1 0 0 2 0 1 2 1 1 2 0 0 1 1 0 0 0 1 2 0 1 0 3 3 2 0 0 1 2 0 1 1 2 4 0 2 1 1 0 3 0 1 1 3 1 2 2 1 1 1 0 0 1 1 1 0 2 2 2 0 2 1 0 1 0 4 1 1 0 4 0 2 1 0 1 1 1 2 3 4 1 2 1 1 1 0 2 2 1 2 1 1 2 1 1 0 1 0 1 1 1 0 1 1 0 1 2 1 1 2 1 1 2 0 1 1 1 1 2 1 2 0 1 2 0 2 0 1 2 2 1 1 2 2 0 3 2 0 2 2 0 0 0 0 2 1 0 2 0 0 0 0 0 2 0 1 1 0 1 1 1 1 0 0 0 3 0 0 2 0 0 1 1 0 1 1 0 0 0 0 1 1 2 0 1 3 0 0 1 4 0 1 0 1 1 2 1 0 2 1 1 2 2 2 2 1 0 0 0 2 1 1 1 1 4 0 0 2 0 0 0 2 0 1 0 2 3 1 1 1 1 0 2 3 1 0 1 1 0 2 0 0 3 1 1 1 1 0 3 0 1 2 1 0 2 0 0 0 3 1 0 0 0 1 1 1 0 0 1 2 1 1 0 2 0 0 0 2 0 1 1 1 3 0 1 4 0 0 3 1 1 0 0 0 3 0 3 0 0 0 1 2 0 0 0 2 0 0 1 0 1 0 0 0 2 1 1 1 0 0 0 1 2 0 1 2 0 0 1 1 0 0 1 2 1 0 0 0 1 1 0 2 0 0 2 1 0 1 1 0 3 0 2 0 0 0 3 1 1 0 1 0 0 1 1 1 3 2 1 0 0 2 0 0 0 1 1 0 0 1 1 1 1 0 0 0 2 0 1 3 0 0 1 0 0 3 1 2 0 0 0 0 1 1 0 1 1 1 0 1 0 4 0 0 2 0 3 1 0 0 0 0 1 0 0 1 1 1 1 0 1 1 0 0 1 1 0 0 2 1 1 0 1 1 0 1 1 0 1 2 2 1 2 0 0 2 0 2 1 0 2 1 1 1 0 0 0 2 0 1 1 1 0 0 0 0 0 1 2 1 1 0 1 1 0 1 0 0 2 1 1 0 2 0 1 0 1 3 0 3 0 3 2 0 1 1 1 2 0 0 0 3 0 1 1 1 2 1 0 2 0 1 0 1 1 0 1 0 1 1 1 2 1 0 1 1 4 2 0 1 1 0 1 2 0 0 2 0 1 1 0 0 1 0 0 1 1 0 1 0 2 1 0 0 0 0 0 0 0 0 0 0 0 1 0 1 1 0 0 0 0 0 0 1 0 0 1 0 0 1 0 0 0 2 1 0 0 0 0 0 3 1 0 0 0 2 1 0 0 1 1 1 0 1 0 0 0 0 0 1 0 1 0 1 0 0 1 2 0 0 0 0 1 0 1 1 0 2 1 2 1 0 0 0 0 0 0 2 0 0 1 0 0 0 1 0 0 0 0 0 1 1 0 2 1 1 2 1 0 1 0 1 0 1 0 0 0 1 0 2 1 0 0 0 1 2 0 0 0 0 1 0 0 0 0 1 0 0 1 1 1 1 2 3 1 2 0 0 1 1 1 1 0 2 1 1 1 1 0 0 0 2 0 0 1 0 1 1 0 2 0 0 0 1 0 1 1 2 0 0 2 0 1 0 1 1 0 2 1 1 2 2 1 3 0 1 0 1 0 1 2 0 3 1 0 0 0 0 2 2 1 0 1 1 0 1 0 1 1 0 0 0 0 0 2 2 1 0 1 1 0 1 1 2 1 1 0 0 0 0 1 1 1 0 0 0 1 1 0 1 0 1 1 1 0 0 1 1 3 0 0 1 1 0 1 2 1 0 0 1 0 0 2 2 0 0 0 0 2 2 0 1 2 0 0 1 1 0 1 1 0 2 2 1 0 0 2 0 1 1 1 0 0 0 0 0 0 2 0 1 0 1 0 1 0 2 1 1 1 0 3 0 1 0 1 0 1 1 0 0 0 0 1 1 0 0 1 0 0 1 1 1 1 0 1 2 0 2 0 0 0 1 1 1 2 1 0 2 2 2 1 1 2 3 0 0 3 0 1 1 1 1 4 2 0 1 1 2 0 2 0 2 2 1 2 0 0 1 0 0 1 0 2 0 1 2 2 1 1 3 1 1 1 2 0 2 0 3 0 2 2 2 2 2 1 0 0 1 0 0 0 1 1 0 0 0 1 0 0 0 3 0 1 2 2 2 1 2 0 0 2 2 1 1 1 1 0 0 2 2 1 1 0 0 1 0 0 0 0 0 1 0 1 2 0 0 1 0 0 0 1 1 1 1 1 1 0 2 2 1 0 2 1 1 2 1 2 1 2 1 0 1 0 3 1 0 1 0 1 1 0 1 2 0 1 0 1 0 0 2 1 0 2 2 2 0 1 0 2 1 0 0 1 3 2 1 1 1 1 2 0 0 1 2 4 0 3 1 0 2 0 1 1 1 1 0 1 0 1 0 1 2 2 1 0 0 2 2 1 0 0 0 3 1 0 2 2 1 0 3 1 0 0 2 2 0 0 0 2 1 0 2 0 0 0 1 2 1 0 1 0 1 1 2 1 0 2 3 1 3 0 1 1 0 1 0 0 1 0 0 0 0 0 3 0 0 1 1 0 2 2 2 2 1 1 2 1 0 2 1 1 3 1 2 2 2 2 0 3 1 1 1 1 1 2 3 2 1 3 0 1 1 1 1 0 0 1 1 0 2 1 0 1 0 1 1 0 0 3 1 3 0 0 0 2 0 2 0 0 0 2 1 0 0 0 0 2 0 1 0 1 2 1 0 1 0 0 2 0 1 1 1 1 1 0 1 0 0 1 0 2 0 0 0 4 1 2 0 2 1 0 2 1 0 0 0 1 1 0 1 1 2 2 2 0 2 2 0 1 2 1 1 1 0 1 1 3 0 2 0 1 1 2 1 2 0 0 1 1 0 1 2 3 3 1 1 0 0 1 1 1 1 1 1 2 0 1 2 3 0 0 1 0 0 2 3 3 1 1 0 1 1 0 0 1 2 1 1 1 2 3 0 0 2 2 0 2 1 2 0 1 0 0 1 2 2 0 0 1 1 0 1 2 1 1 1 1 1 1 0 1 3 1 2 1 2 1 1 2 1 1 0 0 3 1 3 3 0 1 0 1 1 0 0 3 2 1 1 2 1 1 0 1 2 0 0 2 0 1 2 1 1 0 0 1 1 0 0 1 0 1 1 0 3 1 1 2 0 2 0 0 0 1 0 2 0 0 0 1 1 1 1 1 1 1 0 0 0 0 3 1 0 0 0 0 1 0 3 1 1 1 3 2 0 1 1 0 1 1 1 0 0 0 0 2 2 0 1 1 1 0 1 0 0 2 0 0 0 2 2 1 1 0 1 0 1 1 1 0 1 1 1 1 0 0 0 1 0 0 2 0 0 1 0 3 0 1 0 1 0 1 3 2 0 1 1 1 2 1 2 0 1 1 1 0 1 0 0 0 0 0 1 1 1 1 1 2 1 0 1 0 1 1 4 0 0 2 0 0 0 0 0 0 0 1 1 0 1 0 0 0 1 1 2 1 0 1 1 2 3 0 2 0 1 0 2 3 1 1 1 1 0 3 0 1 0 0 0 0 3 0 0 1 0 3 0 2 1 1 0 0 0 1 1 1 0 0 2 1 1 0 0 0 0 0 0 1 0 0 2 0 0 0 2 0 0 1 1 1 0 0 1 1 1 0 0 0 0 1 1 0 0 0 1 1 0 0 1 1 3 0 2 1 1 2 3 0 0 1 2 1 0 2 1 3 2 0 0 0 0 0 2 0 3 2 0 0 1 0 2 4 2 3 0 2 1 2 2 0 1 2 1 3 3 0 1 1 3 1 0 2 0 2 2 3 1 2 1 0 1 4 3 0 1 0 0 0 0 3 1 0 2 2 2 0 0 1 1 2 0 0 1 0 2 1 0 1 2 3 0 0 3 1 0 1 0 0 0 0 1 0 1 1 1 2 0 0 0 2 0 3 1 1 2 0 1 0 0 0 1 0 2 0 1 1 0 0 2 2 0 2 2 1 1 0 2 0 1 3 0 0 2 0 2 0 3 1 1 0 1 1 1 2 2 0 1 4 2 0 0 1 1 1 0 0 3 0 3 1 2 1 0 1 1 1 1 0 0 1 0 2 0 2 0 0 2 1 1 0 2 1 1 0 0 0 0 0 2 1 0 1 0 0 0 0 0 1 0 2 1 1 1 1 1 1 2 1 0 0 0 2 0 0 0 1 0 0 0 1 0 0 0 0 0 0 1 1 0 1 3 1 2 1 1 0 3 2 2 0 1 1 2 0 0 2 0 2 0 0 0 2 1 2 0 3 2 0 0 0 0 2 1 0 2 0 1 3 2 1 1 2 1 0 2 0 2 2 1 0 2 1 0 1 2 0 2 1 0 1 0 1 2 1 2 1 0 1 1 0 1 0 0 0 0 0 2 2 1 1 2 0 1 0 2 1 1 1 4 1 2 1 2 2 2 1 2 2 3 1 2 1 2 2 2 0 3 0 0 1 3 2 0 0 0 3 3 0 0 1 0 1 1 2 0 4 4 1 0 1 2 2 0 2 2 1 1 0 2 4 1 0 1 1 0 1 3 0 3 2 2 0 0 0 1 1 0 2 0 1 3 0 1 3 1 1 1 1 0 1 1 4 1 3 3 2 2 2 4 1 1 4 1 0 1 1 2 3 2 2 2 2 2 1 1 1 0 2 2 2 0 0 1 1 1 3 0 0 0 3 3 0 2 1 0 3 2 0 1 0 0 1 0 2 1 1 0 0 0 1 1 1 1 2 1 5 1 2 2 2 0 1 3 2 2 0 0 1 1 0 2 1 1 2 0 1 5 0 2 0 1 2 2 0 1 0 2 0 1 1 0 1 0 0 2 1 0 2 1 1 2 0 0 1 2 0 2 1 1 3 1 1 0 1 0 0 2 1 0 0 1 1 2 0 0 1 2 1 1 1 0 1 0 1 1 1 1 0 0 1 1 1 0 1 1 2 1 2 0 1 2 1 0 1 1 0 0 1 0 0 2 1 1 2 1 1 1 3 1 0 0 2 3 0 1 1 1 2 1 0 2 0 2 1 1 0 2 2 2 3 0 1 2 3 2 1 2 1 0 1 0 3 0 0 0 0 1 1 0 0 2 0 0 2 1 1 2 0 2 1 1 2 0 0 2 2 1 3 0 1 0 1 2 1 2 1 0 2 2 1 0 3 0 1 2 1 0 2 1 0 0 1 0 0 0 2 2 0 0 0 1 1 1 0 0 2 1 1 2 2 0 0 0 1 1 1 0 1 2 2 0 1 1 0 2 0 1 3 2 1 0 1 0 0 1 0 0 0 2 0 1 1 0 2 2 0 2 0 0 1 1 2 2 1 1 2 3 2 0 0 0 2 2 2 0 0 2 2 0 1 2 2 0 2 1 1 0 4 1 2 2 4 0 0 2 0 0 0 2 1 2 5 1 3 0 1 1 4 0 3 0 4 3 1 0 1 0 0 1 1 1 2 1 2 2 1 3 1 3 1 0 2 0 4 2 3 1 0 0 1 1 0 1 1 4 0 1 0 0 0 0 1 1 3 1 0 0 2 1 1 2 1 2 1 1 0 1 1 2 0 2 1 3 1 1 0 1 2 0 0 0 3 0 3 4 0 0 0 1 0 2 2 2 0 1 3 1 3 1 2 0 1 0 1 1 1 2 1 3 0 0 0 3 0 0 2 3 2 2 3 0 0 1 0 2 1 0 0 0 0 0 0 0 2 0 1 0 2 0 3 1 0 1 3 1 0 2 0 3 0 0 1 2 1 0 2 0 3 2 0 0 1 1 2 1 1 0 1 4 1 0 2 2 0 1 0 1 0 3 0 0 1 1 2 1 0 0 0 0 0 1 2 0 2 1 2 0 0 0 1 1 1 1 0 0 1 0 1 0 2 0 2 0 0 0 0 0 0 0 2 0 0 1 2 1 0 2 0 0 2 0 0 0 1 0 1 0 0 1 0 0 1 0 0 2 2 0 1 1 1 0 2 0 3 2 1 1 0 2 0 1 2 2 2 0 1 0 0 0 2 0 0 3 0 1 1 1 1 0 0 0 1 0 4 3 2 2 1 2 0 1 1 2 1 0 0 0 0 1 0 1 1 1 2 3 0 1 1 2 1 2 0 0 4 0 0 2 2 0 3 1 1 1 3 2 2 0 1 0 4 1 1 0 1 1 2 3 1 1 1 2 0 0 3 1 2 0 2 2 0 3 0 1 1 0 4 3 1 1 0 1 1 2 0 1 1 1 0 1 2 0 2 0 0 0 0 1 2 0 0 1 1 2 0 2 0 3 0 3 1 1 0 4 0 3 1 2 1 1 4 0 1 1 3 3 3 0 2 0 3 3 0 2 2 1 1 3 1 1 1 0 3 0 1 0 2 0 2 0 1 2 2 1 1 0 4 1 1 1 1 1 3 0 1 0 1 1 2 0 3 0 3 1 1 1 3 1 2 2 1 2 0 2 2 0 5 0 4 3 1 1 1 1 0 2 1 2 1 2 2 1 2 2 1 0 4 2 1 2 1 0 2 0 1 4 2 1 2 3 1 1 1 3 2 1 1 1 2 0 1 0 0 0 1 0 0 2 0 1 1 0 0 0 1 0 2 0 1 2 2 0 1 1 2 1 1 1 0 0 0 0 1 1 2 1 3 0 0 0 1 0 1 0 1 2 3 0 0 1 0 1 1 0 1 1 1 1 1 0 0 2 1 0 2 1 0 0 1 1 1 1 0 2 0 0 1 1 2 0 1 1 2 1 1 0 0 3 0 0 0 2 2 0 2 2 4 2 1 1 1 1 0 0 1 1 0 0 1 2 1 3 0 1 0 0 0 2 1 1 1 1 0 0 4 1 0 3 1 1 2 0 1 1 2 2 1 2 0 2 0 1 2 2 3 1 3 0 0 1 0 3 2 2 1 0 2 0 0 0 0 0 0 1 1 1 0 1 0 3 0 2 1 0 0 0 1 1 1 4 1 1 0 0 1 0 0 0 3 1 0 0 1 0 1 1 1 0 0 0 2 1 2 0 0 0 1 2 0 1 1 1 2 0 0 2 2 2 2 1 1 0 4 0 2 2 0 1 0 0 1 1 1 1 1 1 1 1 1 3 0 1 1 1 0 0 1 2 0 1 0 
BTB PER SET COUNT: 0 1 1 1 0 0 0 0 0 0 1 0 1 0 0 1 2 0 0 1 0 1 1 1 0 1 0 1 1466 0 1 1 1 1 1 0 0 1 4 0 1 0 4 3 1 1 1 0 1 1 0 0 1 0 0 1 1 2 0 0 0 0 0 1 0 2 0 0 0 1 1 0 1 0 0 0 496 2 2 1 1 1 1 1 1 5 0 1 3 1 1 471 1 1 2 0 0 0 0 0 0 2 1 1 2 1 0 0 0 0 1 1 0 1 0 1 0 0 0 0 1 0 0 0 0 0 0 0 2 1 1 0 0 1 1 0 0 0 0 1 0 0 1 1 2 4 3 1 1 1 0 35 1 0 8 1 0 1 1 0 0 0 0 1 7 2 0 0 1940 2 1 0 1 0 0 0 0 1 0 0 0 0 1 0 1 2 1 0 0 0 2 0 1 2 0 5 1 0 0 1 0 1 0 0 0 0 0 1 1 0 0 3 1 1 1 0 0 3 0 0 0 1 1 1 1 0 0 0 0 2 1 0 0 0 0 2 1 1 0 1 1 0 2 1 3 2 0 0 1 0 1 0 0 1 0 3 2 0 0 0 2 1 1 0 2 3 1 0 1 0 0 0 0 1 1 1 1 0 0 1 1 0 0 0 1 1 0 0 0 0 0 0 0 1 0 0 2 2 0 0 1 0 1 0 1 0 2 0 0 0 1 0 0 0 2 0 1 1 0 3 0 0 0 1 0 1 1 4 0 0 0 0 1 0 1 0 1 1 2 0 3 0 0 0 0 1 1 1 1 4 0 2 1 3 1 0 1 0 2 0 0 2 1 0 2 1 0 0 0 0 1 0 0 0 0 1 0 1 1 0 0 0 0 1 0 0 1 0 0 0 0 0 1 0 0 0 0 0 0 1 1 1 0 0 0 0 1466 1 0 0 0 0 0 1 1 0 4 0 0 89 1 0 1 2 1 3 0 0 0 0 0 0 1 1 2 0 0 0 0 0 0 3 0 1 0 0 0 0 0 0 0 0 0 1 1 0 1 0 2 1 2 0 1 1 0 0 1 0 1 2 0 0 1 495 2 0 0 1 1 0 0 0 0 496 0 0 1 0 1 1 2 0 0 1 0 2 0 1 0 0 1 0 0 0 0 0 0 0 0 1 1 1 2 2 5 0 0 1 1 503 1 0 1 1 3 1 1 1 1 2 2 1 0 2 1 1 0 0 7 0 0 2 1 1 0 1 3 1 0 1 1 0 0 1 0 1 2 0 2 1 2 0 0 0 0 0 0 0 2 3 1 0 1 1 0 0 0 1 0 0 1 0 2 0 0 0 0 0 0 0 1 0 0 0 0 0 2 0 2 0 1 0 0 1 0 1 0 1 0 0 1 1 0 0 0 1 0 0 0 0 0 0 2 0 1 2 0 0 0 0 496 0 0 7 0 2 0 1 0 1 1 0 1 1 0 0 0 1 0 1 0 0 0 0 0 0 1 0 0 1 1 1 0 2 1 1 1 0 0 0 1 1 1 0 1 1 0 1 1 0 1 0 1 0 0 0 1 1466 1 0 0 1 0 1 0 1 1 1 0 1 0 1 0 1 0 0 0 0 0 0 1 1 0 0 1 0 1466 1 0 0 0 0 0 0 0 0 0 0 0 1 0 1 0 0 0 0 3 1 1 0 1 1 1 0 1 0 1 0 1 1 0 0 2 0 0 1 1 2 0 0 1 0 0 0 0 0 1 0 0 0 2 0 0 0 0 1 6 0 1 1 1 0 0 0 1 1 1 2 0 0 1 0 0 0 2 1 1 0 0 0 0 0 0 0 0 0 0 0 0 1 0 1 0 0 0 0 2 0 0 0 2 0 1 0 0 0 0 1 0 0 0 1 1 0 0 0 0 0 1 0 0 0 0 1 0 1 0 2 1 0 1 1 3 0 1 0 0 0 0 0 0 0 0 0 0 0 0 0 1 0 0 0 0 0 0 0 0 0 3 1 1 1 0 0 0 0 0 2 0 0 0 0 0 0 0 0 2 0 1 0 0 0 0 2 0 1 0 0 0 1 0 1 0 0 0 0 0 0 0 0 0 1 1 0 1 0 0 0 2 0 0 0 2 0 1 0 0 4 0 0 0 0 0 1 0 0 1 0 0 1 0 0 0 0 0 1 0 6 0 0 2 0 1 1 0 1 4 1 0 6 0 0 0 0 1 0 1 4 0 0 2 2 2 4 1 0 0 4 5 0 2 1 0 0 1 0 0 1 0 7 0 0 1 0 1 2 3 0 0 1 0 0 2437 0 0 0 2 2 0 1 1 2 7 2 0 0 0 1 1 1 4 2 1 1 1 0 0 1 1 0 0 0 0 2 0 1 3 0 2 3 0 1 0 2 1 1 2 4 1 0 0 0 0 0 4 0 1 1 2 0 1 3 0 2 0 0 3 0 0 1 0 0 0 1 1 3 1 2 0 2 0 4 1 2 1 0 3 0 0 1 0 2 1 0 1 1 1 1 0 1 0 2 1 1 1 1 1 0 1 2 1 1 1 0 0 1 1 2 1 1 1 1 1 0 2 1 0 0 1 0 0 0 1 0 1 0 0 3 1 2 0 2 2 0 1 0 1 1 0 0 0 0 0 3 0 1 1 1 0 1 0 0 1 0 4 0 0 1 2 5 2 1 0 3 5 0 2 0 0 0 0 1 1 0 1 0 3 143 1 0 0 2 2 1 0 1 0 0 0 2 1 3 0 2 0 1 0 1 2 6 974 0 8 0 0 0 1 1 2 0 2 1 1 1 0 0 0 3 1 1 0 1 1 2 2 0 2 1 0 3 2 1956 3 1 0 1 0 0 1 3 4 1 1 1 0 1 2 1 2 0 0 1 1 0 3405 2 1 0 0 0 1 1 0 1 1 0 0 1 2 2 0 0 2 0 0 1 0 1 1 0 1 0 0 1 2 0 2 1 3 1 1 1 1 0 1 1 0 2 1 0 0 2 0 1 2 0 0 0 0 1 0 1 0 1 0 2 1 0 0 0 0 0 0 0 0 1 0 0 0 0 1 2 2 0 1 0 0 0 1 2 4 1 1 1 0 2 0 2 2 0 1 0 0 1 1 2 1 1 1 0 1 1 0 0 1 2 0 1 1 0 1 0 0 1 1 1 1 1 1 0 4 1 1 1 0 0 1 109 0 1 0 2 0 1 2 0 0 0 0 2 0 0 0 0 0 1 1 1 0 1 0 0 1 0 1 0 0 0 0 1 0 0 0 0 0 1 1 1 3 1 1 0 1 1 1 0 1 0 0 3 0 0 0 0 0 1 1 0 0 0 0 0 0 0 0 0 0 0 2 0 0 0 1 0 1 0 0 2 0 0 1 1 1 1 1 0 1 1 0 0 2 0 1 1 1 1 0 0 1 0 2 369 0 0 5 0 0 1 0 1 1 1 1 1 0 1 1 1 0 1 1 0 0 0 2 0 1 0 0 0 0 0 0 1 1 0 1 451 1 1 0 0 1 0 0 1 0 0 0 1 1 0 0 1 1 1 4 0 0 1 1 6 1 0 0 1 2 0 0 0 3 1 2 0 2 0 2 1 0 1 1 2 3 0 1 0 2 1 0 22 2 2 1 2 5 0 0 2 0 1 1 0 1 0 2 0 0 971 0 1 3 0 0 0 1 2 2 1 3 0 0 0 3 0 0 2 1 0 0 0 0 3 0 1 0 288 1 0 1 1 1 1 4 1 1 1 2 0 1 0 0 0 1 1 1 2 0 0 1 1 0 1 1 0 0 1 1 0 0 1 0 0 0 2 1 0 0 2 1 0 0 0 0 1 0 0 1 1 2 1 2 1 625 0 1 4 3 2 3 1 0 2 0 0 1 1 0 0 0 0 1 1 2 0 0 1 1 1 148 0 0 0 0 1466 202 1 2 1 0 0 1 767 0 0 0 0 1 0 0 0 1 658 0 1 0 0 2 0 4 1 0 0 0 0 0 2 0 0 0 0 0 0 1 0 3 0 2 519 0 0 1 2 0 0 0 0 0 0 0 0 2 1 1 0 3 0 0 1 1 0 0 8 0 0 0 0 1 1 0 0 2 1 444 0 0 1 0 2 207 1 68 0 1 0 3 0 207 0 1 0 1 0 1 1 0 0 1 1 0 0 0 0 2 2 1 0 1 365 1 3 1 0 0 0 0 1 1 0 0 0 0 0 0 2 206 2 0 0 0 1 0 0 0 0 0 1 1 0 0 1 0 0 1 8 0 1 2 0 0 0 0 1 1 1 0 0 0 0 1 0 0 0 0 0 0 0 0 0 1 0 0 1 1 1 0 0 0 0 0 0 0 0 3 1 0 0 151 0 1 0 0 0 0 0 0 0 0 0 0 0 0 0 0 0 2 0 3 2 1 0 0 1 0 0 0 0 0 1 0 3 0 2 0 1 3 12 0 0 0 0 1 2 2 0 0 0 1 1 0 0 0 0 3 3 1 0 2 0 0 0 0 0 2 0 0 1 0 0 0 1 0 0 0 1 2 0 0 0 2 0 0 0 1 1 0 0 0 2 0 1 0 2 0 0 0 0 0 0 2 0 1 0 2 0 2 0 1 2 228 0 0 0 0 0 7 1 0 0 1 1 1 0 1 2 1 1 1 0 0 0 1 2 1 1 0 1 1 1468 1 2 0 0 1 2 0 0 1 0 1 4 0 1 0 0 2932 0 0 1 3 1 0 3 2 1 1 0 2 1 1 0 0 1 0 0 0 0 0 1 0 1 0 0 0 0 1 2 0 0 0 0 0 0 1 0 1 1 0 1 0 1 0 0 0 0 1 0 0 0 1 0 1 1 0 0 1 1 1 1 0 1 0 0 0 0 0 0 0 0 1 0 0 0 0 1 2 1 2 1 0 1 0 0 0 0 0 1 3 3 1 0 1 5 7 2 2 1 0 0 3 0 1 1 0 2 1 0 2 1 1 1 1 1 3 0 3 0 3 2 3 3 2 2 2 1944 2 0 3 0 0 0 3 0 0 3 1 1 4 0 1 1 1 0 3 3 0 0 1 4 0 2 2 1 1 3 3 1 1 3 1 2 1 0 4 1 0 1470 2 0 2 3 2 1 0 1 3 3 2 0 0 0 0 0 1 1 3 0 0 0 0 0 0 1 0 0 2 0 0 0 0 0 2 1 3 3 0 1 1 3 2 1 0 0 0 1 0 1 1 0 4 0 0 0 1466 2 0 1 0 0 0 0 2 1 0 1 0 1 0 1 2 1 1 0 3 0 2 0 0 0 0 2 0 3 4 0 3 0 2 0 0 0 0 0 3 0 1 0 1 4 3 0 1 0 1 3 4 4 0 0 0 5 1 1 2 0 0 3 0 1 4 0 0 1 0 3 1 1 1 0 0 0 1 2 3 0 0 2 5 1 2 7 3 1 2 0 0 0 2 0 3 3 1 3 4 8 0 3 0 2 0 0 1 1 3 1 2 3 2 0 3 1 1 3 2 4 2 0 2 0 5 3 1 0 0 1 1469 0 1 1 0 0 0 0 0 2 3 0 0 0 0 2 0 3 971 1 132 2 0 1 0 0 1 3 2 2 3 0 1 3 0 3 4 0 2 1 0 0 0 0 1 0 1 1 1 2 0 0 1 1 1 0 1 2 3 2 0 1 496 1 0 2 1 1 2 1 3 2 3 0 0 4 32 1 1 0 2 4 0 1 2 0 1 0 0 1 1 1 1 0 2 1 1 2 1 6 3 3 0 2 1 0 0 1 1 0 1 2 1 1 0 0 0 3 0 1 0 1 0 1 2 1468 0 0 0 3 0 2 1 1 0 0 1 1 0 1 2 1 1 1 0 1 0 0 1 1 1 0 1 1 0 0 1 1 0 0 0 1 1 0 0 0 1 2 0 0 1 1 0 1 0 0 0 0 0 0 2 2 0 1 1 45 0 0 0 0 0 2 2 1 1 3 0 0 2 0 2 0 2 0 4 4 4 3 1 2 1 0 0 2 0 0 0 0 0 2 0 0 0 0 0 496 2 0 0 2 1 1 1 0 1 1467 1 1 2 1 3 4 1 1 1 0 0 0 1 0 0 1 1 1 0 0 1 1 0 0 0 0 1 0 1 0 0 1 0 3 2936 4 1 2 0 1 1 8 0 0 1 2 0 0 1 3 3 0 0 2 1 0 0 1 1 4 0 1 1 0 4 0 5 0 0 2 0 1 0 2 3 0 1 0 1 2 5 1 0 1 7 0 0 0 1 0 0 0 1 1 0 1 2 0 2 2 0 1 0 3 2 3 1 0 1 1 1 1 2 3 497 0 1 0 0 2 0 3 1 0 1 2 0 0 0 2 0 4 1 1 3 2 2 1 1 2 0 1 2 0 2 1 0 0 1 2 0 0 3 3 0 0 0 1 0 1 0 1 1 1 3 0 0 1 2 1 2 2 2 0 1 1 0 0 1 1 1 0 1 3 0 1 0 0 0 1 1 1 0 0 1 1 2 0 2 0 1 1 0 0 0 1 0 1 1 1 1 1468 1 3 0 2 0 1 2 0 0 3 0 0 0 1 1 3 0 4 0 0 3 972 4 3 0 2 0 3 2 1 0 0 0 0 2 2 0 3 3 1 2 2 1 0 1 3 3 1 0 1 0 0 0 0 0 0 3 1 1 2 1 2 2 2 1 1 2 1 0 2 0 1 0 0 2 0 1 1 1 1 1 0 0 1 2 3 1 0 2 4 2 1 1 2 1 2 2 1 0 0 0 3 2 251 1 1 3 0 0 3 1 1 0 2 2 2 0 1 1 0 0 2 2 0 1 1 0 2 0 1 2 0 974 1 0 0 4 1 1 1 1 0 1 0 1 0 1 2 0 0 2 2 0 1 2 0 0 0 1 1 0 1 0 1 1 1 2 1 1 3 0 0 0 0 0 0 0 1 2 1 1 1 0 0 1 1 1 3 2 0 0 0 3 0 0 3 1 1 1 1 1 1 0 1 0 2 0 1 0 2 1 0 0 0 0 0 1 0 0 0 0 0 0 0 0 2 0 3 1 0 1 0 3 0 0 2 0 0 3 1 1 0 0 1 0 1 1 0 0 0 0 0 1 0 1 1 2 0 2 0 2 0 4 1 2 1 1 1 1 4 1 0 3 0 1 1 1 1 1 1 1 0 1 1 2 1 2 1 0 1 0 0 1 0 0 1 1 1 1 1 1 1 1 1 498 0 1 0 1 1 3 0 2 0 1 0 1 1 1 0 0 0 2 1 1 1 0 1 0 2 1 0 0 2 0 1 1 0 1 1 2 0 973 0 6 1 1 1 1 2 0 0 1 0 2 0 1 0 1 0 1 0 1 3 1 1 1 0 1 4 0 2 1 0 0 2 1 0 1 0 0 0 1 0 1 0 1 0 3 0 0 1 2 1 1 0 1 1 0 1 0 0 2 0 2 2 4 0 0 1 0 1 1 1 0 0 0 0 0 0 1 0 1 1 0 0 0 2 0 0 1 1 0 2 1 0 0 1 1 1 1 1 1 0 2 0 0 0 0 1 2 0 1 1 1 2 1 0 1 0 1 2 1 2 0 0 1 1 3 1 0 1 0 1 3 0 1 0 1 0 0 1 2 0 2 0 0 0 0 2 1 0 2 0 0 0 2 4 1 3 1 0 1 1 0 1 0 0 0 0 0 1 0 1 0 0 0 2 0 0 0 0 0 1 0 0 0 0 1 0 0 1 2 971 0 0 6 0 2 0 0 0 0 1 0 0 2 1 0 0 0 0 0 0 0 0 0 1 1 1 0 2 0 1 2 1 1 0 0 0 2 0 3 1 2 1 0 3 0 0 1 0 1 0 3 0 2 0 1 0 1 0 471 4 0 0 1 0 0 1 1 0 0 0 2 1 0 0 0 1 1 1 2 1 3 0 0 3 1 3 1 1 1 0 4 2 3 1 1 1 2 0 3 0 1 0 2 3 0 1 989 1 11 0 2 1 4 0 0 1 1 1 4 3 1 0 20526 0 0 1 2 0 0 0 1 3 1 0 0 0 2 2 1 1 1 5 0 1 1 1 4 0 0 0 1 1 2 1 0 1 1 2 1 2 1 1 0 1 0 1 4 0 1 0 2 0 1 0 1 1 0 2 1 0 1 1 0 0 1 1 0 1 1 0 4 1 1 2 1 0 2 0 0 0 0 2 971 0 0 0 1 2 0 0 1 1 1 4 0 0 2 0 5 1 2 0 0 1 0 1 17 1 0 1 1 1 1 1 0 0 0 0 0 0 1 0 0 2 0 0 0 2 2 0 4 0 1 1 1 1 1 0 1 2 1 1 1 1 1 1 0 0 0 0 1 1 1 130 0 1 1 0 0 1 1 0 2 2 2 0 0 2 0 2 0 1 1 1 0 2 1 0 0 0 0 0 0 1 0 3 3 0 0 0 0 2 1 0 1 2 1 1 0 0 0 0 1 0 0 1 0 2 0 1 0 0 1 1 1466 0 1 0 0 3 0 0 0 1 0 0 2 1 0 0 1 4 0 1468 1 1 1 0 1 0 1 1 1 2 0 0 5 0 0 1 1 0 0 2 0 1 0 2 0 0 0 1 0 0 0 0 0 1 1 1 1 0 0 0 2 0 0 0 0 1 0 0 0 2 1 0 1 1 1 0 1 0 1 0 0 0 1 1 0 0 2 0 0 1 1 0 0 0 0 0 1 1 1 2 0 1 1 2 1 1 0 0 0 1 0 0 1 1 0 1 0 0 1 0 1 0 1 1 1 471 0 0 0 1 0 0 0 1 0 0 0 0 0 0 0 1 0 0 1 0 1 0 0 0 0 0 0 0 2 1 1 1 0 1 2 0 1 2 0 1 0 2 1 0 0 0 0 0 0 1 0 1 3 0 1 1 1 0 0 1 0 2 0 1 1 0 0 0 0 0 0 4 2 1 1 1 2 0 0 1 1 1 1 4 0 1 3 3 0 0 2 0 1 2 0 0 2 2 1 1 0 2 1 0 1 0 1 1 0 2 0 4 1 0 0 1 2 0 0 1 0 0 1 1 0 1 1 1 1 0 0 0 0 0 4 0 1 0 1 2 3 3 1 2 1 1 1 1 2 0 0 1 0 5 1 0 0 0 3 1 3 0 0 0 4 0 0 0 0 0 0 1 1 1 0 0 0 1 1 0 0 1 1 0 0 1 1 0 0 1 0 0 1 2 0 0 0 0 0 2 9 0 1 1 1 0 0 2 0 0 1 1 1 1 0 0 1 1 3 0 1 0 0 1 0 0 1 1 1 1 0 0 0 1 1 1 1 1 0 1 1 1 2 0 2 0 0 2 0 0 0 2 5 2 0 0 1 1 3 0 1 1 1 0 0 1 3 1 1 1 1 2 2 1 0 393 4 0 2 1 4 1 0 2 1 1 1 4 0 0 0 1 0 3 3 0 1 3 0 1 2 1 1 2 1 0 1 7 0 1 3 0 1 2 1 2 1 1 4 0 0 1 3 1 1 5 1 2 1 0 2 2 2 0 1 1 1 1 1 2 497 0 1 0 1 1 0 0 1 1 2 6 3 0 0 0 1 2 2 1 1 2 0 2 1 0 0 2 1 1 0 0 0 0 2 2 0 1 3 0 1 2 1 1 1 0 1 0 973 1 1 3 9 3 2 1 2 0 1 1 2 1 0 0 1 0 0 1 0 0 2 0 1 0 0 0 1 0 0 0 0 1 1 0 1 2 0 1 1 0 0 0 0 2 1 0 2 25 0 1 199 3 1 2 1 1 2 0 1 1 0 0 0 1 3 1 1 1 2 1 0 1 1 0 0 2 1 2 2 2 1 2 1 2 0 1 2 0 1 1 2 2 1 1 2 2 1 0 3 1 2 2 1 1 1 993 2 1 1 1 0 0 1 3 0 1 2 0 0 1 1 2 0 1 1 2 1 2 3 3 1 1 2 2 1 0 1 1 1 0 1 2 2 3 0 2 0 2 0 0 995 0 1 4 972 1 993 2 2 0 0 0 0 992 993 2 0 1 0 4 1 1 2 0 1 2 0 0 1 0 0 0 0 2 2 1 1 0 0 0 3 1 2 0 1 1 2 1 1 3 0 0 1 3 0 0 1 1 2 1 1 2 1 2 2 0 3 0 0 1 2 0 4 1 1 0 0 1 0 971 0 0 1 1 0 0 1 1 1 1 0 1 2 0 1 1 0 0 1 3 0 0 3 1 2 3 2 1 2 0 0 2 3 1 2 1 1 2 1 2 3 0 0 0 2 0 0 3 0 1 1 0 2 1 0 0 1 0 0 1 0 1 0 0 0 1 0 0 0 0 0 1 1 0 0 2 1 0 2 0 1 1 3 1 0 0 1 0 2 0 2 0 0 1 0 3 1 0 0 1 2 1 2 2 0 0 1 2 0 2 0 0 2 0 0 2 0 2 2 0 3 0 2 0 0 499 0 0 0 0 0 2 2 0 13 0 3 3 4 4 1 3 4 3 0 0 0 0 0 1 4 0 1 2 1 0 0 1 1 1 2 0 0 3 1 0 0 1 0 0 0 1 0 0 2 0 0 6 2 1 3 2 0 2 971 2 1 0 0 2 0 0 1 2 0 0 1 0 5 0 1 1 2 1 2 0 945 0 4 1 4 1 3 0 2 0 2 2 1 0 1 1 0 0 3 2 0 0 1 1 4 1 2 2 0 0 4 0 3 0 2 1 3 1 1 0 5 0 1 2 7871 2 3 2 1 0 0 992 0 0 5 1 0 0 3 992 0 0 3 2 0 0 1 993 2 1 0 1 1 1 0 993 1 0 1 2 3 2 2 3 0 1 0 1 1 992 0 1 0 0 0 1 0 1 992 0 0 0 0 2 1 0 1 1 0 1 1 1 0 2 3 1 972 0 1 1 4 0 0 0 0 1 0 2 0 0 2 1 1 989 0 0 0 4 0 0 1 1 1 0 0 1 0 2 0 1 2 1 0 0 0 2 0 0 1 1 0 2 0 0 1 1 0 0 3 4 4 3 0 0 0 64 0 0 1 2 3 1 1 0 2 2 1 2 1 1 2 5 0 3 0 1 2 0 4 2 0 0 0 3 1 0 0 0 2 1 1 0 1 62 1 0 1 1 3 0 3 0 2 2 0 1 0 1 0 0 3 0 3 0 1 0 2 1 2 2 0 0 1 0 0 0 0 1 4 1 1 0 1 0 1 1 1 3 1 0 4 3 1 0 1 0 2 0 0 0 1 1 0 0 2 0 1 3 1 1 2 0 0 1 1 0 0 0 1 3 0 1 0 5 4 2 0 0 1 2 0 1 1 2 6 0 2 1 1 0 3 0 1 1 3 2 2 470 2 1 55 0 0 1 1 1 0 972 4 2 0 2 2 0 1 0 4 1 2 0 9 0 2 1 0 497 1 1 4 4 18 1 2 1 1 1 0 392 2 1 2 1 1 2 1 1 0 1 0 4 1 1 0 1 2 0 1 2 1 1 2 1 1 2 0 1 1 1 1 2 1 4 0 2 1983 0 2 0 1 4 2 2 1 3 2 0 4 2 0 2 2 0 0 0 0 2 1 0 2 0 0 0 0 0 2 0 1 1 0 1 2 1 1 0 0 0 3 0 0 394 0 0 5 2 0 1 4 0 0 0 0 1 1 7 0 1 4 0 0 4 4 0 1 0 1 1 2 4 0 2 1 1 2 2 2 2 2 0 0 0 2 1 1 1 1 4 0 0 2 0 0 0 498 0 2 0 2 3 1 1 1 2 0 2 4 1 0 1 1 0 2 0 0 4 1 1 1 1 0 4 0 1 2 1 0 2 0 0 0 4 1 0 0 0 1 1 1 0 0 1 2 1 1 0 2 0 0 0 2 0 1 1 1 3 0 1 4 0 0 5 1 1 0 0 0 3 0 4 0 0 0 1 2 0 0 0 498 0 0 1 0 1 0 0 0 496 1 1 1 0 0 0 1 2 0 1 2 0 0 1 1 0 0 1 2 1 0 0 0 1 1 0 2 0 0 989 1 0 1 1 0 3 0 2 0 0 0 3 1 1 0 1 0 0 1 1 1 3 2 1 0 0 2 0 0 0 1 1 0 0 1 1 1 1 0 0 0 2 0 1 3 0 0 1 0 0 4 1 2 0 0 0 0 1466 1 0 1 1 1 0 1 0 4 0 0 2 0 3 1 0 0 0 0 1 0 0 1 1 1 1 0 1 1 0 0 1 1 0 0 3 1 1 0 1 1 0 1 1 0 1 2 2 1 3 0 0 2 0 2 1 0 2 1 1 1 0 0 0 2 0 1 1 1 0 0 0 0 0 1 2 1 1 0 1 2 0 1 0 0 2 1 1 0 2 0 1 0 1 4 0 3 0 3 2 0 1 2 1 2 0 0 0 3 0 1 1 1 2 1 0 2 0 1 0 2 1 0 1 0 2 2 2 2 2 0 3 1 4 4 0 2 2 0 1 1467 0 0 1363 0 1 1 0 0 2 0 0 1 1362 0 1 0 2 2 0 0 0 0 0 0 0 0 0 0 0 3 0 1 1 0 0 0 0 0 0 1 0 0 1 0 0 1 0 0 0 2 1 0 0 0 0 0 3 27 0 0 0 2 2 0 0 2 2 133 0 2 0 0 0 0 0 1 0 1 0 1 0 0 1 3 0 0 0 0 1 0 1 2 0 36 1 2 1 0 0 0 0 0 0 3 0 0 1 0 0 0 1 0 0 0 0 0 1 1 0 2 1 1 2 1 0 1 0 1 0 1 0 0 0 1 0 2 1 0 0 0 2 2 0 0 0 0 1 0 0 0 0 1 0 0 1 1 1 1 2 3 1 2 0 0 1 1 1 1 0 2 1 1 2 1469 0 0 0 1467 0 0 1 0 1 1 0 2 0 0 0 1 0 1 1 2 0 0 2 0 2973 0 1 1 0 5 3 1 2 3 3 3 0 1 0 1 0 1 2 0 4 1 0 0 0 0 2 2 1 0 1 3 0 1 0 1 1 0 0 0 0 0 3 3 1 0 1 1 0 1 2 2 1 993 0 0 0 0 2 1 993 0 0 0 2 497 0 1 0 1 1 1 0 0 1 1 499 0 0 14660 992 0 1 2 4 0 0 1 0 0 2 2 0 0 0 0 2 2 0 1 2 0 0 1 1 0 1 1 0 3 3 1 0 0 2 0 1 1 1 0 0 0 0 0 0 3 0 2 0 1 0 1 0 2 1 1 1 0 3 0 2 0 1 0 1 1 0 0 0 0 1 1 0 0 1 0 0 972 1 1 1 0 2 2 0 2 0 0 0 3 1466 1 2 1 0 2 3 2 1 3 2 4 0 0 3 0 1 1 1 1 4 2 0 1 1 2 0 2 0 3 1469 1 3 0 0 1 0 0 1 0 2 0 1 2 3 1 1 3 1 1 3 972 0 2 0 3 0 2 2 2 2 2 1 0 0 1 0 0 0 1 1 0 0 0 1 0 0 0 3 0 1 2 2 2 1 3 0 0 2 2 1 3 1 1 0 0 2 2 1 1 0 0 1 0 0 0 0 0 1 0 1 2 0 0 1 0 0 0 1 1 1 1 1 1 0 2 2 1 0 2 1 1 3 2 5 1 2 1 0 1 0 3 1 0 1 0 1 1 0 1 2 0 2 0 1 0 0 2 2 0 2 1468 3 0 1 0 2 1 0 0 1 5 2 1 1 3 1 2 0 0 1 2 4 0 3 1 0 3 0 1 1 1 1 0 1 0 1 0 1 2 3 3 0 0 2 2 2 0 0 0 3 1 0 2 2 1 0 3 1 0 0 2 2 0 0 0 2 1 0 2 0 0 0 1 2 2 0 1 0 1 1 2 1 0 2 1470 1 4 0 1 1 0 1 0 0 1 0 0 0 0 0 3 0 0 2 1 0 2 2 2 2 3 1 2 1 0 3 1 1 4 2 2 2 2 2 0 3 1 1 1 1 1 2 974 2 1 3 0 1 1 1 1 0 0 1 1 0 3 1 0 1 0 1 1 0 0 3 1 3 0 0 0 2 0 2 0 0 0 2 1 0 0 0 0 5 0 1 0 1 2 1 0 1 0 0 2 0 1 1 1 1 2 0 1 0 0 1 0 2 0 0 0 4 1 2 0 2 1 0 2 1 0 0 0 1 2 0 1 1 2 2 2 0 2 2 0 1 2 1 1 1 0 2 1 5 0 2 0 1 1 2 1 3 0 0 1 1 0 1 2 3 3 1 1 0 0 1 1 1 1 1 1 2 0 1 2 3 0 0 1 0 0 2 3 3 1 1 0 1 1 0 0 1 2 2 1 1 2 3 0 0 2 2 0 2 1 2 0 1 0 0 1 2 2 0 0 1 1 0 1 2 1 1 1 1 1 1 0 1 3 1 2 1 2 1 1 2 1 1 0 0 3 1 3 3 0 1 0 1 1 0 0 3 2 1 1 2 1 2 0 2 2 0 0 2 0 1 2 1 1 0 0 1 1 0 0 1 0 1 2 0 3 1 1 2 0 2 0 0 0 1 0 2 0 0 0 1 1 1 1 1 1 1 0 0 0 0 3 1 0 0 0 0 1 0 3 1 1 1 3 2 0 1 1 0 1 1 1 0 0 0 0 2 2 0 1 1 1 0 1 0 0 2 0 0 0 2 2 1 1 0 1 0 1 2 1 0 1 1 1 1 0 0 0 1 0 0 2 0 0 1 0 3 0 1 0 1 0 1 4 2 0 1 2 1 2 1 2 0 1 1 1 0 1 0 0 0 0 0 1 1 1 1 1 2 1 0 1 0 1 1 4 0 0 2 0 0 0 0 0 0 0 1 1 0 4 0 0 0 144 1 2 1 0 1 1 2 3 0 4 0 1 0 3 4 1 1 1 1 0 3 0 1 0 0 0 0 4 0 0 1 0 3 0 3 1 1 0 0 0 1 3 1 0 0 3 1 1 0 0 0 0 0 0 1 0 0 2 0 0 0 2 0 0 1 1 1 0 0 1 7 1 0 0 0 0 1 1 0 0 0 1 1 0 0 1 1 4 0 2 1 1 2 3 0 0 1 2 1 0 2 1 5 2 0 0 0 0 0 3 0 3 5 0 0 1 0 2 5 3 4 0 2 1 2 5 0 1 2 1 3 4 0 1 1 3 1 0 3 0 3 2 6 1 2 1 0 2 4 3 0 1 0 0 0 0 10 1 0 2 4 3 0 0 3 1 2 0 0 2 0 2 1 0 1 3 4 0 0 3 1 0 1 0 0 0 0 1 0 1 2 1 2 0 0 0 3 0 3 1 1 2 0 1 0 0 0 1 0 2 0 1 1 0 0 2 2 0 2 2 1 1 0 2 0 1 3 0 0 2 0 2 0 3 1 1 0 2 1 1 2 3 0 1 4 2 0 0 1 2 1 0 0 4 0 3 1 2 1 0 1 1 3 1 0 0 1 0 30 0 2 0 0 2 1 1 0 2 2 1 0 0 0 0 0 2 1 0 1 0 0 0 0 0 3 0 3 1 1 1 1 1 1 2 1 0 0 0 2 0 0 0 1 0 0 0 1 0 0 0 0 0 0 1 1 0 1 3 1 2 1 1 0 3 2 5 0 1 1 3 0 0 125 0 4 0 0 0 2 1 3 0 3 4 0 0 0 0 2 1 0 2 0 1 4 2 2 1 2 1 0 2 0 1985 3 1 0 2 1 0 2 2 0 2 1 0 1 0 1 2 1 2 2 0 1 1 0 1 0 0 0 0 0 3 2 1 2 2 0 1 0 3 1 1 5 6 1 2 1 2 2 2 1 2 2 3 2 2 1 2 2 2 0 4 0 0 2 3 2 0 0 0 3 4 0 0 1 0 1 1 2 0 4 4 1 0 1 2 2 0 2 2 1 1 0 2 4 1 0 1 1 0 53 7 0 3 2 2 0 0 0 1 1 0 2 0 1 3 0 1 3 1 1 4 1 0 1 1 5 1 500 3 2 2 2 5 1 1 6 1 0 1 1 2 3 2 2 2 2 2 1 1 1 0 2 3 2 0 0 1 1 1 3 0 0 0 3 4 0 2 1 0 3 2 0 1 0 0 1 0 2 495 1 0 0 0 1 1 1 1 3 1 1979 1 2 2 2 0 1 4 3 2 0 0 1 1 0 2 1 1 2 0 391 994 0 3 0 1 2 2 0 1 0 2 0 1 1 0 1 0 0 2 1 0 2 1 1 2 0 0 1 2 0 2 1 1 3 1 1 0 1 0 0 1467 1 0 0 1 1 2 0 0 1 4 1 1 1 0 1 0 1 1 1 1 0 0 1 1 1 0 1 1 96 2 2 0 1 2 1 0 1 1 0 0 1 0 0 2 1 1 2 1 1 1 3 1 0 0 2 3 0 2 1 1 2 1 0 2 0 2 1 1 0 2 2 2 3 0 1 2 3 2 1 2 1 0 2 0 3 0 0 0 0 1 1 0 0 2 0 0 2 2 1 2 0 19 1 1 2 0 0 3 3 1 3 0 1 0 1 2 1 3 1 0 2 2 1 0 3 0 1 2 1 0 2 1 0 0 1 0 0 0 3 2 0 0 0 1 1 1 0 0 2 1 1 2 3 0 0 0 1 1 1 0 1 2 2 0 1 1 0 2 0 1 3 2 1 0 1 0 0 2 0 0 0 2 0 1 1 0 2 3 0 3 0 0 1 1 2 2 2 1 1467 3 2 0 0 0 2 4 2 0 0 2 2 0 1 2 2 0 2 1 2 0 4 1 2 2 4 0 0 2 0 0 0 2 1 2 1239 971 4 0 1 1 4 0 3 0 6 4 1 0 1 0 0 3 1 1 2 1 2 2 1 3 1 497 1 0 2 0 90 2 3 1 0 0 1 1 0 1 1 6 0 1 0 0 0 0 1 1 4 1 0 0 2 1 2 3 1 3 1 1 0 1 1 2 0 2 1 4 1 1 0 1 2 0 0 0 4 0 4 5 0 0 0 1 0 2 3 2 0 1 48 1 3 1 2 0 1 0 1 1 2 2 1 4 0 0 0 3 0 0 2 3 2 2 7 0 0 1 0 2 1 0 0 0 0 0 0 0 2 0 1 0 2 0 4 1 0 1 3 1 0 9 0 3 0 0 1 2 1 0 2 0 3 2 0 0 2 1 2 1 2 0 1 4 1 0 6 2 0 1 0 1 0 6 0 0 5 1 974 1 0 0 0 0 0 1 2 0 2 1 2 0 0 0 2 1 1 1 0 0 1 0 1 0 3 0 2 0 0 0 0 0 0 0 2 0 0 274 2 1 0 31 0 0 2 0 0 0 1 0 1 0 0 9 0 0 1 0 0 2 2 0 1 1 1 0 2 0 3 2 1 1 0 5 0 1 2 2 2 0 1 0 0 0 2 0 0 3 0 1 1 1 1 0 0 0 1 0 4 3 2 4 1 2 0 1 2 2 1 0 0 0 0 1 0 1 1 1 2 5 0 1 1 3 1 2 0 0 5 0 0 3 2 0 3 1 1 1 3 2 2 0 1 0 6 2 1 0 1 1 2 4 1 1 1 2 0 0 4 1 3 0 4 2 0 3 0 1 1 0 4 5 1 391 0 1466 1 2 0 1 1 1 0 1 2 0 2 0 0 0 0 1 3 0 0 1 2 2 0 497 0 3 0 4 1 1 0 4 0 498 1 2 1 1 4 0 1 1 3 3 3 0 2 0 3 3 0 498 2 1 1 3 1 1 1 0 4 0 392 0 2 0 2 0 1 2 2 1 1 0 5 1 1 1 1 1 3 0 1 0 1 1 2 0 3 0 3 1 1 1 3 1 4 2 1 2 0 2 3 0 1485 0 5 3 1 1 1 1 0 2 1 3 1 2 3 1 2 2 3 0 4 2 1 2 1 0 2 0 1 4 972 1 3 3 1 1 1 3 2 1 1 1 2 0 1 0 0 0 1 0 0 2 0 2 1 0 0 0 1 0 2 0 1 2 3 0 1 2 2 1 1 1 0 0 0 0 1 1 2 1 3 0 0 0 1 0 1 0 1 2 3 0 0 2 0 1 1 0 1 1 1 1 1 0 0 22 1 0 2 1 0 0 1 1 1 1 0 2 0 0 1 1 2 0 1 1 2 1 1 0 0 3 0 0 0 2 2 0 989 2 5 2 1 1 1 2 0 0 1 2 0 0 1 2 1 3 0 1 0 0 0 2 1 1 1 1 0 0 5 1 0 3 1 1 2 0 2 1 2 2 1 2 0 2 0 2 2 2 993 1 3 0 0 1 0 3 2 3 2 0 2 0 0 0 0 0 0 1 1 1 0 1 0 3 0 2 1 0 0 0 1 1 1 5 1 1 0 0 497 0 0 0 4 1 0 0 1 0 1 1 1 0 0 0 2 1 2 0 0 0 1 2 0 1 1 1 3 0 0 2 2 2 5 1 2 0 4 0 2 6 0 1 0 0 1 4 1 1 1 1 2 1 1 3 0 2 1 1 0 0 1 10 0 1 0 
