
*** ChampSim Multicore Out-of-Order Simulator ***

Warmup Instructions: 50000000
Simulation Instructions: 50000000
Number of CPUs: 1
LLC sets: 2048
LLC ways: 16
Off-chip DRAM Size: 4096 MB Channels: 1 Width: 64-bit Data Rate: 6400 MT/s
CPU 0 runs ./micro_traces/srv344.trace.gz
.gz
ITLB has LRU replacement policy
DTLB has LRU replacement policy
STLB has LRU replacement policy
FDIP Prefetcher at L1I
L1I has LRU replacement policy
L1D has LRU replacement policy
Initialize SRRIP state for L2C
Initialize DRRIP state for LLC
Heartbeat_Variant_0 : 1297 0.31665 per_variant_size: 0 1297 0 0 0 0 0 0 0 
Heartbeat_Variant_1 : 2477 0.604736 per_variant_size: 0 610 1867 0 0 0 0 0 0 
Heartbeat_Variant_2 : 0 0 per_variant_size: 0 0 0 0 0 0 0 0 0 
Heartbeat_Variant_3 : 0 0 per_variant_size: 0 0 0 0 0 0 0 0 0 
Heartbeat_Variant_0_evicts 0 : 5726 1 : 391 2 : 0 3 : 0 
Heartbeat_Variant_1_evicts 0 : 327 1 : 0 2 : 0 3 : 0 
Heartbeat_Variant_2_evicts 0 : 0 1 : 0 2 : 0 3 : 0 
Heartbeat_Variant_3_evicts 0 : 0 1 : 0 2 : 0 3 : 0 
Heartbeat CPU 0 instructions: 10000001 cycles: 2795592 heartbeat IPC: 3.57706 cumulative IPC: 3.57706 (Simulation time: 0 hr 1 min 43 sec) 
Heartbeat_Variant_0 : 1323 0.322998 per_variant_size: 0 1323 0 0 0 0 0 0 0 
Heartbeat_Variant_1 : 2538 0.619629 per_variant_size: 0 569 1969 0 0 0 0 0 0 
Heartbeat_Variant_2 : 0 0 per_variant_size: 0 0 0 0 0 0 0 0 0 
Heartbeat_Variant_3 : 0 0 per_variant_size: 0 0 0 0 0 0 0 0 0 
Heartbeat_Variant_0_evicts 0 : 5609 1 : 142 2 : 0 3 : 0 
Heartbeat_Variant_1_evicts 0 : 144 1 : 0 2 : 0 3 : 0 
Heartbeat_Variant_2_evicts 0 : 0 1 : 0 2 : 0 3 : 0 
Heartbeat_Variant_3_evicts 0 : 0 1 : 0 2 : 0 3 : 0 
Heartbeat CPU 0 instructions: 20000001 cycles: 5591270 heartbeat IPC: 3.57695 cumulative IPC: 3.57701 (Simulation time: 0 hr 3 min 16 sec) 
Heartbeat_Variant_0 : 1362 0.33252 per_variant_size: 0 1362 0 0 0 0 0 0 0 
Heartbeat_Variant_1 : 2648 0.646484 per_variant_size: 0 505 2143 0 0 0 0 0 0 
Heartbeat_Variant_2 : 0 0 per_variant_size: 0 0 0 0 0 0 0 0 0 
Heartbeat_Variant_3 : 0 0 per_variant_size: 0 0 0 0 0 0 0 0 0 
Heartbeat_Variant_0_evicts 0 : 5890 1 : 531 2 : 0 3 : 0 
Heartbeat_Variant_1_evicts 0 : 539 1 : 0 2 : 0 3 : 0 
Heartbeat_Variant_2_evicts 0 : 0 1 : 0 2 : 0 3 : 0 
Heartbeat_Variant_3_evicts 0 : 0 1 : 0 2 : 0 3 : 0 
Heartbeat CPU 0 instructions: 30000001 cycles: 8386484 heartbeat IPC: 3.57754 cumulative IPC: 3.57718 (Simulation time: 0 hr 4 min 49 sec) 
Heartbeat_Variant_0 : 1370 0.334473 per_variant_size: 0 1370 0 0 0 0 0 0 0 
Heartbeat_Variant_1 : 2649 0.646729 per_variant_size: 0 495 2154 0 0 0 0 0 0 
Heartbeat_Variant_2 : 0 0 per_variant_size: 0 0 0 0 0 0 0 0 0 
Heartbeat_Variant_3 : 0 0 per_variant_size: 0 0 0 0 0 0 0 0 0 
Heartbeat_Variant_0_evicts 0 : 5667 1 : 162 2 : 0 3 : 0 
Heartbeat_Variant_1_evicts 0 : 156 1 : 0 2 : 0 3 : 0 
Heartbeat_Variant_2_evicts 0 : 0 1 : 0 2 : 0 3 : 0 
Heartbeat_Variant_3_evicts 0 : 0 1 : 0 2 : 0 3 : 0 
Heartbeat CPU 0 instructions: 40000000 cycles: 11181794 heartbeat IPC: 3.57742 cumulative IPC: 3.57724 (Simulation time: 0 hr 6 min 24 sec) 
Heartbeat_Variant_0 : 1370 0.334473 per_variant_size: 0 1370 0 0 0 0 0 0 0 
Heartbeat_Variant_1 : 2651 0.647217 per_variant_size: 0 498 2153 0 0 0 0 0 0 
Heartbeat_Variant_2 : 0 0 per_variant_size: 0 0 0 0 0 0 0 0 0 
Heartbeat_Variant_3 : 0 0 per_variant_size: 0 0 0 0 0 0 0 0 0 
Heartbeat_Variant_0_evicts 0 : 5755 1 : 4 2 : 0 3 : 0 
Heartbeat_Variant_1_evicts 0 : 5 1 : 0 2 : 0 3 : 0 
Heartbeat_Variant_2_evicts 0 : 0 1 : 0 2 : 0 3 : 0 
Heartbeat_Variant_3_evicts 0 : 0 1 : 0 2 : 0 3 : 0 
Heartbeat CPU 0 instructions: 50000002 cycles: 13977864 heartbeat IPC: 3.57645 cumulative IPC: 3.57708 (Simulation time: 0 hr 8 min 0 sec) 

Warmup complete CPU 0 instructions: 50000002 cycles: 13977864 (Simulation time: 0 hr 8 min 0 sec) 

*** Reached end of trace for Core: 0 Repeating trace: ./micro_traces/srv344.trace.gz
Cycle: 20000000 FTQ IN: 58238394 FTQ occupancy: 20.5395 DECODE IN: 58238294 DECODE occupancy: 53.3225 ROB IN: 58238234 ROB occupancy: 317.626 ROB OUT: 58237882
Heartbeat_Variant_0 : 1379 0.33667 per_variant_size: 0 1379 0 0 0 0 0 0 0 
Heartbeat_Variant_1 : 2653 0.647705 per_variant_size: 0 487 2166 0 0 0 0 0 0 
Heartbeat_Variant_2 : 0 0 per_variant_size: 0 0 0 0 0 0 0 0 0 
Heartbeat_Variant_3 : 0 0 per_variant_size: 0 0 0 0 0 0 0 0 0 
Heartbeat_Variant_0_evicts 0 : 5644 1 : 274 2 : 0 3 : 0 
Heartbeat_Variant_1_evicts 0 : 268 1 : 0 2 : 0 3 : 0 
Heartbeat_Variant_2_evicts 0 : 0 1 : 0 2 : 0 3 : 0 
Heartbeat_Variant_3_evicts 0 : 0 1 : 0 2 : 0 3 : 0 
Heartbeat CPU 0 instructions: 60000000 cycles: 21251894 heartbeat IPC: 1.37475 cumulative IPC: 1.37475 (Simulation time: 0 hr 9 min 56 sec) 
Heartbeat_Variant_0 : 1379 0.33667 per_variant_size: 0 1379 0 0 0 0 0 0 0 
Heartbeat_Variant_1 : 2654 0.647949 per_variant_size: 0 491 2163 0 0 0 0 0 0 
Heartbeat_Variant_2 : 0 0 per_variant_size: 0 0 0 0 0 0 0 0 0 
Heartbeat_Variant_3 : 0 0 per_variant_size: 0 0 0 0 0 0 0 0 0 
Heartbeat_Variant_0_evicts 0 : 5576 1 : 18 2 : 0 3 : 0 
Heartbeat_Variant_1_evicts 0 : 18 1 : 0 2 : 0 3 : 0 
Heartbeat_Variant_2_evicts 0 : 0 1 : 0 2 : 0 3 : 0 
Heartbeat_Variant_3_evicts 0 : 0 1 : 0 2 : 0 3 : 0 
Heartbeat CPU 0 instructions: 70000003 cycles: 28345614 heartbeat IPC: 1.4097 cumulative IPC: 1.39201 (Simulation time: 0 hr 11 min 51 sec) 
Cycle: 30000000 FTQ IN: 13958702 FTQ occupancy: 15.2881 DECODE IN: 13958688 DECODE occupancy: 39.1653 ROB IN: 13958688 ROB occupancy: 251.911 ROB OUT: 13958692
Heartbeat_Variant_0 : 1383 0.337646 per_variant_size: 0 1383 0 0 0 0 0 0 0 
Heartbeat_Variant_1 : 2659 0.64917 per_variant_size: 0 494 2165 0 0 0 0 0 0 
Heartbeat_Variant_2 : 0 0 per_variant_size: 0 0 0 0 0 0 0 0 0 
Heartbeat_Variant_3 : 0 0 per_variant_size: 0 0 0 0 0 0 0 0 0 
Heartbeat_Variant_0_evicts 0 : 5644 1 : 149 2 : 0 3 : 0 
Heartbeat_Variant_1_evicts 0 : 148 1 : 0 2 : 0 3 : 0 
Heartbeat_Variant_2_evicts 0 : 0 1 : 0 2 : 0 3 : 0 
Heartbeat_Variant_3_evicts 0 : 0 1 : 0 2 : 0 3 : 0 
Heartbeat CPU 0 instructions: 80000003 cycles: 35576808 heartbeat IPC: 1.3829 cumulative IPC: 1.38896 (Simulation time: 0 hr 13 min 50 sec) 
Cycle: 40000000 FTQ IN: 13993050 FTQ occupancy: 14.8943 DECODE IN: 13993046 DECODE occupancy: 38.1705 ROB IN: 13993046 ROB occupancy: 247.411 ROB OUT: 13993042
Heartbeat_Variant_0 : 1388 0.338867 per_variant_size: 0 1388 0 0 0 0 0 0 0 
Heartbeat_Variant_1 : 2661 0.649658 per_variant_size: 0 492 2169 0 0 0 0 0 0 
Heartbeat_Variant_2 : 0 0 per_variant_size: 0 0 0 0 0 0 0 0 0 
Heartbeat_Variant_3 : 0 0 per_variant_size: 0 0 0 0 0 0 0 0 0 
Heartbeat_Variant_0_evicts 0 : 5782 1 : 202 2 : 0 3 : 0 
Heartbeat_Variant_1_evicts 0 : 198 1 : 0 2 : 0 3 : 0 
Heartbeat_Variant_2_evicts 0 : 0 1 : 0 2 : 0 3 : 0 
Heartbeat_Variant_3_evicts 0 : 0 1 : 0 2 : 0 3 : 0 
Heartbeat CPU 0 instructions: 90000001 cycles: 42698554 heartbeat IPC: 1.40415 cumulative IPC: 1.39272 (Simulation time: 0 hr 15 min 44 sec) 
Heartbeat_Variant_0 : 1388 0.338867 per_variant_size: 0 1388 0 0 0 0 0 0 0 
Heartbeat_Variant_1 : 2665 0.650635 per_variant_size: 0 490 2175 0 0 0 0 0 0 
Heartbeat_Variant_2 : 0 0 per_variant_size: 0 0 0 0 0 0 0 0 0 
Heartbeat_Variant_3 : 0 0 per_variant_size: 0 0 0 0 0 0 0 0 0 
Heartbeat_Variant_0_evicts 0 : 5597 1 : 79 2 : 0 3 : 0 
Heartbeat_Variant_1_evicts 0 : 80 1 : 0 2 : 0 3 : 0 
Heartbeat_Variant_2_evicts 0 : 0 1 : 0 2 : 0 3 : 0 
Heartbeat_Variant_3_evicts 0 : 0 1 : 0 2 : 0 3 : 0 
Heartbeat CPU 0 instructions: 100000000 cycles: 49893647 heartbeat IPC: 1.38984 cumulative IPC: 1.39215 (Simulation time: 0 hr 17 min 42 sec) 
Finished CPU 0 instructions: 50000002 cycles: 35915784 cumulative IPC: 1.39215 (Simulation time: 0 hr 17 min 42 sec) 

ChampSim completed all CPUs

Region of Interest Statistics

CPU 0 cumulative IPC: 1.39215 instructions: 50000002 cycles: 35915784
 Fetch stage stalled: 45.66  Sim cycles: 35915784 fetch stall cycle: 16399137
 Empty decode stage: 24.7485  Sim cycles: 35915784 fetch stall cycle: 8888619
ITLB TOTAL     ACCESS:    5837112  HIT:    5349147  MISS:     487965  HIT %:    91.6403  MISS %:     8.3597   MPKI: 9.7593
ITLB LOAD TRANSLATION INSTRUCTION	ACCESS:    5702747  HIT:    5214782  MISS:     487965  HIT %:    91.4433  MISS %:    8.55667  MPKI: 9.7593
ITLB TRANSLATION FROM L1D PREFETCHER INSTRUCTION	ACCESS:     134365  HIT:     134365  MISS:          0  HIT %:        100  MISS %:          0  MPKI: 0

ITLB AVERAGE MISS LATENCY: 9.05011 cycles
ITLB RQ	ACCESS:    7923635	FORWARD:          0	MERGED:    1608694	TO_CACHE:    6314941

DTLB TOTAL     ACCESS:    8921366  HIT:    8449261  MISS:     472105  HIT %:    94.7082  MISS %:    5.29185   MPKI: 9.4421
DTLB LOAD TRANSLATION DATA	ACCESS:    8921366  HIT:    8449261  MISS:     472105  HIT %:    94.7082  MISS %:    5.29185  MPKI: 9.4421

DTLB AVERAGE MISS LATENCY: 9.29493 cycles
DTLB RQ	ACCESS:   13279528	FORWARD:          0	MERGED:    4320540	TO_CACHE:    8958988

STLB TOTAL     ACCESS:    1217990  HIT:    1215882  MISS:       2108  HIT %:    99.8269  MISS %:   0.173072   MPKI: 0.04216
STLB LOAD TRANSLATION INSTRUCTION	ACCESS:     487965  HIT:     487693  MISS:        272  HIT %:    99.9443  MISS %:  0.0557417  MPKI: 0.00544
STLB LOAD TRANSLATION DATA	ACCESS:     472104  HIT:     470281  MISS:       1823  HIT %:    99.6139  MISS %:   0.386144  MPKI: 0.03646
STLB TRANSLATION FROM L1D PREFETCHER DATA	ACCESS:     257921  HIT:     257908  MISS:         13  HIT %:     99.995  MISS %:  0.0050403  MPKI: 0.00026

STLB AVERAGE MISS LATENCY: 64.5527 cycles
STLB RQ	ACCESS:    1364859	FORWARD:          0	MERGED:     146836	TO_CACHE:    1218023

STLB Hit, L1D data hit: 0
STLB Hit, L2C data hit: 0
STLB Hit, LLC data hit: 0
STLB Hit, LLC data miss: 0
STLB STLB hints to L2: 0
L1D TOTAL     ACCESS:   13031231  HIT:   11873870  MISS:    1157361  HIT %:    91.1186  MISS %:    8.88144   MPKI: 23.1472
L1D LOAD DATA	ACCESS:    6538737  HIT:    5777304  MISS:     761433  HIT %:     88.355  MISS %:     11.645  MPKI: 15.2287
L1D RFO DATA	ACCESS:    6152446  HIT:    5862959  MISS:     289487  HIT %:    95.2948  MISS %:    4.70523  MPKI: 5.78974
L1D PREFETCH DATA	ACCESS:     340048  HIT:     233607  MISS:     106441  HIT %:    68.6982  MISS %:    31.3018  MPKI: 2.12882

L1D PREFETCH  REQUESTED:     809922  ISSUED:     809922  USEFUL:      49481  USELESS:      70284
L1D USEFUL LOAD PREFETCHES:      49481 PREFETCH ISSUED TO LOWER LEVEL:     119823  ACCURACY: 41.2951
 TIMELY PREFETCHES:      49481 LATE PREFETCHES: 13333 DROPPED PREFETCHES: 2
L1D AVERAGE MISS LATENCY: 364229 cycles
L1D RQ	ACCESS:   10682495	FORWARD:          0	MERGED:    3945660	TO_CACHE:    6573293
L1D WQ	ACCESS:    6901340	FORWARD:     163888	MERGED:     195105	TO_CACHE:    6706235
L1D PQ	ACCESS:     405134	FORWARD:          0	MERGED:          0	TO_CACHE:     404788

L1D UNIQUE REGIONS ACCESSED: 0
L1D REGIONS CONFLICTS: 0
L1D Cross Page Prefetch Requests: 5995
L1D Same Page Prefetch Requests: 817997
L1D ROI Sum of L1D PQ occupancy: 5157076
L1D PREFETCHES PUSHED FROM L2C: 0
L1I TOTAL     ACCESS:    7120752  HIT:    4382161  MISS:    2738591  HIT %:    61.5407  MISS %:    38.4593   MPKI: 54.7718
L1I LOAD INSTRUCTION	ACCESS:    6450596  HIT:    3712005  MISS:    2738591  HIT %:    57.5451  MISS %:    42.4549  MPKI: 54.7718
L1I PREFETCH INSTRUCTION	ACCESS:     670156  HIT:     670156  MISS:          0  HIT %:        100  MISS %:          0  MPKI: 0

L1I PREFETCH  REQUESTED:    1611148  ISSUED:    1611148  USEFUL:          0  USELESS:          0
L1I USEFUL LOAD PREFETCHES:          0 PREFETCH ISSUED TO LOWER LEVEL:          0  ACCURACY: -nan
 TIMELY PREFETCHES:          0 LATE PREFETCHES: 0 DROPPED PREFETCHES: 0
L1I AVERAGE MISS LATENCY: 17.1159 cycles
L1I RQ	ACCESS:    9578042	FORWARD:          0	MERGED:    2837551	TO_CACHE:    6740491
L1I PQ	ACCESS:    1611148	FORWARD:          0	MERGED:     428004	TO_CACHE:    1183144

L1BTB TOTAL     ACCESS:    5677707  HIT:    2081482  MISS:    3596225  HIT %:    36.6606  MISS %:    63.3394   MPKI: 71.9245
L1BTB BRANCH_DIRECT_JUMP	ACCESS:     544284 HIT:     144579 MISS:     399705 AVERAGE STALL: 54.0057 AVERAGE FETCH STALL: 15.4894 AVERAGE FETCH QUEUE STALL: 18.051 AVERAGE DECODE STALL: 19.5569 AVERAGE EXECUTE STALL: 2.19866e+15
L1BTB BRANCH_INDIRECT	ACCESS:     181795 HIT:      65710 MISS:     116085 AVERAGE STALL: 112.803 AVERAGE FETCH STALL: 10.7775 AVERAGE FETCH QUEUE STALL: 20.3265 AVERAGE DECODE STALL: 13.1159 AVERAGE EXECUTE STALL: 67.6217
L1BTB BRANCH_CONDITIONAL	ACCESS:    2739322 HIT:    1457019 MISS:    1282303 AVERAGE STALL: 60.5041 AVERAGE FETCH STALL: 21.9968 AVERAGE FETCH QUEUE STALL: 21.9349 AVERAGE DECODE STALL: 15.9387 AVERAGE EXECUTE STALL: 3.52239e+15
L1BTB BRANCH_DIRECT_CALL	ACCESS:     936021 HIT:     103925 MISS:     832096 AVERAGE STALL: 93.9269 AVERAGE FETCH STALL: 29.8187 AVERAGE FETCH QUEUE STALL: 33.5024 AVERAGE DECODE STALL: 30.0933 AVERAGE EXECUTE STALL: 9.83826e+15
L1BTB BRANCH_INDIRECT_CALL	ACCESS:     170134 HIT:      21120 MISS:     149014 AVERAGE STALL: 139.193 AVERAGE FETCH STALL: 12.2764 AVERAGE FETCH QUEUE STALL: 17.7127 AVERAGE DECODE STALL: 12.2202 AVERAGE EXECUTE STALL: 96.4952
L1BTB BRANCH_RETURN	ACCESS:    1106151 HIT:     289129 MISS:     817022 AVERAGE STALL: 50.4244 AVERAGE FETCH STALL: 16.647 AVERAGE FETCH QUEUE STALL: 6.49633 AVERAGE DECODE STALL: 6.45983 AVERAGE EXECUTE STALL: 4.27255e+14
L1BTB BRANCH_OTHER ACCESS:          0 HIT:          0 MISS:          0 AVERAGE STALL: -nan AVERAGE FETCH STALL: -nan AVERAGE FETCH QUEUE STALL: -nan AVERAGE DECODE STALL: -nan AVERAGE EXECUTE STALL: -nan
L1BTB TOTAL ROB OCCUPANCY AT BTB MISS: 2.74404

L2BTB TOTAL     ACCESS:    3571150  HIT:    3504884  MISS:      66266  HIT %:    98.1444  MISS %:    1.85559   MPKI: 1.32532
L2BTB BRANCH_DIRECT_JUMP	ACCESS:     395528 HIT:     391309 MISS:       4219 AVERAGE STALL: 54.0057 AVERAGE FETCH STALL: 15.4894 AVERAGE FETCH QUEUE STALL: 18.051 AVERAGE DECODE STALL: 19.5569 AVERAGE EXECUTE STALL: 2.19866e+15
L2BTB BRANCH_INDIRECT	ACCESS:     105910 HIT:     103244 MISS:       2666 AVERAGE STALL: 112.803 AVERAGE FETCH STALL: 10.7775 AVERAGE FETCH QUEUE STALL: 20.3265 AVERAGE DECODE STALL: 13.1159 AVERAGE EXECUTE STALL: 67.6217
L2BTB BRANCH_CONDITIONAL	ACCESS:    1282303 HIT:    1277009 MISS:       5294 AVERAGE STALL: 60.5041 AVERAGE FETCH STALL: 21.9968 AVERAGE FETCH QUEUE STALL: 21.9349 AVERAGE DECODE STALL: 15.9387 AVERAGE EXECUTE STALL: 3.52239e+15
L2BTB BRANCH_DIRECT_CALL	ACCESS:     832096 HIT:     830202 MISS:       1894 AVERAGE STALL: 93.9269 AVERAGE FETCH STALL: 29.8187 AVERAGE FETCH QUEUE STALL: 33.5024 AVERAGE DECODE STALL: 30.0933 AVERAGE EXECUTE STALL: 9.83826e+15
L2BTB BRANCH_INDIRECT_CALL	ACCESS:     139499 HIT:     129300 MISS:      10199 AVERAGE STALL: 139.193 AVERAGE FETCH STALL: 12.2764 AVERAGE FETCH QUEUE STALL: 17.7127 AVERAGE DECODE STALL: 12.2202 AVERAGE EXECUTE STALL: 96.4952
L2BTB BRANCH_RETURN	ACCESS:     815814 HIT:     773820 MISS:      41994 AVERAGE STALL: 50.4244 AVERAGE FETCH STALL: 16.647 AVERAGE FETCH QUEUE STALL: 6.49633 AVERAGE DECODE STALL: 6.45983 AVERAGE EXECUTE STALL: 4.27255e+14
L2BTB BRANCH_OTHER ACCESS:          0 HIT:          0 MISS:          0 AVERAGE STALL: -nan AVERAGE FETCH STALL: -nan AVERAGE FETCH QUEUE STALL: -nan AVERAGE DECODE STALL: -nan AVERAGE EXECUTE STALL: -nan
L2BTB TOTAL ROB OCCUPANCY AT BTB MISS: 148.918

L2C TOTAL     ACCESS:    4513180  HIT:    4022982  MISS:     490198  HIT %:    89.1385  MISS %:    10.8615   MPKI: 9.80396
L2C LOAD INSTRUCTION	ACCESS:    2738591  HIT:    2493240  MISS:     245351  HIT %:     91.041  MISS %:    8.95902  MPKI: 4.90702
L2C LOAD TRANSLATION INSTRUCTION	ACCESS:        315  HIT:         79  MISS:        236  HIT %:    25.0794  MISS %:    74.9206  MPKI: 0.00472
L2C LOAD DATA	ACCESS:     748068  HIT:     663726  MISS:      84342  HIT %:    88.7254  MISS %:    11.2746  MPKI: 1.68684
L2C RFO DATA	ACCESS:     289428  HIT:     230073  MISS:      59355  HIT %:    79.4923  MISS %:    20.5077  MPKI: 1.1871
L2C PREFETCH DATA	ACCESS:     209962  HIT:     126535  MISS:      83427  HIT %:    60.2657  MISS %:    39.7343  MPKI: 1.66854
L2C WRITEBACK DATA	ACCESS:     524895  HIT:     508906  MISS:      15989  HIT %:    96.9539  MISS %:    3.04613  MPKI: 0.31978
L2C LOAD TRANSLATION DATA	ACCESS:       1897  HIT:        405  MISS:       1492  HIT %:    21.3495  MISS %:    78.6505  MPKI: 0.02984
L2C TRANSLATION FROM L1D PREFETCHER DATA	ACCESS:         24  HIT:         18  MISS:          6  HIT %:         75  MISS %:         25  MPKI: 0.00012

L2C PREFETCH  REQUESTED:      97181  ISSUED:      97181  USEFUL:       9225  USELESS:      74671
L2C USEFUL LOAD PREFETCHES:       9225 PREFETCH ISSUED TO LOWER LEVEL:      83893  ACCURACY: 10.9961
 TIMELY PREFETCHES:       9225 LATE PREFETCHES: 466 DROPPED PREFETCHES: 0
L2C AVERAGE MISS LATENCY: 37.6204 cycles
L2C RQ	ACCESS:    3778368	FORWARD:          0	MERGED:          0	TO_CACHE:    3778326
L2C WQ	ACCESS:     524895	FORWARD:         44	MERGED:          0	TO_CACHE:     524895
L2C PQ	ACCESS:     217004	FORWARD:          0	MERGED:       3372	TO_CACHE:     213630

L2C Dense regions hint from L2: 0
PSCL5 TOTAL     ACCESS:       4220  HIT:       2110  MISS:       2110  HIT %:         50  MISS %:         50   MPKI: 0.0422
PSCL5 LOAD TRANSLATION INSTRUCTION	ACCESS:       4172  HIT:       2086  MISS:       2086  HIT %:         50  MISS %:         50  MPKI: 0.04172
PSCL5 TRANSLATION FROM L1D PREFETCHER INSTRUCTION	ACCESS:         48  HIT:         24  MISS:         24  HIT %:         50  MISS %:         50  MPKI: 0.00048


PSCL4 TOTAL     ACCESS:       3961  HIT:       1978  MISS:       1983  HIT %:    49.9369  MISS %:    50.0631   MPKI: 0.03966
PSCL4 LOAD TRANSLATION INSTRUCTION	ACCESS:       3656  HIT:       1954  MISS:       1702  HIT %:    53.4464  MISS %:    46.5536  MPKI: 0.03404
PSCL4 TRANSLATION FROM L1D PREFETCHER INSTRUCTION	ACCESS:         48  HIT:         24  MISS:         24  HIT %:         50  MISS %:         50  MPKI: 0.00048
PSCL4 LOAD TRANSLATION DATA	ACCESS:        257  HIT:          0  MISS:        257  HIT %:          0  MISS %:        100  MPKI: 0.00514


PSCL3 TOTAL     ACCESS:       3967  HIT:       1981  MISS:       1986  HIT %:     49.937  MISS %:     50.063   MPKI: 0.03972
PSCL3 LOAD TRANSLATION INSTRUCTION	ACCESS:       3659  HIT:       1957  MISS:       1702  HIT %:    53.4846  MISS %:    46.5154  MPKI: 0.03404
PSCL3 TRANSLATION FROM L1D PREFETCHER INSTRUCTION	ACCESS:         48  HIT:         24  MISS:         24  HIT %:         50  MISS %:         50  MPKI: 0.00048
PSCL3 LOAD TRANSLATION DATA	ACCESS:        260  HIT:          0  MISS:        260  HIT %:          0  MISS %:        100  MPKI: 0.0052


PSCL2 TOTAL     ACCESS:       4103  HIT:       1993  MISS:       2110  HIT %:    48.5742  MISS %:    51.4258   MPKI: 0.0422
PSCL2 LOAD TRANSLATION INSTRUCTION	ACCESS:       2247  HIT:       1969  MISS:        278  HIT %:    87.6279  MISS %:    12.3721  MPKI: 0.00556
PSCL2 TRANSLATION FROM L1D PREFETCHER INSTRUCTION	ACCESS:         24  HIT:         24  MISS:          0  HIT %:        100  MISS %:          0  MPKI: 0
PSCL2 LOAD TRANSLATION DATA	ACCESS:       1808  HIT:          0  MISS:       1808  HIT %:          0  MISS %:        100  MPKI: 0.03616
PSCL2 TRANSLATION FROM L1D PREFETCHER DATA	ACCESS:         24  HIT:          0  MISS:         24  HIT %:          0  MISS %:        100  MPKI: 0.00048


LLC TOTAL     ACCESS:     557999  HIT:     533173  MISS:      24826  HIT %:    95.5509  MISS %:    4.44911   MPKI: 0.49652
LLC LOAD INSTRUCTION	ACCESS:     245350  HIT:     244428  MISS:        922  HIT %:    99.6242  MISS %:    0.37579  MPKI: 0.01844
LLC LOAD TRANSLATION INSTRUCTION	ACCESS:        236  HIT:        205  MISS:         31  HIT %:    86.8644  MISS %:    13.1356  MPKI: 0.00062
LLC LOAD DATA	ACCESS:      83887  HIT:      80817  MISS:       3070  HIT %:    96.3403  MISS %:    3.65969  MPKI: 0.0614
LLC RFO DATA	ACCESS:      59342  HIT:      48220  MISS:      11122  HIT %:    81.2578  MISS %:    18.7422  MPKI: 0.22244
LLC PREFETCH DATA	ACCESS:      83891  HIT:      74619  MISS:       9272  HIT %:    88.9476  MISS %:    11.0524  MPKI: 0.18544
LLC WRITEBACK DATA	ACCESS:      83795  HIT:      83474  MISS:        321  HIT %:    99.6169  MISS %:   0.383078  MPKI: 0.00642
LLC LOAD TRANSLATION DATA	ACCESS:       1492  HIT:       1405  MISS:         87  HIT %:    94.1689  MISS %:     5.8311  MPKI: 0.00174
LLC TRANSLATION FROM L1D PREFETCHER DATA	ACCESS:          6  HIT:          5  MISS:          1  HIT %:    83.3333  MISS %:    16.6667  MPKI: 2e-05

LLC AVERAGE MISS LATENCY: 169.64 cycles
LLC RQ	ACCESS:     390316	FORWARD:          0	MERGED:          0	TO_CACHE:     390313
LLC WQ	ACCESS:      83795	FORWARD:          5	MERGED:          0	TO_CACHE:      83795
LLC PQ	ACCESS:      83893	FORWARD:          0	MERGED:          0	TO_CACHE:      83891

LLC Dense regions hint to LLC: 0

RAW hits: 1933322
Loads Generated: 12615818
Loads sent to L1D: 10682495
Stores Generated: 6901322
Stores sent to L1D: 6901340
Major fault: 0 Minor fault: 2256
Allocated PAGES: 2256

stream: 
stream:times selected: 1264070
stream:pref_filled: 126421
stream:pref_useful: 28990
stream:pref_late: 9071
stream:misses: 10714
stream:misses_by_poll: 0

CS: 
CS:times selected: 197891
CS:pref_filled: 73835
CS:pref_useful: 50368
CS:pref_late: 9521
CS:misses: 24568
CS:misses_by_poll: 6

CPLX: 
CPLX:times selected: 1064977
CPLX:pref_filled: 25247
CPLX:pref_useful: 7738
CPLX:pref_late: 3834
CPLX:misses: 129029
CPLX:misses_by_poll: 1

NL_L1: 
NL:times selected: 13152
NL:pref_filled: 1093
NL:pref_useful: 266
NL:pref_late: 531
NL:misses: 2101
NL:misses_by_poll: 0

total selections: 2540090
total_filled: 106441
total_useful: 49481
total_late: 25115
total_polluted: 7
total_misses_after_warmup: 795991
conflicts: 5472664

test: 121584

DRAM Statistics
 CHANNEL 0
 RQ ROW_BUFFER_HIT:       8235  ROW_BUFFER_MISS:      16254
 DBUS_CONGESTED:          7
 WQ ROW_BUFFER_HIT:       1386  ROW_BUFFER_MISS:      10469  FULL:          0

 AVG_CONGESTED_CYCLE: 5

CPU 0 Branch Prediction Accuracy: 99.822% MPKI: 0.32584 Average ROB Occupancy at Mispredict: 199.477
Branch types
NOT_BRANCH: 40848598 81.6972%
BRANCH_DIRECT_JUMP: 544284 1.08857%
BRANCH_INDIRECT: 181795 0.36359%
BRANCH_CONDITIONAL: 6212971 12.4259%
BRANCH_DIRECT_CALL: 936021 1.87204%
BRANCH_INDIRECT_CALL: 170134 0.340268%
BRANCH_RETURN: 1106151 2.2123%
BRANCH_OTHER: 0 0%

DRAM PAGES: 1048576
Allocated PAGES: 2256
Average_ROB_Occupancy: 250.031
Average_Decode_Occupancy: 38.3806
Average_FTQ_Occupancy: 15.0067
Indirect max targets: 14 Average targets: 1.14966
Branch_type:  BRANCH_DIRECT_JUMP:  Count Percentage: 3.69274 6.211 3.82575 8.48133 2.41593 6.34667 1.90805 67.1185 
Branch_type:  BRANCH_INDIRECT:  Count Percentage: 11.7499 3.39814 2.62878 9.70294 3.33224 2.7971 1.72625 64.6646 
Branch_type:  BRANCH_CONDITIONAL:  Count Percentage: 22.3497 5.96069 2.06506 5.00981 5.80973 3.9088 2.68616 52.2101 
Branch_type:  BRANCH_DIRECT_CALL:  Count Percentage: 0.832198 1.22235 0.766708 4.50145 2.37922 2.8679 4.34852 83.0817 
Branch_type:  BRANCH_INDIRECT_CALL:  Count Percentage: 9.51523 0 2.98157 4.58775 0.000883166 2.36512 3.84148 76.708 
Branch_type:  BRANCH_RETURN:  Count Percentage: 4.61022 3.87854 2.00544 4.49133 7.15218 4.04059 3.76649 70.0552 
Branch_type:  BRANCH_DIRECT_JUMP:  Total Count: 40201 67616 41649 92332 26301 69093 20772 730686 
Branch_type:  BRANCH_INDIRECT:  Total Count: 42793 12376 9574 35338 12136 10187 6287 235508 
Branch_type:  BRANCH_CONDITIONAL:  Total Count: 2776641 740534 256556 622401 721780 485615 333719 6486387 
Branch_type:  BRANCH_DIRECT_CALL:  Total Count: 15541 22827 14318 84063 44431 53557 81207 1551520 
Branch_type:  BRANCH_INDIRECT_CALL:  Total Count: 32322 0 10128 15584 3 8034 13049 260567 
Branch_type:  BRANCH_RETURN:  Total Count: 101791 85636 44279 99166 157916 89214 83162 1546779 
Number of unique branch instructions: 10002
Upper 32 bits: 
aaaa
ffff
ffff0000
Unique upper 32 bits: 3
Unique upper 36 bits: 3
Unique upper 40 bits: 5
Unique upper 44 bits: 32
Unique upper 48 bits: 154
Variant_0 : 1388 0.338867
Variant_1 : 2665 0.650635
Variant_2 : 0 0
Variant_3 : 0 0
Offset_3 4142
Offset_4 247
Offset_5 449
Offset_6 516
Offset_7 592
Offset_8 516
Offset_9 468
Offset_10 395
Offset_11 327
Offset_12 266
Offset_13 198
Offset_14 225
Offset_15 190
Offset_16 230
Offset_17 150
Offset_18 129
Offset_19 240
Offset_20 137
Offset_21 235
Offset_22 399
Offset_23 241
Offset_24 329
Offset_25 88
Offset_47 80
decode_dispatch_called: 26449030 73.6418
Dispatch_width: 0 14311723 54.1106 39.848
Dispatch_width: 1 1025451 3.87708 2.85515
Dispatch_width: 2 855439 3.23429 2.38179
Dispatch_width: 3 496157 1.8759 1.38145
Dispatch_width: 4 6340057 23.9708 17.6526
Dispatch_width: 5 106244 0.401693 0.295814
Dispatch_width: 6 3313959 12.5296 9.22703
Empty_decode_cycles: 9466754 26.3582
ROB_full_cycles: 10072894 28.0459
Starvation_cycles_per_kilo_instr: 225.289
Starvation_cycles_per_kilo_instr_3: 160.826
Starvation_cycles_per_kilo_instr_0: 137.056
Branch_type_1  (3,1)  (4,7)  (5,36)  (6,75)  (7,117)  (8,127)  (9,125)  (10,101)  (11,78)  (12,43)  (13,7)  (14,2)  (15,3)  (16,4)  (18,1)  (19,4)  (20,2)  (21,1)  (22,3)  (23,2)  (24,10)  (25,12) 
Branch_type_2  (3,1)  (5,1)  (8,3)  (9,3)  (12,1)  (13,1)  (14,1)  (16,3)  (17,2)  (20,2)  (21,2)  (23,5)  (24,1)  (47,36) 
Branch_type_3  (3,4140)  (4,240)  (5,408)  (6,425)  (7,443)  (8,326)  (9,257)  (10,165)  (11,136)  (12,49)  (13,7) 
Branch_type_4  (6,4)  (7,8)  (8,26)  (9,51)  (10,61)  (11,57)  (12,96)  (13,83)  (14,99)  (15,91)  (16,105)  (17,66)  (18,59)  (19,117)  (20,71)  (21,124)  (22,214)  (23,136)  (24,190)  (25,72) 
Branch_type_5  (8,2)  (9,1)  (10,3)  (11,5)  (12,3)  (13,13)  (14,16)  (15,11)  (16,20)  (17,13)  (18,16)  (19,12)  (20,10)  (21,13)  (22,42)  (23,26)  (24,36) 
Branch_type_6  (5,4)  (6,12)  (7,24)  (8,32)  (9,31)  (10,65)  (11,51)  (12,74)  (13,87)  (14,107)  (15,85)  (16,98)  (17,69)  (18,53)  (19,107)  (20,52)  (21,95)  (22,140)  (23,72)  (24,92)  (25,4)  (47,44) 
Unique trigger count: 
Variant_0_evicts_0 : 0
Variant_0_evicts_1 : 0
Variant_0_evicts_2 : 0
Variant_0_evicts_3 : 0
Variant_1_evicts_0 : 0
Variant_1_evicts_1 : 0
Variant_1_evicts_2 : 0
Variant_1_evicts_3 : 0
Variant_2_evicts_0 : 0
Variant_2_evicts_1 : 0
Variant_2_evicts_2 : 0
Variant_2_evicts_3 : 0
Variant_3_evicts_0 : 0
Variant_3_evicts_1 : 0
Variant_3_evicts_2 : 0
Variant_3_evicts_3 : 0
BTB PER SET UNIQUE ADDR: 11 9 7 14 14 11 9 13 8 11 12 14 11 14 10 8 11 11 9 10 9 11 13 13 9 10 11 11 11 8 10 13 14 8 5 9 10 14 8 9 10 10 13 10 10 8 15 10 8 10 13 11 12 8 8 7 11 9 9 15 7 8 10 15 9 12 9 7 10 12 11 10 15 9 11 7 9 12 11 16 10 10 10 17 11 12 11 11 8 16 5 9 9 12 5 13 9 12 13 14 16 17 10 12 13 11 8 12 6 10 8 18 11 10 9 7 9 8 8 10 14 11 8 8 11 8 6 13 21 13 8 12 11 11 8 12 13 12 7 18 10 15 10 13 8 9 12 7 8 10 9 12 7 10 11 11 13 16 9 14 9 10 11 14 12 11 13 8 13 9 8 9 8 8 12 10 11 10 14 7 9 8 11 12 13 17 3 8 11 8 11 13 12 11 13 8 8 10 9 10 12 9 6 12 12 11 12 11 12 13 10 13 10 10 11 12 8 11 9 13 6 11 9 8 10 9 13 9 7 16 11 6 10 14 12 13 13 10 12 8 8 14 14 10 11 11 9 9 12 13 13 14 11 8 10 13 8 9 9 15 10 12 6 13 11 6 8 10 11 10 8 14 6 7 7 7 11 12 8 13 10 12 10 7 14 9 9 11 17 11 7 12 11 11 11 15 11 11 11 11 11 11 9 17 13 11 10 9 15 8 10 11 9 15 11 9 15 15 11 13 9 13 7 11 12 12 10 8 11 8 8 13 9 11 10 15 10 7 7 14 7 11 5 10 14 10 10 9 6 8 11 6 11 7 12 11 7 9 9 8 11 13 11 14 10 12 8 13 13 13 8 7 12 9 10 14 10 15 12 12 10 7 7 9 6 16 18 12 11 8 11 9 12 11 10 8 8 6 11 10 8 12 12 15 9 11 14 12 10 8 11 7 9 12 12 12 10 13 15 13 7 12 12 10 13 10 12 8 13 11 16 12 12 10 11 10 11 8 9 13 13 8 13 12 12 11 10 14 16 13 11 17 9 12 10 11 10 12 10 14 6 9 10 7 15 13 9 11 6 13 14 12 8 8 15 15 9 13 9 14 11 15 11 9 9 16 15 13 15 11 10 10 9 8 10 12 11 9 8 15 13 12 11 15 7 9 9 13 12 11 9 14 7 9 13 16 12 12 10 7 9 10 13 8 9 8 14 9 7 12 12 13 14 9 13 17 12 10 9 13 12 10 12 13 15 16 9 12 11 9 13 16 13 10 9 11 14 9 16 9 9 13 7 10 11 14 12 14 10 10 11 16 13 11 8 14 10 12 9 11 13 13 5 12 16 7 8 10 10 13 9 9 11 8 12 9 8 10 11 12 8 9 10 5 11 11 17 10 10 11 17 13 10 11 5 8 9 9 9 11 14 9 9 10 12 9 11 13 11 9 7 16 10 9 9 14 10 12 7 12 10 13 13 14 10 11 7 10 15 7 9 11 6 13 13 11 10 13 11 12 13 8 12 13 12 12 10 11 14 11 12 10 10 11 10 9 10 12 12 10 9 13 11 14 8 9 13 11 13 11 12 11 10 8 12 10 9 12 10 13 8 10 11 18 10 12 11 11 10 9 9 13 11 9 8 10 19 11 6 11 16 11 9 11 10 10 8 12 11 8 14 9 12 13 11 13 14 11 15 8 10 9 9 12 14 19 11 12 13 8 11 10 13 15 9 11 11 12 10 11 10 10 9 8 12 11 8 14 14 12 13 12 14 8 11 8 9 13 10 11 7 11 10 8 10 10 8 11 7 7 5 6 10 11 16 15 9 7 10 13 16 12 11 14 17 10 15 11 16 11 10 11 8 14 12 16 9 18 6 20 11 14 11 12 11 11 8 10 10 16 13 12 12 10 9 12 11 11 10 11 11 9 10 13 12 14 12 11 11 12 14 9 12 12 15 12 17 9 9 16 9 15 11 9 8 8 10 9 10 9 10 14 11 11 13 8 15 12 8 10 10 8 10 13 12 12 9 10 13 9 10 10 10 10 12 10 15 13 10 8 10 12 13 9 8 14 9 14 14 17 12 12 8 17 14 10 18 12 10 11 11 10 9 12 8 8 7 10 8 11 12 15 11 12 8 18 11 10 15 10 8 13 11 10 10 13 11 16 12 10 8 10 7 11 9 8 9 14 11 10 13 15 15 13 8 11 15 10 9 13 10 12 12 10 12 9 11 11 11 17 8 9 13 12 11 10 9 12 12 13 11 14 12 12 10 9 10 12 14 6 9 15 9 10 14 9 8 15 13 12 11 16 13 8 13 9 8 8 7 10 7 11 12 10 
BTB PER SET COUNT: 1004 11 1871 20 809 14 1445 18 1456 12 15 453 14783 1076 11 11 1214 14 9 14 10 447 748 122 11 11 16 12 250 9 12 18 16 13 6 9 17 20 10 18 11 13 17 14 406 9 24 15 14 15 15 87 20 9 9 247 16 10 451 23 7 12 14 19 9 241 10 7 13 13 103 650 23 10 15 7 9 294 13 22 1023 15 19 39 13 17 13 14 14 22 8 903 515 38 5 17 776 17 19 17 27 861 10 15 314 14 11 20 6 1282 8 28 15 17 13 10 10 10 12 333 16 15 10 8 16 74 6 45 33 1002 10 2115 13 11 8 13 640 15 7 28 19 22 12 23 10 9 15 9 10 36 9 245 90 14 14 14 1052 28 11 20 9 13 17 16 55 617 25 8 17 12 11 11 8 14 17 12 16 12 16 1017 15 10 783 15 15 47 3 8 754 1015 11 16 16 14 16 8 9 13 12 14 17 13 948 16 14 13 19 14 943 449 11 16 11 14 14 409 8 14 2898 17 7 12 12 8 17 19 18 14 10 27 13 6 10 21 14 14 15 22 56 11 8 19 249 15 20 24 9 10 166 17 19 23 15 8 13 17 8 10 10 23 266 15 6 20 14 9 9 11 32 12 11 20 7 7 7 8 12 18 8 751 15 16 12 8 18 12 11 19 28 14 7 14 12 16 16 18 16 13 12 474 15 11 10 29 17 15 15 9 20 12 12 19 10 18 1459 11 19 24 20 17 12 2282 9 13 15 19 12 11 17 8 18 21 57 13 12 27 12 11 8 175 7 1357 6 41 19 11 14 13 6 110 14 6 15 10 14 13 12 12 129 10 16 15 14 20 13 2411 9 19 25 19 657 330 19 1143 941 22 17 20 14 411 653 8 9 10 6 19 24 15 16 1135 14 11 13 389 12 1020 8 8 1066 16 11 13 25 18 12 12 19 515 14 8 12 7 10 16 14 16 10 14 23 24 8 18 15 18 18 13 102 12 22 1063 28 13 13 12 19 27 17 29 11 14 939 11 28 25 2405 13 455 21 23 21 1022 2238 9 14 516 22 14 21 14 24 37 303 17 7 24 16 10 14 8 22 21 14 9 8 27 24 21 17 10 18 11 28 15 10 10 19 19 19 33 11 10 325 6699 43 15 25 1507 945 10 19 17 15 14 21 13 12 10 19 14 13 11 861 553 11 18 21 16 17 16 10 9 10 21 8 11 9 19 1264 11 1472 28 21 22 10 18 22 17 1026 13 22 16 12 40 19 19 22 11 15 22 1022 14 19 221 24 11 15 20 9 35 10 12 102 8 16 15 23 140 17 14 16 18 21 17 11 203 19 10 15 12 14 14 16 6 1398 26 9 8 18 10 13 14 17 11 8 16 12 9 335 259 13 11 11 10 6 19 14 29 210 11 13 26 18 20 13 5 8 10 13 11 12 19 12 11 284 21 11 14 25 1067 12 13 23 11 9 9 18 11 289 12 13 12 16 18 19 13 175 275 12 561 7 10 21 8 21 18 519 15 16 15 129 15 8 12 25 5493 17 15 12 1800 18 14 14 955 12 470 846 12 14 15 12 11 18 20 452 1439 9 15 20 17 17 17 14 10 9 2407 10 10 2336 11 19 12 14 1457 24 14 18 13 17 12 11 14 127 548 11 14 144 1038 13 7 20 522 966 10 1960 14 14 11 17 11 10 20 5919 17 136 20 1395 26 14 19 8 838 12 10 17 222 30 17 18 15 15 1462 11 17 1271 10 15 13 18 15 15 16 18 11 374 644 14 10 14 23 143 17 231 24 9 14 10 10 586 14 16 1510 22 32 9 13 14 11 11 7 7 6 690 11 12 18 394 10 7 10 85 18 14 12 124 359 18 21 11 20 16 15 2135 13 1036 25 1393 16 2555 10 636 15 796 15 15 691 17 12 14 14 970 18 16 15 16 47 1894 15 15 1015 15 15 235 10 19 19 15 84 13 11 8573 25 1393 659 22 233 16 25 11 12 21 1018 24 11 12 10 9 13 11 12 9 506 32 15 15 16 9 20 26 8 15 10 11 292 17 347 13 16 13 14 12 15 15 434 12 14 16 27 19 15 8 11 18 18 329 11 17 10 20 17 191 17 538 13 30 31 13 188 27 11 55 15 1028 519 23 10 778 8 13 8 34 19 19 1674 15 44 208 18 13 23 15 9 1641 20 11 14 19 12 20 14 12 375 19 947 1056 15 10 10 15 16 13 23 19 539 16 9 11 1461 14 54 17 11 317 16 19 12 9 13 15 420 516 8 9 544 502 16 33 1364 625 15 19 16 891 20 14 128 13 13 1467 27 6 10 460 14 14 26 9 12 37 24 28 518 609 18 11 21 11 10 11 12 13 7 40 14 12 
To predecode: 0
Predecoding something: 0
Predecode request dropped: 0
sizeofblock_0 0
sizeofblock_1 53326
sizeofblock_2 83637
sizeofblock_3 0
sizeofblock_4 0
sizeofblock_5 0
sizeofblock_6 0
sizeofblock_7 0
sizeofblock_8 0
Variant_0 Correct: 1595322 Incorrect: 0 Accuracy: 1
Variant_1 Correct: 5675387 Incorrect: 0 Accuracy: 1
Variant_2 Correct: 0 Incorrect: 0 Accuracy: -nan
Variant_3 Correct: 0 Incorrect: 0 Accuracy: -nan
