
*** ChampSim Multicore Out-of-Order Simulator ***

Warmup Instructions: 50000000
Simulation Instructions: 50000000
Number of CPUs: 1
LLC sets: 2048
LLC ways: 16
Off-chip DRAM Size: 4096 MB Channels: 1 Width: 64-bit Data Rate: 6400 MT/s
CPU 0 runs ./micro_traces/srv383.trace.gz
.gz
ITLB has LRU replacement policy
DTLB has LRU replacement policy
STLB has LRU replacement policy
FDIP Prefetcher at L1I
L1I has LRU replacement policy
L1D has LRU replacement policy
Initialize SRRIP state for L2C
Initialize DRRIP state for LLC
Heartbeat CPU 0 instructions: 10000002 cycles: 2796340 heartbeat IPC: 3.5761 cumulative IPC: 3.5761 (Simulation time: 0 hr 2 min 0 sec) 
Heartbeat CPU 0 instructions: 20000000 cycles: 5593122 heartbeat IPC: 3.57554 cumulative IPC: 3.57582 (Simulation time: 0 hr 3 min 56 sec) 
Heartbeat CPU 0 instructions: 30000002 cycles: 8389922 heartbeat IPC: 3.57552 cumulative IPC: 3.57572 (Simulation time: 0 hr 5 min 59 sec) 
Heartbeat CPU 0 instructions: 40000002 cycles: 11186037 heartbeat IPC: 3.57639 cumulative IPC: 3.57589 (Simulation time: 0 hr 7 min 48 sec) 
Heartbeat CPU 0 instructions: 50000003 cycles: 13981712 heartbeat IPC: 3.57695 cumulative IPC: 3.5761 (Simulation time: 0 hr 9 min 43 sec) 

Warmup complete CPU 0 instructions: 50000003 cycles: 13981712 (Simulation time: 0 hr 9 min 43 sec) 

Cycle: 20000000 FTQ IN: 58611027 FTQ occupancy: 21.4801 DECODE IN: 58610932 DECODE occupancy: 55.2569 ROB IN: 58610873 ROB occupancy: 324.428 ROB OUT: 58610837
Heartbeat CPU 0 instructions: 60000001 cycles: 20970973 heartbeat IPC: 1.43077 cumulative IPC: 1.43077 (Simulation time: 0 hr 12 min 6 sec) 
Heartbeat CPU 0 instructions: 70000002 cycles: 28070228 heartbeat IPC: 1.4086 cumulative IPC: 1.4196 (Simulation time: 0 hr 14 min 39 sec) 
Cycle: 30000000 FTQ IN: 14186981 FTQ occupancy: 18.0796 DECODE IN: 14186955 DECODE occupancy: 44.202 ROB IN: 14186954 ROB occupancy: 267.762 ROB OUT: 14186638
Heartbeat CPU 0 instructions: 80000003 cycles: 35006385 heartbeat IPC: 1.44172 cumulative IPC: 1.4269 (Simulation time: 0 hr 17 min 2 sec) 
Cycle: 40000000 FTQ IN: 14259233 FTQ occupancy: 18.1441 DECODE IN: 14259221 DECODE occupancy: 44.3794 ROB IN: 14259221 ROB occupancy: 268.656 ROB OUT: 14259225
Heartbeat CPU 0 instructions: 90000002 cycles: 42085755 heartbeat IPC: 1.41255 cumulative IPC: 1.42328 (Simulation time: 0 hr 19 min 29 sec) 
Heartbeat CPU 0 instructions: 100000000 cycles: 49024689 heartbeat IPC: 1.44114 cumulative IPC: 1.42682 (Simulation time: 0 hr 21 min 51 sec) 
Finished CPU 0 instructions: 50000001 cycles: 35042978 cumulative IPC: 1.42682 (Simulation time: 0 hr 21 min 51 sec) 

ChampSim completed all CPUs

Region of Interest Statistics

CPU 0 cumulative IPC: 1.42682 instructions: 50000001 cycles: 35042978
 Fetch stage stalled: 23.4636  Sim cycles: 35042978 fetch stall cycle: 8222357
 Empty decode stage: 12.1199  Sim cycles: 35042978 fetch stall cycle: 4247180
ITLB TOTAL     ACCESS:    5956007  HIT:    5464630  MISS:     491377  HIT %:    91.7499  MISS %:    8.25011   MPKI: 9.82754
ITLB LOAD TRANSLATION INSTRUCTION	ACCESS:    5798386  HIT:    5307009  MISS:     491377  HIT %:    91.5256  MISS %:    8.47438  MPKI: 9.82754
ITLB TRANSLATION FROM L1D PREFETCHER INSTRUCTION	ACCESS:     157621  HIT:     157621  MISS:          0  HIT %:        100  MISS %:          0  MPKI: 0

ITLB AVERAGE MISS LATENCY: 9.05342 cycles
ITLB RQ	ACCESS:    7930964	FORWARD:          0	MERGED:    1435805	TO_CACHE:    6495159

DTLB TOTAL     ACCESS:    8942535  HIT:    8474097  MISS:     468438  HIT %:    94.7617  MISS %:    5.23831   MPKI: 9.36876
DTLB LOAD TRANSLATION DATA	ACCESS:    8942535  HIT:    8474097  MISS:     468438  HIT %:    94.7617  MISS %:    5.23831  MPKI: 9.36876

DTLB AVERAGE MISS LATENCY: 9.32212 cycles
DTLB RQ	ACCESS:   13314852	FORWARD:          0	MERGED:    4335208	TO_CACHE:    8979644

STLB TOTAL     ACCESS:    1209682  HIT:    1207716  MISS:       1966  HIT %:    99.8375  MISS %:   0.162522   MPKI: 0.03932
STLB LOAD TRANSLATION INSTRUCTION	ACCESS:     491377  HIT:     491150  MISS:        227  HIT %:    99.9538  MISS %:  0.0461967  MPKI: 0.00454
STLB LOAD TRANSLATION DATA	ACCESS:     468438  HIT:     466722  MISS:       1716  HIT %:    99.6337  MISS %:   0.366324  MPKI: 0.03432
STLB TRANSLATION FROM L1D PREFETCHER DATA	ACCESS:     249867  HIT:     249844  MISS:         23  HIT %:    99.9908  MISS %:  0.0092049  MPKI: 0.00046

STLB AVERAGE MISS LATENCY: 74.1094 cycles
STLB RQ	ACCESS:    1330693	FORWARD:          0	MERGED:     120973	TO_CACHE:    1209720

STLB Hit, L1D data hit: 0
STLB Hit, L2C data hit: 0
STLB Hit, LLC data hit: 0
STLB Hit, LLC data miss: 0
STLB STLB hints to L2: 0
L1D TOTAL     ACCESS:   13073876  HIT:   11959515  MISS:    1114361  HIT %:    91.4764  MISS %:    8.52357   MPKI: 22.2872
L1D LOAD DATA	ACCESS:    6540376  HIT:    5805497  MISS:     734879  HIT %:     88.764  MISS %:     11.236  MPKI: 14.6976
L1D RFO DATA	ACCESS:    6202314  HIT:    5917448  MISS:     284866  HIT %:    95.4071  MISS %:     4.5929  MPKI: 5.69732
L1D PREFETCH DATA	ACCESS:     331186  HIT:     236570  MISS:      94616  HIT %:    71.4312  MISS %:    28.5688  MPKI: 1.89232

L1D PREFETCH  REQUESTED:     742160  ISSUED:     742160  USEFUL:      33307  USELESS:      68923
L1D USEFUL LOAD PREFETCHES:      33307 PREFETCH ISSUED TO LOWER LEVEL:     102268  ACCURACY: 32.5683
 TIMELY PREFETCHES:      33307 LATE PREFETCHES: 7601 DROPPED PREFETCHES: 6
L1D AVERAGE MISS LATENCY: 214871 cycles
L1D RQ	ACCESS:   10681469	FORWARD:          0	MERGED:    3944229	TO_CACHE:    6574074
L1D WQ	ACCESS:    6940768	FORWARD:     163570	MERGED:     199990	TO_CACHE:    6740778
L1D PQ	ACCESS:     371282	FORWARD:          0	MERGED:          0	TO_CACHE:     370878

L1D UNIQUE REGIONS ACCESSED: 0
L1D REGIONS CONFLICTS: 0
L1D Cross Page Prefetch Requests: 6928
L1D Same Page Prefetch Requests: 747322
L1D ROI Sum of L1D PQ occupancy: 4715836
L1D PREFETCHES PUSHED FROM L2C: 0
L1I TOTAL     ACCESS:    7121820  HIT:    4366475  MISS:    2755345  HIT %:    61.3112  MISS %:    38.6888   MPKI: 55.1069
L1I LOAD INSTRUCTION	ACCESS:    6435434  HIT:    3680089  MISS:    2755345  HIT %:    57.1848  MISS %:    42.8152  MPKI: 55.1069
L1I PREFETCH INSTRUCTION	ACCESS:     686386  HIT:     686386  MISS:          0  HIT %:        100  MISS %:          0  MPKI: 0

L1I PREFETCH  REQUESTED:    1676999  ISSUED:    1676999  USEFUL:          0  USELESS:          0
L1I USEFUL LOAD PREFETCHES:          0 PREFETCH ISSUED TO LOWER LEVEL:          0  ACCURACY: -nan
 TIMELY PREFETCHES:          0 LATE PREFETCHES: 0 DROPPED PREFETCHES: 0
L1I AVERAGE MISS LATENCY: 17.3841 cycles
L1I RQ	ACCESS:    9839494	FORWARD:          0	MERGED:    3153239	TO_CACHE:    6686255
L1I PQ	ACCESS:    1676999	FORWARD:          0	MERGED:     432290	TO_CACHE:    1244709

L1BTB TOTAL     ACCESS:    5367889  HIT:    5335316  MISS:      32573  HIT %:    99.3932  MISS %:   0.606812   MPKI: 0.65146
L1BTB BRANCH_DIRECT_JUMP	ACCESS:     548750  HIT:     548750  MISS:          0	AVERAGE STALL: -nan
L1BTB BRANCH_INDIRECT	ACCESS:     183452  HIT:     170551  MISS:      12901	AVERAGE STALL: 126.13
L1BTB BRANCH_CONDITIONAL	ACCESS:    2409026  HIT:    2409026  MISS:          0	AVERAGE STALL: -nan
L1BTB BRANCH_DIRECT_CALL	ACCESS:     942473  HIT:     942473  MISS:          0	AVERAGE STALL: -nan
L1BTB BRANCH_INDIRECT_CALL	ACCESS:     170856  HIT:     151184  MISS:      19672	AVERAGE STALL: 162.998
L1BTB BRANCH_RETURN	ACCESS:    1113332  HIT:    1113332  MISS:          0	AVERAGE STALL: -nan
L1BTB BRANCH_OTHER ACCESS:          0  HIT:          0  MISS:          0	AVERAGE STALL: -nan
L1BTB TOTAL ROB OCCUPANCY AT BTB MISS: 125.312

L2BTB BRANCH_DIRECT_JUMP	ACCESS:          0  HIT:          0  MISS:          0	AVERAGE STALL: -nan
L2BTB BRANCH_INDIRECT	ACCESS:          0  HIT:          0  MISS:          0	AVERAGE STALL: 126.13
L2BTB BRANCH_CONDITIONAL	ACCESS:          0  HIT:          0  MISS:          0	AVERAGE STALL: -nan
L2BTB BRANCH_DIRECT_CALL	ACCESS:          0  HIT:          0  MISS:          0	AVERAGE STALL: -nan
L2BTB BRANCH_INDIRECT_CALL	ACCESS:          0  HIT:          0  MISS:          0	AVERAGE STALL: 162.998
L2BTB BRANCH_RETURN	ACCESS:          0  HIT:          0  MISS:          0	AVERAGE STALL: -nan
L2BTB BRANCH_OTHER ACCESS:          0  HIT:          0  MISS:          0	AVERAGE STALL: -nan
L2BTB TOTAL ROB OCCUPANCY AT BTB MISS: inf

L2C TOTAL     ACCESS:    4475781  HIT:    3997531  MISS:     478250  HIT %:    89.3147  MISS %:    10.6853   MPKI: 9.565
L2C LOAD INSTRUCTION	ACCESS:    2755345  HIT:    2492718  MISS:     262627  HIT %:    90.4685  MISS %:    9.53155  MPKI: 5.25254
L2C LOAD TRANSLATION INSTRUCTION	ACCESS:        243  HIT:         63  MISS:        180  HIT %:    25.9259  MISS %:    74.0741  MPKI: 0.0036
L2C LOAD DATA	ACCESS:     727254  HIT:     647585  MISS:      79669  HIT %:    89.0452  MISS %:    10.9548  MPKI: 1.59338
L2C RFO DATA	ACCESS:     284800  HIT:     237140  MISS:      47660  HIT %:    83.2654  MISS %:    16.7346  MPKI: 0.9532
L2C PREFETCH DATA	ACCESS:     186137  HIT:     113710  MISS:      72427  HIT %:    61.0894  MISS %:    38.9106  MPKI: 1.44854
L2C WRITEBACK DATA	ACCESS:     520203  HIT:     505868  MISS:      14335  HIT %:    97.2443  MISS %:    2.75566  MPKI: 0.2867
L2C LOAD TRANSLATION DATA	ACCESS:       1756  HIT:        417  MISS:       1339  HIT %:    23.7472  MISS %:    76.2528  MPKI: 0.02678
L2C TRANSLATION FROM L1D PREFETCHER DATA	ACCESS:         43  HIT:         30  MISS:         13  HIT %:    69.7674  MISS %:    30.2326  MPKI: 0.00026

L2C PREFETCH  REQUESTED:      92532  ISSUED:      92532  USEFUL:       8046  USELESS:      64944
L2C USEFUL LOAD PREFETCHES:       8046 PREFETCH ISSUED TO LOWER LEVEL:      72842  ACCURACY: 11.0458
 TIMELY PREFETCHES:       8046 LATE PREFETCHES: 415 DROPPED PREFETCHES: 0
L2C AVERAGE MISS LATENCY: 38.1018 cycles
L2C RQ	ACCESS:    3769480	FORWARD:          0	MERGED:          0	TO_CACHE:    3769441
L2C WQ	ACCESS:     520203	FORWARD:         39	MERGED:          0	TO_CACHE:     520203
L2C PQ	ACCESS:     194800	FORWARD:          0	MERGED:       3932	TO_CACHE:     190868

L2C Dense regions hint from L2: 0
PSCL5 TOTAL     ACCESS:       3948  HIT:       1974  MISS:       1974  HIT %:         50  MISS %:         50   MPKI: 0.03948
PSCL5 LOAD TRANSLATION INSTRUCTION	ACCESS:       3862  HIT:       1931  MISS:       1931  HIT %:         50  MISS %:         50  MPKI: 0.03862
PSCL5 TRANSLATION FROM L1D PREFETCHER INSTRUCTION	ACCESS:         86  HIT:         43  MISS:         43  HIT %:         50  MISS %:         50  MPKI: 0.00086


PSCL4 TOTAL     ACCESS:       3852  HIT:       1923  MISS:       1929  HIT %:    49.9221  MISS %:    50.0779   MPKI: 0.03858
PSCL4 LOAD TRANSLATION INSTRUCTION	ACCESS:       2380  HIT:       1880  MISS:        500  HIT %:    78.9916  MISS %:    21.0084  MPKI: 0.01
PSCL4 TRANSLATION FROM L1D PREFETCHER INSTRUCTION	ACCESS:         55  HIT:         43  MISS:         12  HIT %:    78.1818  MISS %:    21.8182  MPKI: 0.00024
PSCL4 LOAD TRANSLATION DATA	ACCESS:       1386  HIT:          0  MISS:       1386  HIT %:          0  MISS %:        100  MPKI: 0.02772
PSCL4 TRANSLATION FROM L1D PREFETCHER DATA	ACCESS:         31  HIT:          0  MISS:         31  HIT %:          0  MISS %:        100  MPKI: 0.00062


PSCL3 TOTAL     ACCESS:       3914  HIT:       1954  MISS:       1960  HIT %:    49.9234  MISS %:    50.0766   MPKI: 0.0392
PSCL3 LOAD TRANSLATION INSTRUCTION	ACCESS:       2411  HIT:       1911  MISS:        500  HIT %:    79.2617  MISS %:    20.7383  MPKI: 0.01
PSCL3 TRANSLATION FROM L1D PREFETCHER INSTRUCTION	ACCESS:         55  HIT:         43  MISS:         12  HIT %:    78.1818  MISS %:    21.8182  MPKI: 0.00024
PSCL3 LOAD TRANSLATION DATA	ACCESS:       1417  HIT:          0  MISS:       1417  HIT %:          0  MISS %:        100  MPKI: 0.02834
PSCL3 TRANSLATION FROM L1D PREFETCHER DATA	ACCESS:         31  HIT:          0  MISS:         31  HIT %:          0  MISS %:        100  MPKI: 0.00062


PSCL2 TOTAL     ACCESS:       3892  HIT:       1918  MISS:       1974  HIT %:    49.2806  MISS %:    50.7194   MPKI: 0.03948
PSCL2 LOAD TRANSLATION INSTRUCTION	ACCESS:       2104  HIT:       1875  MISS:        229  HIT %:     89.116  MISS %:     10.884  MPKI: 0.00458
PSCL2 TRANSLATION FROM L1D PREFETCHER INSTRUCTION	ACCESS:         43  HIT:         43  MISS:          0  HIT %:        100  MISS %:          0  MPKI: 0
PSCL2 LOAD TRANSLATION DATA	ACCESS:       1702  HIT:          0  MISS:       1702  HIT %:          0  MISS %:        100  MPKI: 0.03404
PSCL2 TRANSLATION FROM L1D PREFETCHER DATA	ACCESS:         43  HIT:          0  MISS:         43  HIT %:          0  MISS %:        100  MPKI: 0.00086


LLC TOTAL     ACCESS:     536951  HIT:     509268  MISS:      27683  HIT %:    94.8444  MISS %:    5.15559   MPKI: 0.55366
LLC LOAD INSTRUCTION	ACCESS:     262627  HIT:     261709  MISS:        918  HIT %:    99.6505  MISS %:   0.349545  MPKI: 0.01836
LLC LOAD TRANSLATION INSTRUCTION	ACCESS:        180  HIT:        154  MISS:         26  HIT %:    85.5556  MISS %:    14.4444  MPKI: 0.00052
LLC LOAD DATA	ACCESS:      79263  HIT:      75852  MISS:       3411  HIT %:    95.6966  MISS %:     4.3034  MPKI: 0.06822
LLC RFO DATA	ACCESS:      47647  HIT:      34395  MISS:      13252  HIT %:    72.1871  MISS %:    27.8129  MPKI: 0.26504
LLC PREFETCH DATA	ACCESS:      72842  HIT:      63210  MISS:       9632  HIT %:    86.7769  MISS %:    13.2231  MPKI: 0.19264
LLC WRITEBACK DATA	ACCESS:      73040  HIT:      72676  MISS:        364  HIT %:    99.5016  MISS %:   0.498357  MPKI: 0.00728
LLC LOAD TRANSLATION DATA	ACCESS:       1339  HIT:       1259  MISS:         80  HIT %:    94.0254  MISS %:    5.97461  MPKI: 0.0016
LLC TRANSLATION FROM L1D PREFETCHER DATA	ACCESS:         13  HIT:         13  MISS:          0  HIT %:        100  MISS %:          0  MPKI: 0

LLC AVERAGE MISS LATENCY: 154.044 cycles
LLC RQ	ACCESS:     391073	FORWARD:          0	MERGED:          0	TO_CACHE:     391069
LLC WQ	ACCESS:      73040	FORWARD:          4	MERGED:          0	TO_CACHE:      73040
LLC PQ	ACCESS:      72842	FORWARD:          0	MERGED:          0	TO_CACHE:      72842

LLC Dense regions hint to LLC: 0

RAW hits: 1952846
Loads Generated: 12634315
Loads sent to L1D: 10681469
Stores Generated: 6940765
Stores sent to L1D: 6940768
Major fault: 0 Minor fault: 2515
Allocated PAGES: 2515

stream: 
stream:times selected: 1183104
stream:pref_filled: 121256
stream:pref_useful: 24048
stream:pref_late: 6955
stream:misses: 7825
stream:misses_by_poll: 0

CS: 
CS:times selected: 174834
CS:pref_filled: 58767
CS:pref_useful: 35364
CS:pref_late: 6821
CS:misses: 15681
CS:misses_by_poll: 1

CPLX: 
CPLX:times selected: 1007154
CPLX:pref_filled: 19752
CPLX:pref_useful: 4618
CPLX:pref_late: 3213
CPLX:misses: 93744
CPLX:misses_by_poll: 0

NL_L1: 
NL:times selected: 20931
NL:pref_filled: 750
NL:pref_useful: 335
NL:pref_late: 262
NL:misses: 1716
NL:misses_by_poll: 0

total selections: 2386023
total_filled: 94616
total_useful: 33307
total_late: 18486
total_polluted: 1
total_misses_after_warmup: 768577
conflicts: 5515410

test: 116790

DRAM Statistics
 CHANNEL 0
 RQ ROW_BUFFER_HIT:      10214  ROW_BUFFER_MISS:      17097
 DBUS_CONGESTED:         13
 WQ ROW_BUFFER_HIT:       1459  ROW_BUFFER_MISS:      11336  FULL:          0

 AVG_CONGESTED_CYCLE: 5

CPU 0 Branch Prediction Accuracy: 99.8254% MPKI: 0.31926 Average ROB Occupancy at Mispredict: 191.234
Branch types
NOT_BRANCH: 40855171 81.7103%
BRANCH_DIRECT_JUMP: 548750 1.0975%
BRANCH_INDIRECT: 183452 0.366904%
BRANCH_CONDITIONAL: 6185933 12.3719%
BRANCH_DIRECT_CALL: 942473 1.88495%
BRANCH_INDIRECT_CALL: 170856 0.341712%
BRANCH_RETURN: 1113332 2.22666%
BRANCH_OTHER: 0 0%

DRAM PAGES: 1048576
Allocated PAGES: 2515
Average_ROB_Occupancy: 269.741
Average_Decode_Occupancy: 44.3228
Average_FTQ_Occupancy: 18.0846
Indirect max targets: 14 Average targets: 1.14915
Branch_type:  BRANCH_DIRECT_JUMP:  Count Percentage: 4.42255 6.15839 4.20873 3.01511 2.32289 12.5295 7.18705 60.1558 
Branch_type:  BRANCH_INDIRECT:  Count Percentage: 13.7433 3.46104 2.53886 0 0 33.0694 15.4852 31.7023 
Branch_type:  BRANCH_CONDITIONAL:  Count Percentage: 25.1876 3.41753 1.45266 5.34155 1.13911 9.503 3.34501 50.6136 
Branch_type:  BRANCH_DIRECT_CALL:  Count Percentage: 0.388724 1.77073 0.74018 2.44447 1.92933 5.32811 2.48237 84.9161 
Branch_type:  BRANCH_INDIRECT_CALL:  Count Percentage: 9.56045 0 2.99694 0 0 4.05017 0.998104 82.3943 
Branch_type:  BRANCH_RETURN:  Count Percentage: 9.17856 2.01282 0.722867 5.59159 1.2603 11.6273 3.14811 66.4584 
Branch_type:  BRANCH_DIRECT_JUMP:  Total Count: 48441 67454 46099 33025 25443 137238 78721 658897 
Branch_type:  BRANCH_INDIRECT:  Total Count: 50283 12663 9289 0 0 120992 56656 115990 
Branch_type:  BRANCH_CONDITIONAL:  Total Count: 3112869 422364 179530 660149 140780 1174452 413401 6255204 
Branch_type:  BRANCH_DIRECT_CALL:  Total Count: 7343 33449 13982 46176 36445 100648 46892 1604065 
Branch_type:  BRANCH_INDIRECT_CALL:  Total Count: 32778 0 10275 0 0 13886 3422 282489 
Branch_type:  BRANCH_RETURN:  Total Count: 204924 44939 16139 124840 28138 259596 70286 1483776 
Number of unique branch instructions: 9887
Upper 32 bits: 
aaaa
ffff
ffff0000
Unique upper 32 bits: 3
Unique upper 36 bits: 3
Unique upper 40 bits: 5
Unique upper 44 bits: 32
Unique upper 48 bits: 153
Offset_3 4079
Offset_4 244
Offset_5 449
Offset_6 500
Offset_7 579
Offset_8 515
Offset_9 465
Offset_10 377
Offset_11 318
Offset_12 283
Offset_13 203
Offset_14 228
Offset_15 189
Offset_16 219
Offset_17 144
Offset_18 126
Offset_19 235
Offset_20 139
Offset_21 235
Offset_22 389
Offset_23 241
Offset_24 331
Offset_25 88
Offset_47 82
decode_dispatch_called: 27525915 78.549
Dispatch_width: 0 15084006 54.7993 43.0443
Dispatch_width: 1 1085704 3.9443 3.09821
Dispatch_width: 2 845723 3.07246 2.41339
Dispatch_width: 3 485596 1.76414 1.38572
Dispatch_width: 4 7164567 26.0284 20.4451
Dispatch_width: 5 54119 0.196611 0.154436
Dispatch_width: 6 2806200 10.1948 8.00788
Empty_decode_cycles: 7517063 21.451
ROB_full_cycles: 11675685 33.3182
Starvation_cycles_per_kilo_instr: 205.611
Starvation_cycles_per_kilo_instr_3: 133.424
Starvation_cycles_per_kilo_instr_0: 109.254
Branch_type_1  (3,1)  (4,7)  (5,36)  (6,69)  (7,115)  (8,127)  (9,124)  (10,98)  (11,72)  (12,51)  (13,5)  (14,2)  (15,3)  (16,4)  (18,1)  (19,4)  (20,2)  (21,1)  (22,3)  (23,2)  (24,10)  (25,12) 
Branch_type_2  (3,1)  (5,1)  (8,3)  (9,3)  (12,1)  (13,1)  (14,1)  (16,3)  (17,2)  (20,2)  (21,2)  (23,5)  (24,1)  (47,38) 
Branch_type_3  (3,4077)  (4,237)  (5,408)  (6,415)  (7,433)  (8,325)  (9,255)  (10,152)  (11,131)  (12,58)  (13,4) 
Branch_type_4  (6,4)  (7,8)  (8,26)  (9,51)  (10,60)  (11,59)  (12,95)  (13,88)  (14,101)  (15,89)  (16,98)  (17,64)  (18,57)  (19,114)  (20,72)  (21,124)  (22,207)  (23,136)  (24,193)  (25,72) 
Branch_type_5  (8,2)  (9,1)  (10,3)  (11,5)  (12,3)  (13,14)  (14,16)  (15,11)  (16,20)  (17,11)  (18,16)  (19,12)  (20,10)  (21,13)  (22,42)  (23,26)  (24,36) 
Branch_type_6  (5,4)  (6,12)  (7,23)  (8,32)  (9,31)  (10,64)  (11,51)  (12,75)  (13,91)  (14,108)  (15,86)  (16,94)  (17,67)  (18,52)  (19,105)  (20,53)  (21,95)  (22,137)  (23,72)  (24,91)  (25,4)  (47,44) 
Unique trigger count: 
BTB PER SET UNIQUE ADDR: 0 0 0 0 0 0 0 0 0 0 0 0 0 0 0 0 0 0 0 0 0 0 0 0 0 0 0 0 0 0 0 0 0 0 0 0 0 0 0 0 0 0 0 0 0 0 0 0 0 0 0 0 0 0 0 0 0 0 0 0 0 0 0 0 0 0 0 0 0 0 0 0 0 0 0 0 0 0 0 0 0 0 0 0 0 0 0 0 0 0 0 0 0 0 0 0 0 0 0 0 0 0 0 0 0 0 0 0 0 0 0 0 0 0 0 0 0 0 0 0 0 0 0 0 0 0 0 0 0 0 0 0 0 0 0 0 0 0 0 0 0 0 0 0 0 0 0 0 0 0 0 0 0 0 0 0 0 0 0 0 0 0 0 0 0 0 0 0 0 0 0 0 0 0 0 0 0 0 0 0 0 0 0 0 0 0 0 0 0 0 0 0 0 0 0 0 0 0 0 0 0 0 0 0 0 0 0 0 0 0 0 0 0 0 0 0 0 0 0 0 0 0 0 0 0 0 0 0 0 0 0 0 0 0 0 0 0 0 0 0 0 0 0 0 0 0 0 0 0 0 0 0 0 0 0 0 0 0 0 0 0 0 0 0 0 0 0 0 0 0 0 0 0 0 0 0 0 0 0 0 0 0 0 0 0 0 0 0 0 0 0 0 0 0 0 0 0 0 0 0 0 0 0 0 0 0 0 0 0 0 0 0 0 0 0 0 0 0 0 0 0 0 0 0 0 0 0 0 0 0 0 0 0 0 0 0 0 0 0 0 0 0 0 0 0 0 0 0 0 0 0 0 0 0 0 0 0 0 0 0 0 0 0 0 0 0 0 0 0 0 0 0 0 0 0 0 0 0 0 0 0 0 0 0 0 0 0 0 0 0 0 0 0 0 0 0 0 0 0 0 0 0 0 0 0 0 0 0 0 0 0 0 0 0 0 0 0 0 0 0 0 0 0 0 0 0 0 0 0 0 0 0 0 0 0 0 0 0 0 0 0 0 0 0 0 0 0 0 0 0 0 0 0 0 0 0 0 0 0 0 0 0 0 0 0 0 0 0 0 0 0 0 0 0 0 0 0 0 0 0 0 0 0 0 0 0 0 0 0 0 0 0 0 0 0 0 0 0 0 0 0 0 0 0 0 0 0 0 0 0 0 0 0 0 0 0 0 0 0 0 0 0 0 0 0 0 0 0 0 0 0 0 0 0 0 0 0 0 0 0 0 0 0 0 0 0 0 0 0 0 0 0 0 0 0 0 0 0 0 0 0 0 0 0 0 0 0 0 0 0 0 0 0 0 0 0 0 0 0 0 0 0 0 0 0 0 0 0 0 0 0 0 0 0 0 0 0 0 0 0 0 0 0 0 0 0 0 0 0 0 0 0 0 0 0 0 0 0 0 0 0 0 0 0 0 0 0 0 0 0 0 0 0 0 0 0 0 0 0 0 0 0 0 0 0 0 0 0 0 0 0 0 0 0 0 0 0 0 0 0 0 0 0 0 0 0 0 0 0 0 0 0 0 0 0 0 0 0 0 0 0 0 0 0 0 0 0 0 0 0 0 0 0 0 0 0 0 0 0 0 0 0 0 0 0 0 0 0 0 0 0 0 0 0 0 0 0 0 0 0 0 0 0 0 0 0 0 0 0 0 0 0 0 0 0 0 0 0 0 0 0 0 0 0 0 0 0 0 0 0 0 0 0 0 0 0 0 0 0 0 0 0 0 0 0 0 0 0 0 0 0 0 0 0 0 0 0 0 0 0 0 0 0 0 0 0 0 0 0 0 0 0 0 0 0 0 0 0 0 0 0 0 0 0 0 0 0 0 0 0 0 0 0 0 0 0 0 0 0 0 0 0 0 0 0 0 0 0 0 0 0 0 0 0 0 0 0 0 0 0 0 0 0 0 0 0 0 0 0 0 0 0 0 0 0 0 0 0 0 0 0 0 0 0 0 0 0 0 0 0 0 0 0 0 0 0 0 0 0 0 0 0 0 0 0 0 0 0 0 0 0 0 0 0 0 0 0 0 0 0 0 0 0 0 0 0 0 0 0 0 0 0 0 0 0 0 0 0 0 0 0 0 0 0 0 0 0 0 0 0 0 0 0 0 0 0 0 0 0 0 0 0 0 0 0 0 0 0 0 0 0 0 0 0 0 0 0 0 0 0 0 0 0 0 0 0 0 0 0 0 0 0 0 0 0 0 0 0 0 0 0 0 0 0 0 0 0 0 0 0 0 0 0 0 0 0 0 0 0 0 0 0 0 0 0 0 0 0 0 0 0 0 0 0 0 0 0 0 0 0 0 0 0 0 0 0 0 0 0 0 0 0 0 0 0 0 0 0 0 0 0 0 0 0 0 0 0 0 0 0 0 0 0 0 0 0 0 0 0 0 0 0 0 0 0 0 0 0 0 0 0 0 0 0 0 0 0 0 0 0 0 0 0 0 0 0 0 0 0 0 0 0 0 0 0 0 0 0 0 0 0 0 0 0 0 0 0 0 0 0 0 0 0 0 0 0 0 0 0 0 0 0 0 0 0 0 0 0 0 0 0 0 0 0 0 0 0 0 0 0 0 0 0 0 0 0 0 0 0 0 0 0 0 0 0 0 0 0 0 0 0 0 0 0 0 0 0 0 0 0 0 0 0 0 0 0 0 0 0 0 0 0 0 0 0 0 0 0 0 0 0 0 0 0 0 0 0 0 0 0 0 0 0 0 0 0 0 0 0 0 0 0 0 0 0 0 0 0 0 0 0 0 0 0 0 0 0 0 0 0 0 0 0 0 0 0 0 0 0 0 0 0 0 0 0 0 0 0 0 0 0 0 0 0 0 0 0 0 0 0 0 0 0 0 0 0 0 0 0 0 0 0 0 0 0 0 0 0 0 0 0 0 0 0 0 0 0 0 0 0 0 0 0 0 0 0 0 0 0 0 0 0 0 0 0 0 0 0 0 0 0 0 0 0 0 0 0 0 0 0 0 0 0 0 0 0 0 0 0 0 0 0 0 0 0 0 0 0 0 0 0 0 0 0 0 0 0 0 0 0 0 0 0 0 0 0 0 0 0 0 0 0 0 0 0 0 0 0 0 0 0 0 0 0 0 0 0 0 0 0 0 0 0 0 0 0 0 0 0 0 0 0 0 0 0 0 0 0 0 0 0 0 0 0 0 0 0 0 0 0 0 0 0 0 0 0 0 0 0 0 0 0 0 0 0 0 0 0 0 0 0 0 0 0 0 0 0 0 0 0 0 0 0 0 0 0 0 0 0 0 0 0 0 0 0 0 0 0 0 0 0 0 0 0 0 0 0 0 0 0 0 0 0 0 0 0 0 0 0 0 0 0 0 0 0 0 0 0 0 0 0 0 0 0 0 0 0 0 0 0 0 0 0 0 0 0 0 0 0 0 0 0 0 0 0 0 0 0 0 0 0 0 0 0 0 0 0 0 0 0 0 0 0 0 0 0 0 0 0 0 0 0 0 0 0 0 0 0 0 0 0 0 0 0 0 0 0 0 0 0 0 0 0 0 0 0 0 0 0 0 0 0 0 0 0 0 0 0 0 0 0 0 0 0 0 0 0 0 0 0 0 0 0 0 0 0 0 0 0 0 0 0 0 0 0 0 0 0 0 0 0 0 0 0 0 0 0 0 0 0 0 0 0 0 0 0 0 0 0 0 0 0 0 0 0 0 0 0 0 0 0 0 0 0 0 0 0 0 0 0 0 0 0 0 0 0 0 0 0 0 0 0 0 0 0 0 0 0 0 0 0 0 0 0 0 0 0 0 0 0 0 0 0 0 0 0 0 0 0 0 0 0 0 0 0 0 0 0 0 0 0 0 0 0 0 0 0 0 0 0 0 0 0 0 0 0 0 0 0 0 0 0 0 0 0 0 0 0 0 0 0 0 0 0 0 0 0 0 0 0 0 0 0 0 0 0 0 0 0 0 0 0 0 0 0 0 0 0 0 0 0 0 0 0 0 0 0 0 0 0 0 0 0 0 0 0 0 0 0 0 0 0 0 0 0 0 0 0 0 0 0 0 0 0 0 0 0 0 0 0 0 0 0 0 0 0 0 0 0 0 0 0 0 0 0 0 0 0 0 0 0 0 0 0 0 0 0 0 0 0 0 0 0 0 0 0 0 0 0 0 0 0 0 0 0 0 0 0 0 0 0 0 0 0 0 0 0 0 0 0 0 0 0 0 0 0 0 0 0 0 0 0 0 0 0 0 0 0 0 0 0 0 0 0 0 0 0 0 0 0 0 0 0 0 0 0 0 0 0 0 0 0 0 0 0 0 0 0 0 0 0 0 0 0 0 0 0 0 0 0 0 0 0 0 0 0 0 0 0 0 0 0 0 0 0 0 0 0 0 0 0 0 0 0 0 0 0 0 0 0 0 0 0 0 0 0 0 0 0 0 0 0 0 0 0 0 0 0 0 0 0 0 0 0 0 0 0 0 0 0 0 0 0 0 0 0 0 0 0 0 0 0 0 0 0 0 0 0 0 0 0 0 0 0 0 0 0 0 0 0 0 0 0 0 0 0 0 0 0 0 0 0 0 0 0 0 0 0 0 0 0 0 0 0 0 0 0 0 0 0 0 0 0 0 0 0 0 0 
BTB PER SET COUNT: 0 0 0 0 0 0 0 0 0 0 0 0 0 0 0 0 0 0 0 0 0 0 0 0 0 0 0 0 0 0 0 0 0 0 0 0 0 0 0 0 0 0 0 0 0 0 0 0 0 0 0 0 0 0 0 0 0 0 0 0 0 0 0 0 0 0 0 0 0 0 0 0 0 0 0 0 0 0 0 0 0 0 0 0 0 0 0 0 0 0 0 0 0 0 0 0 0 0 0 0 0 0 0 0 0 0 0 0 0 0 0 0 0 0 0 0 0 0 0 0 0 0 0 0 0 0 0 0 0 0 0 0 0 0 0 0 0 0 0 0 0 0 0 0 0 0 0 0 0 0 0 0 0 0 0 0 0 0 0 0 0 0 0 0 0 0 0 0 0 0 0 0 0 0 0 0 0 0 0 0 0 0 0 0 0 0 0 0 0 0 0 0 0 0 0 0 0 0 0 0 0 0 0 0 0 0 0 0 0 0 0 0 0 0 0 0 0 0 0 0 0 0 0 0 0 0 0 0 0 0 0 0 0 0 0 0 0 0 0 0 0 0 0 0 0 0 0 0 0 0 0 0 0 0 0 0 0 0 0 0 0 0 0 0 0 0 0 0 0 0 0 0 0 0 0 0 0 0 0 0 0 0 0 0 0 0 0 0 0 0 0 0 0 0 0 0 0 0 0 0 0 0 0 0 0 0 0 0 0 0 0 0 0 0 0 0 0 0 0 0 0 0 0 0 0 0 0 0 0 0 0 0 0 0 0 0 0 0 0 0 0 0 0 0 0 0 0 0 0 0 0 0 0 0 0 0 0 0 0 0 0 0 0 0 0 0 0 0 0 0 0 0 0 0 0 0 0 0 0 0 0 0 0 0 0 0 0 0 0 0 0 0 0 0 0 0 0 0 0 0 0 0 0 0 0 0 0 0 0 0 0 0 0 0 0 0 0 0 0 0 0 0 0 0 0 0 0 0 0 0 0 0 0 0 0 0 0 0 0 0 0 0 0 0 0 0 0 0 0 0 0 0 0 0 0 0 0 0 0 0 0 0 0 0 0 0 0 0 0 0 0 0 0 0 0 0 0 0 0 0 0 0 0 0 0 0 0 0 0 0 0 0 0 0 0 0 0 0 0 0 0 0 0 0 0 0 0 0 0 0 0 0 0 0 0 0 0 0 0 0 0 0 0 0 0 0 0 0 0 0 0 0 0 0 0 0 0 0 0 0 0 0 0 0 0 0 0 0 0 0 0 0 0 0 0 0 0 0 0 0 0 0 0 0 0 0 0 0 0 0 0 0 0 0 0 0 0 0 0 0 0 0 0 0 0 0 0 0 0 0 0 0 0 0 0 0 0 0 0 0 0 0 0 0 0 0 0 0 0 0 0 0 0 0 0 0 0 0 0 0 0 0 0 0 0 0 0 0 0 0 0 0 0 0 0 0 0 0 0 0 0 0 0 0 0 0 0 0 0 0 0 0 0 0 0 0 0 0 0 0 0 0 0 0 0 0 0 0 0 0 0 0 0 0 0 0 0 0 0 0 0 0 0 0 0 0 0 0 0 0 0 0 0 0 0 0 0 0 0 0 0 0 0 0 0 0 0 0 0 0 0 0 0 0 0 0 0 0 0 0 0 0 0 0 0 0 0 0 0 0 0 0 0 0 0 0 0 0 0 0 0 0 0 0 0 0 0 0 0 0 0 0 0 0 0 0 0 0 0 0 0 0 0 0 0 0 0 0 0 0 0 0 0 0 0 0 0 0 0 0 0 0 0 0 0 0 0 0 0 0 0 0 0 0 0 0 0 0 0 0 0 0 0 0 0 0 0 0 0 0 0 0 0 0 0 0 0 0 0 0 0 0 0 0 0 0 0 0 0 0 0 0 0 0 0 0 0 0 0 0 0 0 0 0 0 0 0 0 0 0 0 0 0 0 0 0 0 0 0 0 0 0 0 0 0 0 0 0 0 0 0 0 0 0 0 0 0 0 0 0 0 0 0 0 0 0 0 0 0 0 0 0 0 0 0 0 0 0 0 0 0 0 0 0 0 0 0 0 0 0 0 0 0 0 0 0 0 0 0 0 0 0 0 0 0 0 0 0 0 0 0 0 0 0 0 0 0 0 0 0 0 0 0 0 0 0 0 0 0 0 0 0 0 0 0 0 0 0 0 0 0 0 0 0 0 0 0 0 0 0 0 0 0 0 0 0 0 0 0 0 0 0 0 0 0 0 0 0 0 0 0 0 0 0 0 0 0 0 0 0 0 0 0 0 0 0 0 0 0 0 0 0 0 0 0 0 0 0 0 0 0 0 0 0 0 0 0 0 0 0 0 0 0 0 0 0 0 0 0 0 0 0 0 0 0 0 0 0 0 0 0 0 0 0 0 0 0 0 0 0 0 0 0 0 0 0 0 0 0 0 0 0 0 0 0 0 0 0 0 0 0 0 0 0 0 0 0 0 0 0 0 0 0 0 0 0 0 0 0 0 0 0 0 0 0 0 0 0 0 0 0 0 0 0 0 0 0 0 0 0 0 0 0 0 0 0 0 0 0 0 0 0 0 0 0 0 0 0 0 0 0 0 0 0 0 0 0 0 0 0 0 0 0 0 0 0 0 0 0 0 0 0 0 0 0 0 0 0 0 0 0 0 0 0 0 0 0 0 0 0 0 0 0 0 0 0 0 0 0 0 0 0 0 0 0 0 0 0 0 0 0 0 0 0 0 0 0 0 0 0 0 0 0 0 0 0 0 0 0 0 0 0 0 0 0 0 0 0 0 0 0 0 0 0 0 0 0 0 0 0 0 0 0 0 0 0 0 0 0 0 0 0 0 0 0 0 0 0 0 0 0 0 0 0 0 0 0 0 0 0 0 0 0 0 0 0 0 0 0 0 0 0 0 0 0 0 0 0 0 0 0 0 0 0 0 0 0 0 0 0 0 0 0 0 0 0 0 0 0 0 0 0 0 0 0 0 0 0 0 0 0 0 0 0 0 0 0 0 0 0 0 0 0 0 0 0 0 0 0 0 0 0 0 0 0 0 0 0 0 0 0 0 0 0 0 0 0 0 0 0 0 0 0 0 0 0 0 0 0 0 0 0 0 0 0 0 0 0 0 0 0 0 0 0 0 0 0 0 0 0 0 0 0 0 0 0 0 0 0 0 0 0 0 0 0 0 0 0 0 0 0 0 0 0 0 0 0 0 0 0 0 0 0 0 0 0 0 0 0 0 0 0 0 0 0 0 0 0 0 0 0 0 0 0 0 0 0 0 0 0 0 0 0 0 0 0 0 0 0 0 0 0 0 0 0 0 0 0 0 0 0 0 0 0 0 0 0 0 0 0 0 0 0 0 0 0 0 0 0 0 0 0 0 0 0 0 0 0 0 0 0 0 0 0 0 0 0 0 0 0 0 0 0 0 0 0 0 0 0 0 0 0 0 0 0 0 0 0 0 0 0 0 0 0 0 0 0 0 0 0 0 0 0 0 0 0 0 0 0 0 0 0 0 0 0 0 0 0 0 0 0 0 0 0 0 0 0 0 0 0 0 0 0 0 0 0 0 0 0 0 0 0 0 0 0 0 0 0 0 0 0 0 0 0 0 0 0 0 0 0 0 0 0 0 0 0 0 0 0 0 0 0 0 0 0 0 0 0 0 0 0 0 0 0 0 0 0 0 0 0 0 0 0 0 0 0 0 0 0 0 0 0 0 0 0 0 0 0 0 0 0 0 0 0 0 0 0 0 0 0 0 0 0 0 0 0 0 0 0 0 0 0 0 0 0 0 0 0 0 0 0 0 0 0 0 0 0 0 0 0 0 0 0 0 0 0 0 0 0 0 0 0 0 0 0 0 0 0 0 0 0 0 0 0 0 0 0 0 0 0 0 0 0 0 0 0 0 0 0 0 0 0 0 0 0 0 0 0 0 0 0 0 0 0 0 0 0 0 0 0 0 0 0 0 0 0 0 0 0 0 0 0 0 0 0 0 0 0 0 0 0 0 0 0 0 0 0 0 0 0 0 0 0 0 0 0 0 0 0 0 0 0 0 0 0 0 0 0 0 0 0 0 0 0 0 0 0 0 0 0 0 0 0 0 0 0 0 0 0 0 0 0 0 0 0 0 0 0 0 0 0 0 0 0 0 0 0 0 0 0 0 0 0 0 0 0 0 0 0 0 0 0 0 0 0 0 0 0 0 0 0 0 0 0 0 0 0 0 0 0 0 0 0 0 0 0 0 0 0 0 0 0 0 0 0 0 0 0 0 0 0 0 0 0 0 0 0 0 0 0 0 0 0 0 0 0 0 0 0 0 0 0 0 0 0 0 0 0 0 0 0 0 0 0 0 0 0 0 0 0 0 0 0 0 0 0 0 0 0 0 0 0 0 0 0 0 0 0 0 0 0 0 0 0 0 0 0 0 0 0 0 0 0 0 0 0 0 0 0 0 0 0 0 0 0 0 0 0 0 0 0 0 0 0 0 0 0 0 0 0 0 0 0 0 0 0 0 0 0 0 0 0 0 0 0 0 0 0 0 0 0 0 0 0 0 0 0 0 0 0 0 0 0 0 0 0 0 0 0 0 0 0 0 0 0 0 0 0 0 0 0 0 0 0 0 0 0 0 
