
*** ChampSim Multicore Out-of-Order Simulator ***

Warmup Instructions: 50000000
Simulation Instructions: 50000000
Number of CPUs: 1
LLC sets: 2048
LLC ways: 16
Off-chip DRAM Size: 4096 MB Channels: 1 Width: 64-bit Data Rate: 6400 MT/s
CPU 0 runs ./micro_traces/srv305.trace.gz
.gz
ITLB has LRU replacement policy
DTLB has LRU replacement policy
STLB has LRU replacement policy
CPU 0 L1I next line prefetcher
L1I has LRU replacement policy
L1D has LRU replacement policy
Initialize SRRIP state for L2C
Initialize DRRIP state for LLC
Heartbeat CPU 0 instructions: 10000000 cycles: 2797371 heartbeat IPC: 3.57478 cumulative IPC: 3.57478 (Simulation time: 0 hr 1 min 43 sec) 
Heartbeat CPU 0 instructions: 20000002 cycles: 5595218 heartbeat IPC: 3.57418 cumulative IPC: 3.57448 (Simulation time: 0 hr 3 min 21 sec) 
Heartbeat CPU 0 instructions: 30000000 cycles: 8390245 heartbeat IPC: 3.57778 cumulative IPC: 3.57558 (Simulation time: 0 hr 5 min 1 sec) 
Heartbeat CPU 0 instructions: 40000002 cycles: 11186804 heartbeat IPC: 3.57582 cumulative IPC: 3.57564 (Simulation time: 0 hr 6 min 41 sec) 
Heartbeat CPU 0 instructions: 50000001 cycles: 13984286 heartbeat IPC: 3.57464 cumulative IPC: 3.57544 (Simulation time: 0 hr 8 min 21 sec) 

Warmup complete CPU 0 instructions: 50000001 cycles: 13984286 (Simulation time: 0 hr 8 min 21 sec) 

Cycle: 20000000 FTQ IN: 56706604 FTQ occupancy: 17.183 DECODE IN: 56706604 DECODE occupancy: 45.0077 ROB IN: 56706604 ROB occupancy: 281.174 ROB OUT: 56706457
Heartbeat CPU 0 instructions: 60000001 cycles: 23077005 heartbeat IPC: 1.09978 cumulative IPC: 1.09978 (Simulation time: 0 hr 9 min 41 sec) 
Cycle: 30000000 FTQ IN: 10791261 FTQ occupancy: 3.83362 DECODE IN: 10791261 DECODE occupancy: 10.1729 ROB IN: 10791258 ROB occupancy: 121.617 ROB OUT: 10791405
Heartbeat CPU 0 instructions: 70000000 cycles: 32275365 heartbeat IPC: 1.08715 cumulative IPC: 1.09343 (Simulation time: 0 hr 11 min 0 sec) 
Cycle: 40000000 FTQ IN: 10957823 FTQ occupancy: 3.63478 DECODE IN: 10957823 DECODE occupancy: 9.65033 ROB IN: 10957826 ROB occupancy: 118.814 ROB OUT: 10957664
Heartbeat CPU 0 instructions: 80000000 cycles: 41449491 heartbeat IPC: 1.09002 cumulative IPC: 1.09229 (Simulation time: 0 hr 12 min 17 sec) 
Cycle: 50000000 FTQ IN: 10973118 FTQ occupancy: 3.92409 DECODE IN: 10973086 DECODE occupancy: 10.4799 ROB IN: 10973064 ROB occupancy: 123.673 ROB OUT: 10973052
Heartbeat CPU 0 instructions: 90000001 cycles: 50518730 heartbeat IPC: 1.10263 cumulative IPC: 1.09486 (Simulation time: 0 hr 13 min 35 sec) 
Heartbeat CPU 0 instructions: 100000000 cycles: 59663363 heartbeat IPC: 1.09354 cumulative IPC: 1.09459 (Simulation time: 0 hr 14 min 50 sec) 
Finished CPU 0 instructions: 50000003 cycles: 45679078 cumulative IPC: 1.09459 (Simulation time: 0 hr 14 min 50 sec) 

ChampSim completed all CPUs

Region of Interest Statistics

CPU 0 cumulative IPC: 1.09459 instructions: 50000003 cycles: 45679078
 Fetch stage stalled: 73.6097  Sim cycles: 45679078 fetch stall cycle: 33624244
 Empty decode stage: 58.1679  Sim cycles: 45679078 fetch stall cycle: 26570556
ITLB TOTAL     ACCESS:    7626814  HIT:    7020216  MISS:     606598  HIT %:    92.0465  MISS %:    7.95349   MPKI: 12.132
ITLB LOAD TRANSLATION INSTRUCTION	ACCESS:    5869202  HIT:    5740125  MISS:     129077  HIT %:    97.8008  MISS %:    2.19923  MPKI: 2.58154
ITLB TRANSLATION FROM L1D PREFETCHER INSTRUCTION	ACCESS:    1757612  HIT:    1280091  MISS:     477521  HIT %:    72.8313  MISS %:    27.1687  MPKI: 9.55042

ITLB AVERAGE MISS LATENCY: 112123 cycles
ITLB RQ	ACCESS:   11529920	FORWARD:          0	MERGED:    3759729	TO_CACHE:    7770191

DTLB TOTAL     ACCESS:    9383053  HIT:    8913081  MISS:     469972  HIT %:    94.9913  MISS %:    5.00873   MPKI: 9.39944
DTLB LOAD TRANSLATION DATA	ACCESS:    9383053  HIT:    8913081  MISS:     469972  HIT %:    94.9913  MISS %:    5.00873  MPKI: 9.39944

DTLB AVERAGE MISS LATENCY: 9.3637 cycles
DTLB RQ	ACCESS:   13660990	FORWARD:          0	MERGED:    4244604	TO_CACHE:    9416386

STLB TOTAL     ACCESS:    1323434  HIT:    1321333  MISS:       2101  HIT %:    99.8412  MISS %:   0.158754   MPKI: 0.04202
STLB LOAD TRANSLATION INSTRUCTION	ACCESS:     127236  HIT:     127066  MISS:        170  HIT %:    99.8664  MISS %:    0.13361  MPKI: 0.0034
STLB TRANSLATION FROM L1D PREFETCHER INSTRUCTION	ACCESS:     479362  HIT:     479279  MISS:         83  HIT %:    99.9827  MISS %:  0.0173147  MPKI: 0.00166
STLB LOAD TRANSLATION DATA	ACCESS:     469971  HIT:     468148  MISS:       1823  HIT %:    99.6121  MISS %:   0.387896  MPKI: 0.03646
STLB TRANSLATION FROM L1D PREFETCHER DATA	ACCESS:     246865  HIT:     246840  MISS:         25  HIT %:    99.9899  MISS %:   0.010127  MPKI: 0.0005

STLB AVERAGE MISS LATENCY: 82.7949 cycles
STLB RQ	ACCESS:    1448834	FORWARD:          0	MERGED:     121885	TO_CACHE:    1326949

STLB Hit, L1D data hit: 0
STLB Hit, L2C data hit: 0
STLB Hit, LLC data hit: 0
STLB Hit, LLC data miss: 0
STLB STLB hints to L2: 0
L1D TOTAL     ACCESS:   13407853  HIT:   12291560  MISS:    1116293  HIT %:    91.6743  MISS %:    8.32567   MPKI: 22.3259
L1D LOAD DATA	ACCESS:    6847431  HIT:    6109824  MISS:     737607  HIT %:     89.228  MISS %:     10.772  MPKI: 14.7521
L1D RFO DATA	ACCESS:    6233242  HIT:    5947234  MISS:     286008  HIT %:    95.4116  MISS %:    4.58843  MPKI: 5.72016
L1D PREFETCH DATA	ACCESS:     327180  HIT:     234502  MISS:      92678  HIT %:    71.6737  MISS %:    28.3263  MPKI: 1.85356

L1D PREFETCH  REQUESTED:     737860  ISSUED:     737860  USEFUL:      33917  USELESS:      67107
L1D USEFUL LOAD PREFETCHES:      33917 PREFETCH ISSUED TO LOWER LEVEL:     101123  ACCURACY: 33.5403
 TIMELY PREFETCHES:      33917 LATE PREFETCHES: 8371 DROPPED PREFETCHES: 11
L1D AVERAGE MISS LATENCY: 272515 cycles
L1D RQ	ACCESS:   10917007	FORWARD:          0	MERGED:    3867048	TO_CACHE:    6885697
L1D WQ	ACCESS:    6946539	FORWARD:     164532	MERGED:     171246	TO_CACHE:    6775293
L1D PQ	ACCESS:     369065	FORWARD:          0	MERGED:          0	TO_CACHE:     368795

L1D UNIQUE REGIONS ACCESSED: 0
L1D REGIONS CONFLICTS: 0
L1D Cross Page Prefetch Requests: 6905
L1D Same Page Prefetch Requests: 744468
L1D ROI Sum of L1D PQ occupancy: 4687300
L1D PREFETCHES PUSHED FROM L2C: 0
L1I TOTAL     ACCESS:   11229249  HIT:    7618834  MISS:    3610415  HIT %:    67.8481  MISS %:    32.1519   MPKI: 72.2083
L1I LOAD INSTRUCTION	ACCESS:    6684074  HIT:    6167368  MISS:     516706  HIT %:    92.2696  MISS %:    7.73041  MPKI: 10.3341
L1I PREFETCH INSTRUCTION	ACCESS:    4545175  HIT:    1451466  MISS:    3093709  HIT %:    31.9342  MISS %:    68.0658  MPKI: 61.8742

L1I PREFETCH  REQUESTED:    5103530  ISSUED:    5103497  USEFUL:    2376482  USELESS:     761162
L1I USEFUL LOAD PREFETCHES:    2376482 PREFETCH ISSUED TO LOWER LEVEL:    3137615  ACCURACY: 75.7417
 TIMELY PREFETCHES:    2376482 LATE PREFETCHES: 43904 DROPPED PREFETCHES: 10482
L1I AVERAGE MISS LATENCY: 441333 cycles
L1I RQ	ACCESS:    9429511	FORWARD:          0	MERGED:    2723763	TO_CACHE:    6705748
L1I PQ	ACCESS:    5103497	FORWARD:          0	MERGED:     279325	TO_CACHE:    4824172

L1BTB TOTAL     ACCESS:    5671815  HIT:    2042936  MISS:    3628879  HIT %:    36.0191  MISS %:    63.9809   MPKI: 72.5776
L1BTB BRANCH_DIRECT_JUMP	ACCESS:     549273  HIT:     145257  MISS:     404016	AVERAGE STALL: 19.7803
L1BTB BRANCH_INDIRECT	ACCESS:     183223  HIT:      66177  MISS:     117046	AVERAGE STALL: 77.5128
L1BTB BRANCH_CONDITIONAL	ACCESS:    2709055  HIT:    1415276  MISS:    1293779	AVERAGE STALL: 19.7784
L1BTB BRANCH_DIRECT_CALL	ACCESS:     943782  HIT:     105536  MISS:     838246	AVERAGE STALL: 20.5062
L1BTB BRANCH_INDIRECT_CALL	ACCESS:     171349  HIT:      21053  MISS:     150296	AVERAGE STALL: 103.599
L1BTB BRANCH_RETURN	ACCESS:    1115133  HIT:     289637  MISS:     825496	AVERAGE STALL: 21.7108
L1BTB BRANCH_OTHER ACCESS:          0  HIT:          0  MISS:          0	AVERAGE STALL: -nan
L1BTB TOTAL ROB OCCUPANCY AT BTB MISS: 29.2286

L2BTB TOTAL     ACCESS:    3603481  HIT:    2575218  MISS:    1028263  HIT %:    71.4647  MISS %:    28.5353   MPKI: 20.5653
L2BTB BRANCH_DIRECT_JUMP	ACCESS:     399852  HIT:     283436  MISS:     116416	AVERAGE STALL: 19.7803
L2BTB BRANCH_INDIRECT	ACCESS:     106750  HIT:      93732  MISS:      13018	AVERAGE STALL: 77.5128
L2BTB BRANCH_CONDITIONAL	ACCESS:    1293779  HIT:     922677  MISS:     371102	AVERAGE STALL: 19.7784
L2BTB BRANCH_DIRECT_CALL	ACCESS:     838246  HIT:     572713  MISS:     265533	AVERAGE STALL: 20.5062
L2BTB BRANCH_INDIRECT_CALL	ACCESS:     140758  HIT:      92181  MISS:      48577	AVERAGE STALL: 103.599
L2BTB BRANCH_RETURN	ACCESS:     824096  HIT:     610479  MISS:     213617	AVERAGE STALL: 21.7108
L2BTB BRANCH_OTHER ACCESS:          0  HIT:          0  MISS:          0	AVERAGE STALL: -nan
L2BTB TOTAL ROB OCCUPANCY AT BTB MISS: 103.152

L2C TOTAL     ACCESS:    6590886  HIT:    5538551  MISS:    1052335  HIT %:    84.0335  MISS %:    15.9665   MPKI: 21.0467
L2C LOAD INSTRUCTION	ACCESS:     472802  HIT:     381568  MISS:      91234  HIT %:    80.7036  MISS %:    19.2964  MPKI: 1.82468
L2C PREFETCH INSTRUCTION	ACCESS:    3137613  HIT:    2726370  MISS:     411243  HIT %:    86.8931  MISS %:    13.1069  MPKI: 8.22486
L2C LOAD TRANSLATION INSTRUCTION	ACCESS:        197  HIT:         59  MISS:        138  HIT %:    29.9492  MISS %:    70.0508  MPKI: 0.00276
L2C TRANSLATION FROM L1D PREFETCHER INSTRUCTION	ACCESS:       4571  HIT:       4421  MISS:        150  HIT %:    96.7184  MISS %:    3.28156  MPKI: 0.003
L2C LOAD DATA	ACCESS:     729215  HIT:     576043  MISS:     153172  HIT %:    78.9949  MISS %:    21.0051  MPKI: 3.06344
L2C RFO DATA	ACCESS:     285911  HIT:     204502  MISS:      81409  HIT %:    71.5265  MISS %:    28.4735  MPKI: 1.62818
L2C PREFETCH DATA	ACCESS:    1437069  HIT:    1158591  MISS:     278478  HIT %:    80.6218  MISS %:    19.3782  MPKI: 5.56956
L2C WRITEBACK DATA	ACCESS:     521533  HIT:     486568  MISS:      34965  HIT %:    93.2957  MISS %:    6.70427  MPKI: 0.6993
L2C LOAD TRANSLATION DATA	ACCESS:       1923  HIT:        400  MISS:       1523  HIT %:    20.8008  MISS %:    79.1992  MPKI: 0.03046
L2C TRANSLATION FROM L1D PREFETCHER DATA	ACCESS:         52  HIT:         29  MISS:         23  HIT %:    55.7692  MISS %:    44.2308  MPKI: 0.00046

L2C PREFETCH  REQUESTED:    3256407  ISSUED:    3256407  USEFUL:      34679  USELESS:     657080
L2C USEFUL LOAD PREFETCHES:      34679 PREFETCH ISSUED TO LOWER LEVEL:     690857  ACCURACY: 5.01971
 TIMELY PREFETCHES:      34679 LATE PREFETCHES: 1134 DROPPED PREFETCHES: 0
L2C AVERAGE MISS LATENCY: 33.5448 cycles
L2C RQ	ACCESS:    1494714	FORWARD:          0	MERGED:          0	TO_CACHE:    1494671
L2C WQ	ACCESS:     521533	FORWARD:         43	MERGED:          0	TO_CACHE:     521533
L2C PQ	ACCESS:    6495145	FORWARD:          0	MERGED:    1900748	TO_CACHE:    4594397

L2C Dense regions hint from L2: 0
PSCL5 TOTAL     ACCESS:      11170  HIT:       5585  MISS:       5585  HIT %:         50  MISS %:         50   MPKI: 0.1117
PSCL5 LOAD TRANSLATION INSTRUCTION	ACCESS:       3962  HIT:       1981  MISS:       1981  HIT %:         50  MISS %:         50  MPKI: 0.03962
PSCL5 TRANSLATION FROM L1D PREFETCHER INSTRUCTION	ACCESS:       7208  HIT:       3604  MISS:       3604  HIT %:         50  MISS %:         50  MPKI: 0.07208


PSCL4 TOTAL     ACCESS:      10773  HIT:       5378  MISS:       5395  HIT %:    49.9211  MISS %:    50.0789   MPKI: 0.1079
PSCL4 LOAD TRANSLATION INSTRUCTION	ACCESS:       2166  HIT:       1868  MISS:        298  HIT %:    86.2419  MISS %:    13.7581  MPKI: 0.00596
PSCL4 TRANSLATION FROM L1D PREFETCHER INSTRUCTION	ACCESS:       3812  HIT:       3510  MISS:        302  HIT %:    92.0776  MISS %:    7.92235  MPKI: 0.00604
PSCL4 LOAD TRANSLATION DATA	ACCESS:       1587  HIT:          0  MISS:       1587  HIT %:          0  MISS %:        100  MPKI: 0.03174
PSCL4 TRANSLATION FROM L1D PREFETCHER DATA	ACCESS:       3208  HIT:          0  MISS:       3208  HIT %:          0  MISS %:        100  MPKI: 0.06416


PSCL3 TOTAL     ACCESS:      10855  HIT:       5419  MISS:       5436  HIT %:    49.9217  MISS %:    50.0783   MPKI: 0.10872
PSCL3 LOAD TRANSLATION INSTRUCTION	ACCESS:       2207  HIT:       1909  MISS:        298  HIT %:    86.4975  MISS %:    13.5025  MPKI: 0.00596
PSCL3 TRANSLATION FROM L1D PREFETCHER INSTRUCTION	ACCESS:       3812  HIT:       3510  MISS:        302  HIT %:    92.0776  MISS %:    7.92235  MPKI: 0.00604
PSCL3 LOAD TRANSLATION DATA	ACCESS:       1628  HIT:          0  MISS:       1628  HIT %:          0  MISS %:        100  MPKI: 0.03256
PSCL3 TRANSLATION FROM L1D PREFETCHER DATA	ACCESS:       3208  HIT:          0  MISS:       3208  HIT %:          0  MISS %:        100  MPKI: 0.06416


PSCL2 TOTAL     ACCESS:       9160  HIT:       4515  MISS:       4645  HIT %:    49.2904  MISS %:    50.7096   MPKI: 0.0929
PSCL2 LOAD TRANSLATION INSTRUCTION	ACCESS:       2056  HIT:       1866  MISS:        190  HIT %:    90.7588  MISS %:    9.24125  MPKI: 0.0038
PSCL2 TRANSLATION FROM L1D PREFETCHER INSTRUCTION	ACCESS:       5248  HIT:       2649  MISS:       2599  HIT %:    50.4764  MISS %:    49.5236  MPKI: 0.05198
PSCL2 LOAD TRANSLATION DATA	ACCESS:       1806  HIT:          0  MISS:       1806  HIT %:          0  MISS %:        100  MPKI: 0.03612
PSCL2 TRANSLATION FROM L1D PREFETCHER DATA	ACCESS:         50  HIT:          0  MISS:         50  HIT %:          0  MISS %:        100  MPKI: 0.001


LLC TOTAL     ACCESS:    1143990  HIT:    1113707  MISS:      30283  HIT %:    97.3529  MISS %:    2.64714   MPKI: 0.60566
LLC LOAD INSTRUCTION	ACCESS:      90731  HIT:      90059  MISS:        672  HIT %:    99.2593  MISS %:   0.740651  MPKI: 0.01344
LLC PREFETCH INSTRUCTION	ACCESS:     409123  HIT:     408536  MISS:        587  HIT %:    99.8565  MISS %:   0.143478  MPKI: 0.01174
LLC LOAD TRANSLATION INSTRUCTION	ACCESS:        138  HIT:         94  MISS:         44  HIT %:    68.1159  MISS %:    31.8841  MPKI: 0.00088
LLC TRANSLATION FROM L1D PREFETCHER INSTRUCTION	ACCESS:        150  HIT:        138  MISS:         12  HIT %:         92  MISS %:          8  MPKI: 0.00024
LLC LOAD DATA	ACCESS:     152558  HIT:     148505  MISS:       4053  HIT %:    97.3433  MISS %:    2.65669  MPKI: 0.08106
LLC RFO DATA	ACCESS:      81373  HIT:      67629  MISS:      13744  HIT %:    83.1099  MISS %:    16.8901  MPKI: 0.27488
LLC PREFETCH DATA	ACCESS:     281731  HIT:     270958  MISS:      10773  HIT %:    96.1761  MISS %:    3.82386  MPKI: 0.21546
LLC WRITEBACK DATA	ACCESS:     126640  HIT:     126361  MISS:        279  HIT %:    99.7797  MISS %:    0.22031  MPKI: 0.00558
LLC LOAD TRANSLATION DATA	ACCESS:       1523  HIT:       1405  MISS:        118  HIT %:    92.2521  MISS %:    7.74787  MPKI: 0.00236
LLC TRANSLATION FROM L1D PREFETCHER DATA	ACCESS:         23  HIT:         22  MISS:          1  HIT %:    95.6522  MISS %:    4.34783  MPKI: 2e-05

LLC AVERAGE MISS LATENCY: 156.636 cycles
LLC RQ	ACCESS:     326515	FORWARD:          0	MERGED:          0	TO_CACHE:     326496
LLC WQ	ACCESS:     126640	FORWARD:         20	MERGED:          0	TO_CACHE:     126640
LLC PQ	ACCESS:     690857	FORWARD:          0	MERGED:          0	TO_CACHE:     690856

LLC Dense regions hint to LLC: 0

RAW hits: 1719475
Loads Generated: 12636482
Loads sent to L1D: 10917007
Stores Generated: 6946527
Stores sent to L1D: 6946539
Major fault: 0 Minor fault: 2576
Allocated PAGES: 2576
I-Shadow cache 408 bytes
Touched + WorthPF tables 12288 bytes 
MMA filter 174 bytes 
FNL filter 272 bytes 
TOTAL PREFETCHER STORAGE SIZE: 31318 bytes
CPU 0 L1I next line prefetcher final stats

stream: 
stream:times selected: 1175256
stream:pref_filled: 117109
stream:pref_useful: 22708
stream:pref_late: 7580
stream:misses: 8091
stream:misses_by_poll: 0

CS: 
CS:times selected: 174803
CS:pref_filled: 54027
CS:pref_useful: 30357
CS:pref_late: 13052
CS:misses: 21988
CS:misses_by_poll: 5

CPLX: 
CPLX:times selected: 999352
CPLX:pref_filled: 19245
CPLX:pref_useful: 4072
CPLX:pref_late: 3476
CPLX:misses: 95141
CPLX:misses_by_poll: 1

NL_L1: 
NL:times selected: 20722
NL:pref_filled: 685
NL:pref_useful: 267
NL:pref_late: 407
NL:misses: 1837
NL:misses_by_poll: 0

total selections: 2370133
total_filled: 92678
total_useful: 33917
total_late: 26055
total_polluted: 6
total_misses_after_warmup: 775870
conflicts: 5674248

test: 114051

DRAM Statistics
 CHANNEL 0
 RQ ROW_BUFFER_HIT:      10686  ROW_BUFFER_MISS:      19313
 DBUS_CONGESTED:         11
 WQ ROW_BUFFER_HIT:       1585  ROW_BUFFER_MISS:      12662  FULL:          0

 AVG_CONGESTED_CYCLE: 6

CPU 0 Branch Prediction Accuracy: 99.8033% MPKI: 0.35992 Average ROB Occupancy at Mispredict: 119.972
Branch types
NOT_BRANCH: 40851672 81.7033%
BRANCH_DIRECT_JUMP: 549273 1.09855%
BRANCH_INDIRECT: 183223 0.366446%
BRANCH_CONDITIONAL: 6185129 12.3703%
BRANCH_DIRECT_CALL: 943782 1.88756%
BRANCH_INDIRECT_CALL: 171349 0.342698%
BRANCH_RETURN: 1115133 2.23027%
BRANCH_OTHER: 0 0%

DRAM PAGES: 1048576
Allocated PAGES: 2576
Average_ROB_Occupancy: 122.051
Average_Decode_Occupancy: 10.0174
Average_FTQ_Occupancy: 3.76268
Indirect max targets: 14 Average targets: 1.17516
Branch_type:  BRANCH_DIRECT_JUMP:  Count Percentage: 3.73145 6.39201 3.93549 9.38562 4.0026 3.08013 1.22853 68.2442 
Branch_type:  BRANCH_INDIRECT:  Count Percentage: 11.7585 3.4527 12.1779 8.00241 1.34021 1.1996 1.07704 60.9917 
Branch_type:  BRANCH_CONDITIONAL:  Count Percentage: 21.5228 3.11576 2.39683 6.12267 2.21053 3.10564 0.980673 60.5451 
Branch_type:  BRANCH_DIRECT_CALL:  Count Percentage: 0.772644 1.28538 1.42395 5.34649 3.06716 1.67947 0.764714 85.6602 
Branch_type:  BRANCH_INDIRECT_CALL:  Count Percentage: 9.57468 0.559346 3.00201 4.84747 0.908755 2.99502 0 78.1127 
Branch_type:  BRANCH_RETURN:  Count Percentage: 4.47245 0.700091 2.90235 6.86659 2.89635 4.51249 1.11101 76.5387 
Branch_type:  BRANCH_DIRECT_JUMP:  Total Count: 40928 70110 43166 102945 43902 33784 13475 748528 
Branch_type:  BRANCH_INDIRECT:  Total Count: 42982 12621 44515 29252 4899 4385 3937 222949 
Branch_type:  BRANCH_CONDITIONAL:  Total Count: 2660169 385101 296243 756749 273216 383850 121209 7483241 
Branch_type:  BRANCH_DIRECT_CALL:  Total Count: 14614 24312 26933 101125 58013 31766 14464 1620200 
Branch_type:  BRANCH_INDIRECT_CALL:  Total Count: 32883 1921 10310 16648 3121 10286 0 268268 
Branch_type:  BRANCH_RETURN:  Total Count: 99991 15652 64888 153517 64754 100886 24839 1711181 
Number of unique branch instructions: 10587
Upper 32 bits: 
aaaa
ffff
ffff0000
Unique upper 32 bits: 3
Unique upper 36 bits: 3
Unique upper 40 bits: 5
Unique upper 44 bits: 32
Unique upper 48 bits: 157
Offset_3 4374
Offset_4 255
Offset_5 474
Offset_6 530
Offset_7 628
Offset_8 578
Offset_9 512
Offset_10 415
Offset_11 337
Offset_12 305
Offset_13 239
Offset_14 242
Offset_15 198
Offset_16 221
Offset_17 163
Offset_18 146
Offset_19 256
Offset_20 141
Offset_21 235
Offset_22 405
Offset_23 241
Offset_24 346
Offset_25 117
Offset_47 94
Offset_64 3
decode_dispatch_called: 20827910 45.5962
Dispatch_width: 0 10124269 48.6091 22.1639
Dispatch_width: 1 700682 3.36415 1.53392
Dispatch_width: 2 986109 4.73456 2.15878
Dispatch_width: 3 687908 3.30282 1.50596
Dispatch_width: 4 2096451 10.0656 4.58952
Dispatch_width: 5 517657 2.4854 1.13325
Dispatch_width: 6 5714834 27.4383 12.5108
Empty_decode_cycles: 24851168 54.4038
ROB_full_cycles: 2434836 5.33031
Starvation_cycles_per_kilo_instr: 375.294
Starvation_cycles_per_kilo_instr_3: 349.153
Starvation_cycles_per_kilo_instr_0: 325.406
Branch_type_1  (3,1)  (4,7)  (5,38)  (6,72)  (7,124)  (8,148)  (9,135)  (10,109)  (11,74)  (12,47)  (13,12)  (14,2)  (15,3)  (16,4)  (18,1)  (19,5)  (20,2)  (21,1)  (22,3)  (23,2)  (24,10)  (25,12) 
Branch_type_2  (3,1)  (4,1)  (5,1)  (8,4)  (9,4)  (10,1)  (12,1)  (13,1)  (14,1)  (16,3)  (17,2)  (20,2)  (21,2)  (23,5)  (24,1)  (47,43) 
Branch_type_3  (3,4372)  (4,247)  (5,431)  (6,442)  (7,474)  (8,361)  (9,281)  (10,166)  (11,127)  (12,54)  (13,10)  (64,3) 
Branch_type_4  (6,3)  (7,8)  (8,26)  (9,54)  (10,66)  (11,70)  (12,112)  (13,101)  (14,109)  (15,94)  (16,97)  (17,75)  (18,62)  (19,123)  (20,72)  (21,124)  (22,211)  (23,136)  (24,202)  (25,101) 
Branch_type_5  (8,3)  (9,1)  (10,4)  (11,5)  (12,3)  (13,14)  (14,16)  (15,11)  (16,22)  (17,11)  (18,23)  (19,14)  (20,11)  (21,13)  (22,43)  (23,26)  (24,37) 
Branch_type_6  (5,4)  (6,13)  (7,22)  (8,36)  (9,37)  (10,69)  (11,61)  (12,88)  (13,101)  (14,114)  (15,90)  (16,95)  (17,75)  (18,60)  (19,114)  (20,54)  (21,95)  (22,148)  (23,72)  (24,96)  (25,4)  (47,51) 
Unique trigger count: 
BTB PER SET UNIQUE ADDR: 23 26 21 27 25 27 17 26 16 26 21 30 26 21 23 20 23 21 22 26 21 20 23 26 18 24 25 25 26 23 22 23 27 18 17 23 22 28 17 20 21 23 25 29 20 16 26 17 26 22 28 21 23 28 22 11 20 18 19 26 22 34 24 24 25 29 24 18 28 24 22 23 28 19 19 15 16 24 21 33 27 17 22 29 27 24 28 23 17 39 21 15 25 22 13 27 20 21 28 29 35 31 25 19 23 20 23 25 14 19 20 33 26 20 21 14 26 27 23 26 25 18 21 15 23 18 11 25 33 20 19 30 23 30 19 29 15 29 23 32 22 29 21 23 24 24 29 21 16 22 24 27 17 24 16 31 27 27 29 25 27 22 29 30 21 25 25 17 30 21 23 27 24 25 24 21 23 23 21 28 18 23 20 32 34 31 18 25 28 20 24 18 17 30 25 15 17 25 22 23 28 26 20 19 17 22 23 25 21 26 21 30 23 21 24 24 21 27 18 37 15 28 17 22 21 28 29 25 17 30 22 14 23 31 21 28 27 20 21 18 25 23 30 28 21 23 19 22 25 23 29 30 26 21 27 27 20 17 18 23 25 18 10 22 22 16 21 19 23 23 22 25 20 13 16 18 24 27 23 22 18 25 19 17 26 18 20 33 32 25 25 18 23 28 18 28 24 27 27 23 21 20 20 38 24 29 26 21 32 28 23 31 22 34 27 13 29 20 22 31 22 30 16 22 26 28 25 18 23 17 22 32 19 21 22 27 18 20 18 38 25 25 15 27 26 27 19 27 22 24 25 25 28 24 25 29 25 27 18 17 19 30 21 33 26 26 14 24 27 23 25 18 24 28 19 31 25 28 23 25 24 23 17 15 19 23 29 31 26 23 30 15 27 31 18 17 22 19 31 24 21 26 24 24 29 30 29 26 22 23 29 20 19 29 22 22 23 33 36 35 19 27 24 26 30 19 26 20 27 24 29 23 20 24 29 29 27 20 23 26 27 19 19 31 34 20 17 26 28 24 27 37 25 18 29 34 27 28 18 29 18 22 20 29 35 20 26 24 26 25 25 30 28 25 26 38 26 36 16 25 34 26 21 26 17 27 36 32 27 23 20 27 20 18 22 21 28 25 21 27 21 30 20 34 22 20 18 32 29 28 25 32 25 22 23 28 24 31 19 17 15 22 26 17 24 33 36 16 18 32 27 25 23 24 26 32 20 24 29 24 28 19 27 26 28 30 14 26 17 23 25 33 23 23 21 23 23 23 30 25 23 34 22 25 26 31 22 35 24 31 28 26 31 36 22 29 28 30 21 24 25 27 15 24 26 28 21 24 34 28 22 21 25 16 26 18 15 23 28 21 24 21 23 15 24 26 32 23 19 23 34 26 22 18 11 30 18 29 22 27 31 25 19 20 21 32 20 29 19 26 21 29 32 23 25 23 25 29 22 27 23 28 27 32 27 26 21 26 35 22 16 24 21 19 30 25 24 25 28 23 23 12 28 32 24 26 18 23 19 20 25 23 21 28 33 21 26 26 29 32 20 31 20 28 28 23 22 27 26 27 22 25 22 15 17 22 17 28 19 26 16 26 26 34 14 29 23 18 21 18 22 23 17 22 19 20 33 25 21 28 27 24 25 22 19 24 26 23 18 20 25 20 24 19 24 28 27 32 37 21 21 22 23 25 34 29 21 24 22 20 23 21 26 23 19 22 32 24 20 21 25 14 17 24 24 31 17 26 18 27 24 29 21 18 25 17 31 22 25 30 16 25 21 20 25 22 20 25 21 15 20 13 29 28 23 31 22 18 29 23 35 23 33 30 34 20 25 23 26 21 20 37 29 28 19 26 36 30 13 27 26 32 17 29 25 24 20 28 26 28 24 29 27 23 18 28 25 24 25 24 27 25 22 24 25 27 20 36 22 25 24 21 18 23 30 31 32 29 28 28 26 24 19 28 29 17 24 18 31 21 22 28 29 22 23 13 25 21 19 24 29 16 21 31 25 25 31 23 26 22 25 19 22 24 23 29 31 24 21 19 23 23 23 27 14 30 22 28 21 32 18 24 24 25 26 27 36 22 24 26 24 25 20 25 22 20 14 29 21 17 30 34 29 18 22 32 22 22 26 27 17 29 24 22 23 25 24 28 24 26 23 23 20 25 21 25 27 24 27 25 25 26 21 34 30 23 29 24 19 27 24 28 30 22 29 20 35 33 29 32 19 31 26 24 22 33 39 20 27 23 28 26 25 22 23 20 22 26 33 23 32 31 20 23 28 27 18 33 20 28 27 27 28 18 18 23 14 19 10 15 21 29 24 15 
BTB PER SET COUNT: 2184 2314 2863 2119 2816 2033 1965 1714 1651 2212 1295 2664 12432 1797 1865 1086 2177 2202 1693 2250 1782 1693 2229 2183 1146 1963 2134 2022 2158 1777 1852 2385 2147 854 1290 1968 2042 2475 1073 2326 1597 1585 2524 2329 1747 672 2066 1613 2064 1719 2389 1379 2099 2245 1787 888 1532 1433 1382 2099 1775 3140 2089 1902 2466 2157 1650 1678 2256 2029 2592 2037 2597 1511 1233 905 871 2103 1520 2696 2518 1030 1981 2580 2006 1744 2183 2218 1805 3921 1468 1416 2204 1917 876 2071 1531 1507 2159 4177 3663 2755 2210 1621 3298 1319 1718 2347 1589 3335 1900 2822 2372 1564 1734 1093 2119 2387 2453 1950 2368 1399 1725 1109 1893 1681 690 2693 3391 1822 1409 3155 1489 2584 1749 2245 1457 2247 1607 2798 1733 2256 1783 1858 1808 1757 2698 1398 1031 1669 1772 2097 1499 1657 935 2868 2620 2284 2210 2483 2131 1839 2582 2286 1629 2223 1901 1482 2225 1793 1544 2353 2024 1865 2064 1978 1771 1600 1725 2427 1600 1950 1991 2088 2800 3102 1019 2019 2393 2177 1833 1429 1202 2640 2158 1336 1298 1920 1670 1653 2018 1915 1803 1576 1125 1945 1777 1927 1858 2386 1528 2186 1332 3520 1984 2281 1595 2405 1744 3533 1085 2248 1420 1669 1559 2133 2821 2246 1384 3261 1573 575 1604 2328 1398 5906 2394 1658 2135 1195 1933 1866 2962 2767 1791 2074 1344 1837 2130 1570 1971 2071 1972 1579 2026 2528 1512 1365 1311 1704 2192 1460 340 1929 2115 794 1780 1462 2200 1874 1638 1801 1064 894 1511 1246 2162 2401 1949 2023 1060 2213 1420 1685 2136 1591 1265 2840 3014 2399 2049 1143 1920 2552 1091 2698 2316 2071 1796 2140 1583 1512 1895 3053 2011 2768 1934 1861 2920 2323 2600 2240 1349 3008 3140 1409 2520 1829 1651 2824 1568 3019 1129 1624 2688 2447 2328 1302 1630 1080 1740 2968 1240 1451 1906 1768 1285 1761 1194 3734 1963 2888 1196 2005 2424 1829 1306 1660 1840 2049 2144 1909 2306 1844 1696 2505 2077 2558 1631 1389 1339 2868 1443 2708 1849 2940 758 1692 1904 1541 2165 1322 2195 2205 1286 2858 1866 2514 1716 2439 2369 2140 1624 923 1138 1774 2950 2521 2193 2324 2192 994 2285 2241 1405 1227 1447 1382 2719 2197 1646 2030 2009 1626 2198 2220 2203 2245 1400 2068 1988 1309 1437 2537 1677 1900 1818 4032 3281 2584 1471 2134 2390 1982 2427 1722 2734 1434 1628 1838 2804 2107 1407 1611 2650 2310 1813 1592 1723 1893 2744 1461 1338 2732 3011 1737 1356 1976 2366 1924 2399 3927 1835 1718 2652 3357 1977 2685 1296 2319 1348 1892 1490 2504 2722 1734 6556 1916 2425 2252 2086 2029 1924 1745 1944 2959 1859 3105 1184 1856 2672 2461 1643 2177 1439 1932 3372 2572 2568 1896 1749 2212 4746 1061 1029 1756 2714 2584 1551 2309 1478 2814 1387 3260 1547 1379 1279 2959 2574 1976 1863 3206 2609 2427 1642 2625 1443 2868 1236 1326 868 1962 2144 1170 1824 2885 3441 2102 1152 4058 3033 2128 2035 1763 2401 2480 2285 2501 2026 2007 2316 1766 2570 2060 2342 2700 1001 2264 1266 2515 1784 2766 2177 2241 1475 1448 1905 1902 2400 2217 1388 2959 1663 1973 2195 2573 1838 2234 1766 2467 2672 2235 3074 2921 2101 2639 2694 2570 1764 2022 2385 2283 1069 3014 2131 2401 1692 2066 3069 2732 1914 1819 2181 1040 1944 1340 2086 2410 1966 1463 1398 1728 1839 966 2105 2195 2617 2672 1295 1666 2945 2548 2094 1163 709 2672 1017 2403 2193 2309 2913 1835 1090 1542 1599 2889 1635 2857 2123 1984 1638 3091 3137 1835 1826 1753 2231 2576 1658 2399 2104 2226 2628 2695 2981 2367 1428 2418 3645 1239 1079 2221 1187 1779 3120 1855 1622 1784 2357 2009 2090 653 2446 2720 7383 2577 1378 1959 2118 1863 1690 1794 1530 2201 3047 1958 1976 2649 2329 3084 1869 2764 1851 2337 2758 2043 1753 1965 2155 2430 1532 2618 2177 903 1630 1737 1686 2481 1603 1924 1344 2383 2412 2884 834 2270 1927 1371 1202 1162 1989 2205 1212 1866 1778 1501 3200 2218 1472 2747 2334 2369 1566 1834 1701 1658 1677 2384 1748 1738 2293 5767 1745 1809 1805 2276 2339 3132 3702 1669 1870 1473 1925 2309 2975 2748 2184 1753 2075 1610 2523 1543 2711 2026 1226 1959 2654 2106 1786 1158 2120 1032 795 1856 2900 2777 1192 2004 1201 2144 1768 2449 1668 1500 2112 1335 2416 1936 1507 2753 1730 2274 2004 1646 1949 1874 1350 2354 1524 1071 1248 1470 2249 2345 1769 2817 1867 1370 1720 2194 3211 1936 2605 2575 2902 1562 1915 1931 1867 1592 1443 4803 2890 2328 1817 2966 2751 2998 1111 2814 1904 2806 1206 2397 2831 2057 1470 2115 2201 2708 1967 3029 2145 2023 1220 2756 1957 1836 2380 1908 2382 2122 2045 1871 2154 2190 1617 3269 1535 5731 2536 1997 1509 1693 2696 2720 2816 2395 2420 2213 2671 1878 1758 2034 2623 1074 1869 987 2829 1484 1579 2719 2311 1700 1970 937 1664 2009 2416 2048 2164 934 1503 2790 2305 2219 2397 1953 1900 1940 2313 1236 2968 2606 1456 2446 2933 1670 1525 1666 2098 1703 1857 2159 750 2276 1634 2647 1742 2868 1698 1905 1995 2334 2555 2438 3683 2024 2004 2084 2047 2119 1436 2380 1357 1548 676 2616 1200 1185 2194 2773 3113 1450 1867 3237 1895 1655 2404 2463 1359 3182 2074 1561 1927 2113 1735 2478 2128 2177 2243 2425 2009 3675 1649 2118 2440 1738 2020 2359 2048 2145 1678 2685 2451 1431 2831 2227 1425 2195 1942 2706 2464 1716 2598 1605 3343 2237 2806 3169 1844 2286 2340 2096 1462 3312 4281 1382 2583 2223 2185 2675 1830 1852 2456 1912 1542 2783 2237 2248 2653 3173 1627 1853 2244 2091 1494 3195 1740 2441 2585 2346 2471 1340 1412 1877 967 1638 484 1155 1526 3007 2092 1008 
