
*** ChampSim Multicore Out-of-Order Simulator ***

Warmup Instructions: 50000000
Simulation Instructions: 50000000
Number of CPUs: 1
LLC sets: 2048
LLC ways: 16
Off-chip DRAM Size: 4096 MB Channels: 1 Width: 64-bit Data Rate: 6400 MT/s
CPU 0 runs ./micro_traces/srv388.trace.gz
.gz
ITLB has LRU replacement policy
DTLB has LRU replacement policy
STLB has LRU replacement policy
FDIP Prefetcher at L1I
L1I has LRU replacement policy
L1D has LRU replacement policy
Initialize SRRIP state for L2C
Initialize DRRIP state for LLC
Heartbeat_Variant_0 : 1342 0.327637 per_variant_size: 0 1342 0 0 0 0 0 0 0 
Heartbeat_Variant_1 : 2562 0.625488 per_variant_size: 0 514 2048 0 0 0 0 0 0 
Heartbeat_Variant_2 : 0 0 per_variant_size: 0 0 0 0 0 0 0 0 0 
Heartbeat_Variant_3 : 0 0 per_variant_size: 0 0 0 0 0 0 0 0 0 
Heartbeat_Variant_0_evicts 0 : 5850 1 : 527 2 : 0 3 : 0 
Heartbeat_Variant_1_evicts 0 : 487 1 : 0 2 : 0 3 : 0 
Heartbeat_Variant_2_evicts 0 : 0 1 : 0 2 : 0 3 : 0 
Heartbeat_Variant_3_evicts 0 : 0 1 : 0 2 : 0 3 : 0 
Heartbeat CPU 0 instructions: 10000003 cycles: 2801254 heartbeat IPC: 3.56983 cumulative IPC: 3.56983 (Simulation time: 0 hr 2 min 13 sec) 
Heartbeat_Variant_0 : 1360 0.332031 per_variant_size: 0 1360 0 0 0 0 0 0 0 
Heartbeat_Variant_1 : 2584 0.630859 per_variant_size: 0 498 2086 0 0 0 0 0 0 
Heartbeat_Variant_2 : 0 0 per_variant_size: 0 0 0 0 0 0 0 0 0 
Heartbeat_Variant_3 : 0 0 per_variant_size: 0 0 0 0 0 0 0 0 0 
Heartbeat_Variant_0_evicts 0 : 5700 1 : 179 2 : 0 3 : 0 
Heartbeat_Variant_1_evicts 0 : 176 1 : 0 2 : 0 3 : 0 
Heartbeat_Variant_2_evicts 0 : 0 1 : 0 2 : 0 3 : 0 
Heartbeat_Variant_3_evicts 0 : 0 1 : 0 2 : 0 3 : 0 
Heartbeat CPU 0 instructions: 20000000 cycles: 5600964 heartbeat IPC: 3.5718 cumulative IPC: 3.57081 (Simulation time: 0 hr 4 min 22 sec) 
Heartbeat_Variant_0 : 1359 0.331787 per_variant_size: 0 1359 0 0 0 0 0 0 0 
Heartbeat_Variant_1 : 2588 0.631836 per_variant_size: 0 494 2094 0 0 0 0 0 0 
Heartbeat_Variant_2 : 0 0 per_variant_size: 0 0 0 0 0 0 0 0 0 
Heartbeat_Variant_3 : 0 0 per_variant_size: 0 0 0 0 0 0 0 0 0 
Heartbeat_Variant_0_evicts 0 : 5689 1 : 23 2 : 0 3 : 0 
Heartbeat_Variant_1_evicts 0 : 25 1 : 0 2 : 0 3 : 0 
Heartbeat_Variant_2_evicts 0 : 0 1 : 0 2 : 0 3 : 0 
Heartbeat_Variant_3_evicts 0 : 0 1 : 0 2 : 0 3 : 0 
Heartbeat CPU 0 instructions: 30000001 cycles: 8400773 heartbeat IPC: 3.57167 cumulative IPC: 3.5711 (Simulation time: 0 hr 6 min 38 sec) 
Heartbeat_Variant_0 : 1381 0.337158 per_variant_size: 0 1381 0 0 0 0 0 0 0 
Heartbeat_Variant_1 : 2666 0.650879 per_variant_size: 0 409 2257 0 0 0 0 0 0 
Heartbeat_Variant_2 : 0 0 per_variant_size: 0 0 0 0 0 0 0 0 0 
Heartbeat_Variant_3 : 0 0 per_variant_size: 0 0 0 0 0 0 0 0 0 
Heartbeat_Variant_0_evicts 0 : 5979 1 : 760 2 : 0 3 : 0 
Heartbeat_Variant_1_evicts 0 : 757 1 : 0 2 : 0 3 : 0 
Heartbeat_Variant_2_evicts 0 : 0 1 : 0 2 : 0 3 : 0 
Heartbeat_Variant_3_evicts 0 : 0 1 : 0 2 : 0 3 : 0 
Heartbeat CPU 0 instructions: 40000003 cycles: 11201318 heartbeat IPC: 3.57073 cumulative IPC: 3.57101 (Simulation time: 0 hr 8 min 45 sec) 
Heartbeat_Variant_0 : 1385 0.338135 per_variant_size: 0 1385 0 0 0 0 0 0 0 
Heartbeat_Variant_1 : 2666 0.650879 per_variant_size: 0 402 2264 0 0 0 0 0 0 
Heartbeat_Variant_2 : 0 0 per_variant_size: 0 0 0 0 0 0 0 0 0 
Heartbeat_Variant_3 : 0 0 per_variant_size: 0 0 0 0 0 0 0 0 0 
Heartbeat_Variant_0_evicts 0 : 5726 1 : 270 2 : 0 3 : 0 
Heartbeat_Variant_1_evicts 0 : 267 1 : 0 2 : 0 3 : 0 
Heartbeat_Variant_2_evicts 0 : 0 1 : 0 2 : 0 3 : 0 
Heartbeat_Variant_3_evicts 0 : 0 1 : 0 2 : 0 3 : 0 
Heartbeat CPU 0 instructions: 50000000 cycles: 14000788 heartbeat IPC: 3.5721 cumulative IPC: 3.57123 (Simulation time: 0 hr 10 min 48 sec) 

Warmup complete CPU 0 instructions: 50000002 cycles: 14000789 (Simulation time: 0 hr 10 min 48 sec) 

Cycle: 20000000 FTQ IN: 58282079 FTQ occupancy: 20.4676 DECODE IN: 58282043 DECODE occupancy: 52.9791 ROB IN: 58282026 ROB occupancy: 316.553 ROB OUT: 58281894
Heartbeat_Variant_0 : 1377 0.336182 per_variant_size: 0 1377 0 0 0 0 0 0 0 
Heartbeat_Variant_1 : 2686 0.655762 per_variant_size: 0 395 2291 0 0 0 0 0 0 
Heartbeat_Variant_2 : 0 0 per_variant_size: 0 0 0 0 0 0 0 0 0 
Heartbeat_Variant_3 : 0 0 per_variant_size: 0 0 0 0 0 0 0 0 0 
Heartbeat_Variant_0_evicts 0 : 5850 1 : 465 2 : 0 3 : 0 
Heartbeat_Variant_1_evicts 0 : 473 1 : 0 2 : 0 3 : 0 
Heartbeat_Variant_2_evicts 0 : 0 1 : 0 2 : 0 3 : 0 
Heartbeat_Variant_3_evicts 0 : 0 1 : 0 2 : 0 3 : 0 
Heartbeat CPU 0 instructions: 60000003 cycles: 21329740 heartbeat IPC: 1.36445 cumulative IPC: 1.36445 (Simulation time: 0 hr 13 min 29 sec) 
Heartbeat_Variant_0 : 1374 0.335449 per_variant_size: 0 1374 0 0 0 0 0 0 0 
Heartbeat_Variant_1 : 2691 0.656982 per_variant_size: 0 413 2278 0 0 0 0 0 0 
Heartbeat_Variant_2 : 0 0 per_variant_size: 0 0 0 0 0 0 0 0 0 
Heartbeat_Variant_3 : 0 0 per_variant_size: 0 0 0 0 0 0 0 0 0 
Heartbeat_Variant_0_evicts 0 : 5579 1 : 118 2 : 0 3 : 0 
Heartbeat_Variant_1_evicts 0 : 121 1 : 0 2 : 0 3 : 0 
Heartbeat_Variant_2_evicts 0 : 0 1 : 0 2 : 0 3 : 0 
Heartbeat_Variant_3_evicts 0 : 0 1 : 0 2 : 0 3 : 0 
Heartbeat CPU 0 instructions: 70000000 cycles: 28539131 heartbeat IPC: 1.38708 cumulative IPC: 1.37567 (Simulation time: 0 hr 16 min 6 sec) 
Cycle: 30000000 FTQ IN: 13750881 FTQ occupancy: 15.0639 DECODE IN: 13750806 DECODE occupancy: 37.7356 ROB IN: 13750763 ROB occupancy: 247.23 ROB OUT: 13750547
Heartbeat_Variant_0 : 1379 0.33667 per_variant_size: 0 1379 0 0 0 0 0 0 0 
Heartbeat_Variant_1 : 2690 0.656738 per_variant_size: 0 402 2288 0 0 0 0 0 0 
Heartbeat_Variant_2 : 0 0 per_variant_size: 0 0 0 0 0 0 0 0 0 
Heartbeat_Variant_3 : 0 0 per_variant_size: 0 0 0 0 0 0 0 0 0 
Heartbeat_Variant_0_evicts 0 : 5662 1 : 213 2 : 0 3 : 0 
Heartbeat_Variant_1_evicts 0 : 209 1 : 0 2 : 0 3 : 0 
Heartbeat_Variant_2_evicts 0 : 0 1 : 0 2 : 0 3 : 0 
Heartbeat_Variant_3_evicts 0 : 0 1 : 0 2 : 0 3 : 0 
Heartbeat CPU 0 instructions: 80000003 cycles: 35756692 heartbeat IPC: 1.38551 cumulative IPC: 1.37894 (Simulation time: 0 hr 18 min 50 sec) 
Cycle: 40000000 FTQ IN: 13711257 FTQ occupancy: 14.8697 DECODE IN: 13711263 DECODE occupancy: 37.1724 ROB IN: 13711263 ROB occupancy: 245.552 ROB OUT: 13711263
Heartbeat_Variant_0 : 1382 0.337402 per_variant_size: 0 1382 0 0 0 0 0 0 0 
Heartbeat_Variant_1 : 2689 0.656494 per_variant_size: 0 418 2271 0 0 0 0 0 0 
Heartbeat_Variant_2 : 0 0 per_variant_size: 0 0 0 0 0 0 0 0 0 
Heartbeat_Variant_3 : 0 0 per_variant_size: 0 0 0 0 0 0 0 0 0 
Heartbeat_Variant_0_evicts 0 : 5669 1 : 267 2 : 0 3 : 0 
Heartbeat_Variant_1_evicts 0 : 264 1 : 0 2 : 0 3 : 0 
Heartbeat_Variant_2_evicts 0 : 0 1 : 0 2 : 0 3 : 0 
Heartbeat_Variant_3_evicts 0 : 0 1 : 0 2 : 0 3 : 0 
Heartbeat CPU 0 instructions: 90000003 cycles: 43074477 heartbeat IPC: 1.36653 cumulative IPC: 1.37581 (Simulation time: 0 hr 21 min 37 sec) 
Cycle: 50000000 FTQ IN: 13851824 FTQ occupancy: 14.9909 DECODE IN: 13851860 DECODE occupancy: 37.932 ROB IN: 13851860 ROB occupancy: 249.09 ROB OUT: 13851860
Heartbeat_Variant_0 : 1381 0.337158 per_variant_size: 0 1381 0 0 0 0 0 0 0 
Heartbeat_Variant_1 : 2690 0.656738 per_variant_size: 0 412 2278 0 0 0 0 0 0 
Heartbeat_Variant_2 : 0 0 per_variant_size: 0 0 0 0 0 0 0 0 0 
Heartbeat_Variant_3 : 0 0 per_variant_size: 0 0 0 0 0 0 0 0 0 
Heartbeat_Variant_0_evicts 0 : 5553 1 : 56 2 : 0 3 : 0 
Heartbeat_Variant_1_evicts 0 : 57 1 : 0 2 : 0 3 : 0 
Heartbeat_Variant_2_evicts 0 : 0 1 : 0 2 : 0 3 : 0 
Heartbeat_Variant_3_evicts 0 : 0 1 : 0 2 : 0 3 : 0 
Heartbeat CPU 0 instructions: 100000000 cycles: 50293655 heartbeat IPC: 1.3852 cumulative IPC: 1.37768 (Simulation time: 0 hr 25 min 1 sec) 
Finished CPU 0 instructions: 50000002 cycles: 36292867 cumulative IPC: 1.37768 (Simulation time: 0 hr 25 min 1 sec) 

ChampSim completed all CPUs

Region of Interest Statistics

CPU 0 cumulative IPC: 1.37768 instructions: 50000002 cycles: 36292867
 Fetch stage stalled: 46.4039  Sim cycles: 36292867 fetch stall cycle: 16841292
 Empty decode stage: 26.8186  Sim cycles: 36292867 fetch stall cycle: 9733236
ITLB TOTAL     ACCESS:    5863254  HIT:    5366626  MISS:     496628  HIT %:    91.5298  MISS %:    8.47018   MPKI: 9.93256
ITLB LOAD TRANSLATION INSTRUCTION	ACCESS:    5727823  HIT:    5231195  MISS:     496628  HIT %:    91.3296  MISS %:    8.67045  MPKI: 9.93256
ITLB TRANSLATION FROM L1D PREFETCHER INSTRUCTION	ACCESS:     135431  HIT:     135431  MISS:          0  HIT %:        100  MISS %:          0  MPKI: 0

ITLB AVERAGE MISS LATENCY: 9.04942 cycles
ITLB RQ	ACCESS:    7973016	FORWARD:          0	MERGED:    1622378	TO_CACHE:    6350638

DTLB TOTAL     ACCESS:    8961408  HIT:    8487271  MISS:     474137  HIT %:    94.7091  MISS %:    5.29088   MPKI: 9.48274
DTLB LOAD TRANSLATION DATA	ACCESS:    8961408  HIT:    8487271  MISS:     474137  HIT %:    94.7091  MISS %:    5.29088  MPKI: 9.48274

DTLB AVERAGE MISS LATENCY: 9.31127 cycles
DTLB RQ	ACCESS:   13334502	FORWARD:          0	MERGED:    4336645	TO_CACHE:    8997857

STLB TOTAL     ACCESS:    1216556  HIT:    1214507  MISS:       2049  HIT %:    99.8316  MISS %:   0.168426   MPKI: 0.04098
STLB LOAD TRANSLATION INSTRUCTION	ACCESS:     496628  HIT:     496416  MISS:        212  HIT %:    99.9573  MISS %:  0.0426879  MPKI: 0.00424
STLB LOAD TRANSLATION DATA	ACCESS:     474137  HIT:     472314  MISS:       1823  HIT %:    99.6155  MISS %:   0.384488  MPKI: 0.03646
STLB TRANSLATION FROM L1D PREFETCHER DATA	ACCESS:     245791  HIT:     245777  MISS:         14  HIT %:    99.9943  MISS %:  0.0056959  MPKI: 0.00028

STLB AVERAGE MISS LATENCY: 68.327 cycles
STLB RQ	ACCESS:    1335755	FORWARD:          0	MERGED:     119171	TO_CACHE:    1216584

STLB Hit, L1D data hit: 0
STLB Hit, L2C data hit: 0
STLB Hit, LLC data hit: 0
STLB Hit, LLC data miss: 0
STLB STLB hints to L2: 0
L1D TOTAL     ACCESS:   13075673  HIT:   11953908  MISS:    1121765  HIT %:     91.421  MISS %:    8.57902   MPKI: 22.4353
L1D LOAD DATA	ACCESS:    6545171  HIT:    5803081  MISS:     742090  HIT %:     88.662  MISS %:     11.338  MPKI: 14.8418
L1D RFO DATA	ACCESS:    6206461  HIT:    5921864  MISS:     284597  HIT %:    95.4145  MISS %:     4.5855  MPKI: 5.69194
L1D PREFETCH DATA	ACCESS:     324041  HIT:     228963  MISS:      95078  HIT %:    70.6587  MISS %:    29.3413  MPKI: 1.90156

L1D PREFETCH  REQUESTED:     730361  ISSUED:     730361  USEFUL:      33978  USELESS:      68604
L1D USEFUL LOAD PREFETCHES:      33978 PREFETCH ISSUED TO LOWER LEVEL:     102706  ACCURACY: 33.0828
 TIMELY PREFETCHES:      33978 LATE PREFETCHES: 7505 DROPPED PREFETCHES: 1
L1D AVERAGE MISS LATENCY: 215695 cycles
L1D RQ	ACCESS:   10678539	FORWARD:          0	MERGED:    3931046	TO_CACHE:    6581643
L1D WQ	ACCESS:    6952044	FORWARD:     166233	MERGED:     199185	TO_CACHE:    6752859
L1D PQ	ACCESS:     365372	FORWARD:          0	MERGED:          0	TO_CACHE:     364989

L1D UNIQUE REGIONS ACCESSED: 0
L1D REGIONS CONFLICTS: 0
L1D Cross Page Prefetch Requests: 5636
L1D Same Page Prefetch Requests: 748021
L1D ROI Sum of L1D PQ occupancy: 4636330
L1D PREFETCHES PUSHED FROM L2C: 0
L1I TOTAL     ACCESS:    6768210  HIT:    2553553  MISS:    4214657  HIT %:    37.7286  MISS %:    62.2714   MPKI: 84.2931
L1I LOAD INSTRUCTION	ACCESS:    6372472  HIT:    2167305  MISS:    4205167  HIT %:    34.0104  MISS %:    65.9896  MPKI: 84.1033
L1I PREFETCH INSTRUCTION	ACCESS:     395738  HIT:     386248  MISS:       9490  HIT %:    97.6019  MISS %:    2.39805  MPKI: 0.1898

L1I PREFETCH  REQUESTED:    1608689  ISSUED:    1608689  USEFUL:       5067  USELESS:       9490
L1I USEFUL LOAD PREFETCHES:       5067 PREFETCH ISSUED TO LOWER LEVEL:      14557  ACCURACY: 34.808
 TIMELY PREFETCHES:       5067 LATE PREFETCHES: 5067 DROPPED PREFETCHES: 0
L1I AVERAGE MISS LATENCY: 38617.7 cycles
L1I RQ	ACCESS:    9568634	FORWARD:          0	MERGED:    2781401	TO_CACHE:    6787233
L1I PQ	ACCESS:    1608689	FORWARD:          0	MERGED:     422906	TO_CACHE:    1185783

L1BTB TOTAL     ACCESS:    5671876  HIT:    2030299  MISS:    3641577  HIT %:    35.7959  MISS %:    64.2041   MPKI: 72.8315
L1BTB BRANCH_DIRECT_JUMP	ACCESS:     547661 HIT:     143378 MISS:     404283 AVERAGE STALL: 58.0535 AVERAGE FETCH STALL: 20.071 AVERAGE FETCH QUEUE STALL: 17.7061 AVERAGE DECODE STALL: 19.3462 AVERAGE EXECUTE STALL: 2.355e+15
L1BTB BRANCH_INDIRECT	ACCESS:     182452 HIT:      65576 MISS:     116876 AVERAGE STALL: 117.738 AVERAGE FETCH STALL: 20.7078 AVERAGE FETCH QUEUE STALL: 10.8815 AVERAGE DECODE STALL: 11.9705 AVERAGE EXECUTE STALL: 73.2146
L1BTB BRANCH_CONDITIONAL	ACCESS:    2701293 HIT:    1404847 MISS:    1296446 AVERAGE STALL: 66.0028 AVERAGE FETCH STALL: 23.0438 AVERAGE FETCH QUEUE STALL: 22.4277 AVERAGE DECODE STALL: 19.7429 AVERAGE EXECUTE STALL: 2.91464e+15
L1BTB BRANCH_DIRECT_CALL	ACCESS:     948360 HIT:     105212 MISS:     843148 AVERAGE STALL: 72.0233 AVERAGE FETCH STALL: 26.1695 AVERAGE FETCH QUEUE STALL: 27.4226 AVERAGE DECODE STALL: 17.6369 AVERAGE EXECUTE STALL: 8.24989e+15
L1BTB BRANCH_INDIRECT_CALL	ACCESS:     171879 HIT:      20949 MISS:     150930 AVERAGE STALL: 143.378 AVERAGE FETCH STALL: 13.4057 AVERAGE FETCH QUEUE STALL: 18.8854 AVERAGE DECODE STALL: 11.9329 AVERAGE EXECUTE STALL: 98.6604
L1BTB BRANCH_RETURN	ACCESS:    1120231 HIT:     290337 MISS:     829894 AVERAGE STALL: 52.6182 AVERAGE FETCH STALL: 19.7788 AVERAGE FETCH QUEUE STALL: 5.68205 AVERAGE DECODE STALL: 6.63406 AVERAGE EXECUTE STALL: 4.20506e+14
L1BTB BRANCH_OTHER ACCESS:          0 HIT:          0 MISS:          0 AVERAGE STALL: -nan AVERAGE FETCH STALL: -nan AVERAGE FETCH QUEUE STALL: -nan AVERAGE DECODE STALL: -nan AVERAGE EXECUTE STALL: -nan
L1BTB TOTAL ROB OCCUPANCY AT BTB MISS: 2.84119

L2BTB TOTAL     ACCESS:    3616279  HIT:    3548408  MISS:      67871  HIT %:    98.1232  MISS %:    1.87682   MPKI: 1.35742
L2BTB BRANCH_DIRECT_JUMP	ACCESS:     400186 HIT:     396435 MISS:       3751 AVERAGE STALL: 58.0535 AVERAGE FETCH STALL: 20.071 AVERAGE FETCH QUEUE STALL: 17.7061 AVERAGE DECODE STALL: 19.3462 AVERAGE EXECUTE STALL: 2.355e+15
L2BTB BRANCH_INDIRECT	ACCESS:     106563 HIT:     103808 MISS:       2755 AVERAGE STALL: 117.738 AVERAGE FETCH STALL: 20.7078 AVERAGE FETCH QUEUE STALL: 10.8815 AVERAGE DECODE STALL: 11.9705 AVERAGE EXECUTE STALL: 73.2146
L2BTB BRANCH_CONDITIONAL	ACCESS:    1296446 HIT:    1290032 MISS:       6414 AVERAGE STALL: 66.0028 AVERAGE FETCH STALL: 23.0438 AVERAGE FETCH QUEUE STALL: 22.4277 AVERAGE DECODE STALL: 19.7429 AVERAGE EXECUTE STALL: 2.91464e+15
L2BTB BRANCH_DIRECT_CALL	ACCESS:     843148 HIT:     840874 MISS:       2274 AVERAGE STALL: 72.0233 AVERAGE FETCH STALL: 26.1695 AVERAGE FETCH QUEUE STALL: 27.4226 AVERAGE DECODE STALL: 17.6369 AVERAGE EXECUTE STALL: 8.24989e+15
L2BTB BRANCH_INDIRECT_CALL	ACCESS:     141460 HIT:     131264 MISS:      10196 AVERAGE STALL: 143.378 AVERAGE FETCH STALL: 13.4057 AVERAGE FETCH QUEUE STALL: 18.8854 AVERAGE DECODE STALL: 11.9329 AVERAGE EXECUTE STALL: 98.6604
L2BTB BRANCH_RETURN	ACCESS:     828476 HIT:     785995 MISS:      42481 AVERAGE STALL: 52.6182 AVERAGE FETCH STALL: 19.7788 AVERAGE FETCH QUEUE STALL: 5.68205 AVERAGE DECODE STALL: 6.63406 AVERAGE EXECUTE STALL: 4.20506e+14
L2BTB BRANCH_OTHER ACCESS:          0 HIT:          0 MISS:          0 AVERAGE STALL: -nan AVERAGE FETCH STALL: -nan AVERAGE FETCH QUEUE STALL: -nan AVERAGE DECODE STALL: -nan AVERAGE EXECUTE STALL: -nan
L2BTB TOTAL ROB OCCUPANCY AT BTB MISS: 152.442

L2C TOTAL     ACCESS:    5964666  HIT:    5472244  MISS:     492422  HIT %:    91.7443  MISS %:    8.25565   MPKI: 9.84844
L2C LOAD INSTRUCTION	ACCESS:    4200103  HIT:    3945663  MISS:     254440  HIT %:    93.9421  MISS %:    6.05795  MPKI: 5.0888
L2C PREFETCH INSTRUCTION	ACCESS:      14557  HIT:      14557  MISS:          0  HIT %:        100  MISS %:          0  MPKI: 0
L2C LOAD TRANSLATION INSTRUCTION	ACCESS:        248  HIT:         53  MISS:        195  HIT %:     21.371  MISS %:     78.629  MPKI: 0.0039
L2C LOAD DATA	ACCESS:     734003  HIT:     651056  MISS:      82947  HIT %:    88.6994  MISS %:    11.3006  MPKI: 1.65894
L2C RFO DATA	ACCESS:     284455  HIT:     227796  MISS:      56659  HIT %:    80.0816  MISS %:    19.9184  MPKI: 1.13318
L2C PREFETCH DATA	ACCESS:     205619  HIT:     125702  MISS:      79917  HIT %:    61.1335  MISS %:    38.8665  MPKI: 1.59834
L2C WRITEBACK DATA	ACCESS:     523761  HIT:     506817  MISS:      16944  HIT %:    96.7649  MISS %:    3.23506  MPKI: 0.33888
L2C LOAD TRANSLATION DATA	ACCESS:       1900  HIT:        585  MISS:       1315  HIT %:    30.7895  MISS %:    69.2105  MPKI: 0.0263
L2C TRANSLATION FROM L1D PREFETCHER DATA	ACCESS:         20  HIT:         15  MISS:          5  HIT %:         75  MISS %:         25  MPKI: 0.0001

L2C PREFETCH  REQUESTED:     111529  ISSUED:     111529  USEFUL:       8663  USELESS:      71740
L2C USEFUL LOAD PREFETCHES:       8663 PREFETCH ISSUED TO LOWER LEVEL:      80369  ACCURACY: 10.779
 TIMELY PREFETCHES:       8663 LATE PREFETCHES: 453 DROPPED PREFETCHES: 0
L2C AVERAGE MISS LATENCY: 37.6881 cycles
L2C RQ	ACCESS:    5221331	FORWARD:          0	MERGED:        566	TO_CACHE:    5220731
L2C WQ	ACCESS:     523761	FORWARD:         34	MERGED:          0	TO_CACHE:     523761
L2C PQ	ACCESS:     228792	FORWARD:          0	MERGED:       4150	TO_CACHE:     224642

L2C Dense regions hint from L2: 0
PSCL5 TOTAL     ACCESS:       4100  HIT:       2050  MISS:       2050  HIT %:         50  MISS %:         50   MPKI: 0.041
PSCL5 LOAD TRANSLATION INSTRUCTION	ACCESS:       4060  HIT:       2030  MISS:       2030  HIT %:         50  MISS %:         50  MPKI: 0.0406
PSCL5 TRANSLATION FROM L1D PREFETCHER INSTRUCTION	ACCESS:         40  HIT:         20  MISS:         20  HIT %:         50  MISS %:         50  MPKI: 0.0004


PSCL4 TOTAL     ACCESS:       3835  HIT:       1910  MISS:       1925  HIT %:    49.8044  MISS %:    50.1956   MPKI: 0.0385
PSCL4 LOAD TRANSLATION INSTRUCTION	ACCESS:       3247  HIT:       1894  MISS:       1353  HIT %:    58.3308  MISS %:    41.6692  MPKI: 0.02706
PSCL4 TRANSLATION FROM L1D PREFETCHER INSTRUCTION	ACCESS:         28  HIT:         16  MISS:         12  HIT %:    57.1429  MISS %:    42.8571  MPKI: 0.00024
PSCL4 LOAD TRANSLATION DATA	ACCESS:        556  HIT:          0  MISS:        556  HIT %:          0  MISS %:        100  MPKI: 0.01112
PSCL4 TRANSLATION FROM L1D PREFETCHER DATA	ACCESS:          4  HIT:          0  MISS:          4  HIT %:          0  MISS %:        100  MPKI: 8e-05


PSCL3 TOTAL     ACCESS:       3889  HIT:       1937  MISS:       1952  HIT %:    49.8071  MISS %:    50.1929   MPKI: 0.03904
PSCL3 LOAD TRANSLATION INSTRUCTION	ACCESS:       3274  HIT:       1921  MISS:       1353  HIT %:    58.6744  MISS %:    41.3256  MPKI: 0.02706
PSCL3 TRANSLATION FROM L1D PREFETCHER INSTRUCTION	ACCESS:         28  HIT:         16  MISS:         12  HIT %:    57.1429  MISS %:    42.8571  MPKI: 0.00024
PSCL3 LOAD TRANSLATION DATA	ACCESS:        583  HIT:          0  MISS:        583  HIT %:          0  MISS %:        100  MPKI: 0.01166
PSCL3 TRANSLATION FROM L1D PREFETCHER DATA	ACCESS:          4  HIT:          0  MISS:          4  HIT %:          0  MISS %:        100  MPKI: 8e-05


PSCL2 TOTAL     ACCESS:       4010  HIT:       1960  MISS:       2050  HIT %:    48.8778  MISS %:    51.1222   MPKI: 0.041
PSCL2 LOAD TRANSLATION INSTRUCTION	ACCESS:       2151  HIT:       1940  MISS:        211  HIT %:    90.1906  MISS %:    9.80939  MPKI: 0.00422
PSCL2 TRANSLATION FROM L1D PREFETCHER INSTRUCTION	ACCESS:         20  HIT:         20  MISS:          0  HIT %:        100  MISS %:          0  MPKI: 0
PSCL2 LOAD TRANSLATION DATA	ACCESS:       1819  HIT:          0  MISS:       1819  HIT %:          0  MISS %:        100  MPKI: 0.03638
PSCL2 TRANSLATION FROM L1D PREFETCHER DATA	ACCESS:         20  HIT:          0  MISS:         20  HIT %:          0  MISS %:        100  MPKI: 0.0004


LLC TOTAL     ACCESS:     556496  HIT:     529019  MISS:      27477  HIT %:    95.0625  MISS %:     4.9375   MPKI: 0.54954
LLC LOAD INSTRUCTION	ACCESS:     254423  HIT:     253637  MISS:        786  HIT %:    99.6911  MISS %:   0.308934  MPKI: 0.01572
LLC LOAD TRANSLATION INSTRUCTION	ACCESS:        195  HIT:        168  MISS:         27  HIT %:    86.1538  MISS %:    13.8462  MPKI: 0.00054
LLC LOAD DATA	ACCESS:      82566  HIT:      79193  MISS:       3373  HIT %:    95.9148  MISS %:    4.08522  MPKI: 0.06746
LLC RFO DATA	ACCESS:      56580  HIT:      43482  MISS:      13098  HIT %:    76.8505  MISS %:    23.1495  MPKI: 0.26196
LLC PREFETCH DATA	ACCESS:      80370  HIT:      70545  MISS:       9825  HIT %:    87.7753  MISS %:    12.2247  MPKI: 0.1965
LLC WRITEBACK DATA	ACCESS:      81042  HIT:      80731  MISS:        311  HIT %:    99.6162  MISS %:   0.383752  MPKI: 0.00622
LLC LOAD TRANSLATION DATA	ACCESS:       1315  HIT:       1258  MISS:         57  HIT %:    95.6654  MISS %:     4.3346  MPKI: 0.00114
LLC TRANSLATION FROM L1D PREFETCHER DATA	ACCESS:          5  HIT:          5  MISS:          0  HIT %:        100  MISS %:          0  MPKI: 0

LLC AVERAGE MISS LATENCY: 154.675 cycles
LLC RQ	ACCESS:     395108	FORWARD:          0	MERGED:          0	TO_CACHE:     395084
LLC WQ	ACCESS:      81042	FORWARD:         24	MERGED:          0	TO_CACHE:      81042
LLC PQ	ACCESS:      80369	FORWARD:          0	MERGED:          0	TO_CACHE:      80369

LLC Dense regions hint to LLC: 0

RAW hits: 1952164
Loads Generated: 12630700
Loads sent to L1D: 10678539
Stores Generated: 6952043
Stores sent to L1D: 6952044
Major fault: 0 Minor fault: 2633
Allocated PAGES: 2633

stream: 
stream:times selected: 1184943
stream:pref_filled: 119939
stream:pref_useful: 22132
stream:pref_late: 9538
stream:misses: 8499
stream:misses_by_poll: 0

CS: 
CS:times selected: 176413
CS:pref_filled: 56433
CS:pref_useful: 32867
CS:pref_late: 10165
CS:misses: 18797
CS:misses_by_poll: 1

CPLX: 
CPLX:times selected: 1007308
CPLX:pref_filled: 19293
CPLX:pref_useful: 4231
CPLX:pref_late: 3591
CPLX:misses: 97110
CPLX:misses_by_poll: 1

NL_L1: 
NL:times selected: 15137
NL:pref_filled: 443
NL:pref_useful: 139
NL:pref_late: 413
NL:misses: 1214
NL:misses_by_poll: 0

total selections: 2383801
total_filled: 95078
total_useful: 33978
total_late: 24950
total_polluted: 2
total_misses_after_warmup: 778563
conflicts: 5521011

test: 117518

DRAM Statistics
 CHANNEL 0
 RQ ROW_BUFFER_HIT:      10123  ROW_BUFFER_MISS:      17033
 DBUS_CONGESTED:          9
 WQ ROW_BUFFER_HIT:       1324  ROW_BUFFER_MISS:      11476  FULL:          0

 AVG_CONGESTED_CYCLE: 5

CPU 0 Branch Prediction Accuracy: 99.8241% MPKI: 0.32188 Average ROB Occupancy at Mispredict: 191.826
Branch types
NOT_BRANCH: 40849206 81.6984%
BRANCH_DIRECT_JUMP: 547661 1.09532%
BRANCH_INDIRECT: 182452 0.364904%
BRANCH_CONDITIONAL: 6180219 12.3604%
BRANCH_DIRECT_CALL: 948360 1.89672%
BRANCH_INDIRECT_CALL: 171879 0.343758%
BRANCH_RETURN: 1120231 2.24046%
BRANCH_OTHER: 0 0%

DRAM PAGES: 1048576
Allocated PAGES: 2633
Average_ROB_Occupancy: 247.624
Average_Decode_Occupancy: 37.4137
Average_FTQ_Occupancy: 14.9012
Indirect max targets: 14 Average targets: 1.17778
Branch_type:  BRANCH_DIRECT_JUMP:  Count Percentage: 2.89966 7.27592 3.94087 14.4893 1.69595 5.97385 1.22926 62.4952 
Branch_type:  BRANCH_INDIRECT:  Count Percentage: 11.7637 3.41888 12.2102 23.3787 1.33895 14.5395 1.07209 32.2778 
Branch_type:  BRANCH_CONDITIONAL:  Count Percentage: 21.0438 3.40866 2.39187 9.18468 1.07188 4.4555 0.757607 57.686 
Branch_type:  BRANCH_DIRECT_CALL:  Count Percentage: 0.788009 1.29926 1.43335 5.40607 1.99518 2.56055 0.932477 85.5851 
Branch_type:  BRANCH_INDIRECT_CALL:  Count Percentage: 9.57296 0.56859 2.99961 4.8562 0 3.55799 0 78.4446 
Branch_type:  BRANCH_RETURN:  Count Percentage: 4.49776 0.699924 3.65908 9.44006 2.12782 5.06094 1.01073 73.5037 
Branch_type:  BRANCH_DIRECT_JUMP:  Total Count: 31781 79746 43193 158806 18588 65475 13473 684964 
Branch_type:  BRANCH_INDIRECT:  Total Count: 43024 12504 44657 85504 4897 53176 3921 118051 
Branch_type:  BRANCH_CONDITIONAL:  Total Count: 2600537 421233 295581 1135017 132460 550598 93623 7128675 
Branch_type:  BRANCH_DIRECT_CALL:  Total Count: 14880 24534 27066 102083 37675 48351 17608 1616107 
Branch_type:  BRANCH_INDIRECT_CALL:  Total Count: 32814 1949 10282 16646 0 12196 0 268891 
Branch_type:  BRANCH_RETURN:  Total Count: 100388 15622 81669 210698 47492 112958 22559 1640570 
Number of unique branch instructions: 10817
Upper 32 bits: 
aaaa
ffff
ffff0000
Unique upper 32 bits: 3
Unique upper 36 bits: 3
Unique upper 40 bits: 5
Unique upper 44 bits: 32
Unique upper 48 bits: 158
Variant_0 : 1381 0.337158
Variant_1 : 2690 0.656738
Variant_2 : 0 0
Variant_3 : 0 0
Offset_3 4469
Offset_4 258
Offset_5 484
Offset_6 542
Offset_7 640
Offset_8 583
Offset_9 523
Offset_10 427
Offset_11 355
Offset_12 327
Offset_13 240
Offset_14 247
Offset_15 194
Offset_16 233
Offset_17 169
Offset_18 149
Offset_19 257
Offset_20 143
Offset_21 235
Offset_22 415
Offset_23 241
Offset_24 351
Offset_25 117
Offset_47 94
decode_dispatch_called: 26412547 72.7761
Dispatch_width: 0 14324616 54.2341 39.4695
Dispatch_width: 1 1022971 3.87305 2.81866
Dispatch_width: 2 823746 3.11877 2.26972
Dispatch_width: 3 508781 1.92629 1.40188
Dispatch_width: 4 6238190 23.6183 17.1885
Dispatch_width: 5 115022 0.435482 0.316927
Dispatch_width: 6 3379221 12.794 9.31098
Empty_decode_cycles: 9880320 27.2239
ROB_full_cycles: 10038929 27.6609
Starvation_cycles_per_kilo_instr: 228.747
Starvation_cycles_per_kilo_instr_3: 165.215
Starvation_cycles_per_kilo_instr_0: 141.66
Branch_type_1  (3,1)  (4,9)  (5,39)  (6,74)  (7,125)  (8,151)  (9,137)  (10,111)  (11,78)  (12,55)  (13,11)  (14,2)  (15,3)  (16,4)  (18,1)  (19,5)  (20,2)  (21,1)  (22,3)  (23,2)  (24,10)  (25,12) 
Branch_type_2  (3,1)  (4,1)  (5,1)  (8,4)  (9,4)  (10,1)  (12,1)  (13,1)  (14,1)  (16,3)  (17,2)  (20,2)  (21,2)  (23,5)  (24,1)  (47,43) 
Branch_type_3  (3,4467)  (4,248)  (5,440)  (6,452)  (7,485)  (8,363)  (9,287)  (10,172)  (11,141)  (12,62)  (13,10) 
Branch_type_4  (6,3)  (7,8)  (8,25)  (9,56)  (10,68)  (11,70)  (12,117)  (13,102)  (14,112)  (15,92)  (16,102)  (17,79)  (18,65)  (19,125)  (20,73)  (21,124)  (22,219)  (23,136)  (24,206)  (25,101) 
Branch_type_5  (8,3)  (9,1)  (10,4)  (11,5)  (12,3)  (13,14)  (14,16)  (15,11)  (16,22)  (17,11)  (18,23)  (19,14)  (20,11)  (21,13)  (22,43)  (23,26)  (24,38) 
Branch_type_6  (5,4)  (6,13)  (7,22)  (8,37)  (9,38)  (10,71)  (11,61)  (12,89)  (13,102)  (14,116)  (15,88)  (16,102)  (17,77)  (18,60)  (19,113)  (20,55)  (21,95)  (22,150)  (23,72)  (24,96)  (25,4)  (47,51) 
Unique trigger count: 
Variant_0_evicts_0 : 0
Variant_0_evicts_1 : 0
Variant_0_evicts_2 : 0
Variant_0_evicts_3 : 0
Variant_1_evicts_0 : 0
Variant_1_evicts_1 : 0
Variant_1_evicts_2 : 0
Variant_1_evicts_3 : 0
Variant_2_evicts_0 : 0
Variant_2_evicts_1 : 0
Variant_2_evicts_2 : 0
Variant_2_evicts_3 : 0
Variant_3_evicts_0 : 0
Variant_3_evicts_1 : 0
Variant_3_evicts_2 : 0
Variant_3_evicts_3 : 0
BTB PER SET UNIQUE ADDR: 12 13 9 12 16 16 10 15 9 17 10 14 16 14 12 10 14 11 14 10 15 16 15 13 10 15 12 11 9 12 11 16 18 7 11 12 12 19 10 13 12 12 13 16 10 12 12 12 13 9 13 11 13 17 12 7 11 12 9 10 10 17 14 10 17 15 16 9 16 10 14 11 15 11 9 12 8 12 13 16 12 10 11 15 15 17 13 14 10 22 12 10 14 10 7 14 11 12 19 19 19 10 11 7 16 13 14 13 7 9 11 19 9 13 9 10 13 9 12 9 15 11 12 12 17 13 9 15 21 11 12 19 10 13 15 11 11 15 11 15 13 12 16 11 11 11 15 7 9 15 13 15 12 13 12 15 17 11 16 11 14 13 13 16 10 11 17 9 14 13 12 11 11 17 14 11 13 11 14 13 11 14 11 12 15 17 11 14 14 14 12 13 13 15 11 11 13 12 9 11 8 14 16 11 13 9 14 15 9 13 11 12 11 11 10 14 14 18 10 16 11 15 10 13 12 11 18 15 12 15 12 9 11 14 15 10 13 9 12 6 14 10 13 16 13 13 10 15 13 11 15 14 12 12 14 16 12 11 12 16 15 9 10 13 15 12 12 12 17 12 10 14 11 10 8 11 15 12 15 13 11 13 11 14 13 15 14 18 17 12 9 8 14 10 10 11 14 11 14 14 12 12 11 16 15 15 13 11 14 9 9 18 9 21 15 12 15 11 15 15 14 9 13 12 15 11 13 12 14 9 16 17 12 15 14 13 5 13 5 19 8 15 9 15 16 11 12 14 13 13 15 13 12 18 13 11 10 12 9 13 15 20 6 15 10 17 6 13 16 13 11 13 13 14 12 15 15 17 12 12 17 7 8 11 10 12 12 14 11 11 12 13 16 19 11 14 13 10 14 14 11 16 11 22 19 14 16 16 12 15 16 8 11 17 11 13 14 11 15 18 12 15 12 12 18 13 15 10 12 13 17 12 10 9 12 16 14 11 13 14 11 11 7 18 22 13 10 13 12 18 14 13 14 11 17 15 15 10 8 9 16 9 12 17 15 11 12 13 14 12 15 12 14 12 13 21 16 19 10 15 17 17 13 14 9 17 15 15 19 15 14 15 13 10 14 9 17 15 11 12 13 17 18 14 12 9 11 14 12 16 19 19 12 13 17 12 10 20 12 10 15 11 14 9 12 17 21 10 9 16 15 11 16 9 17 14 13 16 15 11 13 12 13 16 17 14 9 12 11 16 14 13 14 12 13 12 14 14 15 16 10 15 14 17 13 15 14 18 15 18 16 13 16 17 10 17 14 17 10 13 16 14 9 13 17 16 12 10 17 10 16 11 12 13 15 11 9 12 15 10 15 13 9 7 14 15 16 13 11 13 18 16 13 10 6 15 9 14 13 18 15 16 11 10 12 15 12 19 11 14 14 17 12 13 9 13 13 17 8 16 15 12 12 16 9 14 9 12 17 12 9 14 11 8 15 13 9 14 11 10 15 8 11 17 12 16 11 15 10 11 14 13 14 17 15 12 17 14 17 14 12 12 11 12 12 16 12 10 16 12 10 16 13 8 13 14 10 15 10 12 8 13 16 15 10 18 14 12 12 11 15 15 10 14 15 8 20 16 13 12 9 11 11 11 8 16 11 12 14 13 14 10 15 9 12 10 12 13 15 9 10 14 14 15 12 13 15 12 15 13 11 12 12 12 8 9 16 15 8 13 12 7 9 11 16 16 10 16 14 12 13 15 11 13 13 10 12 12 15 15 9 15 17 10 8 11 12 15 13 8 9 7 15 12 14 14 11 9 11 12 18 14 16 19 13 11 14 10 13 10 9 19 14 14 12 13 17 15 6 14 12 20 12 14 22 12 13 11 10 15 12 20 10 10 13 14 13 11 15 12 19 16 11 15 11 12 12 15 15 10 15 10 11 9 12 13 17 12 10 15 13 10 9 12 17 9 11 12 18 10 11 16 17 13 13 9 15 15 12 12 15 9 15 11 16 14 18 13 14 17 14 10 10 12 13 15 13 14 10 12 13 14 12 13 6 13 9 16 10 12 12 12 12 19 13 15 18 14 11 13 14 13 13 13 12 9 9 16 15 11 15 14 13 11 13 12 12 15 15 16 9 12 10 10 11 12 14 19 11 11 14 17 12 16 12 14 14 14 8 11 12 14 11 15 16 11 14 10 13 14 13 17 13 14 11 13 17 15 14 16 11 13 13 13 13 20 18 8 10 16 14 14 12 10 8 10 14 14 17 9 17 18 11 12 13 14 11 14 8 12 11 13 9 11 12 13 6 12 6 12 13 17 10 12 
BTB PER SET COUNT: 995 15 1962 15 21 26 1477 20 1478 29 16 18 20758 19 19 16 22 15 800 16 21 18 505 230 16 21 23 14 10 21 15 22 28 7 18 905 22 32 16 491 14 13 14 880 11 23 18 22 19 10 18 91 22 37 259 384 14 15 491 12 11 638 29 11 30 472 31 274 34 24 1223 305 23 16 11 19 9 1183 24 21 685 12 426 22 19 22 24 20 12 42 17 10 26 19 9 18 1138 17 28 38 23 15 14 8 2282 17 23 24 1680 12 13 34 15 18 9 1023 14 10 2055 14 20 18 18 14 22 24 11 20 37 986 15 3321 340 14 25 18 994 24 20 24 17 16 20 13 14 14 17 7 15 152 27 291 1007 16 12 23 27 12 481 12 20 13 530 23 810 13 25 11 20 1607 14 19 11 29 20 330 17 19 25 231 525 232 990 23 27 44 15 23 25 244 18 16 16 19 18 16 20 991 15 12 11 20 1006 13 17 12 23 20 1003 885 17 17 24 12143 16 16 21 28 1140 25 19 23 15 17 18 21 22 260 146 27 14 9 13 18 17 11 20 10 301 6 822 10 26 129 22 204 10 19 21 18 15 23 13 12 27 331 49 236 15 27 23 13 13 214 21 14 16 14 945 16 17 21 502 10 9 14 24 12 25 17 31 17 394 102 18 29 18 23 28 17 9 8 22 13 11 14 249 15 19 1006 23 19 14 21 24 155 19 208 214 982 992 30 13 29 1977 496 23 14 30 18 20 1606 15 17 333 47 21 18 28 11 25 24 26 27 23 193 7 19 6 31 8 1183 10 21 33 13 20 20 19 15 24 27 22 28 15 13 15 21 23 19 20 27 9 25 10 2487 6 26 24 30 15 75 20 21 895 23 20 19 19 17 995 11 158 15 12 17 15 28 21 18 18 21 22 402 17 144 15 15 1327 1451 19 28 15 30 35 21 22 69 16 21 695 13 13 31 13 16 25 76 24 22 19 28 20 17 32 22 806 16 13 16 40 19 12 11 22 25 16 32 17 20 619 11 10 26 781 688 114 17 16 28 64 626 20 14 26 29 31 12 8 15 37 14 14 1020 20 20 23 16 23 19 23 17 20 14 16 25 20 31 12 17 28 23 20 15 13 21 34 17 29 22 205 20 1000 12 15 12 737 20 13 21 24 20 24 26 15 10 13 19 29 22 429 43 15 602 20 17 11 24 16 12 23 14 25 10 17 17 1018 616 14 3973 21 15 25 13 27 20 24 35 25 20 17 12 38 39 28 295 12 17 21 1132 16 20 209 18 18 17 17 17 29 21 12 26 16 26 17 27 178 24 27 29 23 21 22 24 13 21 27 227 10 27 19 24 11 1659 37 19 13 14 20 13 461 15 13 15 18 16 9 483 24 11 21 26 13 11 18 26 23 613 14 20 30 1177 224 14 6 23 10 17 918 211 20 27 21 434 14 20 14 106 1477 999 21 28 379 136 10 30 23 133 11 183 30 24 15 91 399 22 499 21 284 16 13 19 18 10 1453 329 16 52 943 12 21 12 13 30 18 21 18 771 1483 15 26 14 396 25 712 217 26 22 27 19 16 18 1002 15 24 27 15 11 20 16 15 21 15 9 2970 19 20 1726 10 17 920 28 630 22 17 24 22 18 16 14 187 354 990 18 255 98 447 20 15 415 12 358 15 626 13 32 14 14 792 1720 196 2571 21 58 17 14 53 16 393 11 11 23 25 21 551 14 358 18 23 14 13 15 598 13 8 12 21 871 8 13 20 9 9 12 478 24 10 1052 18 23 16 242 18 18 24 13 19 164 22 29 1471 27 35 11 8 13 17 20 17 9 12 615 24 19 597 19 116 9 14 1004 184 25 22 410 509 18 24 13 16 15 15 3256 20 16 133 19 397 27 6 20 15 1058 18 17 34 16 16 16 16 27 24 34 10 11 53 22 21 276 217 17 34 529 14 20 2235 15 17 19 20 10 212 458 421 10 17 14 23 15 18 19 567 12 496 14 72 12 18 21 21 41 501 27 26 17 23 9 17 20 12 17 30 14 20 22 24 682 18 14 23 27 39 491 11 4789 20 27 18 17 15 15 15 19 19 457 6 14 11 24 117 19 62 13 18 37 22 33 1383 404 21 19 18 14 18 18 18 10 12 23 27 17 63 17 636 17 23 1886 15 60 344 29 11 999 11 15 12 25 28 34 16 18 19 1019 19 158 16 21 19 20 12 24 165 23 15 23 19 13 312 13 19 112 27 302 21 23 21 16 35 19 171 22 13 466 13 325 18 246 25 13 12 24 22 35 15 516 1479 10 18 1492 20 11 31 22 14 17 16 873 15 27 8 20 307 24 11 18 25 21 9 95 6 13 22 192 12 24 
To predecode: 0
Predecoding something: 0
Predecode request dropped: 0
sizeofblock_0 0
sizeofblock_1 54732
sizeofblock_2 87326
sizeofblock_3 0
sizeofblock_4 0
sizeofblock_5 0
sizeofblock_6 0
sizeofblock_7 0
sizeofblock_8 0
Variant_0 Correct: 1612892 Incorrect: 0 Accuracy: 1
Variant_1 Correct: 5737619 Incorrect: 0 Accuracy: 1
Variant_2 Correct: 0 Incorrect: 0 Accuracy: -nan
Variant_3 Correct: 0 Incorrect: 0 Accuracy: -nan
