
*** ChampSim Multicore Out-of-Order Simulator ***

Warmup Instructions: 50000000
Simulation Instructions: 50000000
Number of CPUs: 1
LLC sets: 2048
LLC ways: 16
Off-chip DRAM Size: 4096 MB Channels: 1 Width: 64-bit Data Rate: 6400 MT/s
CPU 0 runs ./micro_traces/srv38.trace.gz
.gz
ITLB has LRU replacement policy
DTLB has LRU replacement policy
STLB has LRU replacement policy
FDIP Prefetcher at L1I
L1I has LRU replacement policy
L1D has LRU replacement policy
Initialize SRRIP state for L2C
Initialize DRRIP state for LLC
Heartbeat_Variant_0 : 1374 0.335449 per_variant_size: 0 1374 0 0 0 0 0 0 0 
Heartbeat_Variant_1 : 1257 0.306885 per_variant_size: 0 565 692 0 0 0 0 0 0 
Heartbeat_Variant_2 : 1331 0.324951 per_variant_size: 0 486 392 227 226 0 0 0 0 
Heartbeat_Variant_3 : 0 0 per_variant_size: 0 0 0 0 0 0 0 0 0 
Heartbeat_Variant_0_evicts 0 : 6001 1 : 411 2 : 452 3 : 0 
Heartbeat_Variant_1_evicts 0 : 412 1 : 0 2 : 558 3 : 0 
Heartbeat_Variant_2_evicts 0 : 416 1 : 561 2 : 0 3 : 0 
Heartbeat_Variant_3_evicts 0 : 0 1 : 0 2 : 0 3 : 0 
Heartbeat CPU 0 instructions: 10000000 cycles: 2796146 heartbeat IPC: 3.57635 cumulative IPC: 3.57635 (Simulation time: 0 hr 1 min 40 sec) 
Heartbeat_Variant_0 : 1384 0.337891 per_variant_size: 0 1384 0 0 0 0 0 0 0 
Heartbeat_Variant_1 : 1266 0.309082 per_variant_size: 0 539 727 0 0 0 0 0 0 
Heartbeat_Variant_2 : 1359 0.331787 per_variant_size: 0 504 394 242 219 0 0 0 0 
Heartbeat_Variant_3 : 0 0 per_variant_size: 0 0 0 0 0 0 0 0 0 
Heartbeat_Variant_0_evicts 0 : 5662 1 : 139 2 : 200 3 : 0 
Heartbeat_Variant_1_evicts 0 : 147 1 : 0 2 : 335 3 : 0 
Heartbeat_Variant_2_evicts 0 : 192 1 : 346 2 : 0 3 : 0 
Heartbeat_Variant_3_evicts 0 : 0 1 : 0 2 : 0 3 : 0 
Heartbeat CPU 0 instructions: 20000002 cycles: 5590025 heartbeat IPC: 3.57925 cumulative IPC: 3.5778 (Simulation time: 0 hr 3 min 19 sec) 
Heartbeat_Variant_0 : 1387 0.338623 per_variant_size: 0 1387 0 0 0 0 0 0 0 
Heartbeat_Variant_1 : 1286 0.313965 per_variant_size: 0 568 718 0 0 0 0 0 0 
Heartbeat_Variant_2 : 1372 0.334961 per_variant_size: 0 511 401 234 226 0 0 0 0 
Heartbeat_Variant_3 : 0 0 per_variant_size: 0 0 0 0 0 0 0 0 0 
Heartbeat_Variant_0_evicts 0 : 5779 1 : 244 2 : 242 3 : 0 
Heartbeat_Variant_1_evicts 0 : 242 1 : 0 2 : 434 3 : 0 
Heartbeat_Variant_2_evicts 0 : 246 1 : 424 2 : 0 3 : 0 
Heartbeat_Variant_3_evicts 0 : 0 1 : 0 2 : 0 3 : 0 
Heartbeat CPU 0 instructions: 30000003 cycles: 8385422 heartbeat IPC: 3.57731 cumulative IPC: 3.57764 (Simulation time: 0 hr 4 min 55 sec) 
Heartbeat_Variant_0 : 1384 0.337891 per_variant_size: 0 1384 0 0 0 0 0 0 0 
Heartbeat_Variant_1 : 1302 0.317871 per_variant_size: 0 590 712 0 0 0 0 0 0 
Heartbeat_Variant_2 : 1370 0.334473 per_variant_size: 0 502 403 229 236 0 0 0 0 
Heartbeat_Variant_3 : 0 0 per_variant_size: 0 0 0 0 0 0 0 0 0 
Heartbeat_Variant_0_evicts 0 : 5659 1 : 118 2 : 150 3 : 0 
Heartbeat_Variant_1_evicts 0 : 129 1 : 0 2 : 323 3 : 0 
Heartbeat_Variant_2_evicts 0 : 145 1 : 322 2 : 0 3 : 0 
Heartbeat_Variant_3_evicts 0 : 0 1 : 0 2 : 0 3 : 0 
Heartbeat CPU 0 instructions: 40000000 cycles: 11180351 heartbeat IPC: 3.57791 cumulative IPC: 3.57771 (Simulation time: 0 hr 6 min 33 sec) 
Heartbeat_Variant_0 : 1398 0.341309 per_variant_size: 0 1398 0 0 0 0 0 0 0 
Heartbeat_Variant_1 : 1303 0.318115 per_variant_size: 0 571 732 0 0 0 0 0 0 
Heartbeat_Variant_2 : 1363 0.332764 per_variant_size: 0 488 408 216 251 0 0 0 0 
Heartbeat_Variant_3 : 0 0 per_variant_size: 0 0 0 0 0 0 0 0 0 
Heartbeat_Variant_0_evicts 0 : 5759 1 : 172 2 : 171 3 : 0 
Heartbeat_Variant_1_evicts 0 : 166 1 : 0 2 : 333 3 : 0 
Heartbeat_Variant_2_evicts 0 : 165 1 : 330 2 : 0 3 : 0 
Heartbeat_Variant_3_evicts 0 : 0 1 : 0 2 : 0 3 : 0 
Heartbeat CPU 0 instructions: 50000001 cycles: 13975040 heartbeat IPC: 3.57822 cumulative IPC: 3.57781 (Simulation time: 0 hr 8 min 16 sec) 

Warmup complete CPU 0 instructions: 50000001 cycles: 13975040 (Simulation time: 0 hr 8 min 16 sec) 

*** Reached end of trace for Core: 0 Repeating trace: ./micro_traces/srv38.trace.gz
Cycle: 20000000 FTQ IN: 57690789 FTQ occupancy: 18.6733 DECODE IN: 57690781 DECODE occupancy: 48.0215 ROB IN: 57690769 ROB occupancy: 294.49 ROB OUT: 57690696
Heartbeat_Variant_0 : 1396 0.34082 per_variant_size: 0 1396 0 0 0 0 0 0 0 
Heartbeat_Variant_1 : 1311 0.320068 per_variant_size: 0 582 729 0 0 0 0 0 0 
Heartbeat_Variant_2 : 1359 0.331787 per_variant_size: 0 476 414 241 228 0 0 0 0 
Heartbeat_Variant_3 : 0 0 per_variant_size: 0 0 0 0 0 0 0 0 0 
Heartbeat_Variant_0_evicts 0 : 5821 1 : 243 2 : 237 3 : 0 
Heartbeat_Variant_1_evicts 0 : 240 1 : 0 2 : 388 3 : 0 
Heartbeat_Variant_2_evicts 0 : 242 1 : 378 2 : 0 3 : 0 
Heartbeat_Variant_3_evicts 0 : 0 1 : 0 2 : 0 3 : 0 
Heartbeat CPU 0 instructions: 60000003 cycles: 21746892 heartbeat IPC: 1.28669 cumulative IPC: 1.28669 (Simulation time: 0 hr 9 min 49 sec) 
Heartbeat_Variant_0 : 1400 0.341797 per_variant_size: 0 1400 0 0 0 0 0 0 0 
Heartbeat_Variant_1 : 1309 0.31958 per_variant_size: 0 579 730 0 0 0 0 0 0 
Heartbeat_Variant_2 : 1366 0.333496 per_variant_size: 0 485 411 249 221 0 0 0 0 
Heartbeat_Variant_3 : 0 0 per_variant_size: 0 0 0 0 0 0 0 0 0 
Heartbeat_Variant_0_evicts 0 : 5886 1 : 337 2 : 285 3 : 0 
Heartbeat_Variant_1_evicts 0 : 344 1 : 0 2 : 473 3 : 0 
Heartbeat_Variant_2_evicts 0 : 274 1 : 486 2 : 0 3 : 0 
Heartbeat_Variant_3_evicts 0 : 0 1 : 0 2 : 0 3 : 0 
Heartbeat CPU 0 instructions: 70000002 cycles: 29559348 heartbeat IPC: 1.28001 cumulative IPC: 1.28334 (Simulation time: 0 hr 11 min 23 sec) 
Cycle: 30000000 FTQ IN: 12866645 FTQ occupancy: 8.48793 DECODE IN: 12866632 DECODE occupancy: 19.9741 ROB IN: 12866584 ROB occupancy: 169.44 ROB OUT: 12866305
Heartbeat_Variant_0 : 1400 0.341797 per_variant_size: 0 1400 0 0 0 0 0 0 0 
Heartbeat_Variant_1 : 1315 0.321045 per_variant_size: 0 571 744 0 0 0 0 0 0 
Heartbeat_Variant_2 : 1363 0.332764 per_variant_size: 0 494 395 250 224 0 0 0 0 
Heartbeat_Variant_3 : 0 0 per_variant_size: 0 0 0 0 0 0 0 0 0 
Heartbeat_Variant_0_evicts 0 : 5612 1 : 223 2 : 232 3 : 0 
Heartbeat_Variant_1_evicts 0 : 227 1 : 0 2 : 417 3 : 0 
Heartbeat_Variant_2_evicts 0 : 229 1 : 416 2 : 0 3 : 0 
Heartbeat_Variant_3_evicts 0 : 0 1 : 0 2 : 0 3 : 0 
Heartbeat CPU 0 instructions: 80000002 cycles: 37216649 heartbeat IPC: 1.30594 cumulative IPC: 1.29079 (Simulation time: 0 hr 12 min 48 sec) 
Cycle: 40000000 FTQ IN: 13095159 FTQ occupancy: 8.37913 DECODE IN: 13095109 DECODE occupancy: 20.0532 ROB IN: 13095169 ROB occupancy: 172.995 ROB OUT: 13095459
Heartbeat_Variant_0 : 1410 0.344238 per_variant_size: 0 1410 0 0 0 0 0 0 0 
Heartbeat_Variant_1 : 1300 0.317383 per_variant_size: 0 560 740 0 0 0 0 0 0 
Heartbeat_Variant_2 : 1368 0.333984 per_variant_size: 0 496 396 249 227 0 0 0 0 
Heartbeat_Variant_3 : 0 0 per_variant_size: 0 0 0 0 0 0 0 0 0 
Heartbeat_Variant_0_evicts 0 : 5785 1 : 172 2 : 180 3 : 0 
Heartbeat_Variant_1_evicts 0 : 157 1 : 0 2 : 368 3 : 0 
Heartbeat_Variant_2_evicts 0 : 185 1 : 368 2 : 0 3 : 0 
Heartbeat_Variant_3_evicts 0 : 0 1 : 0 2 : 0 3 : 0 
Heartbeat CPU 0 instructions: 90000003 cycles: 44930302 heartbeat IPC: 1.2964 cumulative IPC: 1.29219 (Simulation time: 0 hr 14 min 19 sec) 
Cycle: 50000000 FTQ IN: 13021919 FTQ occupancy: 8.63376 DECODE IN: 13021847 DECODE occupancy: 20.5093 ROB IN: 13021787 ROB occupancy: 173.255 ROB OUT: 13021657
Heartbeat_Variant_0 : 1403 0.342529 per_variant_size: 0 1403 0 0 0 0 0 0 0 
Heartbeat_Variant_1 : 1309 0.31958 per_variant_size: 0 582 727 0 0 0 0 0 0 
Heartbeat_Variant_2 : 1367 0.33374 per_variant_size: 0 500 400 237 230 0 0 0 0 
Heartbeat_Variant_3 : 0 0 per_variant_size: 0 0 0 0 0 0 0 0 0 
Heartbeat_Variant_0_evicts 0 : 5595 1 : 86 2 : 81 3 : 0 
Heartbeat_Variant_1_evicts 0 : 89 1 : 0 2 : 291 3 : 0 
Heartbeat_Variant_2_evicts 0 : 85 1 : 285 2 : 0 3 : 0 
Heartbeat_Variant_3_evicts 0 : 0 1 : 0 2 : 0 3 : 0 
Heartbeat CPU 0 instructions: 100000003 cycles: 52498666 heartbeat IPC: 1.32129 cumulative IPC: 1.2979 (Simulation time: 0 hr 15 min 54 sec) 
Finished CPU 0 instructions: 50000002 cycles: 38523626 cumulative IPC: 1.2979 (Simulation time: 0 hr 15 min 54 sec) 

ChampSim completed all CPUs

Region of Interest Statistics

CPU 0 cumulative IPC: 1.2979 instructions: 50000002 cycles: 38523626
 Fetch stage stalled: 64.8854  Sim cycles: 38523626 fetch stall cycle: 24996218
 Empty decode stage: 63.0445  Sim cycles: 38523626 fetch stall cycle: 24287017
ITLB TOTAL     ACCESS:    5863446  HIT:    5372507  MISS:     490939  HIT %:    91.6271  MISS %:    8.37287   MPKI: 9.81878
ITLB LOAD TRANSLATION INSTRUCTION	ACCESS:    5748865  HIT:    5257926  MISS:     490939  HIT %:    91.4602  MISS %:    8.53976  MPKI: 9.81878
ITLB TRANSLATION FROM L1D PREFETCHER INSTRUCTION	ACCESS:     114581  HIT:     114581  MISS:          0  HIT %:        100  MISS %:          0  MPKI: 0

ITLB AVERAGE MISS LATENCY: 9.05381 cycles
ITLB RQ	ACCESS:    7971355	FORWARD:          0	MERGED:    1700070	TO_CACHE:    6271285

DTLB TOTAL     ACCESS:    9079818  HIT:    8603961  MISS:     475857  HIT %:    94.7592  MISS %:    5.24082   MPKI: 9.51714
DTLB LOAD TRANSLATION DATA	ACCESS:    9079818  HIT:    8603961  MISS:     475857  HIT %:    94.7592  MISS %:    5.24082  MPKI: 9.51714

DTLB AVERAGE MISS LATENCY: 9.30851 cycles
DTLB RQ	ACCESS:   13407244	FORWARD:          0	MERGED:    4289671	TO_CACHE:    9117573

STLB TOTAL     ACCESS:    1222437  HIT:    1219929  MISS:       2508  HIT %:    99.7948  MISS %:   0.205164   MPKI: 0.05016
STLB LOAD TRANSLATION INSTRUCTION	ACCESS:     490939  HIT:     490592  MISS:        347  HIT %:    99.9293  MISS %:  0.0706809  MPKI: 0.00694
STLB LOAD TRANSLATION DATA	ACCESS:     475800  HIT:     473683  MISS:       2117  HIT %:    99.5551  MISS %:   0.444935  MPKI: 0.04234
STLB TRANSLATION FROM L1D PREFETCHER DATA	ACCESS:     255698  HIT:     255654  MISS:         44  HIT %:    99.9828  MISS %:  0.0172078  MPKI: 0.00088

STLB AVERAGE MISS LATENCY: 58.1543 cycles
STLB RQ	ACCESS:    1368935	FORWARD:          0	MERGED:     146465	TO_CACHE:    1222470

STLB Hit, L1D data hit: 0
STLB Hit, L2C data hit: 0
STLB Hit, LLC data hit: 0
STLB Hit, LLC data miss: 0
STLB STLB hints to L2: 0
L1D TOTAL     ACCESS:   13159298  HIT:   11990458  MISS:    1168840  HIT %:    91.1178  MISS %:    8.88224   MPKI: 23.3768
L1D LOAD DATA	ACCESS:    6652684  HIT:    5885328  MISS:     767356  HIT %:    88.4655  MISS %:    11.5345  MPKI: 15.3471
L1D RFO DATA	ACCESS:    6170515  HIT:    5876581  MISS:     293934  HIT %:    95.2365  MISS %:    4.76352  MPKI: 5.87868
L1D PREFETCH DATA	ACCESS:     336099  HIT:     228549  MISS:     107550  HIT %:    68.0005  MISS %:    31.9995  MPKI: 2.151

L1D PREFETCH  REQUESTED:     804589  ISSUED:     804589  USEFUL:      50397  USELESS:      70728
L1D USEFUL LOAD PREFETCHES:      50397 PREFETCH ISSUED TO LOWER LEVEL:     121202  ACCURACY: 41.581
 TIMELY PREFETCHES:      50397 LATE PREFETCHES: 13602 DROPPED PREFETCHES: 2
L1D AVERAGE MISS LATENCY: 381635 cycles
L1D RQ	ACCESS:   10741677	FORWARD:          0	MERGED:    3892726	TO_CACHE:    6687172
L1D WQ	ACCESS:    6907638	FORWARD:     162090	MERGED:     187566	TO_CACHE:    6720072
L1D PQ	ACCESS:     402450	FORWARD:          0	MERGED:          0	TO_CACHE:     402139

L1D UNIQUE REGIONS ACCESSED: 0
L1D REGIONS CONFLICTS: 0
L1D Cross Page Prefetch Requests: 8186
L1D Same Page Prefetch Requests: 811557
L1D ROI Sum of L1D PQ occupancy: 5125308
L1D PREFETCHES PUSHED FROM L2C: 0
L1I TOTAL     ACCESS:    7230503  HIT:    4482063  MISS:    2748440  HIT %:    61.9883  MISS %:    38.0117   MPKI: 54.9688
L1I LOAD INSTRUCTION	ACCESS:    6585172  HIT:    3836732  MISS:    2748440  HIT %:    58.2632  MISS %:    41.7368  MPKI: 54.9688
L1I PREFETCH INSTRUCTION	ACCESS:     645331  HIT:     645331  MISS:          0  HIT %:        100  MISS %:          0  MPKI: 0

L1I PREFETCH  REQUESTED:    1524389  ISSUED:    1524389  USEFUL:          0  USELESS:          0
L1I USEFUL LOAD PREFETCHES:          0 PREFETCH ISSUED TO LOWER LEVEL:          0  ACCURACY: -nan
 TIMELY PREFETCHES:          0 LATE PREFETCHES: 0 DROPPED PREFETCHES: 0
L1I AVERAGE MISS LATENCY: 17.3307 cycles
L1I RQ	ACCESS:    9450170	FORWARD:          0	MERGED:    2582503	TO_CACHE:    6867667
L1I PQ	ACCESS:    1524389	FORWARD:          0	MERGED:     420701	TO_CACHE:    1103688

L1BTB TOTAL     ACCESS:    5680872  HIT:    2074068  MISS:    3606804  HIT %:    36.5097  MISS %:    63.4903   MPKI: 72.1361
L1BTB BRANCH_DIRECT_JUMP	ACCESS:     543190  HIT:     143756  MISS:     399434	AVERAGE STALL: 35.6877
L1BTB BRANCH_INDIRECT	ACCESS:     181400  HIT:      65431  MISS:     115969	AVERAGE STALL: 80.2946
L1BTB BRANCH_CONDITIONAL	ACCESS:    2732097  HIT:    1447742  MISS:    1284355	AVERAGE STALL: 58.2934
L1BTB BRANCH_DIRECT_CALL	ACCESS:     941242  HIT:     104903  MISS:     836339	AVERAGE STALL: 52.3084
L1BTB BRANCH_INDIRECT_CALL	ACCESS:     170851  HIT:      21534  MISS:     149317	AVERAGE STALL: 104.518
L1BTB BRANCH_RETURN	ACCESS:    1112092  HIT:     290702  MISS:     821390	AVERAGE STALL: 40.2551
L1BTB BRANCH_OTHER ACCESS:          0  HIT:          0  MISS:          0	AVERAGE STALL: -nan
L1BTB TOTAL ROB OCCUPANCY AT BTB MISS: 2.08929

L2BTB TOTAL     ACCESS:    3581839  HIT:    3511579  MISS:      70260  HIT %:    98.0384  MISS %:    1.96156   MPKI: 1.4052
L2BTB BRANCH_DIRECT_JUMP	ACCESS:     395331  HIT:     391122  MISS:       4209	AVERAGE STALL: 35.6877
L2BTB BRANCH_INDIRECT	ACCESS:     105737  HIT:     103013  MISS:       2724	AVERAGE STALL: 80.2946
L2BTB BRANCH_CONDITIONAL	ACCESS:    1284355  HIT:    1277940  MISS:       6415	AVERAGE STALL: 58.2934
L2BTB BRANCH_DIRECT_CALL	ACCESS:     836339  HIT:     832446  MISS:       3893	AVERAGE STALL: 52.3084
L2BTB BRANCH_INDIRECT_CALL	ACCESS:     139904  HIT:     129169  MISS:      10735	AVERAGE STALL: 104.518
L2BTB BRANCH_RETURN	ACCESS:     820173  HIT:     777889  MISS:      42284	AVERAGE STALL: 40.2551
L2BTB BRANCH_OTHER ACCESS:          0  HIT:          0  MISS:          0	AVERAGE STALL: -nan
L2BTB TOTAL ROB OCCUPANCY AT BTB MISS: 107.254

L2C TOTAL     ACCESS:    4545974  HIT:    4022233  MISS:     523741  HIT %:     88.479  MISS %:     11.521   MPKI: 10.4748
L2C LOAD INSTRUCTION	ACCESS:    2748439  HIT:    2474911  MISS:     273528  HIT %:    90.0479  MISS %:    9.95212  MPKI: 5.47056
L2C LOAD TRANSLATION INSTRUCTION	ACCESS:        404  HIT:         94  MISS:        310  HIT %:    23.2673  MISS %:    76.7327  MPKI: 0.0062
L2C LOAD DATA	ACCESS:     753717  HIT:     659732  MISS:      93985  HIT %:    87.5305  MISS %:    12.4695  MPKI: 1.8797
L2C RFO DATA	ACCESS:     293866  HIT:     234739  MISS:      59127  HIT %:    79.8796  MISS %:    20.1204  MPKI: 1.18254
L2C PREFETCH DATA	ACCESS:     215331  HIT:     134870  MISS:      80461  HIT %:    62.6338  MISS %:    37.3662  MPKI: 1.60922
L2C WRITEBACK DATA	ACCESS:     531887  HIT:     517115  MISS:      14772  HIT %:    97.2227  MISS %:    2.77728  MPKI: 0.29544
L2C LOAD TRANSLATION DATA	ACCESS:       2268  HIT:        725  MISS:       1543  HIT %:    31.9665  MISS %:    68.0335  MPKI: 0.03086
L2C TRANSLATION FROM L1D PREFETCHER DATA	ACCESS:         62  HIT:         47  MISS:         15  HIT %:    75.8065  MISS %:    24.1935  MPKI: 0.0003

L2C PREFETCH  REQUESTED:     102548  ISSUED:     102548  USEFUL:       9334  USELESS:      71729
L2C USEFUL LOAD PREFETCHES:       9334 PREFETCH ISSUED TO LOWER LEVEL:      81092  ACCURACY: 11.5104
 TIMELY PREFETCHES:       9334 LATE PREFETCHES: 631 DROPPED PREFETCHES: 0
L2C AVERAGE MISS LATENCY: 40.2387 cycles
L2C RQ	ACCESS:    3798811	FORWARD:          0	MERGED:          0	TO_CACHE:    3798756
L2C WQ	ACCESS:     531887	FORWARD:         56	MERGED:          0	TO_CACHE:     531887
L2C PQ	ACCESS:     223750	FORWARD:          0	MERGED:       3446	TO_CACHE:     220303

L2C Dense regions hint from L2: 0
PSCL5 TOTAL     ACCESS:       5022  HIT:       2511  MISS:       2511  HIT %:         50  MISS %:         50   MPKI: 0.05022
PSCL5 LOAD TRANSLATION INSTRUCTION	ACCESS:       4898  HIT:       2449  MISS:       2449  HIT %:         50  MISS %:         50  MPKI: 0.04898
PSCL5 TRANSLATION FROM L1D PREFETCHER INSTRUCTION	ACCESS:        124  HIT:         62  MISS:         62  HIT %:         50  MISS %:         50  MPKI: 0.00124


PSCL4 TOTAL     ACCESS:       3160  HIT:       1577  MISS:       1583  HIT %:    49.9051  MISS %:    50.0949   MPKI: 0.03166
PSCL4 LOAD TRANSLATION INSTRUCTION	ACCESS:       2675  HIT:       1535  MISS:       1140  HIT %:    57.3832  MISS %:    42.6168  MPKI: 0.0228
PSCL4 TRANSLATION FROM L1D PREFETCHER INSTRUCTION	ACCESS:         84  HIT:         42  MISS:         42  HIT %:         50  MISS %:         50  MPKI: 0.00084
PSCL4 LOAD TRANSLATION DATA	ACCESS:        401  HIT:          0  MISS:        401  HIT %:          0  MISS %:        100  MPKI: 0.00802


PSCL3 TOTAL     ACCESS:       4885  HIT:       2433  MISS:       2452  HIT %:    49.8055  MISS %:    50.1945   MPKI: 0.04904
PSCL3 LOAD TRANSLATION INSTRUCTION	ACCESS:       3952  HIT:       2387  MISS:       1565  HIT %:    60.3998  MISS %:    39.6002  MPKI: 0.0313
PSCL3 TRANSLATION FROM L1D PREFETCHER INSTRUCTION	ACCESS:         85  HIT:         46  MISS:         39  HIT %:    54.1176  MISS %:    45.8824  MPKI: 0.00078
PSCL3 LOAD TRANSLATION DATA	ACCESS:        841  HIT:          0  MISS:        841  HIT %:          0  MISS %:        100  MPKI: 0.01682
PSCL3 TRANSLATION FROM L1D PREFETCHER DATA	ACCESS:          7  HIT:          0  MISS:          7  HIT %:          0  MISS %:        100  MPKI: 0.00014


PSCL2 TOTAL     ACCESS:       4824  HIT:       2313  MISS:       2511  HIT %:    47.9478  MISS %:    52.0522   MPKI: 0.05022
PSCL2 LOAD TRANSLATION INSTRUCTION	ACCESS:       2602  HIT:       2251  MISS:        351  HIT %:    86.5104  MISS %:    13.4896  MPKI: 0.00702
PSCL2 TRANSLATION FROM L1D PREFETCHER INSTRUCTION	ACCESS:         62  HIT:         62  MISS:          0  HIT %:        100  MISS %:          0  MPKI: 0
PSCL2 LOAD TRANSLATION DATA	ACCESS:       2098  HIT:          0  MISS:       2098  HIT %:          0  MISS %:        100  MPKI: 0.04196
PSCL2 TRANSLATION FROM L1D PREFETCHER DATA	ACCESS:         62  HIT:          0  MISS:         62  HIT %:          0  MISS %:        100  MPKI: 0.00124


LLC TOTAL     ACCESS:     590363  HIT:     560358  MISS:      30005  HIT %:    94.9175  MISS %:    5.08247   MPKI: 0.6001
LLC LOAD INSTRUCTION	ACCESS:     273528  HIT:     272333  MISS:       1195  HIT %:    99.5631  MISS %:   0.436884  MPKI: 0.0239
LLC LOAD TRANSLATION INSTRUCTION	ACCESS:        310  HIT:        280  MISS:         30  HIT %:    90.3226  MISS %:    9.67742  MPKI: 0.0006
LLC LOAD DATA	ACCESS:      93383  HIT:      89758  MISS:       3625  HIT %:    96.1181  MISS %:    3.88186  MPKI: 0.0725
LLC RFO DATA	ACCESS:      59076  HIT:      44470  MISS:      14606  HIT %:    75.2759  MISS %:    24.7241  MPKI: 0.29212
LLC PREFETCH DATA	ACCESS:      81091  HIT:      70912  MISS:      10179  HIT %:    87.4474  MISS %:    12.5526  MPKI: 0.20358
LLC WRITEBACK DATA	ACCESS:      81417  HIT:      81154  MISS:        263  HIT %:     99.677  MISS %:   0.323028  MPKI: 0.00526
LLC LOAD TRANSLATION DATA	ACCESS:       1543  HIT:       1436  MISS:        107  HIT %:    93.0655  MISS %:    6.93454  MPKI: 0.00214
LLC TRANSLATION FROM L1D PREFETCHER DATA	ACCESS:         15  HIT:         15  MISS:          0  HIT %:        100  MISS %:          0  MPKI: 0

LLC AVERAGE MISS LATENCY: 193.293 cycles
LLC RQ	ACCESS:     427877	FORWARD:          0	MERGED:          0	TO_CACHE:     427855
LLC WQ	ACCESS:      81417	FORWARD:         23	MERGED:          0	TO_CACHE:      81417
LLC PQ	ACCESS:      81092	FORWARD:          0	MERGED:          0	TO_CACHE:      81091

LLC Dense regions hint to LLC: 0

RAW hits: 1863458
Loads Generated: 12605135
Loads sent to L1D: 10741677
Stores Generated: 6907628
Stores sent to L1D: 6907638
Major fault: 0 Minor fault: 2405
Allocated PAGES: 2405

stream: 
stream:times selected: 1248176
stream:pref_filled: 128183
stream:pref_useful: 28351
stream:pref_late: 10113
stream:misses: 10756
stream:misses_by_poll: 0

CS: 
CS:times selected: 197641
CS:pref_filled: 73848
CS:pref_useful: 50730
CS:pref_late: 9423
CS:misses: 24370
CS:misses_by_poll: 14

CPLX: 
CPLX:times selected: 1049289
CPLX:pref_filled: 24823
CPLX:pref_useful: 7518
CPLX:pref_late: 4146
CPLX:misses: 132422
CPLX:misses_by_poll: 6

NL_L1: 
NL:times selected: 22229
NL:pref_filled: 1159
NL:pref_useful: 537
NL:pref_late: 701
NL:misses: 3242
NL:misses_by_poll: 0

total selections: 2517335
total_filled: 107550
total_useful: 50397
total_late: 27181
total_polluted: 20
total_misses_after_warmup: 801849
conflicts: 5538463

test: 119083

DRAM Statistics
 CHANNEL 0
 RQ ROW_BUFFER_HIT:      10652  ROW_BUFFER_MISS:      19072
 DBUS_CONGESTED:          9
 WQ ROW_BUFFER_HIT:       2295  ROW_BUFFER_MISS:      13587  FULL:          0

 AVG_CONGESTED_CYCLE: 3

CPU 0 Branch Prediction Accuracy: 99.8185% MPKI: 0.33254 Average ROB Occupancy at Mispredict: 157.356
Branch types
NOT_BRANCH: 40838958 81.6779%
BRANCH_DIRECT_JUMP: 543190 1.08638%
BRANCH_INDIRECT: 181400 0.3628%
BRANCH_CONDITIONAL: 6212142 12.4243%
BRANCH_DIRECT_CALL: 941242 1.88248%
BRANCH_INDIRECT_CALL: 170851 0.341702%
BRANCH_RETURN: 1112092 2.22418%
BRANCH_OTHER: 0 0%

DRAM PAGES: 1048576
Allocated PAGES: 2405
Average_ROB_Occupancy: 173.047
Average_Decode_Occupancy: 20.241
Average_FTQ_Occupancy: 8.53677
Indirect max targets: 14 Average targets: 1.17572
Branch_type:  BRANCH_DIRECT_JUMP:  Count Percentage: 3.25272 6.03104 3.7296 7.6714 2.79195 5.97148 1.55593 68.9959 
Branch_type:  BRANCH_INDIRECT:  Count Percentage: 11.7615 3.47504 2.53226 0 2.53722 9.69166 19.2082 50.7942 
Branch_type:  BRANCH_CONDITIONAL:  Count Percentage: 22.6358 2.00707 1.87309 7.78005 1.66063 4.83747 1.8484 57.3575 
Branch_type:  BRANCH_DIRECT_CALL:  Count Percentage: 0.264899 1.24886 1.43212 3.74089 3.46498 2.34726 0.613627 86.8874 
Branch_type:  BRANCH_INDIRECT_CALL:  Count Percentage: 9.51994 0.566925 2.9817 4.83249 1.29763 1.71015 1.27829 77.8129 
Branch_type:  BRANCH_RETURN:  Count Percentage: 3.44186 0.569291 1.48104 8.45382 3.60332 6.37661 2.8646 73.2095 
Branch_type:  BRANCH_DIRECT_JUMP:  Total Count: 35332 65511 40512 83329 30327 64864 16901 749454 
Branch_type:  BRANCH_INDIRECT:  Total Count: 42703 12617 9194 0 9212 35188 69740 184421 
Branch_type:  BRANCH_CONDITIONAL:  Total Count: 2811833 249320 232677 966444 206285 600914 229610 7124991 
Branch_type:  BRANCH_DIRECT_CALL:  Total Count: 4977 23464 26907 70285 65101 44101 11529 1632465 
Branch_type:  BRANCH_INDIRECT_CALL:  Total Count: 32493 1935 10177 16494 4429 5837 4363 265587 
Branch_type:  BRANCH_RETURN:  Total Count: 76444 12644 32894 187760 80030 141625 63623 1625989 
Number of unique branch instructions: 10849
Upper 32 bits: 
aaaa
ffff
ffff0000
Unique upper 32 bits: 3
Unique upper 36 bits: 3
Unique upper 40 bits: 5
Unique upper 44 bits: 32
Unique upper 48 bits: 160
Variant_0 : 1403 0.342529
Variant_1 : 1309 0.31958
Variant_2 : 1367 0.33374
Variant_3 : 0 0
Offset_3 4511
Offset_4 261
Offset_5 486
Offset_6 554
Offset_7 641
Offset_8 574
Offset_9 522
Offset_10 436
Offset_11 357
Offset_12 298
Offset_13 235
Offset_14 233
Offset_15 207
Offset_16 234
Offset_17 168
Offset_18 163
Offset_19 261
Offset_20 149
Offset_21 245
Offset_22 413
Offset_23 241
Offset_24 342
Offset_25 114
Offset_47 91
decode_dispatch_called: 21789522 56.5615
Dispatch_width: 0 11287697 51.8033 29.3007
Dispatch_width: 1 667980 3.0656 1.73395
Dispatch_width: 2 694165 3.18577 1.80192
Dispatch_width: 3 465055 2.13431 1.20719
Dispatch_width: 4 2601642 11.9399 6.75337
Dispatch_width: 5 296087 1.35885 0.768585
Dispatch_width: 6 5776896 26.5123 14.9957
Empty_decode_cycles: 16734104 43.4385
ROB_full_cycles: 4030370 10.4621
Starvation_cycles_per_kilo_instr: 287.164
Starvation_cycles_per_kilo_instr_3: 258.186
Starvation_cycles_per_kilo_instr_0: 239.914
Branch_type_1  (3,1)  (4,7)  (5,38)  (6,80)  (7,126)  (8,145)  (9,137)  (10,115)  (11,84)  (12,48)  (13,10)  (14,2)  (15,3)  (16,4)  (18,1)  (19,5)  (20,2)  (21,1)  (22,3)  (23,2)  (24,10)  (25,12) 
Branch_type_2  (3,1)  (4,1)  (5,1)  (8,4)  (9,4)  (10,1)  (12,1)  (13,1)  (14,1)  (16,3)  (17,2)  (20,2)  (21,2)  (23,5)  (24,1)  (47,40) 
Branch_type_3  (3,4509)  (4,253)  (5,443)  (6,457)  (7,482)  (8,361)  (9,288)  (10,182)  (11,140)  (12,53)  (13,10) 
Branch_type_4  (6,4)  (7,8)  (8,26)  (9,57)  (10,65)  (11,68)  (12,108)  (13,101)  (14,104)  (15,100)  (16,104)  (17,77)  (18,72)  (19,126)  (20,75)  (21,130)  (22,221)  (23,136)  (24,198)  (25,98)  (47,1) 
Branch_type_5  (8,3)  (9,1)  (10,4)  (11,5)  (12,3)  (13,14)  (14,16)  (15,11)  (16,22)  (17,12)  (18,23)  (19,14)  (20,12)  (21,13)  (22,43)  (23,26)  (24,37) 
Branch_type_6  (5,4)  (6,13)  (7,25)  (8,35)  (9,35)  (10,69)  (11,60)  (12,85)  (13,99)  (14,110)  (15,93)  (16,101)  (17,77)  (18,67)  (19,116)  (20,58)  (21,99)  (22,146)  (23,72)  (24,96)  (25,4)  (47,50) 
Unique trigger count: 
Variant_0_evicts_0 : 0
Variant_0_evicts_1 : 0
Variant_0_evicts_2 : 0
Variant_0_evicts_3 : 0
Variant_1_evicts_0 : 0
Variant_1_evicts_1 : 0
Variant_1_evicts_2 : 0
Variant_1_evicts_3 : 0
Variant_2_evicts_0 : 0
Variant_2_evicts_1 : 0
Variant_2_evicts_2 : 0
Variant_2_evicts_3 : 0
Variant_3_evicts_0 : 0
Variant_3_evicts_1 : 0
Variant_3_evicts_2 : 0
Variant_3_evicts_3 : 0
BTB PER SET UNIQUE ADDR: 12 18 14 18 18 17 14 16 14 14 9 28 17 18 14 10 19 12 12 13 17 15 14 18 14 18 18 20 17 18 14 15 15 11 14 16 14 14 11 11 10 11 14 20 15 10 12 10 19 15 19 12 17 16 17 7 14 9 12 19 14 22 14 21 19 19 15 14 20 16 17 18 21 11 10 11 9 19 17 17 16 12 13 19 18 19 15 12 14 29 14 9 17 14 9 15 15 13 16 18 24 20 16 13 17 8 12 17 8 10 13 22 20 13 13 12 10 17 15 17 15 14 11 13 12 15 9 16 28 17 12 22 20 16 11 15 11 20 12 17 12 17 19 18 20 13 13 11 12 16 14 21 14 16 13 16 21 14 18 15 16 16 19 21 12 16 17 13 18 14 16 18 10 15 16 11 20 16 14 20 11 18 15 20 24 24 12 19 14 15 16 15 11 17 17 15 13 13 7 26 20 16 14 16 13 12 17 14 11 15 10 21 14 12 11 19 17 14 13 30 12 16 12 16 9 18 19 14 9 21 13 10 12 20 20 16 17 12 14 12 14 15 19 17 16 20 12 13 14 17 16 16 14 13 19 15 10 13 16 18 13 14 7 13 17 18 9 16 11 16 12 16 18 11 11 14 14 18 18 15 13 22 7 15 16 13 14 18 20 19 15 10 13 14 6 22 15 14 20 18 13 16 17 19 18 17 18 17 21 15 18 19 11 21 19 10 20 18 16 22 13 23 12 17 19 20 17 20 15 12 14 20 13 11 18 16 11 13 9 19 17 16 8 21 15 18 14 18 17 13 14 14 19 18 17 16 12 16 12 13 15 24 11 24 12 16 11 15 17 19 11 11 17 17 13 25 13 17 17 16 14 16 14 10 12 18 21 23 20 15 8 14 20 21 12 13 11 16 20 17 13 13 18 17 16 12 15 17 19 14 19 8 11 23 16 15 15 16 23 26 12 17 11 16 20 13 19 11 11 19 22 17 11 15 19 13 17 15 13 13 19 16 11 20 23 12 12 17 13 16 20 23 20 10 17 23 20 19 13 19 13 16 16 24 19 14 11 15 18 20 13 19 15 16 17 18 13 26 9 21 21 17 14 18 12 22 22 21 17 17 7 15 15 10 17 9 22 20 17 8 21 19 13 19 17 12 13 16 22 16 14 18 15 18 19 16 15 18 10 12 9 11 10 11 13 21 25 13 10 23 14 18 18 12 18 24 13 20 18 22 20 16 19 17 19 24 9 16 8 11 18 19 17 18 13 15 13 14 21 15 14 23 15 16 17 19 12 23 16 23 12 21 20 19 16 18 19 19 14 13 18 15 11 16 18 19 15 16 18 19 10 18 14 13 17 11 9 11 17 14 19 16 13 12 13 22 22 9 15 15 19 19 15 14 7 16 15 21 19 18 22 16 12 12 17 16 21 19 13 12 16 21 19 17 13 12 14 22 11 22 15 18 17 21 15 18 13 22 21 16 10 17 17 9 17 16 18 19 21 14 13 10 20 22 16 22 14 13 16 17 17 18 12 18 24 15 14 19 20 19 17 16 17 14 17 15 15 16 16 15 15 14 17 11 14 19 13 20 15 19 11 16 21 22 6 20 17 11 17 12 11 17 12 12 13 13 20 14 14 21 17 16 16 18 16 13 13 17 13 11 17 13 14 12 17 15 17 19 17 16 13 14 19 18 20 20 18 18 16 19 22 17 19 21 10 15 24 17 13 11 14 12 14 19 21 17 10 23 16 18 17 15 13 13 12 12 17 16 21 22 11 22 17 14 15 12 15 19 14 9 15 13 21 22 14 20 12 13 19 15 26 17 25 24 22 15 16 11 17 15 13 21 18 19 14 19 20 16 12 21 16 18 11 15 16 16 14 14 15 20 15 21 24 15 10 22 14 18 17 14 19 16 15 16 16 17 16 17 14 11 12 14 13 18 19 17 24 14 16 18 15 14 11 17 23 13 16 11 17 14 13 17 19 15 16 8 15 16 17 15 20 10 19 21 14 19 20 19 21 19 18 13 17 13 13 17 18 16 9 11 13 10 13 19 9 21 14 15 13 14 16 9 11 17 23 16 25 14 14 19 21 17 14 12 14 13 11 19 15 10 17 23 23 15 9 27 15 19 17 13 10 22 16 15 16 16 14 19 12 16 20 20 13 21 14 20 18 17 20 18 19 15 19 19 16 12 24 18 14 13 15 19 19 16 17 14 25 17 22 20 10 15 20 18 16 26 24 15 22 15 21 15 18 14 13 15 12 15 17 17 21 18 10 16 18 19 14 19 12 16 16 17 14 11 14 18 8 13 10 14 15 24 17 9 
BTB PER SET COUNT: 22 31 1679 24 1480 40 996 28 540 31 12 542 2860 636 23 13 1029 1980 21 19 31 28 760 60 29 29 36 308 27 711 25 1483 26 21 28 127 24 19 18 16 14 17 32 461 778 10 19 20 43 278 32 144 26 32 18 10 19 14 23 30 25 38 273 26 29 33 23 718 38 30 355 342 41 22 16 12 18 454 33 24 244 22 18 571 26 1480 29 16 23 43 21 12 139 454 15 21 341 21 20 37 37 147 26 17 789 8 20 33 975 15 26 44 159 22 26 424 14 33 2186 165 993 17 14 27 15 83 10 1217 55 898 22 4048 32 33 30 23 987 42 19 34 21 30 28 36 27 23 355 979 17 258 27 57 531 26 19 33 43 21 30 25 24 108 67 25 1467 409 30 17 25 218 26 30 17 25 28 17 43 34 22 387 17 147 140 34 167 48 22 37 387 35 21 28 13 23 30 69 27 565 12 451 28 28 781 22 17 13 37 508 13 18 10 84 24 3976 16 864 30 27 451 54 22 28 261 23 16 48 26 86 11 51 29 11 16 33 360 10810 55 21 29 15 27 26 38 422 34 453 21 17 21 30 26 23 23 19 36 59 62 222 33 30 18 29 7 180 29 30 10 28 1354 25 20 734 106 14 16 22 29 39 22 125 20 37 9 541 31 18 16 31 26 28 26 19 16 508 11 43 450 26 39 35 24 32 476 29 23 30 129 183 138 977 120 31 19 24 1475 639 36 27 30 50 16 1746 17 24 844 485 252 38 26 17 44 47 23 20 28 192 20 529 11 28 28 53 18 260 27 23 17 54 24 23 1001 16 35 39 29 18 22 34 158 23 32 47 12 50 22 1376 15 21 25 32 17 284 36 31 19 46 24 31 31 816 628 23 825 10 16 32 1326 41 37 776 9 21 31 57 21 985 25 30 353 84 17 16 291 23 22 19 27 166 45 27 88 9 20 198 29 30 24 52 48 34 20 25 18 31 34 14 673 18 17 40 57 29 16 27 100 20 43 25 21 20 156 31 19 27 266 16 15 26 27 28 63 455 30 11 153 32 33 35 13 33 28 24 33 47 35 180 10595 31 27 41 24 29 25 23 25 23 23 207 9 35 42 25 24 23 13 324 44 32 34 24 10 626 115 16 33 15 178 921 43 11 32 36 17 38 20 17 17 30 39 26 17 974 1118 382 21 34 26 25 15 160 11 13 14 464 19 46 2493 1315 16 2592 22 31 903 22 23 46 15 43 30 28 40 32 37 30 39 115 9 23 11 13 25 28 166 39 17 27 21 21 59 25 20 54 24 27 121 30 25 44 28 233 19 34 41 30 2445 34 38 34 25 23 30 29 18 246 37 45 100 28 44 29 16 71 22 16 45 14 2210 446 30 23 29 30 21 17 27 43 36 12 26 27 29 461 28 19 10 22 23 40 37 563 44 21 14 20 28 34 35 376 16 17 26 31 630 30 19 14 19 284 15 37 32 27 49 34 107 39 451 44 797 20 13 33 24 13 1799 347 38 101 385 765 58 13 30 47 6764 47 21 899 384 34 44 37 881 23 510 506 22 41 34 51 25 25 134 45 531 22 28 22 321 29 18 39 28 18 532 28 43 453 25 31 372 32 1059 42 6 38 22 21 23 14 20 29 737 18 19 90 425 17 26 217 168 230 24 456 29 18 22 24 983 20 25 27 30 20 25 29 996 31 50 18 628 34 1000 25 228 40 244 26 32 44 370 29 361 1965 15 18 44 1140 19 14 21 20 20 191 921 37 18 48 19 25 75 63 34 17 28 20 36 24 32 602 1193 42 1157 25 25 17 25 34 23 12 24 991 42 27 1126 32 139 20 43 201 172 34 51 198 72 30 27 14 26 42 21 7795 23 118 18 1361 30 56 15 754 24 653 16 29 229 23 19 19 30 41 24 64 49 23 511 301 24 30 41 21 37 193 25 25 339 33 31 30 18 15 21 278 26 33 37 36 45 33 28 32 23 25 957 30 136 14 25 16 25 84 15 42 34 24 18 9 27 21 1364 24 36 16 327 38 69 29 31 32 33 289 43 163 675 28 16 32 30 24 14 22 21 12 21 960 13 43 31 23 19 22 187 131 24 38 37 1452 187 769 27 72 25 257 25 17 20 18 19 37 26 29 26 55 45 17 16 326 20 47 44 37 11 1306 26 20 37 24 19 33 22 25 39 191 24 1635 28 40 33 26 35 177 40 24 241 34 24 17 381 32 115 24 28 561 40 30 1108 27 43 33 763 31 167 23 31 420 30 150 388 348 33 25 38 173 295 295 29 24 23 1475 37 36 39 44 13 27 36 902 24 27 18 994 32 291 21 17 24 42 17 14 19 19 20 511 24 21 
To predecode: 0
Predecoding something: 0
Predecode request dropped: 0
sizeofblock_0 0
sizeofblock_1 44147
sizeofblock_2 48267
sizeofblock_3 32095
sizeofblock_4 19257
sizeofblock_5 0
sizeofblock_6 0
sizeofblock_7 0
sizeofblock_8 0
Variant_0 Correct: 1596021 Incorrect: 0 Accuracy: 1
Variant_1 Correct: 2071307 Incorrect: 0 Accuracy: 1
Variant_2 Correct: 3618416 Incorrect: 0 Accuracy: 1
Variant_3 Correct: 0 Incorrect: 0 Accuracy: -nan
