
*** ChampSim Multicore Out-of-Order Simulator ***

Warmup Instructions: 50000000
Simulation Instructions: 50000000
Number of CPUs: 1
LLC sets: 2048
LLC ways: 16
Off-chip DRAM Size: 4096 MB Channels: 1 Width: 64-bit Data Rate: 6400 MT/s
CPU 0 runs ./micro_traces/srv38.trace.gz
.gz
ITLB has LRU replacement policy
DTLB has LRU replacement policy
STLB has LRU replacement policy
FDIP Prefetcher at L1I
L1I has LRU replacement policy
L1D has LRU replacement policy
Initialize SRRIP state for L2C
Initialize DRRIP state for LLC
Heartbeat CPU 0 instructions: 10000000 cycles: 2796185 heartbeat IPC: 3.5763 cumulative IPC: 3.5763 (Simulation time: 0 hr 2 min 12 sec) 
Heartbeat CPU 0 instructions: 20000002 cycles: 5590072 heartbeat IPC: 3.57924 cumulative IPC: 3.57777 (Simulation time: 0 hr 4 min 24 sec) 
Heartbeat CPU 0 instructions: 30000003 cycles: 8385510 heartbeat IPC: 3.57726 cumulative IPC: 3.5776 (Simulation time: 0 hr 6 min 38 sec) 
Heartbeat CPU 0 instructions: 40000000 cycles: 11180445 heartbeat IPC: 3.5779 cumulative IPC: 3.57768 (Simulation time: 0 hr 8 min 43 sec) 
Heartbeat CPU 0 instructions: 50000001 cycles: 13975294 heartbeat IPC: 3.57801 cumulative IPC: 3.57774 (Simulation time: 0 hr 10 min 46 sec) 

Warmup complete CPU 0 instructions: 50000001 cycles: 13975294 (Simulation time: 0 hr 10 min 46 sec) 

*** Reached end of trace for Core: 0 Repeating trace: ./micro_traces/srv38.trace.gz
Cycle: 20000000 FTQ IN: 56188735 FTQ occupancy: 18.0183 DECODE IN: 56188682 DECODE occupancy: 45.9715 ROB IN: 56188682 ROB occupancy: 276.417 ROB OUT: 56188645
Heartbeat CPU 0 instructions: 60000003 cycles: 23648730 heartbeat IPC: 1.03376 cumulative IPC: 1.03376 (Simulation time: 0 hr 12 min 37 sec) 
Cycle: 30000000 FTQ IN: 10339611 FTQ occupancy: 6.29693 DECODE IN: 10339586 DECODE occupancy: 12.9925 ROB IN: 10339526 ROB occupancy: 106.366 ROB OUT: 10339496
Heartbeat CPU 0 instructions: 70000002 cycles: 33299061 heartbeat IPC: 1.03623 cumulative IPC: 1.03499 (Simulation time: 0 hr 14 min 26 sec) 
Cycle: 40000000 FTQ IN: 10554885 FTQ occupancy: 6.17553 DECODE IN: 10554958 DECODE occupancy: 12.7565 ROB IN: 10555018 ROB occupancy: 108.481 ROB OUT: 10555048
Heartbeat CPU 0 instructions: 80000002 cycles: 42754162 heartbeat IPC: 1.05763 cumulative IPC: 1.04243 (Simulation time: 0 hr 16 min 8 sec) 
Cycle: 50000000 FTQ IN: 10419263 FTQ occupancy: 6.34254 DECODE IN: 10419252 DECODE occupancy: 13.1266 ROB IN: 10419230 ROB occupancy: 108.329 ROB OUT: 10419150
Heartbeat CPU 0 instructions: 90000003 cycles: 52368827 heartbeat IPC: 1.04008 cumulative IPC: 1.04184 (Simulation time: 0 hr 17 min 58 sec) 
Cycle: 60000000 FTQ IN: 10560203 FTQ occupancy: 6.21624 DECODE IN: 10560203 DECODE occupancy: 12.8685 ROB IN: 10560225 ROB occupancy: 107.56 ROB OUT: 10560333
Heartbeat CPU 0 instructions: 100000003 cycles: 61828949 heartbeat IPC: 1.05707 cumulative IPC: 1.04485 (Simulation time: 0 hr 19 min 40 sec) 
Finished CPU 0 instructions: 50000002 cycles: 47853655 cumulative IPC: 1.04485 (Simulation time: 0 hr 19 min 40 sec) 

ChampSim completed all CPUs

Region of Interest Statistics

CPU 0 cumulative IPC: 1.04485 instructions: 50000002 cycles: 47853655
 Fetch stage stalled: 72.7105  Sim cycles: 47853655 fetch stall cycle: 34794647
 Empty decode stage: 61.2149  Sim cycles: 47853655 fetch stall cycle: 29293573
ITLB TOTAL     ACCESS:    5531136  HIT:    5041160  MISS:     489976  HIT %:    91.1415  MISS %:    8.85851   MPKI: 9.79952
ITLB LOAD TRANSLATION INSTRUCTION	ACCESS:    5423169  HIT:    4933193  MISS:     489976  HIT %:    90.9651  MISS %:    9.03487  MPKI: 9.79952
ITLB TRANSLATION FROM L1D PREFETCHER INSTRUCTION	ACCESS:     107967  HIT:     107967  MISS:          0  HIT %:        100  MISS %:          0  MPKI: 0

ITLB AVERAGE MISS LATENCY: 9.06793 cycles
ITLB RQ	ACCESS:    7198371	FORWARD:          0	MERGED:    1161499	TO_CACHE:    6036872

DTLB TOTAL     ACCESS:    9408948  HIT:    8933040  MISS:     475908  HIT %:     94.942  MISS %:    5.05804   MPKI: 9.51816
DTLB LOAD TRANSLATION DATA	ACCESS:    9408948  HIT:    8933040  MISS:     475908  HIT %:     94.942  MISS %:    5.05804  MPKI: 9.51816

DTLB AVERAGE MISS LATENCY: 9.30427 cycles
DTLB RQ	ACCESS:   13657402	FORWARD:          0	MERGED:    4216314	TO_CACHE:    9441088

STLB TOTAL     ACCESS:    1222592  HIT:    1220083  MISS:       2509  HIT %:    99.7948  MISS %:    0.20522   MPKI: 0.05018
STLB LOAD TRANSLATION INSTRUCTION	ACCESS:     489976  HIT:     489629  MISS:        347  HIT %:    99.9292  MISS %:  0.0708198  MPKI: 0.00694
STLB LOAD TRANSLATION DATA	ACCESS:     475868  HIT:     473755  MISS:       2113  HIT %:     99.556  MISS %:   0.444031  MPKI: 0.04226
STLB TRANSLATION FROM L1D PREFETCHER DATA	ACCESS:     256748  HIT:     256699  MISS:         49  HIT %:    99.9809  MISS %:  0.0190849  MPKI: 0.00098

STLB AVERAGE MISS LATENCY: 61.7621 cycles
STLB RQ	ACCESS:    1372216	FORWARD:          0	MERGED:     149590	TO_CACHE:    1222626

STLB Hit, L1D data hit: 0
STLB Hit, L2C data hit: 0
STLB Hit, LLC data hit: 0
STLB Hit, LLC data miss: 0
STLB STLB hints to L2: 0
L1D TOTAL     ACCESS:   13436873  HIT:   12269190  MISS:    1167683  HIT %:    91.3099  MISS %:    8.69014   MPKI: 23.3537
L1D LOAD DATA	ACCESS:    6881275  HIT:    6114046  MISS:     767229  HIT %:    88.8505  MISS %:    11.1495  MPKI: 15.3446
L1D RFO DATA	ACCESS:    6214657  HIT:    5921703  MISS:     292954  HIT %:    95.2861  MISS %:    4.71392  MPKI: 5.85908
L1D PREFETCH DATA	ACCESS:     340941  HIT:     233441  MISS:     107500  HIT %:    68.4696  MISS %:    31.5304  MPKI: 2.15

L1D PREFETCH  REQUESTED:     812989  ISSUED:     812989  USEFUL:      50484  USELESS:      70477
L1D USEFUL LOAD PREFETCHES:      50484 PREFETCH ISSUED TO LOWER LEVEL:     121019  ACCURACY: 41.7158
 TIMELY PREFETCHES:      50484 LATE PREFETCHES: 13491 DROPPED PREFETCHES: 2
L1D AVERAGE MISS LATENCY: 429194 cycles
L1D RQ	ACCESS:   10928141	FORWARD:          0	MERGED:    3854920	TO_CACHE:    6912396
L1D WQ	ACCESS:    6907638	FORWARD:     161150	MERGED:     162632	TO_CACHE:    6745006
L1D PQ	ACCESS:     406657	FORWARD:          0	MERGED:          0	TO_CACHE:     406332

L1D UNIQUE REGIONS ACCESSED: 0
L1D REGIONS CONFLICTS: 0
L1D Cross Page Prefetch Requests: 8217
L1D Same Page Prefetch Requests: 815811
L1D ROI Sum of L1D PQ occupancy: 5180196
L1D PREFETCHES PUSHED FROM L2C: 0
L1I TOTAL     ACCESS:    6841630  HIT:    4093398  MISS:    2748232  HIT %:    59.8307  MISS %:    40.1693   MPKI: 54.9646
L1I LOAD INSTRUCTION	ACCESS:    6412104  HIT:    3663872  MISS:    2748232  HIT %:    57.1399  MISS %:    42.8601  MPKI: 54.9646
L1I PREFETCH INSTRUCTION	ACCESS:     429526  HIT:     429526  MISS:          0  HIT %:        100  MISS %:          0  MPKI: 0

L1I PREFETCH  REQUESTED:     870404  ISSUED:     870404  USEFUL:          0  USELESS:          0
L1I USEFUL LOAD PREFETCHES:          0 PREFETCH ISSUED TO LOWER LEVEL:          0  ACCURACY: -nan
 TIMELY PREFETCHES:          0 LATE PREFETCHES: 0 DROPPED PREFETCHES: 0
L1I AVERAGE MISS LATENCY: 17.4381 cycles
L1I RQ	ACCESS:    9470944	FORWARD:          0	MERGED:    2877339	TO_CACHE:    6593605
L1I PQ	ACCESS:     870404	FORWARD:          0	MERGED:     265638	TO_CACHE:     604766

L1BTB TOTAL     ACCESS:    5680888  HIT:    2074061  MISS:    3606827  HIT %:    36.5095  MISS %:    63.4905   MPKI: 72.1365
L1BTB BRANCH_DIRECT_JUMP	ACCESS:     543196 HIT:     143761 MISS:     399435 AVERAGE STALL: 33.5863 AVERAGE FETCH STALL: 18.9733 AVERAGE FETCH QUEUE STALL: 6.49188 AVERAGE DECODE STALL: 7.27319 AVERAGE EXECUTE STALL: 2.03809e+14
L1BTB BRANCH_INDIRECT	ACCESS:     181400 HIT:      65430 MISS:     115970 AVERAGE STALL: 90.3079 AVERAGE FETCH STALL: 14.6987 AVERAGE FETCH QUEUE STALL: 6.78887 AVERAGE DECODE STALL: 6.59639 AVERAGE EXECUTE STALL: 61.2862
L1BTB BRANCH_CONDITIONAL	ACCESS:    2732107 HIT:    1447742 MISS:    1284365 AVERAGE STALL: 34.38 AVERAGE FETCH STALL: 20.8044 AVERAGE FETCH QUEUE STALL: 6.42095 AVERAGE DECODE STALL: 6.40796 AVERAGE EXECUTE STALL: 7.49453e+13
L1BTB BRANCH_DIRECT_CALL	ACCESS:     941242 HIT:     104904 MISS:     836338 AVERAGE STALL: 36.7082 AVERAGE FETCH STALL: 21.6631 AVERAGE FETCH QUEUE STALL: 6.99413 AVERAGE DECODE STALL: 7.2967 AVERAGE EXECUTE STALL: 9.81397e+13
L1BTB BRANCH_INDIRECT_CALL	ACCESS:     170851 HIT:      21534 MISS:     149317 AVERAGE STALL: 107.867 AVERAGE FETCH STALL: 17.3277 AVERAGE FETCH QUEUE STALL: 7.90424 AVERAGE DECODE STALL: 6.98452 AVERAGE EXECUTE STALL: 75.1068
L1BTB BRANCH_RETURN	ACCESS:    1112092 HIT:     290690 MISS:     821402 AVERAGE STALL: 34.545 AVERAGE FETCH STALL: 18.9159 AVERAGE FETCH QUEUE STALL: 5.45165 AVERAGE DECODE STALL: 6.19065 AVERAGE EXECUTE STALL: 1.13895e+14
L1BTB BRANCH_OTHER ACCESS:          0 HIT:          0 MISS:          0 AVERAGE STALL: -nan AVERAGE FETCH STALL: -nan AVERAGE FETCH QUEUE STALL: -nan AVERAGE DECODE STALL: -nan AVERAGE EXECUTE STALL: -nan
L1BTB TOTAL ROB OCCUPANCY AT BTB MISS: 18.4783

L2BTB TOTAL     ACCESS:    3581858  HIT:    2857054  MISS:     724804  HIT %:    79.7646  MISS %:    20.2354   MPKI: 14.4961
L2BTB BRANCH_DIRECT_JUMP	ACCESS:     395332 HIT:     308905 MISS:      86427 AVERAGE STALL: 33.5863 AVERAGE FETCH STALL: 18.9733 AVERAGE FETCH QUEUE STALL: 6.49188 AVERAGE DECODE STALL: 7.27319 AVERAGE EXECUTE STALL: 2.03809e+14
L2BTB BRANCH_INDIRECT	ACCESS:     105734 HIT:      96554 MISS:       9180 AVERAGE STALL: 90.3079 AVERAGE FETCH STALL: 14.6987 AVERAGE FETCH QUEUE STALL: 6.78887 AVERAGE DECODE STALL: 6.59639 AVERAGE EXECUTE STALL: 61.2862
L2BTB BRANCH_CONDITIONAL	ACCESS:    1284365 HIT:    1036591 MISS:     247774 AVERAGE STALL: 34.38 AVERAGE FETCH STALL: 20.8044 AVERAGE FETCH QUEUE STALL: 6.42095 AVERAGE DECODE STALL: 6.40796 AVERAGE EXECUTE STALL: 7.49453e+13
L2BTB BRANCH_DIRECT_CALL	ACCESS:     836338 HIT:     648334 MISS:     188004 AVERAGE STALL: 36.7082 AVERAGE FETCH STALL: 21.6631 AVERAGE FETCH QUEUE STALL: 6.99413 AVERAGE DECODE STALL: 7.2967 AVERAGE EXECUTE STALL: 9.81397e+13
L2BTB BRANCH_INDIRECT_CALL	ACCESS:     139904 HIT:     107261 MISS:      32643 AVERAGE STALL: 107.867 AVERAGE FETCH STALL: 17.3277 AVERAGE FETCH QUEUE STALL: 7.90424 AVERAGE DECODE STALL: 6.98452 AVERAGE EXECUTE STALL: 75.1068
L2BTB BRANCH_RETURN	ACCESS:     820185 HIT:     659409 MISS:     160776 AVERAGE STALL: 34.545 AVERAGE FETCH STALL: 18.9159 AVERAGE FETCH QUEUE STALL: 5.45165 AVERAGE DECODE STALL: 6.19065 AVERAGE EXECUTE STALL: 1.13895e+14
L2BTB BRANCH_OTHER ACCESS:          0 HIT:          0 MISS:          0 AVERAGE STALL: -nan AVERAGE FETCH STALL: -nan AVERAGE FETCH QUEUE STALL: -nan AVERAGE DECODE STALL: -nan AVERAGE EXECUTE STALL: -nan
L2BTB TOTAL ROB OCCUPANCY AT BTB MISS: 91.953

L2C TOTAL     ACCESS:    4543736  HIT:    4029147  MISS:     514589  HIT %:    88.6748  MISS %:    11.3252   MPKI: 10.2918
L2C LOAD INSTRUCTION	ACCESS:    2748231  HIT:    2475157  MISS:     273074  HIT %:    90.0636  MISS %:    9.93636  MPKI: 5.46148
L2C LOAD TRANSLATION INSTRUCTION	ACCESS:        404  HIT:        110  MISS:        294  HIT %:    27.2277  MISS %:    72.7723  MPKI: 0.00588
L2C LOAD DATA	ACCESS:     753698  HIT:     661647  MISS:      92051  HIT %:    87.7868  MISS %:    12.2132  MPKI: 1.84102
L2C RFO DATA	ACCESS:     292913  HIT:     235348  MISS:      57565  HIT %:    80.3474  MISS %:    19.6526  MPKI: 1.1513
L2C PREFETCH DATA	ACCESS:     214636  HIT:     137747  MISS:      76889  HIT %:     64.177  MISS %:     35.823  MPKI: 1.53778
L2C WRITEBACK DATA	ACCESS:     531523  HIT:     518392  MISS:      13131  HIT %:    97.5296  MISS %:    2.47045  MPKI: 0.26262
L2C LOAD TRANSLATION DATA	ACCESS:       2260  HIT:        694  MISS:       1566  HIT %:     30.708  MISS %:     69.292  MPKI: 0.03132
L2C TRANSLATION FROM L1D PREFETCHER DATA	ACCESS:         71  HIT:         52  MISS:         19  HIT %:    73.2394  MISS %:    26.7606  MPKI: 0.00038

L2C PREFETCH  REQUESTED:     101803  ISSUED:     101803  USEFUL:       9341  USELESS:      68292
L2C USEFUL LOAD PREFETCHES:       9341 PREFETCH ISSUED TO LOWER LEVEL:      77683  ACCURACY: 12.0245
 TIMELY PREFETCHES:       9341 LATE PREFETCHES: 794 DROPPED PREFETCHES: 0
L2C AVERAGE MISS LATENCY: 40.432 cycles
L2C RQ	ACCESS:    3797630	FORWARD:          0	MERGED:          0	TO_CACHE:    3797577
L2C WQ	ACCESS:     531523	FORWARD:         53	MERGED:          0	TO_CACHE:     531523
L2C PQ	ACCESS:     222822	FORWARD:          0	MERGED:       3636	TO_CACHE:     219186

L2C Dense regions hint from L2: 0
PSCL5 TOTAL     ACCESS:       5024  HIT:       2512  MISS:       2512  HIT %:         50  MISS %:         50   MPKI: 0.05024
PSCL5 LOAD TRANSLATION INSTRUCTION	ACCESS:       4882  HIT:       2441  MISS:       2441  HIT %:         50  MISS %:         50  MPKI: 0.04882
PSCL5 TRANSLATION FROM L1D PREFETCHER INSTRUCTION	ACCESS:        142  HIT:         71  MISS:         71  HIT %:         50  MISS %:         50  MPKI: 0.00142


PSCL4 TOTAL     ACCESS:       3160  HIT:       1577  MISS:       1583  HIT %:    49.9051  MISS %:    50.0949   MPKI: 0.03166
PSCL4 LOAD TRANSLATION INSTRUCTION	ACCESS:       2669  HIT:       1532  MISS:       1137  HIT %:    57.3998  MISS %:    42.6002  MPKI: 0.02274
PSCL4 TRANSLATION FROM L1D PREFETCHER INSTRUCTION	ACCESS:         90  HIT:         45  MISS:         45  HIT %:         50  MISS %:         50  MPKI: 0.0009
PSCL4 LOAD TRANSLATION DATA	ACCESS:        401  HIT:          0  MISS:        401  HIT %:          0  MISS %:        100  MPKI: 0.00802


PSCL3 TOTAL     ACCESS:       4887  HIT:       2434  MISS:       2453  HIT %:    49.8056  MISS %:    50.1944   MPKI: 0.04906
PSCL3 LOAD TRANSLATION INSTRUCTION	ACCESS:       3937  HIT:       2379  MISS:       1558  HIT %:    60.4267  MISS %:    39.5733  MPKI: 0.03116
PSCL3 TRANSLATION FROM L1D PREFETCHER INSTRUCTION	ACCESS:        102  HIT:         55  MISS:         47  HIT %:    53.9216  MISS %:    46.0784  MPKI: 0.00094
PSCL3 LOAD TRANSLATION DATA	ACCESS:        840  HIT:          0  MISS:        840  HIT %:          0  MISS %:        100  MPKI: 0.0168
PSCL3 TRANSLATION FROM L1D PREFETCHER DATA	ACCESS:          8  HIT:          0  MISS:          8  HIT %:          0  MISS %:        100  MPKI: 0.00016


PSCL2 TOTAL     ACCESS:       4826  HIT:       2314  MISS:       2512  HIT %:    47.9486  MISS %:    52.0514   MPKI: 0.05024
PSCL2 LOAD TRANSLATION INSTRUCTION	ACCESS:       2594  HIT:       2243  MISS:        351  HIT %:    86.4688  MISS %:    13.5312  MPKI: 0.00702
PSCL2 TRANSLATION FROM L1D PREFETCHER INSTRUCTION	ACCESS:         71  HIT:         71  MISS:          0  HIT %:        100  MISS %:          0  MPKI: 0
PSCL2 LOAD TRANSLATION DATA	ACCESS:       2090  HIT:          0  MISS:       2090  HIT %:          0  MISS %:        100  MPKI: 0.0418
PSCL2 TRANSLATION FROM L1D PREFETCHER DATA	ACCESS:         71  HIT:          0  MISS:         71  HIT %:          0  MISS %:        100  MPKI: 0.00142


LLC TOTAL     ACCESS:     581210  HIT:     551116  MISS:      30094  HIT %:    94.8222  MISS %:    5.17782   MPKI: 0.60188
LLC LOAD INSTRUCTION	ACCESS:     273074  HIT:     271872  MISS:       1202  HIT %:    99.5598  MISS %:   0.440174  MPKI: 0.02404
LLC LOAD TRANSLATION INSTRUCTION	ACCESS:        294  HIT:        259  MISS:         35  HIT %:    88.0952  MISS %:    11.9048  MPKI: 0.0007
LLC LOAD DATA	ACCESS:      91265  HIT:      87651  MISS:       3614  HIT %:    96.0401  MISS %:     3.9599  MPKI: 0.07228
LLC RFO DATA	ACCESS:      57553  HIT:      42916  MISS:      14637  HIT %:    74.5678  MISS %:    25.4322  MPKI: 0.29274
LLC PREFETCH DATA	ACCESS:      77683  HIT:      67392  MISS:      10291  HIT %:    86.7526  MISS %:    13.2474  MPKI: 0.20582
LLC WRITEBACK DATA	ACCESS:      79756  HIT:      79532  MISS:        224  HIT %:    99.7191  MISS %:   0.280857  MPKI: 0.00448
LLC LOAD TRANSLATION DATA	ACCESS:       1566  HIT:       1475  MISS:         91  HIT %:     94.189  MISS %:    5.81098  MPKI: 0.00182
LLC TRANSLATION FROM L1D PREFETCHER DATA	ACCESS:         19  HIT:         19  MISS:          0  HIT %:        100  MISS %:          0  MPKI: 0

LLC AVERAGE MISS LATENCY: 191.54 cycles
LLC RQ	ACCESS:     423775	FORWARD:          0	MERGED:          0	TO_CACHE:     423771
LLC WQ	ACCESS:      79756	FORWARD:          4	MERGED:          0	TO_CACHE:      79756
LLC PQ	ACCESS:      77683	FORWARD:          0	MERGED:          0	TO_CACHE:      77683

LLC Dense regions hint to LLC: 0

RAW hits: 1676994
Loads Generated: 12605135
Loads sent to L1D: 10928141
Stores Generated: 6907628
Stores sent to L1D: 6907638
Major fault: 0 Minor fault: 2405
Allocated PAGES: 2405

stream: 
stream:times selected: 1246592
stream:pref_filled: 127320
stream:pref_useful: 28640
stream:pref_late: 9933
stream:misses: 10813
stream:misses_by_poll: 0

CS: 
CS:times selected: 197888
CS:pref_filled: 74545
CS:pref_useful: 50550
CS:pref_late: 9599
CS:misses: 24367
CS:misses_by_poll: 5

CPLX: 
CPLX:times selected: 1047378
CPLX:pref_filled: 24735
CPLX:pref_useful: 7545
CPLX:pref_late: 4241
CPLX:misses: 131657
CPLX:misses_by_poll: 7

NL_L1: 
NL:times selected: 22196
NL:pref_filled: 1243
NL:pref_useful: 600
NL:pref_late: 692
NL:misses: 3303
NL:misses_by_poll: 0

total selections: 2514054
total_filled: 107500
total_useful: 50484
total_late: 27092
total_polluted: 12
total_misses_after_warmup: 798355
conflicts: 5651770

test: 119722

DRAM Statistics
 CHANNEL 0
 RQ ROW_BUFFER_HIT:      10761  ROW_BUFFER_MISS:      19090
 DBUS_CONGESTED:         13
 WQ ROW_BUFFER_HIT:       2158  ROW_BUFFER_MISS:      13655  FULL:          0

 AVG_CONGESTED_CYCLE: 4

CPU 0 Branch Prediction Accuracy: 99.8185% MPKI: 0.33254 Average ROB Occupancy at Mispredict: 111.639
Branch types
NOT_BRANCH: 40839075 81.6781%
BRANCH_DIRECT_JUMP: 543196 1.08639%
BRANCH_INDIRECT: 181400 0.3628%
BRANCH_CONDITIONAL: 6212158 12.4243%
BRANCH_DIRECT_CALL: 941242 1.88248%
BRANCH_INDIRECT_CALL: 170851 0.341702%
BRANCH_RETURN: 1112092 2.22418%
BRANCH_OTHER: 0 0%

DRAM PAGES: 1048576
Allocated PAGES: 2405
Average_ROB_Occupancy: 108.848
Average_Decode_Occupancy: 12.9983
Average_FTQ_Occupancy: 6.28727
Indirect max targets: 14 Average targets: 1.17572
Branch_type:  BRANCH_DIRECT_JUMP:  Count Percentage: 3.2527 6.70573 3.72958 7.67135 2.79193 5.97145 0.881761 68.9955 
Branch_type:  BRANCH_INDIRECT:  Count Percentage: 11.7615 3.47504 2.53226 0 2.53722 9.69166 19.2082 50.7942 
Branch_type:  BRANCH_CONDITIONAL:  Count Percentage: 17.6465 2.12509 6.92137 7.78004 1.66063 4.7785 1.73049 57.3574 
Branch_type:  BRANCH_DIRECT_CALL:  Count Percentage: 0.264899 1.24886 1.43212 3.74089 3.46498 2.34726 0.613627 86.8874 
Branch_type:  BRANCH_INDIRECT_CALL:  Count Percentage: 9.51994 0.566925 2.9817 4.83249 1.29763 1.71015 1.27829 77.8129 
Branch_type:  BRANCH_RETURN:  Count Percentage: 3.44186 0.569291 1.48104 8.45382 3.60332 6.37661 2.8646 73.2095 
Branch_type:  BRANCH_DIRECT_JUMP:  Total Count: 35332 72840 40512 83329 30327 64864 9578 749454 
Branch_type:  BRANCH_INDIRECT:  Total Count: 42703 12617 9194 0 9212 35188 69740 184421 
Branch_type:  BRANCH_CONDITIONAL:  Total Count: 2192058 263980 859779 966444 206285 593590 214963 7124991 
Branch_type:  BRANCH_DIRECT_CALL:  Total Count: 4977 23464 26907 70285 65101 44101 11529 1632465 
Branch_type:  BRANCH_INDIRECT_CALL:  Total Count: 32493 1935 10177 16494 4429 5837 4363 265587 
Branch_type:  BRANCH_RETURN:  Total Count: 76444 12644 32894 187760 80030 141625 63623 1625989 
Number of unique branch instructions: 10849
Upper 32 bits: 
aaaa
ffff
ffff0000
Unique upper 32 bits: 3
Unique upper 36 bits: 3
Unique upper 40 bits: 5
Unique upper 44 bits: 32
Unique upper 48 bits: 160
Offset_3 4511
Offset_4 261
Offset_5 486
Offset_6 554
Offset_7 641
Offset_8 574
Offset_9 522
Offset_10 436
Offset_11 357
Offset_12 298
Offset_13 235
Offset_14 233
Offset_15 207
Offset_16 234
Offset_17 168
Offset_18 163
Offset_19 261
Offset_20 149
Offset_21 245
Offset_22 413
Offset_23 241
Offset_24 342
Offset_25 114
Offset_47 91
decode_dispatch_called: 19585313 40.9275
Dispatch_width: 0 9466516 48.3348 19.7822
Dispatch_width: 1 546083 2.78823 1.14115
Dispatch_width: 2 707845 3.61416 1.47919
Dispatch_width: 3 472235 2.41117 0.986832
Dispatch_width: 4 1696497 8.66209 3.54518
Dispatch_width: 5 341286 1.74256 0.713187
Dispatch_width: 6 6354851 32.447 13.2798
Empty_decode_cycles: 28268342 59.0725
ROB_full_cycles: 2272115 4.74805
Starvation_cycles_per_kilo_instr: 392.267
Starvation_cycles_per_kilo_instr_3: 371.889
Starvation_cycles_per_kilo_instr_0: 354.627
Branch_type_1  (3,1)  (4,7)  (5,38)  (6,80)  (7,126)  (8,145)  (9,137)  (10,115)  (11,84)  (12,48)  (13,10)  (14,2)  (15,3)  (16,4)  (18,1)  (19,5)  (20,2)  (21,1)  (22,3)  (23,2)  (24,10)  (25,12) 
Branch_type_2  (3,1)  (4,1)  (5,1)  (8,4)  (9,4)  (10,1)  (12,1)  (13,1)  (14,1)  (16,3)  (17,2)  (20,2)  (21,2)  (23,5)  (24,1)  (47,40) 
Branch_type_3  (3,4509)  (4,253)  (5,443)  (6,457)  (7,482)  (8,361)  (9,288)  (10,182)  (11,140)  (12,53)  (13,10) 
Branch_type_4  (6,4)  (7,8)  (8,26)  (9,57)  (10,65)  (11,68)  (12,108)  (13,101)  (14,104)  (15,100)  (16,104)  (17,77)  (18,72)  (19,126)  (20,75)  (21,130)  (22,221)  (23,136)  (24,198)  (25,98)  (47,1) 
Branch_type_5  (8,3)  (9,1)  (10,4)  (11,5)  (12,3)  (13,14)  (14,16)  (15,11)  (16,22)  (17,12)  (18,23)  (19,14)  (20,12)  (21,13)  (22,43)  (23,26)  (24,37) 
Branch_type_6  (5,4)  (6,13)  (7,25)  (8,35)  (9,35)  (10,69)  (11,60)  (12,85)  (13,99)  (14,110)  (15,93)  (16,101)  (17,77)  (18,67)  (19,116)  (20,58)  (21,99)  (22,146)  (23,72)  (24,96)  (25,4)  (47,50) 
aaaaab1fc620: 2ac9e77e 2aca717c 2aca8eff 2acaf6bc 2acaf9aa 2acaf9f1 2acb1abc 2acb1b7f 2acd4e22 2acdb712 2acf5f9e 2ad0ef44 2ad3f15c 2ad414e6 2ad60e42 2ad8609c 2ad99830 2ada35cc 2ada4676 2ada6612 2adf183e 2adf30e5 2adf5602 2adf785c 2ae11572 2aeb2dcf 2aee101b 2aee1ae1 2b156a8c 2b156b61 2b156bea 2b167f35 2b177656 2b17feec 2b1a3e5a 
aaaaab1fc640: 2ac9ec07 2aca656e 2aca801d 2acaea11 2acaee73 2acb13ee 2acb1470 2acd462b 2ad0ef5d 2ad3f3fe 2ad86e9b 2ada1641 2ada4115 2ada6638 2adf30d4 2ae12e57 2aee1033 2b1693ab 2b16948c 2b169491 2b17d915 2b17fa85 2b17fccd 
aaaaab1fcb00: 2acf2d72 2acf3734 2acf604c 2acfa5b7 2ad397b5 2ad3b800 2ae8af7d 2ae8aff0 2ae9aaba 2aea9fc6 2aeaa358 2aee910b 2aee91cf 2aee928e 2aee92e4 2af6fe87 2af70dfe 2b16850c 2b16c4a2 2b1765f4 2b178094 2b17d925 2b17db06 
aaaaab1fcb10: 2acf2d95 2acf3758 2acf6052 2acfa5f4 2ad397c3 2ad3b81c 2ae8af88 2ae8affe 2ae9aacf 2aeaa017 2aeaa36d 2aee9114 2aee91d8 2aee934d 2aee9353 2af6fe8c 2af70e22 2b168526 2b16c542 2b176609 2b1780a3 2b17d95d 2b17db44 
aaaaac68f310: 2ac9ec8c 2ac9fb44 2ac9fbd2 2aca59ab 2acac04c 2acaf6e0 2acaf6ec 2acaf6f9 2acaf700 2acaf708 2acf2d90 2ad3cfbd 2ad3cfc4 2ad3d000 2ad3f35f 2ad4955d 2ad49571 2ad4f3f2 2ad4f400 2ad5f240 2ad5f37c 2ad5f86a 2ad5f86f 2ad5f880 2ad5fc0d 2ad5fc14 2ad5fc21 2ad5fe1b 2ad873bb 2ad873e3 2ad8a6b2 2ad9086e 2ad93096 2ad9bbb2 2ada152c 2ada1554 2ada3332 2ada5522 2adf3130 2adf313c 2adf3a3f 2adf3bd9 2adf5788 2adf7a8d 2ae07f6b 2ae0857a 2ae0857e 2ae08630 2ae08634 2ae08637 2ae08642 2ae0866f 2ae086e4 2ae086ec 2ae08717 2ae0871b 2aee0170 2aee1d38 2aee75f4 2aee7662 2aee85ca 2aee85e4 2aee8eef 2af70b84 2af74e8f 2b17d843 
aaaaac690ef0: 2aca598b 2acb111b 2acb175f 2acb1772 2acbfaf4 2acbfb00 2acf374f 2acf6d43 2acfa5c8 2ad3baf1 2ad3d4ac 2ad3d4b8 2ad3f1cf 2ad486b2 2ad5a59b 2ad5fc64 2ad5fcf9 2ad6121c 2ad906e9 2ad907bf 2ad9bada 2ada16ce 2ada1ad5 2ada43df 2ada64c0 2ada72ee 2adeb71a 2adf3bcb 2adf7a38 2adf7c6a 2adf8872 2adf8880 2adf9959 2adf9abe 2ae07f78 2ae08503 2ae08754 2ae12e80 2aea3bea 2aecb509 2aee00b0 2aee2bdd 2aee5467 2aee5601 2aee8f20 2af703fd 2af7048b 2af74e74 
Unique trigger count: 
1 10339
2 560
3 92
4 31
5 13
6 10
7 9
8 2
9 4
10 2
11 1
12 1
13 1
14 3
16 2
19 2
23 3
35 1
48 1
66 1
BTB PER SET UNIQUE ADDR: 1 2 2 2 0 0 1 1 3 0 2 0 1 1 0 1 2 1 1 2 0 1 1 2 1 2 1 2 1 1 2 2 2 1 2 0 0 3 4 0 1 2 3 3 1 0 2 1 4 1 1 1 2 0 0 2 3 3 1 1 1 2 2 2 0 4 4 0 2 2 5 1 1 2 1 1 2 6 2 1 1 2 1 4 3 2 1 4 3 2 3 4 2 3 3 0 1 3 0 1 3 2 2 3 3 2 1 1 3 0 1 2 3 2 1 3 1 2 1 0 3 2 2 0 1 1 1 1 3 3 3 0 1 0 2 1 0 0 1 2 2 3 3 1 0 1 2 3 3 2 1 6 1 2 2 1 0 3 2 1 0 0 0 1 3 4 0 1 5 2 1 2 2 1 1 0 1 1 3 1 1 4 6 2 2 2 2 1 1 1 5 1 1 2 1 1 1 1 0 0 2 1 1 0 0 0 1 0 0 0 0 2 2 1 2 1 0 2 1 0 0 0 1 3 2 0 2 2 0 2 5 3 1 2 1 3 3 1 1 1 1 0 1 1 6 2 1 1 3 1 1 1 1 1 0 4 2 2 2 2 2 3 2 2 2 4 3 0 2 1 2 2 1 2 3 2 2 0 3 2 2 2 1 1 2 3 2 1 1 1 0 1 1 3 0 2 3 2 0 1 2 2 1 1 2 2 2 2 3 3 2 1 2 2 3 0 2 2 1 2 1 1 2 3 0 3 1 4 0 0 4 0 2 2 3 1 1 3 4 0 3 0 0 1 2 2 1 2 0 3 1 2 2 2 2 2 1 0 3 0 0 2 1 2 3 2 1 0 0 0 3 1 2 0 1 2 2 2 2 3 0 0 1 3 0 0 2 1 2 1 1 2 2 2 2 0 3 0 0 2 3 1 3 1 1 0 1 2 0 1 0 0 1 1 1 0 3 1 1 2 1 1 3 2 1 3 0 0 1 3 0 0 4 2 3 3 2 1 1 0 0 4 3 2 2 1 1 2 1 1 3 0 0 1 3 0 1 2 2 1 3 0 3 2 0 0 1 0 1 3 0 1 1 1 3 1 0 1 0 0 0 1 1 2 0 2 2 0 2 1 1 1 1 2 0 2 1 1 2 0 3 0 0 1 0 2 1 0 0 2 3 2 3 3 1 0 1 4 2 5 1 0 4 1 2 2 1 3 3 2 4 1 2 2 1 4 0 0 3 1 0 4 3 0 5 1 5 3 4 4 1 3 2 3 0 1 1 0 2 1 6 0 1 2 1 0 0 1 2 4 3 0 1 4 1 0 0 2 0 0 1 1 1 0 1 0 0 4 1 2 3 2 0 2 1 2 3 0 2 2 1 0 1 3 0 0 1 1 2 0 2 3 2 1 2 0 2 0 2 1 3 1 4 0 3 2 2 2 1 0 3 2 0 2 2 4 0 1 1 1 4 1 3 3 0 0 2 0 2 1 1 1 3 2 2 0 3 0 1 4 2 2 3 4 2 1 2 1 0 0 4 1 1 0 4 2 0 1 3 2 1 0 1 2 2 1 1 2 2 1 0 2 1 1 1 3 3 3 2 2 0 2 0 2 1 1 0 1 0 0 1 2 0 1 2 0 1 1 0 2 1 0 1 1 0 1 1 1 0 2 3 2 1 0 1 1 5 2 1 0 1 3 1 2 1 0 2 1 2 2 0 0 1 2 1 1 2 3 1 1 1 1 0 2 0 1 3 1 0 0 2 2 0 0 1 2 3 1 1 1 2 1 0 0 3 3 3 3 0 0 1 3 0 0 2 3 3 1 1 0 2 2 1 2 1 1 1 4 0 2 0 2 1 0 2 1 1 0 0 3 3 0 1 0 2 1 1 1 1 4 1 1 2 1 3 0 1 0 3 2 0 1 0 2 0 1 3 2 3 0 2 1 3 1 3 2 0 0 1 0 0 0 0 1 4 1 1 0 2 0 1 1 1 2 1 0 2 2 3 1 2 1 1 0 0 0 1 2 0 0 2 0 1 2 1 1 4 0 1 1 1 0 0 1 1 3 0 1 0 4 3 3 0 0 1 2 0 1 1 2 4 1 3 1 2 0 3 0 2 1 3 1 4 2 2 1 1 1 0 1 1 1 0 3 2 2 1 2 1 1 1 0 4 1 1 0 4 2 2 1 2 1 2 2 2 4 8 2 2 2 1 1 0 2 3 1 3 4 1 2 3 2 1 3 2 1 1 2 2 1 3 2 1 2 2 1 2 2 1 4 0 1 2 1 2 3 3 2 1 2 2 0 3 0 1 2 3 2 1 3 3 1 7 4 0 2 2 1 1 1 3 5 2 1 3 0 0 1 1 0 2 0 1 3 0 2 4 1 4 4 0 1 3 2 1 3 2 2 2 1 0 1 1 0 2 0 1 2 3 2 1 5 3 2 0 1 7 0 1 1 1 1 2 2 1 5 2 3 2 4 2 4 2 2 1 0 4 1 1 2 1 6 1 0 3 1 1 1 2 1 1 2 3 4 2 2 2 1 1 4 4 2 1 1 1 1 3 2 1 4 2 2 2 1 2 4 0 1 3 1 0 2 1 0 1 3 1 2 1 2 1 4 2 1 1 1 3 2 1 0 2 0 0 3 2 1 2 2 1 4 0 2 5 0 3 3 1 2 2 4 2 4 0 6 4 0 2 1 2 0 0 1 3 0 1 1 2 4 1 0 0 3 3 3 1 1 0 0 1 4 1 4 2 2 0 2 0 1 2 4 5 1 5 0 0 1 1 1 4 0 2 3 2 1 1 1 0 4 1 3 0 1 1 5 3 1 2 2 0 2 3 3 2 4 2 3 0 0 3 3 4 1 2 2 0 1 3 2 3 1 0 1 1 2 5 3 4 0 0 1 1 1 3 2 3 0 0 1 2 3 1 0 3 1 1 1 1 1 5 0 1 2 0 4 3 0 2 1 3 2 1 1 2 1 2 2 0 3 2 0 0 3 1 1 2 2 1 1 1 2 1 1 1 2 0 3 3 2 1 2 0 1 2 0 2 2 0 2 1 1 2 2 1 0 3 0 1 1 2 2 1 1 1 1 1 4 1 3 2 1 2 0 1 1 1 4 2 2 1 2 1 2 0 1 4 2 3 1 4 2 1 1 1 2 3 1 1 1 4 0 5 2 2 3 1 0 3 3 1 1 1 3 0 2 2 1 1 1 2 2 0 1 1 4 2 1 2 2 0 2 2 0 1 2 1 1 1 0 0 2 0 0 1 1 0 2 1 3 4 1 1 0 1 1 1 0 1 0 0 3 1 0 1 1 0 1 1 0 0 0 1 0 0 1 0 0 1 0 2 0 2 1 1 0 1 0 0 5 1 0 1 1 3 1 1 0 2 2 1 0 3 0 1 1 1 1 1 0 2 0 3 1 0 1 3 0 0 1 0 2 1 2 2 1 2 2 2 2 0 1 1 0 0 0 3 0 1 1 0 0 0 1 0 1 1 0 1 3 2 1 2 1 2 2 0 1 1 0 0 2 1 0 0 1 2 1 3 1 0 1 1 4 3 0 0 1 2 1 0 0 3 1 3 0 2 1 3 2 1 3 4 3 5 0 1 1 3 2 1 5 4 3 2 3 4 0 0 2 2 1 1 2 1 1 2 0 2 1 0 1 2 0 1 1 3 1 2 2 3 1 0 1 3 0 2 3 2 1 2 1 3 3 1 1 1 2 2 1 1 4 2 1 1 1 1 3 3 1 1 1 1 0 2 1 2 3 1 0 1 1 0 3 3 1 0 2 2 0 1 2 2 1 1 2 1 0 0 3 2 1 0 0 0 2 1 0 2 1 3 2 2 1 4 1 2 6 3 2 3 2 0 3 2 1 1 1 2 0 0 2 3 1 2 0 0 3 3 1 2 2 0 0 1 2 3 2 2 1 2 2 2 1 0 2 0 1 2 1 0 0 1 1 0 1 2 0 3 0 4 1 1 0 2 1 1 3 0 3 0 1 0 1 1 1 4 0 2 1 0 1 2 1 0 1 0 0 1 1 1 1 2 2 3 0 3 0 0 1 2 1 1 6 1 0 2 3 3 2 3 2 5 1 3 3 0 2 1 3 2 5 4 0 2 1 5 0 4 0 3 2 2 2 1 1 1 0 1 2 0 2 0 1 3 3 2 1 5 2 2 1 3 0 2 0 3 1 3 2 2 2 2 1 0 2 3 2 0 0 1 2 0 0 0 1 0 1 1 3 0 2 2 2 3 2 2 1 2 2 2 1 1 2 2 1 0 2 2 1 2 0 0 1 0 0 0 0 0 1 1 1 2 1 1 2 0 0 0 1 1 1 1 1 1 1 2 2 2 0 3 1 1 2 1 2 1 2 1 0 1 0 3 1 0 1 2 1 2 2 2 2 0 2 0 1 0 0 2 2 0 4 2 4 1 2 2 6 1 0 0 1 4 3 3 1 2 1 3 1 0 1 2 4 2 6 2 0 3 0 1 1 1 1 2 1 0 2 0 1 2 3 1 0 0 3 4 1 0 0 3 3 1 1 3 3 1 0 3 3 0 1 2 4 0 0 0 2 1 0 4 0 1 0 2 2 3 0 2 1 2 1 2 1 0 2 5 2 3 0 2 2 1 1 1 1 2 1 1 0 1 0 4 2 1 2 2 1 3 3 3 3 1 1 3 3 0 2 2 1 4 4 2 3 2 2 1 3 1 2 3 2 1 4 5 3 2 3 2 2 2 1 1 1 0 1 1 0 2 2 0 2 0 1 1 0 1 4 1 3 0 0 0 2 1 3 1 0 0 3 1 1 0 0 0 2 1 2 0 1 3 1 1 2 0 0 3 1 2 2 1 2 1 0 1 0 0 1 0 2 1 0 0 4 1 3 1 2 3 1 2 2 0 0 0 2 1 1 4 2 3 2 3 1 4 3 2 2 2 1 3 1 1 2 1 4 1 2 2 2 2 3 2 3 2 0 5 2 2 2 4 6 5 3 3 2 2 1 4 1 1 2 4 3 0 2 4 3 2 0 1 2 2 2 5 4 1 2 2 2 1 2 2 2 3 3 2 2 3 4 1 2 3 2 3 3 1 4 2 1 2 2 3 3 2 1 3 3 3 0 1 2 1 1 1 2 2 1 0 1 3 1 2 2 3 1 2 2 1 1 0 0 5 2 5 5 0 2 1 3 2 1 1 3 2 2 1 2 2 1 2 1 2 0 1 3 0 2 2 1 1 0 1 1 1 0 0 1 0 1 2 1 4 1 3 2 1 2 0 0 0 3 0 3 2 0 1 1 2 1 1 1 1 1 2 0 1 0 3 2 2 0 1 0 2 2 4 4 1 1 3 5 2 2 2 0 2 3 1 1 2 0 0 3 2 1 2 1 2 0 1 0 1 4 3 0 0 4 4 2 3 5 3 1 3 1 1 0 2 1 2 4 2 2 3 3 0 1 2 2 0 1 1 4 3 2 1 2 1 1 6 3 1 3 3 3 3 1 4 0 4 4 2 0 1 1 2 0 1 2 1 1 1 1 2 4 2 0 1 0 1 3 4 3 2 3 2 2 0 1 0 0 1 2 3 1 3 0 1 2 0 1 4 1 2 2 1 2 3 0 3 1 2 1 3 5 1 1 2 1 1 3 1 2 2 1 1 2 5 1 0 3 1 4 3 3 4 3 2 0 0 3 4 3 2 0 4 4 1 2 2 0 1 0 0 2 1 0 3 1 2 0 2 2 1 4 2 2 0 1 2 1 1 1 1 0 1 2 2 1 0 0 0 4 0 1 1 2 3 1 3 3 1 1 3 3 0 3 3 2 1 2 2 4 3 0 2 1 1 1 2 1 4 2 1 1 3 0 3 5 2 3 1 3 1 2 2 1 2 3 1 2 4 1 1 1 4 2 0 3 1 3 2 3 1 2 3 2 1 6 4 1 1 0 0 0 0 5 3 1 3 5 1 0 2 1 3 2 2 0 6 2 5 3 2 3 3 3 0 2 3 1 0 2 0 1 0 0 1 0 1 3 3 2 0 2 1 2 1 3 2 3 3 1 3 1 3 4 2 1 3 0 1 1 1 0 2 3 1 4 3 1 1 1 2 0 1 3 1 0 3 0 2 1 3 2 4 2 2 3 1 3 4 4 1 5 3 2 0 1 3 2 3 0 3 2 5 2 2 4 1 2 1 2 2 0 3 1 2 2 0 4 1 1 2 2 4 1 3 1 2 3 4 2 0 1 7 1 0 1 1 0 0 0 1 2 0 2 2 1 4 4 1 2 2 4 2 2 1 2 1 1 1 2 1 2 1 1 3 0 1 3 0 2 2 1 1 3 3 1 2 2 2 3 4 3 6 2 2 2 3 3 0 3 2 2 2 1 1 2 2 3 0 3 5 3 0 2 0 2 2 1 2 1 2 4 5 1 2 3 4 1 3 1 4 3 2 1 2 1 2 3 3 0 3 3 0 2 0 1 2 2 3 2 0 2 3 2 3 0 2 1 1 1 2 2 1 2 2 1 3 1 3 2 2 3 3 3 3 2 4 2 3 3 2 2 3 2 3 4 2 6 2 1 4 2 2 4 3 4 0 3 3 4 3 1 0 2 2 3 1 5 3 5 5 3 1 1 2 5 3 3 2 2 1 0 2 4 1 0 4 2 1 3 5 2 4 4 3 1 2 1 1 3 0 4 0 2 5 0 2 4 3 2 2 2 0 2 3 7 2 3 5 5 4 3 5 3 2 7 3 1 1 1 3 5 5 3 4 3 5 1 1 4 1 3 2 4 2 1 0 2 2 3 0 2 1 3 4 1 1 4 0 3 4 0 4 1 0 1 4 3 2 2 1 0 1 1 1 2 2 4 2 5 3 3 2 3 2 1 3 1 3 1 0 2 2 1 3 2 3 4 1 4 5 0 2 0 1 2 2 1 2 1 2 2 1 1 1 2 1 3 4 1 0 2 3 1 2 1 1 2 3 1 2 2 1 4 1 3 0 2 0 2 3 1 0 1 1 1 3 0 0 1 2 1 1 1 0 2 0 4 2 1 2 0 3 1 1 4 0 1 3 3 2 3 0 3 2 2 1 1 1 0 0 1 1 1 3 2 2 2 3 1 3 3 5 1 1 3 4 1 2 4 2 2 4 0 5 1 3 2 2 2 3 2 3 4 2 2 4 4 2 2 2 0 2 1 0 4 1 1 1 1 3 2 1 1 4 1 1 2 2 3 4 0 5 1 2 4 1 1 3 2 1 3 1 2 2 2 2 2 2 3 1 2 2 4 0 4 3 1 3 2 2 2 4 0 4 2 1 1 1 4 2 0 1 0 2 1 3 0 1 2 3 1 3 4 1 1 1 1 3 3 0 3 3 2 0 2 2 0 3 0 1 4 3 1 1 1 1 0 2 0 0 1 4 1 2 1 1 3 2 1 2 0 3 1 3 4 6 1 1 3 3 3 2 1 0 2 2 2 0 0 3 2 1 2 2 2 0 3 1 1 1 5 2 3 3 4 0 2 3 1 1 1 3 1 4 6 2 3 0 2 3 4 1 4 1 6 5 1 1 1 1 2 2 2 1 2 2 3 5 2 3 2 3 2 3 2 1 4 3 3 1 1 2 1 3 0 1 1 4 3 2 0 2 0 0 1 3 7 3 2 1 3 2 2 2 3 2 1 1 0 1 2 2 1 2 2 3 3 1 0 2 2 0 1 0 3 0 3 5 0 0 1 3 1 2 2 5 0 4 3 1 3 1 4 0 2 2 2 1 1 3 1 3 0 0 2 4 1 2 3 3 4 2 4 2 1 2 0 2 1 2 0 3 1 2 1 0 4 0 1 1 2 1 3 4 0 3 3 2 0 4 1 5 2 0 1 3 1 1 3 1 3 2 0 2 2 1 2 2 2 1 2 6 2 4 2 2 3 2 3 2 1 5 0 2 3 3 3 2 1 2 0 1 0 2 2 2 3 1 3 1 1 2 1 3 2 5 0 0 2 1 2 3 3 2 2 3 0 0 1 2 0 0 2 1 3 2 2 1 0 4 2 1 3 1 4 0 2 1 2 4 0 1 0 1 2 2 1 2 3 1 2 2 2 1 4 0 4 3 2 2 0 3 0 3 3 3 3 2 2 0 3 0 2 1 1 4 0 2 2 2 3 1 1 3 2 1 7 4 3 3 1 2 0 1 3 3 1 0 0 1 1 1 0 2 2 2 3 4 0 3 1 5 2 3 0 0 5 0 1 4 3 0 4 2 2 1 4 2 2 0 2 0 4 2 1 0 3 0 2 2 2 3 1 2 0 1 3 2 3 1 2 2 2 4 1 2 2 1 5 3 1 1 0 2 2 2 3 1 2 2 0 2 3 1 2 2 1 1 0 1 3 0 2 1 2 3 1 2 2 4 1 3 1 1 1 4 1 3 3 5 0 1 4 0 3 2 3 4 5 1 3 0 3 3 0 2 2 1 2 4 2 1 2 0 3 1 2 1 2 1 2 0 2 2 2 2 2 0 4 3 2 2 1 2 6 0 3 1 2 2 2 1 3 1 3 2 3 1 3 3 2 2 1 3 0 2 4 0 6 0 5 3 1 1 2 1 0 2 1 2 2 3 3 2 2 2 1 2 4 2 1 2 2 0 2 0 3 5 2 2 4 4 1 2 1 4 2 1 1 2 3 0 1 1 0 0 2 1 0 2 0 1 1 1 1 1 2 0 3 1 3 3 3 0 1 1 3 1 1 2 1 1 0 0 1 2 2 2 3 1 0 1 2 0 1 0 2 2 3 0 2 1 0 2 1 0 1 1 2 1 1 1 0 3 1 0 2 3 0 0 2 3 2 2 1 2 2 0 1 2 4 0 2 1 3 2 1 0 0 3 0 1 1 2 3 2 2 4 5 3 1 1 2 2 3 1 2 2 1 0 1 3 1 3 2 3 1 1 1 4 1 1 3 3 1 1 7 1 1 5 4 1 2 2 1 2 4 2 1 3 1 3 1 1 4 3 3 2 4 1 1 1 1 3 5 3 1 0 3 1 0 0 1 0 0 2 2 1 1 2 1 4 0 2 1 0 0 2 1 2 1 5 2 2 2 1 3 1 1 1 4 3 0 0 2 0 3 2 1 0 0 3 3 3 2 0 0 3 1 2 0 1 1 1 3 1 1 2 2 2 3 2 1 0 5 1 2 2 1 2 0 0 2 1 1 2 3 1 1 1 1 3 2 3 1 2 1 1 1 2 2 1 0 
BTB PER SET COUNT: 1 2 2 2 0 0 1 1 2431 0 2 0 1 1 0 1 2 1 1 2 0 1 1 2 1 2 1 3 1454 1 3 2 3 1 2 0 0 1460 3165 0 1 2 12 499 1 0 2 1 3881 2 1 1 2 0 0 2 1466 4362 1 1 1 2 2 3 0 1766 1935 0 2 2 5334 1 1 2 1 1 484 2564 2 1 1 2 1 1700 746 2 1 20 4364 2 689 498 2 2914 17 0 1 8 0 1 5 2 2 968 6 2 1 1 1450 0 1 2 968 2 1 747 1 2 1 0 6 2 3 0 1 1 1 1 6 17 1450 0 1 0 2 1 0 0 1 2 2 10 7 2 0 1 2 2915 1451 2 1 5217 1 2 5 1 0 8 2 1 0 0 0 1 8 11 0 1 4853 2 1 2 2 1 1 0 1 1 982 1 1 10 7278 2 2 2 3 1 1 1 4381 1 1 2 1 2 1 1 0 0 2 1 1 0 0 0 1 0 0 0 0 2 2 1 2 1 0 2 1 0 0 0 2 8 2 0 2 25 0 2 2363 6 1 2 1 8 8 1 1 1 1 0 1 1 5338 2 1 1 8 1 1 1 1 1 0 3397 2 2 2 2 2 1452 2 2 2 3877 969 0 2 1 2 2 1 2 17 2 2 0 2915 2 2 2 1 1 2 1935 2 1 1 1 0 1 1 4 0 2 9 2 0 1 2 2 1 1 2 2 2 2 1451 968 2 1 2 2 968 0 2 2 1 3 1 1 2 17 0 8 1 9 0 0 1454 0 2 2 2826 1 973 14 979 0 8 0 0 966 967 2 1 2 0 5 1 2 2 3 2 2 1 0 2910 0 0 2 1 2 1209 2 1 0 0 0 8 1 2 0 1 2 2 2 2 17 0 0 1 1460 0 0 2 1 2 1 1 2 2 2 2 0 2915 0 0 2 1452 1 9 1 1 0 1454 2 0 971 0 0 1 1 1 0 17 1 1 86 1 1 8 2 1 15 0 0 1 1452 0 0 1934 2 746 1455 2 1 2 0 0 971 1450 2 2 1 1 2 1 1 1451 0 0 1 1450 0 1 2 2 1 5 0 1452 2 0 0 1 0 1 36 0 1 1 483 29 1 0 1 0 0 0 1 1 484 0 2 2 0 2 1 1 1 3 2 0 2 1 1 2 0 968 0 0 1 0 2 1 0 0 2 1452 2 8 8 2 0 1 4372 2 1473 1 0 986 1 2 2 2 29 2930 2 4323 1 2 2 1 5335 0 0 4 1 0 1936 2910 0 3395 1 1021 5 2918 4872 1 1451 2 1449 0 1 1 0 4 1 7756 0 1 2 1 0 0 1 2 1492 4363 0 1 3881 1 0 0 2 0 0 1 1 2 0 1 0 0 970 1 5 7 2 0 3 971 2 8 0 3 3 1 0 1 1460 0 0 1 1 4 0 2 7 2 1 2 0 978 0 3 1 6 1 1457 0 4 2 2 2 1 0 3397 2 0 6 2 10 0 1 1 1 1934 1 2915 7 0 0 5 0 2 1 1 1 1453 2 2 0 2914 0 1 1460 7758 3 14 980 2 1 3 966 0 0 1707 1 1 0 1936 967 0 1 16 2 1 0 1 967 2 1 1 1455 2 1 0 967 1 1 1 1451 1451 1450 2 2 0 2 0 2 1 966 0 1 0 0 1 2 0 1 967 0 1454 1 0 2 1 0 1 1 0 1 1 1 0 2 6 2 971 0 1 1 4849 2 1 0 1 6 1 2 1 0 2 1 2 967 0 0 1 3 1 1 2 1451 1 2 1 1 0 2 0 1 1450 1 0 0 2 2 0 0 1 2 2431 2 1 1 2 1 0 0 923 2912 9 10 0 0 1 937 0 0 2 15 923 1 1 0 2 2 1 2 1 1 2 982 0 3 0 2 1 0 3 1 3 0 0 456 14 0 1 0 2 1 1 1 1 1935 1 1 2 1 1451 0 3 0 1451 2 0 1 0 2 0 1 968 2 8 0 2 1 1451 1 8 2 0 0 1 0 0 0 0 1 2178 1 1 0 2 0 1 1 1 2 1 0 2 3 4364 1 2 1 1 0 0 0 1 2 0 0 2 0 1 2 1 1 1083 0 1 1 1 0 0 2 1 2914 0 1 0 3647 30 968 0 0 1 2 0 2 1 2 32 1 1944 1 2 0 971 0 2 1 15 1 1698 487 2 1 60 2 0 1 1 1 0 1937 3 2 1 2 2 1 2 0 3017 1 2 0 2176 4 3 1 2 485 2 2 5 583 5638 2 2 4 1 1 0 308 8 1 2913 2908 1 2 1450 2 1 504 2 3 1 2 2 1 967 3 1 2 2 1 2 2 1 1473 0 1 2 1 2 5 1451 2 1 2 1937 0 3398 0 1 2 16 5 1 18 856 3 6303 58 0 2 2 2 1 1 14 1943 2 1 1451 0 0 1 1 0 2 0 1 967 0 2 9 2 2450 28 0 1 618 2 1 321 2 6 3 4 0 1 2 0 3 0 1 3 1451 3 1 1936 969 2 0 2 8248 0 1 1 1 1 2 2 1 4857 2 15 2 4368 3 22 2 2 1 0 22 1 1 2 1 4372 1 0 225 1 1 1 484 1 1 2 1450 25 2 2 2 1 1 11 2661 2 1 1 1 1 5 2 1 5335 3 3 2 1 2 9 0 1 4 1 0 2 1 0 1 7 4 2 1 2 1 23 2 1 1 1 974 3 1 0 2 0 0 4364 3 1 2 2 1 6 0 3 3883 0 1458 7 1 2 2 3375 2 4363 0 5819 4851 0 2 1 2 0 0 1 3398 0 1 1 3 1222 1 0 0 489 2909 6 1 1 0 0 1 4363 1 2891 2 2 0 2 0 1 2 1458 5342 1 1459 0 0 1 1 3 23 0 2 969 2 1 1 1 0 2920 1 968 0 1 1 6303 17 1 2 2 0 2 1456 3402 5 4364 2 16 0 0 4 2915 1936 2 2 2 0 1 2915 2 5 1 0 1 1 3 7760 968 4852 0 0 1 1 1 4 2 968 0 0 1 2 1465 1 0 15 1 1 1 1 1 1935 0 1 2 0 1453 4 0 2 1 4363 2 1 1 2 1 2 2 0 2914 2 0 0 1450 1 1 2 2 1 1 3 2 1 1 1 2 0 6 1127 2 1 2 0 1 6 0 2 2 0 2 1 1 2 2 1 0 8 0 1 1 2 2 4 1 1 1 1 2413 1 278 2 1 3 0 1 1 1 4364 2 2 1 3 1 4 0 1 1457 3 5 1 17 2 1 1 1 2 969 1 1 1 19 0 3408 2 2 1452 1 0 1452 1093 1 1 1 1451 0 2 2 1 2 1 2 3 0 4 1 11 2 1 3 3 0 2 1456 0 1 1279 1 1 1 0 0 2 0 0 1 1278 0 4 1 1451 1456 1 1 0 1 1 1 0 1 0 0 969 1 0 1 4 0 1 1 0 0 0 1 0 0 1 0 0 1 0 2 0 2 1 1 0 1 0 0 4374 24 0 1 1 3398 1 1 0 2 4 148 0 11 0 1 1 1 1 1 0 2 0 1323 371 0 1 2431 0 0 1 0 2 1 2 2 1 22 2 2 2 0 1 1 0 0 0 8 0 1 1 0 0 0 1 0 1 1 0 1 458 2 1 2 1 2 2 0 2 1 0 0 2 1 0 0 1 2 1 14 1 0 1 1 52 1452 0 0 1 2 1 0 0 746 1 1451 0 2 1 8 2 1 8 1456 30 4368 0 1 1 6 2 1 1941 1474 2914 2 1220 6304 0 0 2 1455 1 1 4 1 1 2 0 2 971 0 1 2 0 1 1 2915 1 2 2 2915 2910 0 1 4363 0 2 11 2 1 2 2 1451 2914 1 1 1 289 2 1 1 2916 2 1 6 1 1 4363 5 1 1 3 1 0 2 1 2 967 1 0 1 1 0 25 20 1 0 2 3 0 1 4 4 1 968 2 1 0 0 1199 2 969 0 0 0 2 485 0 2 1 969 2 2 1 5458 1 2 7274 211 2 16482 969 0 2431 2 3 1 1 3 0 0 2 2891 1 2 0 0 6 744 1 120 2 0 0 1 1455 134 2 2 1 2 2 3 621 0 2 0 1 2 1 0 0 2 541 0 1 2 0 1451 0 976 1 1 0 2 1 1 1292 0 1450 0 1 0 1 1 1 4848 0 3 416 0 1 2 1 0 1 0 0 972 1 1 2 2 2 4364 0 16 0 0 1 2 1454 1 2853 1 0 2 5 1160 2 8 2 2370 1 1580 1451 0 2 1 1451 194 3882 1515 0 2 1 4567 0 4878 0 87 1457 2 2 1 1 1 0 1 2 0 2 0 1 24 1468 2 1 2434 373 2 2 1468 0 2 0 505 1 1452 2 2 2 2 1 0 2 4389 2 0 0 1 2 0 0 0 1 0 1 1 6 0 2 2 2 1451 9 2 1 2 2 2 1 1 2 2 1 0 2 2 1 2 0 0 1 0 0 0 0 0 1 1 1 2 1 1 2 0 0 0 1 1 1 1 1 1 1 2 2 290 0 8 2 2 3 1 2 1 2 1 0 1 0 19 1 0 1 2 1 2 2 2 2 0 2 0 1 0 0 2 3 0 1933 1456 1459 3 2 2 2395 1 0 0 1 22 5 6 1 4 1 1451 1 0 2 2 9 5 4850 2 0 2919 0 1 1 1 1 2 1 0 2 0 1 2 21 1 0 0 1451 4366 1 0 0 29 1452 1 1 1451 1452 1 0 1451 5 0 1 5 1451 0 0 0 2 1 0 1454 0 1 0 2 2 4 0 3 2 194 1 2 1 0 2 1511 3 4 0 2 3 1 1 1 2 2 1 1 0 3 0 1935 2 1 2 3 1 18 1461 4364 6 2 1 5 5 0 2 2 1 1938 6 2 6 2 2 2912 8 1 2 6 2 1 1459 6791 6 2 6 2 2 2 1 1 1 0 1 1 0 2 2 0 2 0 1 1 0 1 10 1 1003 0 0 0 2 1 20 1 0 0 6 1 1 0 0 0 2 1 2 0 1 1450 1 1 2 0 0 26 1 2 2 2 2 1 0 1 0 0 1 0 2 1 0 0 4366 1 1455 1 2 202 1 2 2 0 0 0 2 1 1 4373 2 8 2 6 2 973 8 2 3 2 1 8 1 1 2 2 496 1 3 2 2 3 967 2 1455 2 0 1464 2 2 2 1540 3155 1568 1461 29 1944 2 1 934 1 1 3 37 6 0 2 33 1451 2 0 1 2 2 2 37 12 1 2 2 2 1 2 2 2 1451 4 2 2 4 2435 1 4 8 3 2907 857 1 3401 2 1 2 3 4 6 3 1 7 6 8 0 1 2 1 1 1 2 3 1 0 1 2910 1 2 2 6 1 2 2 2 1 0 0 1940 2 2666 1598 0 2 1 5 2 1 1 8 2 2 1 3 2 1 3 1 2 0 1454 22 0 3 2 1 1 0 1 1 1 0 0 1 0 1 2 1 1934 1 1461 2 1 2 0 0 0 968 0 2915 2 0 2 1 3 1 1 2 1 1 3 0 1 0 6 2 2 0 1 0 2 5 1471 753 1 2 8 2895 2 2 2 0 2 86 1 1 2 0 0 498 2 3 2 1 2 0 1 0 1 1454 9 0 0 18 989 3 5 515 7 1 1450 1 1 0 3 1 2 15 2 2 750 11 0 1 2 2 0 1 1 1217 1412 2 2 2 1 1 1472 1450 1 6 20 30 20 1 10 0 678 39 2 0 2 1 1455 0 1 2 1 1 1 1 2 1354 2 0 1 0 1 14 1933 23 973 6 132 3 0 1 0 0 1 2 12 1 10 0 1 3 0 1 23 1 2 2 1 2 1451 0 7 1 3 1 6 1702 1 1 2 1 1 968 1 3 2 1 1 2 1460 1 0 968 1 1935 9 17 179 9 2 0 0 13 2926 8 2 0 639 3399 1 2 2 0 1 0 0 2 1 0 14 1 2 0 2 2 1 39 2 2 0 1 2 13 1 3 1 0 1 2 2 1 0 0 0 22 0 1 1 2 13 1 7 1465 1 1 12 1451 0 1451 14 2 1 3 2 18 17 0 3 1 1 1 4 1 16 2 1 1 4 0 6 2898 2 19 1 962 1 2 2 1 2 29 1 2 1934 1 1 1 1457 2 0 1451 1 12 2 17 1 2 1460 2 1 2813 1935 28 1 0 0 0 0 2416 1460 1 1451 1939 3 0 3 3 8 2 2 0 32 2 1472 746 2 17 844 967 0 2 1450 1 0 2 0 1 0 0 1 0 1 1326 1451 2 0 2 1 2 1 2914 2 4363 1451 1 968 1 6 1457 2 1 11 0 1 1 1 0 2 5 1 14 6 1 1 1 2 0 1 968 1 0 4 0 2 1 1450 2 3885 2 3 968 1 8 38 1451 1 1609 1451 2 0 1 8 2 29 0 968 2 4377 2 2 47 1 3 1 2 2 0 5 1 3 28 0 1456 1 1 2 2 16 1 967 2 2 7 30 2 0 1 3403 1 0 1 1 0 0 0 1 3 0 2 2 1 2933 37 1 4 2 1449 4 2 1 2 2 1 1 2 1 2 485 1 9 0 2 20 0 2 2 1 1 2913 2915 1 2 2 2 9 1451 968 2920 4 4 2 13 14 0 1114 2 3 2 1 5 2 3 11 0 2915 4853 17 0 6 0 2 2 1 6 1 2 5164 1978 1 2 12 40 1 17 1 1956 22 2 1 2 2 2 8 5 0 4 4 0 3 0 1 3 2 969 2 0 3 6 2 1452 0 2 1 1 1 2 2 1 3 2 1 29 1 2912 1456 3 502 971 8 26 2 2900 2 26 4 2 2 11 2 1449 5824 2 6781 2 1 3403 972 2 4848 968 1451 0 26 29 3888 2890 1 0 2 2 1944 1 5337 8 3480 2213 1452 1 2 2 2199 6 17 2 2 1 0 2 1457 1 0 1934 2 1 39 514 2 38 2178 1460 1 2 1 2 2915 0 1480 0 4 4366 0 2 1454 29 2 8 3 0 2 1450 1946 3 1451 3883 2885 1452 1452 2672 748 2 1973 974 1 1 1 18 1462 1463 1450 32 7 4850 1 1 1209 1 973 2 1453 3 1 0 2 2 2916 0 2 2 8 4854 1 1 26 0 17 1467 0 2917 1 0 1 17 969 484 2 1 0 1 1 1 3 2 27 4 2425 17 6 2 1451 2 1 7 1 17 1 0 2 2 1 8 3 968 11 1 938 3150 0 2 0 1 3 2 1 2 1 2 3 1 1 1 2 1 5 969 1 0 2 5 1 2 4 1 2 14 1 2 2 1 1935 1 2429 0 2 0 2 1459 1 0 2 1 1 968 0 0 1 2 1 1 1 0 3 0 1933 2 1 2 0 967 1 1 1460 0 1 1450 132 2 29 0 29 2 2 1 1 1 0 0 1 1 1 968 2 2 2 1451 1 1451 968 1942 1 1 2915 987 1 2 1934 2 2 1453 0 1468 2 968 2 2 2 968 2 969 2163 3 2 4364 1933 2 2 2 0 2 1 0 4854 1 1 1 1 29 2 1 1 5336 1 1 2 2 6 38 0 4859 1 2 38 1 1 11 10 1 2914 2 2 2 2 2 2 2 967 1 2 2 1459 0 1549 9 1 315 2 2 2 3398 0 30 2 1 1 1 1936 2 0 1 0 2 1 6 0 1 2 12 1 925 260 1 1 1 1 20 8 0 1451 15 2 0 3 2 0 14 0 1 42 17 1 1 1 1 0 3 0 0 1 326 1 2 1 1 1451 2 1 2 0 20 1 4346 3868 6791 2 1 3396 2886 1450 3 1 0 2 3 2 0 0 1450 3 1 2 2 2 0 2914 1 1 2 5429 3 17 4 1561 0 2 1452 1 1 1 1455 1 1934 4858 973 2914 0 2 1455 2186 1 1933 1 2419 980 1 1 1 1 2 4 2 1 2 2 968 1470 2 1450 2 598 2 1452 5 1 1538 1452 968 1 1 2 1 1451 0 1 1 983 19 2 0 2 0 0 1 1450 6788 19 2 1 29 2 3 2 29 3 1 1 0 1 2 2 1 2 3 1451 971 1 0 2 2 0 1 0 96 0 746 1937 0 0 1 1451 971 2 2 4860 0 986 997 1 970 1 985 0 2 2 2 1 1 18 2 1450 0 0 2 888 1 2 1450 1449 3398 2 3890 2 1 2 0 2 1 2 0 1451 1 2 1 0 3885 0 1 2 2 1 7 580 0 1450 6 2 0 25 1 3399 2 0 1 15 1 2 8 1 6 3 0 2 3 2 2 2 2 1 2 3883 2 4373 7 2 4364 2 746 2 1 33 0 3 8 8 1939 2 1 2 0 1 0 2 2 2 755 1 1451 966 1 6 2 968 2 3393 0 0 3 1 2 11 10 2 2 21340 0 0 1 2 0 0 2 1 68 257 2 1 0 68 2 1 2431 1 1457 0 2 1 2 1938 0 5 0 1 2 2 1 2 20 1 3 2 2 1 33 0 4369 7 2 2 0 7 0 1451 38 1450 29 3 2 0 10 0 2 1 1 42 0 2 2 2 19 1 1 1460 2 1 3388 1453 14 6 1 2 0 1 1436 976 1 0 0 1 1 1 0 2 3 2 17 30 0 975 1 1701 2 2916 0 0 1936 0 1 3373 968 0 1933 2 2 1 1453 2 2 0 2 0 1453 3 1 0 968 0 2 3 4 968 1 2 0 1 1449 2 2429 1 3 2 2 4368 1 2 2 1 3894 8 1 308 0 1455 2 2 115 1 2 2 0 2 17 1 2 2 1 1 0 1 1451 0 2 1 4 967 1 485 2 3880 1 2910 1 1 1 3883 1 3875 969 2908 0 1 4365 0 968 2 970 1935 1944 1 4362 0 6 1451 0 485 3 1 2 22 2 1 2 0 1451 1 310 1454 2 1 2 0 2 2 2 2 2 0 1453 2861 2 2 1 2 4365 0 2423 1 2 2 2 1 968 1 1451 2 1451 1 1452 8 3 2 1 1450 0 2 1933 0 6307 0 1940 9 1 1 2 1 0 2 1 2 2 1449 2432 2 2 2 2 2 1456 2 1 2 2 0 2 0 490 4369 972 2 1469 2911 1 2 1 1697 2 1 1 2 1195 0 1 1 0 0 2 1 0 2 0 1 1 1 1 1 2 0 2431 1 1450 1450 8 0 1 1 5 1 1 2 2 2 0 0 1 3 2 2 8 1 0 1 488 0 1 0 2 2 968 0 2 1 0 2 1 0 1 1 2 1 1 1 0 112 1 0 2 8 0 0 2 29 2 2 1 2 2 0 1 2 1294 0 2 1 2914 2 1 0 0 6 0 1 1 2 6 2 967 35 3401 1450 1 1 2 2 29 1 2 2 1 0 1 15 1 2915 11 1451 1 1 1 2417 1 1 15 29 1 1 4373 1 1 2182 1456 1 2 2 2 2 3352 2 1 1286 1 2718 1 2 10 6 973 2 866 1 1 2 1 9 1990 968 2 0 2914 1 0 0 1 0 0 2 2 1 1 2 1 974 0 2 1 0 0 2 1 2 1 2864 2 2 2 1 1935 1 1 1 974 974 0 0 2 0 967 2 1 0 0 968 4364 12 2 0 0 1221 1 3 0 1 1 1 9 1 1 2 2 2 14 2 1 0 1942 1 2 6 1 2 0 0 2 3 1 2 7 1 2 1 1 4363 4 9 1 2 1 1 1 11 2 1 0 
