
*** ChampSim Multicore Out-of-Order Simulator ***

Warmup Instructions: 50000000
Simulation Instructions: 50000000
Number of CPUs: 1
LLC sets: 2048
LLC ways: 16
Off-chip DRAM Size: 4096 MB Channels: 1 Width: 64-bit Data Rate: 6400 MT/s
CPU 0 runs ./micro_traces/srv383.trace.gz
.gz
ITLB has LRU replacement policy
DTLB has LRU replacement policy
STLB has LRU replacement policy
FDIP Prefetcher at L1I
L1I has LRU replacement policy
L1D has LRU replacement policy
Initialize SRRIP state for L2C
Initialize DRRIP state for LLC
Heartbeat_Variant_0 : 1051 0.342122 per_variant_size: 0 1051 0 0 0 0 0 0 0 
Heartbeat_Variant_1 : 962 0.313151 per_variant_size: 0 401 561 0 0 0 0 0 0 
Heartbeat_Variant_2 : 1052 0.342448 per_variant_size: 0 363 282 210 197 0 0 0 0 
Heartbeat_Variant_3 : 0 0 per_variant_size: 0 0 0 0 0 0 0 0 0 
Heartbeat_Variant_0_evicts 0 : 15055 1 : 8765 2 : 8606 3 : 0 
Heartbeat_Variant_1_evicts 0 : 8618 1 : 0 2 : 7985 3 : 0 
Heartbeat_Variant_2_evicts 0 : 8711 1 : 7862 2 : 0 3 : 0 
Heartbeat_Variant_3_evicts 0 : 0 1 : 0 2 : 0 3 : 0 
Heartbeat CPU 0 instructions: 10000002 cycles: 2796256 heartbeat IPC: 3.57621 cumulative IPC: 3.57621 (Simulation time: 0 hr 2 min 3 sec) 
Heartbeat_Variant_0 : 1082 0.352214 per_variant_size: 0 1082 0 0 0 0 0 0 0 
Heartbeat_Variant_1 : 957 0.311523 per_variant_size: 0 397 560 0 0 0 0 0 0 
Heartbeat_Variant_2 : 1027 0.33431 per_variant_size: 0 342 267 228 190 0 0 0 0 
Heartbeat_Variant_3 : 0 0 per_variant_size: 0 0 0 0 0 0 0 0 0 
Heartbeat_Variant_0_evicts 0 : 15495 1 : 9505 2 : 9397 3 : 0 
Heartbeat_Variant_1_evicts 0 : 9428 1 : 0 2 : 8578 3 : 0 
Heartbeat_Variant_2_evicts 0 : 9443 1 : 8506 2 : 0 3 : 0 
Heartbeat_Variant_3_evicts 0 : 0 1 : 0 2 : 0 3 : 0 
Heartbeat CPU 0 instructions: 20000000 cycles: 5593020 heartbeat IPC: 3.57556 cumulative IPC: 3.57589 (Simulation time: 0 hr 4 min 0 sec) 
Heartbeat_Variant_0 : 1052 0.342448 per_variant_size: 0 1052 0 0 0 0 0 0 0 
Heartbeat_Variant_1 : 964 0.313802 per_variant_size: 0 398 566 0 0 0 0 0 0 
Heartbeat_Variant_2 : 1051 0.342122 per_variant_size: 0 352 284 226 189 0 0 0 0 
Heartbeat_Variant_3 : 0 0 per_variant_size: 0 0 0 0 0 0 0 0 0 
Heartbeat_Variant_0_evicts 0 : 16323 1 : 9393 2 : 9584 3 : 0 
Heartbeat_Variant_1_evicts 0 : 9420 1 : 0 2 : 8425 3 : 0 
Heartbeat_Variant_2_evicts 0 : 9587 1 : 8445 2 : 0 3 : 0 
Heartbeat_Variant_3_evicts 0 : 0 1 : 0 2 : 0 3 : 0 
Heartbeat CPU 0 instructions: 30000002 cycles: 8389959 heartbeat IPC: 3.57534 cumulative IPC: 3.5757 (Simulation time: 0 hr 6 min 15 sec) 
Heartbeat_Variant_0 : 1058 0.344401 per_variant_size: 0 1058 0 0 0 0 0 0 0 
Heartbeat_Variant_1 : 965 0.314128 per_variant_size: 0 378 587 0 0 0 0 0 0 
Heartbeat_Variant_2 : 1045 0.340169 per_variant_size: 0 365 261 207 212 0 0 0 0 
Heartbeat_Variant_3 : 0 0 per_variant_size: 0 0 0 0 0 0 0 0 0 
Heartbeat_Variant_0_evicts 0 : 15176 1 : 8936 2 : 8957 3 : 0 
Heartbeat_Variant_1_evicts 0 : 8962 1 : 0 2 : 8154 3 : 0 
Heartbeat_Variant_2_evicts 0 : 8925 1 : 8179 2 : 0 3 : 0 
Heartbeat_Variant_3_evicts 0 : 0 1 : 0 2 : 0 3 : 0 
Heartbeat CPU 0 instructions: 40000002 cycles: 11186056 heartbeat IPC: 3.57641 cumulative IPC: 3.57588 (Simulation time: 0 hr 8 min 15 sec) 
Heartbeat_Variant_0 : 1047 0.34082 per_variant_size: 0 1047 0 0 0 0 0 0 0 
Heartbeat_Variant_1 : 966 0.314453 per_variant_size: 0 395 571 0 0 0 0 0 0 
Heartbeat_Variant_2 : 1055 0.343424 per_variant_size: 0 363 272 216 204 0 0 0 0 
Heartbeat_Variant_3 : 0 0 per_variant_size: 0 0 0 0 0 0 0 0 0 
Heartbeat_Variant_0_evicts 0 : 15120 1 : 9101 2 : 9129 3 : 0 
Heartbeat_Variant_1_evicts 0 : 9159 1 : 0 2 : 8208 3 : 0 
Heartbeat_Variant_2_evicts 0 : 9082 1 : 8265 2 : 0 3 : 0 
Heartbeat_Variant_3_evicts 0 : 0 1 : 0 2 : 0 3 : 0 
Heartbeat CPU 0 instructions: 50000003 cycles: 13981733 heartbeat IPC: 3.57695 cumulative IPC: 3.57609 (Simulation time: 0 hr 10 min 20 sec) 

Warmup complete CPU 0 instructions: 50000003 cycles: 13981733 (Simulation time: 0 hr 10 min 20 sec) 

Cycle: 20000000 FTQ IN: 56552753 FTQ occupancy: 17.8623 DECODE IN: 56552713 DECODE occupancy: 45.7253 ROB IN: 56552653 ROB occupancy: 276.182 ROB OUT: 56552568
Heartbeat_Variant_0 : 1064 0.346354 per_variant_size: 0 1064 0 0 0 0 0 0 0 
Heartbeat_Variant_1 : 956 0.311198 per_variant_size: 0 406 550 0 0 0 0 0 0 
Heartbeat_Variant_2 : 1048 0.341146 per_variant_size: 0 352 295 196 205 0 0 0 0 
Heartbeat_Variant_3 : 0 0 per_variant_size: 0 0 0 0 0 0 0 0 0 
Heartbeat_Variant_0_evicts 0 : 15585 1 : 9376 2 : 9577 3 : 0 
Heartbeat_Variant_1_evicts 0 : 9333 1 : 0 2 : 8325 3 : 0 
Heartbeat_Variant_2_evicts 0 : 9603 1 : 8292 2 : 0 3 : 0 
Heartbeat_Variant_3_evicts 0 : 0 1 : 0 2 : 0 3 : 0 
Heartbeat CPU 0 instructions: 60000000 cycles: 23179150 heartbeat IPC: 1.08726 cumulative IPC: 1.08726 (Simulation time: 0 hr 12 min 10 sec) 
Cycle: 30000000 FTQ IN: 10652431 FTQ occupancy: 6.13138 DECODE IN: 10652465 DECODE occupancy: 12.8721 ROB IN: 10652525 ROB occupancy: 109.397 ROB OUT: 10652397
Heartbeat_Variant_0 : 1038 0.337891 per_variant_size: 0 1038 0 0 0 0 0 0 0 
Heartbeat_Variant_1 : 969 0.31543 per_variant_size: 0 412 557 0 0 0 0 0 0 
Heartbeat_Variant_2 : 1061 0.345378 per_variant_size: 0 383 274 213 191 0 0 0 0 
Heartbeat_Variant_3 : 0 0 per_variant_size: 0 0 0 0 0 0 0 0 0 
Heartbeat_Variant_0_evicts 0 : 15569 1 : 9550 2 : 9085 3 : 0 
Heartbeat_Variant_1_evicts 0 : 9516 1 : 0 2 : 8397 3 : 0 
Heartbeat_Variant_2_evicts 0 : 9145 1 : 8350 2 : 0 3 : 0 
Heartbeat_Variant_3_evicts 0 : 0 1 : 0 2 : 0 3 : 0 
Heartbeat CPU 0 instructions: 70000002 cycles: 32540813 heartbeat IPC: 1.06819 cumulative IPC: 1.07764 (Simulation time: 0 hr 13 min 52 sec) 
Cycle: 40000000 FTQ IN: 10990281 FTQ occupancy: 6.21086 DECODE IN: 10990237 DECODE occupancy: 13.2634 ROB IN: 10990237 ROB occupancy: 112.375 ROB OUT: 10990320
Heartbeat_Variant_0 : 1069 0.347982 per_variant_size: 0 1069 0 0 0 0 0 0 0 
Heartbeat_Variant_1 : 969 0.31543 per_variant_size: 0 407 562 0 0 0 0 0 0 
Heartbeat_Variant_2 : 1030 0.335286 per_variant_size: 0 359 274 199 198 0 0 0 0 
Heartbeat_Variant_3 : 0 0 per_variant_size: 0 0 0 0 0 0 0 0 0 
Heartbeat_Variant_0_evicts 0 : 15626 1 : 9001 2 : 9459 3 : 0 
Heartbeat_Variant_1_evicts 0 : 9072 1 : 0 2 : 8382 3 : 0 
Heartbeat_Variant_2_evicts 0 : 9357 1 : 8453 2 : 0 3 : 0 
Heartbeat_Variant_3_evicts 0 : 0 1 : 0 2 : 0 3 : 0 
Heartbeat CPU 0 instructions: 80000003 cycles: 41680584 heartbeat IPC: 1.09412 cumulative IPC: 1.08308 (Simulation time: 0 hr 15 min 46 sec) 
Cycle: 50000000 FTQ IN: 10697623 FTQ occupancy: 6.23678 DECODE IN: 10697662 DECODE occupancy: 13.1085 ROB IN: 10697620 ROB occupancy: 109.63 ROB OUT: 10697698
Heartbeat_Variant_0 : 1047 0.34082 per_variant_size: 0 1047 0 0 0 0 0 0 0 
Heartbeat_Variant_1 : 970 0.315755 per_variant_size: 0 436 534 0 0 0 0 0 0 
Heartbeat_Variant_2 : 1052 0.342448 per_variant_size: 0 381 286 192 193 0 0 0 0 
Heartbeat_Variant_3 : 0 0 per_variant_size: 0 0 0 0 0 0 0 0 0 
Heartbeat_Variant_0_evicts 0 : 15403 1 : 9024 2 : 9388 3 : 0 
Heartbeat_Variant_1_evicts 0 : 9001 1 : 0 2 : 8423 3 : 0 
Heartbeat_Variant_2_evicts 0 : 9433 1 : 8400 2 : 0 3 : 0 
Heartbeat_Variant_3_evicts 0 : 0 1 : 0 2 : 0 3 : 0 
Heartbeat CPU 0 instructions: 90000002 cycles: 51007611 heartbeat IPC: 1.07215 cumulative IPC: 1.08033 (Simulation time: 0 hr 17 min 33 sec) 
Cycle: 60000000 FTQ IN: 10838404 FTQ occupancy: 6.00651 DECODE IN: 10838415 DECODE occupancy: 12.5917 ROB IN: 10838457 ROB occupancy: 107.596 ROB OUT: 10838507
Heartbeat_Variant_0 : 1045 0.340169 per_variant_size: 0 1045 0 0 0 0 0 0 0 
Heartbeat_Variant_1 : 968 0.315104 per_variant_size: 0 409 559 0 0 0 0 0 0 
Heartbeat_Variant_2 : 1056 0.34375 per_variant_size: 0 368 297 214 177 0 0 0 0 
Heartbeat_Variant_3 : 0 0 per_variant_size: 0 0 0 0 0 0 0 0 0 
Heartbeat_Variant_0_evicts 0 : 16089 1 : 9585 2 : 9697 3 : 0 
Heartbeat_Variant_1_evicts 0 : 9611 1 : 0 2 : 8573 3 : 0 
Heartbeat_Variant_2_evicts 0 : 9673 1 : 8601 2 : 0 3 : 0 
Heartbeat_Variant_3_evicts 0 : 0 1 : 0 2 : 0 3 : 0 
Heartbeat CPU 0 instructions: 100000000 cycles: 60251644 heartbeat IPC: 1.08178 cumulative IPC: 1.08062 (Simulation time: 0 hr 19 min 12 sec) 
Finished CPU 0 instructions: 50000001 cycles: 46269912 cumulative IPC: 1.08062 (Simulation time: 0 hr 19 min 12 sec) 

ChampSim completed all CPUs

Region of Interest Statistics

CPU 0 cumulative IPC: 1.08062 instructions: 50000001 cycles: 46269912
 Fetch stage stalled: 72.7437  Sim cycles: 46269912 fetch stall cycle: 33658463
 Empty decode stage: 64.7691  Sim cycles: 46269912 fetch stall cycle: 29968607
ITLB TOTAL     ACCESS:    5740701  HIT:    5248398  MISS:     492303  HIT %:    91.4243  MISS %:    8.57566   MPKI: 9.84606
ITLB LOAD TRANSLATION INSTRUCTION	ACCESS:    5638908  HIT:    5146605  MISS:     492303  HIT %:    91.2695  MISS %:    8.73047  MPKI: 9.84606
ITLB TRANSLATION FROM L1D PREFETCHER INSTRUCTION	ACCESS:     101793  HIT:     101793  MISS:          0  HIT %:        100  MISS %:          0  MPKI: 0

ITLB AVERAGE MISS LATENCY: 9.03887 cycles
ITLB RQ	ACCESS:    7531384	FORWARD:          0	MERGED:    1355504	TO_CACHE:    6175880

DTLB TOTAL     ACCESS:    9409964  HIT:    8939770  MISS:     470194  HIT %:    95.0032  MISS %:    4.99677   MPKI: 9.40388
DTLB LOAD TRANSLATION DATA	ACCESS:    9409964  HIT:    8939770  MISS:     470194  HIT %:    95.0032  MISS %:    4.99677  MPKI: 9.40388

DTLB AVERAGE MISS LATENCY: 9.30425 cycles
DTLB RQ	ACCESS:   13677786	FORWARD:          0	MERGED:    4234876	TO_CACHE:    9442910

STLB TOTAL     ACCESS:    1212848  HIT:    1210884  MISS:       1964  HIT %:    99.8381  MISS %:   0.161933   MPKI: 0.03928
STLB LOAD TRANSLATION INSTRUCTION	ACCESS:     492302  HIT:     492076  MISS:        226  HIT %:    99.9541  MISS %:  0.0459068  MPKI: 0.00452
STLB LOAD TRANSLATION DATA	ACCESS:     469877  HIT:     468161  MISS:       1716  HIT %:    99.6348  MISS %:   0.365202  MPKI: 0.03432
STLB TRANSLATION FROM L1D PREFETCHER DATA	ACCESS:     250669  HIT:     250647  MISS:         22  HIT %:    99.9912  MISS %: 0.00877651  MPKI: 0.00044

STLB AVERAGE MISS LATENCY: 70.5509 cycles
STLB RQ	ACCESS:    1332666	FORWARD:          0	MERGED:     119780	TO_CACHE:    1212886

STLB Hit, L1D data hit: 0
STLB Hit, L2C data hit: 0
STLB Hit, LLC data hit: 0
STLB Hit, LLC data miss: 0
STLB STLB hints to L2: 0
L1D TOTAL     ACCESS:   13451054  HIT:   12338092  MISS:    1112962  HIT %:    91.7258  MISS %:    8.27416   MPKI: 22.2592
L1D LOAD DATA	ACCESS:    6875456  HIT:    6141889  MISS:     733567  HIT %:    89.3306  MISS %:    10.6694  MPKI: 14.6713
L1D RFO DATA	ACCESS:    6245265  HIT:    5959184  MISS:     286081  HIT %:    95.4192  MISS %:    4.58077  MPKI: 5.72162
L1D PREFETCH DATA	ACCESS:     330333  HIT:     237019  MISS:      93314  HIT %:    71.7515  MISS %:    28.2485  MPKI: 1.86628

L1D PREFETCH  REQUESTED:     740594  ISSUED:     740594  USEFUL:      32929  USELESS:      67961
L1D USEFUL LOAD PREFETCHES:      32929 PREFETCH ISSUED TO LOWER LEVEL:     100914  ACCURACY: 32.6308
 TIMELY PREFETCHES:      32929 LATE PREFETCHES: 7554 DROPPED PREFETCHES: 6
L1D AVERAGE MISS LATENCY: 249160 cycles
L1D RQ	ACCESS:   10934520	FORWARD:          0	MERGED:    3864897	TO_CACHE:    6906218
L1D WQ	ACCESS:    6940768	FORWARD:     163661	MERGED:     169200	TO_CACHE:    6771568
L1D PQ	ACCESS:     370425	FORWARD:          0	MERGED:          0	TO_CACHE:     370169

L1D UNIQUE REGIONS ACCESSED: 0
L1D REGIONS CONFLICTS: 0
L1D Cross Page Prefetch Requests: 7026
L1D Same Page Prefetch Requests: 747509
L1D ROI Sum of L1D PQ occupancy: 4698587
L1D PREFETCHES PUSHED FROM L2C: 0
L1I TOTAL     ACCESS:    7039256  HIT:    4283636  MISS:    2755620  HIT %:    60.8535  MISS %:    39.1465   MPKI: 55.1124
L1I LOAD INSTRUCTION	ACCESS:    6554510  HIT:    3798890  MISS:    2755620  HIT %:    57.9584  MISS %:    42.0416  MPKI: 55.1124
L1I PREFETCH INSTRUCTION	ACCESS:     484746  HIT:     484746  MISS:          0  HIT %:        100  MISS %:          0  MPKI: 0

L1I PREFETCH  REQUESTED:    1052888  ISSUED:    1052888  USEFUL:          0  USELESS:          0
L1I USEFUL LOAD PREFETCHES:          0 PREFETCH ISSUED TO LOWER LEVEL:          0  ACCURACY: -nan
 TIMELY PREFETCHES:          0 LATE PREFETCHES: 0 DROPPED PREFETCHES: 0
L1I AVERAGE MISS LATENCY: 17.0555 cycles
L1I RQ	ACCESS:    9435207	FORWARD:          0	MERGED:    2652588	TO_CACHE:    6782619
L1I PQ	ACCESS:    1052888	FORWARD:          0	MERGED:     304123	TO_CACHE:     748765

L1BTB TOTAL     ACCESS:    5672742  HIT:    2052146  MISS:    3620596  HIT %:    36.1756  MISS %:    63.8244   MPKI: 72.4119
L1BTB BRANCH_DIRECT_JUMP	ACCESS:     548746  HIT:     145886  MISS:     402860	AVERAGE STALL: 33.4188
L1BTB BRANCH_INDIRECT	ACCESS:     183450  HIT:      66471  MISS:     116979	AVERAGE STALL: 79.9641
L1BTB BRANCH_CONDITIONAL	ACCESS:    2713903  HIT:    1423785  MISS:    1290118	AVERAGE STALL: 34.6753
L1BTB BRANCH_DIRECT_CALL	ACCESS:     942466  HIT:     105012  MISS:     837454	AVERAGE STALL: 36.5466
L1BTB BRANCH_INDIRECT_CALL	ACCESS:     170854  HIT:      20794  MISS:     150060	AVERAGE STALL: 106.587
L1BTB BRANCH_RETURN	ACCESS:    1113323  HIT:     290198  MISS:     823125	AVERAGE STALL: 36.2379
L1BTB BRANCH_OTHER ACCESS:          0  HIT:          0  MISS:          0	AVERAGE STALL: -nan
L1BTB TOTAL ROB OCCUPANCY AT BTB MISS: 12.9242

L2BTB TOTAL     ACCESS:    3595157  HIT:    3070476  MISS:     524681  HIT %:    85.4059  MISS %:    14.5941   MPKI: 10.4936
L2BTB BRANCH_DIRECT_JUMP	ACCESS:     398659  HIT:     342425  MISS:      56234	AVERAGE STALL: 33.4188
L2BTB BRANCH_INDIRECT	ACCESS:     106715  HIT:      98060  MISS:       8655	AVERAGE STALL: 79.9641
L2BTB BRANCH_CONDITIONAL	ACCESS:    1290118  HIT:    1130109  MISS:     160009	AVERAGE STALL: 34.6753
L2BTB BRANCH_DIRECT_CALL	ACCESS:     837454  HIT:     680294  MISS:     157160	AVERAGE STALL: 36.5466
L2BTB BRANCH_INDIRECT_CALL	ACCESS:     140481  HIT:     107489  MISS:      32992	AVERAGE STALL: 106.587
L2BTB BRANCH_RETURN	ACCESS:     821730  HIT:     712099  MISS:     109631	AVERAGE STALL: 36.2379
L2BTB BRANCH_OTHER ACCESS:          0  HIT:          0  MISS:          0	AVERAGE STALL: -nan
L2BTB TOTAL ROB OCCUPANCY AT BTB MISS: 89.1845

L2C TOTAL     ACCESS:    4479768  HIT:    4004122  MISS:     475646  HIT %:    89.3824  MISS %:    10.6176   MPKI: 9.51292
L2C LOAD INSTRUCTION	ACCESS:    2755620  HIT:    2508174  MISS:     247446  HIT %:    91.0203  MISS %:    8.97969  MPKI: 4.94892
L2C LOAD TRANSLATION INSTRUCTION	ACCESS:        241  HIT:         65  MISS:        176  HIT %:     26.971  MISS %:     73.029  MPKI: 0.00352
L2C LOAD DATA	ACCESS:     725986  HIT:     643787  MISS:      82199  HIT %:    88.6776  MISS %:    11.3224  MPKI: 1.64398
L2C RFO DATA	ACCESS:     286021  HIT:     232399  MISS:      53622  HIT %:    81.2524  MISS %:    18.7476  MPKI: 1.07244
L2C PREFETCH DATA	ACCESS:     190228  HIT:     114679  MISS:      75549  HIT %:     60.285  MISS %:     39.715  MPKI: 1.51098
L2C WRITEBACK DATA	ACCESS:     519873  HIT:     504455  MISS:      15418  HIT %:    97.0343  MISS %:    2.96572  MPKI: 0.30836
L2C LOAD TRANSLATION DATA	ACCESS:       1756  HIT:        532  MISS:       1224  HIT %:    30.2961  MISS %:    69.7039  MPKI: 0.02448
L2C TRANSLATION FROM L1D PREFETCHER DATA	ACCESS:         43  HIT:         31  MISS:         12  HIT %:     72.093  MISS %:     27.907  MPKI: 0.00024

L2C PREFETCH  REQUESTED:      96876  ISSUED:      96876  USEFUL:       9313  USELESS:      66853
L2C USEFUL LOAD PREFETCHES:       9313 PREFETCH ISSUED TO LOWER LEVEL:      75965  ACCURACY: 12.2596
 TIMELY PREFETCHES:       9313 LATE PREFETCHES: 416 DROPPED PREFETCHES: 0
L2C AVERAGE MISS LATENCY: 38.0618 cycles
L2C RQ	ACCESS:    3769708	FORWARD:          0	MERGED:          0	TO_CACHE:    3769667
L2C WQ	ACCESS:     519873	FORWARD:         41	MERGED:          0	TO_CACHE:     519873
L2C PQ	ACCESS:     197790	FORWARD:          0	MERGED:       3377	TO_CACHE:     194413

L2C Dense regions hint from L2: 0
PSCL5 TOTAL     ACCESS:       3944  HIT:       1972  MISS:       1972  HIT %:         50  MISS %:         50   MPKI: 0.03944
PSCL5 LOAD TRANSLATION INSTRUCTION	ACCESS:       3858  HIT:       1929  MISS:       1929  HIT %:         50  MISS %:         50  MPKI: 0.03858
PSCL5 TRANSLATION FROM L1D PREFETCHER INSTRUCTION	ACCESS:         86  HIT:         43  MISS:         43  HIT %:         50  MISS %:         50  MPKI: 0.00086


PSCL4 TOTAL     ACCESS:       3848  HIT:       1921  MISS:       1927  HIT %:     49.922  MISS %:     50.078   MPKI: 0.03854
PSCL4 LOAD TRANSLATION INSTRUCTION	ACCESS:       2378  HIT:       1878  MISS:        500  HIT %:    78.9739  MISS %:    21.0261  MPKI: 0.01
PSCL4 TRANSLATION FROM L1D PREFETCHER INSTRUCTION	ACCESS:         54  HIT:         43  MISS:         11  HIT %:    79.6296  MISS %:    20.3704  MPKI: 0.00022
PSCL4 LOAD TRANSLATION DATA	ACCESS:       1384  HIT:          0  MISS:       1384  HIT %:          0  MISS %:        100  MPKI: 0.02768
PSCL4 TRANSLATION FROM L1D PREFETCHER DATA	ACCESS:         32  HIT:          0  MISS:         32  HIT %:          0  MISS %:        100  MPKI: 0.00064


PSCL3 TOTAL     ACCESS:       3910  HIT:       1952  MISS:       1958  HIT %:    49.9233  MISS %:    50.0767   MPKI: 0.03916
PSCL3 LOAD TRANSLATION INSTRUCTION	ACCESS:       2409  HIT:       1909  MISS:        500  HIT %:    79.2445  MISS %:    20.7555  MPKI: 0.01
PSCL3 TRANSLATION FROM L1D PREFETCHER INSTRUCTION	ACCESS:         54  HIT:         43  MISS:         11  HIT %:    79.6296  MISS %:    20.3704  MPKI: 0.00022
PSCL3 LOAD TRANSLATION DATA	ACCESS:       1415  HIT:          0  MISS:       1415  HIT %:          0  MISS %:        100  MPKI: 0.0283
PSCL3 TRANSLATION FROM L1D PREFETCHER DATA	ACCESS:         32  HIT:          0  MISS:         32  HIT %:          0  MISS %:        100  MPKI: 0.00064


PSCL2 TOTAL     ACCESS:       3888  HIT:       1916  MISS:       1972  HIT %:    49.2798  MISS %:    50.7202   MPKI: 0.03944
PSCL2 LOAD TRANSLATION INSTRUCTION	ACCESS:       2100  HIT:       1873  MISS:        227  HIT %:    89.1905  MISS %:    10.8095  MPKI: 0.00454
PSCL2 TRANSLATION FROM L1D PREFETCHER INSTRUCTION	ACCESS:         43  HIT:         43  MISS:          0  HIT %:        100  MISS %:          0  MPKI: 0
PSCL2 LOAD TRANSLATION DATA	ACCESS:       1702  HIT:          0  MISS:       1702  HIT %:          0  MISS %:        100  MPKI: 0.03404
PSCL2 TRANSLATION FROM L1D PREFETCHER DATA	ACCESS:         43  HIT:          0  MISS:         43  HIT %:          0  MISS %:        100  MPKI: 0.00086


LLC TOTAL     ACCESS:     541071  HIT:     513284  MISS:      27787  HIT %:    94.8644  MISS %:    5.13556   MPKI: 0.55574
LLC LOAD INSTRUCTION	ACCESS:     247446  HIT:     246469  MISS:        977  HIT %:    99.6052  MISS %:   0.394834  MPKI: 0.01954
LLC LOAD TRANSLATION INSTRUCTION	ACCESS:        176  HIT:        146  MISS:         30  HIT %:    82.9545  MISS %:    17.0455  MPKI: 0.0006
LLC LOAD DATA	ACCESS:      81791  HIT:      78362  MISS:       3429  HIT %:    95.8076  MISS %:    4.19239  MPKI: 0.06858
LLC RFO DATA	ACCESS:      53609  HIT:      40258  MISS:      13351  HIT %:    75.0956  MISS %:    24.9044  MPKI: 0.26702
LLC PREFETCH DATA	ACCESS:      75965  HIT:      66441  MISS:       9524  HIT %:    87.4626  MISS %:    12.5374  MPKI: 0.19048
LLC WRITEBACK DATA	ACCESS:      80848  HIT:      80450  MISS:        398  HIT %:    99.5077  MISS %:   0.492282  MPKI: 0.00796
LLC LOAD TRANSLATION DATA	ACCESS:       1224  HIT:       1146  MISS:         78  HIT %:    93.6275  MISS %:    6.37255  MPKI: 0.00156
LLC TRANSLATION FROM L1D PREFETCHER DATA	ACCESS:         12  HIT:         12  MISS:          0  HIT %:        100  MISS %:          0  MPKI: 0

LLC AVERAGE MISS LATENCY: 153.454 cycles
LLC RQ	ACCESS:     384263	FORWARD:          0	MERGED:          0	TO_CACHE:     384258
LLC WQ	ACCESS:      80848	FORWARD:          5	MERGED:          0	TO_CACHE:      80848
LLC PQ	ACCESS:      75965	FORWARD:          0	MERGED:          0	TO_CACHE:      75965

LLC Dense regions hint to LLC: 0

RAW hits: 1699795
Loads Generated: 12634315
Loads sent to L1D: 10934520
Stores Generated: 6940765
Stores sent to L1D: 6940768
Major fault: 0 Minor fault: 2515
Allocated PAGES: 2515

stream: 
stream:times selected: 1184158
stream:pref_filled: 121269
stream:pref_useful: 23747
stream:pref_late: 6788
stream:misses: 7889
stream:misses_by_poll: 0

CS: 
CS:times selected: 175923
CS:pref_filled: 58760
CS:pref_useful: 35426
CS:pref_late: 6631
CS:misses: 15560
CS:misses_by_poll: 9

CPLX: 
CPLX:times selected: 1007140
CPLX:pref_filled: 19762
CPLX:pref_useful: 4667
CPLX:pref_late: 3171
CPLX:misses: 93432
CPLX:misses_by_poll: 1

NL_L1: 
NL:times selected: 21034
NL:pref_filled: 786
NL:pref_useful: 343
NL:pref_late: 237
NL:misses: 1724
NL:misses_by_poll: 0

total selections: 2388255
total_filled: 93314
total_useful: 32929
total_late: 18150
total_polluted: 10
total_misses_after_warmup: 764329
conflicts: 5670999

test: 116061

DRAM Statistics
 CHANNEL 0
 RQ ROW_BUFFER_HIT:      10148  ROW_BUFFER_MISS:      17235
 DBUS_CONGESTED:         13
 WQ ROW_BUFFER_HIT:       1302  ROW_BUFFER_MISS:      11679  FULL:          0

 AVG_CONGESTED_CYCLE: 5

CPU 0 Branch Prediction Accuracy: 99.8254% MPKI: 0.31926 Average ROB Occupancy at Mispredict: 121.592
Branch types
NOT_BRANCH: 40854867 81.7097%
BRANCH_DIRECT_JUMP: 548746 1.09749%
BRANCH_INDIRECT: 183450 0.3669%
BRANCH_CONDITIONAL: 6185857 12.3717%
BRANCH_DIRECT_CALL: 942466 1.88493%
BRANCH_INDIRECT_CALL: 170854 0.341708%
BRANCH_RETURN: 1113323 2.22665%
BRANCH_OTHER: 0 0%

DRAM PAGES: 1048576
Allocated PAGES: 2515
Average_ROB_Occupancy: 110.454
Average_Decode_Occupancy: 12.8881
Average_FTQ_Occupancy: 6.118
Indirect max targets: 14 Average targets: 1.14915
Branch_type:  BRANCH_DIRECT_JUMP:  Count Percentage: 4.42257 6.15842 4.20875 3.01512 2.3229 12.5292 7.18707 60.156 
Branch_type:  BRANCH_INDIRECT:  Count Percentage: 13.7434 3.46106 2.53887 0 0 33.069 15.4852 31.7024 
Branch_type:  BRANCH_CONDITIONAL:  Count Percentage: 25.1044 3.41755 1.45266 5.34158 1.13912 9.44338 3.34503 50.7563 
Branch_type:  BRANCH_DIRECT_CALL:  Count Percentage: 0.388726 1.77073 0.740183 2.44448 1.92933 5.32781 2.48238 84.9164 
Branch_type:  BRANCH_INDIRECT_CALL:  Count Percentage: 9.5605 0 2.99695 0 0 4.0499 0.99811 82.3945 
Branch_type:  BRANCH_RETURN:  Count Percentage: 9.1786 2.01283 0.72287 5.59161 1.26031 11.627 3.14813 66.4586 
Branch_type:  BRANCH_DIRECT_JUMP:  Total Count: 48441 67454 46099 33025 25443 137234 78721 658897 
Branch_type:  BRANCH_INDIRECT:  Total Count: 50283 12663 9289 0 0 120990 56656 115990 
Branch_type:  BRANCH_CONDITIONAL:  Total Count: 3102566 422364 179530 660149 140780 1167077 413401 6272806 
Branch_type:  BRANCH_DIRECT_CALL:  Total Count: 7343 33449 13982 46176 36445 100642 46892 1604064 
Branch_type:  BRANCH_INDIRECT_CALL:  Total Count: 32778 0 10275 0 0 13885 3422 282488 
Branch_type:  BRANCH_RETURN:  Total Count: 204924 44939 16139 124840 28138 259588 70286 1483775 
Number of unique branch instructions: 9887
Upper 32 bits: 
aaaa
ffff
ffff0000
Unique upper 32 bits: 3
Unique upper 36 bits: 3
Unique upper 40 bits: 5
Unique upper 44 bits: 32
Unique upper 48 bits: 153
Variant_0 : 1045 0.340169
Variant_1 : 968 0.315104
Variant_2 : 1056 0.34375
Variant_3 : 0 0
Offset_3 4079
Offset_4 244
Offset_5 449
Offset_6 500
Offset_7 579
Offset_8 515
Offset_9 465
Offset_10 377
Offset_11 318
Offset_12 283
Offset_13 203
Offset_14 228
Offset_15 189
Offset_16 219
Offset_17 144
Offset_18 126
Offset_19 235
Offset_20 139
Offset_21 235
Offset_22 389
Offset_23 241
Offset_24 331
Offset_25 88
Offset_47 82
decode_dispatch_called: 20333790 43.946
Dispatch_width: 0 10262637 50.4709 22.1799
Dispatch_width: 1 551821 2.71381 1.19261
Dispatch_width: 2 697081 3.42819 1.50655
Dispatch_width: 3 483223 2.37645 1.04436
Dispatch_width: 4 1533704 7.54264 3.31469
Dispatch_width: 5 362680 1.78363 0.783836
Dispatch_width: 6 6442644 31.6844 13.924
Empty_decode_cycles: 25936122 56.054
ROB_full_cycles: 1930483 4.17222
Starvation_cycles_per_kilo_instr: 378.968
Starvation_cycles_per_kilo_instr_3: 360.004
Starvation_cycles_per_kilo_instr_0: 342.683
Branch_type_1  (3,1)  (4,7)  (5,36)  (6,69)  (7,115)  (8,127)  (9,124)  (10,98)  (11,72)  (12,51)  (13,5)  (14,2)  (15,3)  (16,4)  (18,1)  (19,4)  (20,2)  (21,1)  (22,3)  (23,2)  (24,10)  (25,12) 
Branch_type_2  (3,1)  (5,1)  (8,3)  (9,3)  (12,1)  (13,1)  (14,1)  (16,3)  (17,2)  (20,2)  (21,2)  (23,5)  (24,1)  (47,38) 
Branch_type_3  (3,4077)  (4,237)  (5,408)  (6,415)  (7,433)  (8,325)  (9,255)  (10,152)  (11,131)  (12,58)  (13,4) 
Branch_type_4  (6,4)  (7,8)  (8,26)  (9,51)  (10,60)  (11,59)  (12,95)  (13,88)  (14,101)  (15,89)  (16,98)  (17,64)  (18,57)  (19,114)  (20,72)  (21,124)  (22,207)  (23,136)  (24,193)  (25,72) 
Branch_type_5  (8,2)  (9,1)  (10,3)  (11,5)  (12,3)  (13,14)  (14,16)  (15,11)  (16,20)  (17,11)  (18,16)  (19,12)  (20,10)  (21,13)  (22,42)  (23,26)  (24,36) 
Branch_type_6  (5,4)  (6,12)  (7,23)  (8,32)  (9,31)  (10,64)  (11,51)  (12,75)  (13,91)  (14,108)  (15,86)  (16,94)  (17,67)  (18,52)  (19,105)  (20,53)  (21,95)  (22,137)  (23,72)  (24,91)  (25,4)  (47,44) 
Unique trigger count: 
Variant_0_evicts_0 : 0
Variant_0_evicts_1 : 0
Variant_0_evicts_2 : 0
Variant_0_evicts_3 : 0
Variant_1_evicts_0 : 0
Variant_1_evicts_1 : 0
Variant_1_evicts_2 : 0
Variant_1_evicts_3 : 0
Variant_2_evicts_0 : 0
Variant_2_evicts_1 : 0
Variant_2_evicts_2 : 0
Variant_2_evicts_3 : 0
Variant_3_evicts_0 : 0
Variant_3_evicts_1 : 0
Variant_3_evicts_2 : 0
Variant_3_evicts_3 : 0
BTB PER SET UNIQUE ADDR: 43 49 42 50 44 38 36 37 40 45 43 52 41 43 43 38 40 44 42 47 41 34 36 38 45 50 45 55 42 37 49 45 61 39 51 45 55 43 37 38 42 37 45 59 46 42 44 42 58 48 42 45 44 59 37 36 44 38 33 45 43 56 45 50 47 46 40 44 51 44 47 42 54 41 37 38 36 50 39 61 45 41 42 47 41 41 55 50 45 67 46 41 47 42 30 51 47 37 48 46 64 48 41 47 46 38 45 35 32 37 40 53 50 35 41 43 52 47 50 44 48 38 43 34 42 41 30 49 61 43 38 46 44 49 41 52 28 54 41 57 40 58 37 44 42 44 50 46 50 44 48 51 37 47 33 52 46 46 38 55 45 36 55 58 44 42 44 48 48 37 44 48 40 52 49 42 45 43 43 50 38 48 42 51 49 50 32 50 51 39 48 38 42 53 47 43 46 40 49 45 47 51 42 43 45 42 49 41 51 49 50 60 39 48 50 46 40 53 47 55 38 49 45 48 42 45 48 43 39 54 51 33 51 57 39 49 53 48 38 47 39 47 57 52 45 36 39 42 36 38 39 38 43 47 45 42 18 17 20 23 24 18 7 22 20 14 20 18 20 22 20 19 17 14 16 15 23 28 21 22 17 24 15 19 25 18 17 31 32 26 24 17 25 26 18 28 23 26 23 21 20 20 18 33 21 29 25 20 31 21 22 27 19 32 24 15 27 18 20 29 18 24 18 22 29 27 23 17 20 14 20 30 17 20 19 25 16 18 18 37 25 24 16 25 27 24 17 25 20 22 24 21 25 23 23 27 22 25 18 17 19 29 20 29 22 25 11 22 25 24 23 17 22 25 17 28 23 28 21 25 22 22 18 16 16 21 27 29 24 23 29 14 25 30 18 17 17 19 30 23 20 23 24 23 28 26 25 25 23 22 25 18 18 27 23 22 21 31 36 29 19 26 22 24 25 18 26 19 23 19 29 21 20 23 29 26 24 19 20 23 26 19 16 28 33 20 16 22 29 24 26 36 25 18 29 30 25 27 19 32 16 22 21 26 31 20 21 20 27 25 24 26 26 21 22 34 25 34 16 25 34 26 20 23 16 24 34 29 27 22 20 25 19 16 15 20 25 26 22 24 19 28 19 34 19 18 20 30 25 25 23 30 22 22 20 26 20 28 16 18 13 21 22 16 22 32 33 14 14 32 28 24 25 24 25 29 22 23 25 23 26 19 27 24 27 31 16 24 16 23 23 30 25 23 18 23 22 22 30 25 20 32 22 19 23 29 22 27 22 28 27 24 29 35 22 28 27 29 20 23 25 25 15 23 25 25 19 24 33 25 18 22 20 16 25 17 14 23 23 22 21 21 23 13 21 23 31 22 21 23 31 26 21 17 11 28 15 28 20 25 27 22 18 17 19 30 19 27 18 23 17 27 30 24 21 21 27 26 19 27 23 24 26 29 26 25 20 25 33 17 16 23 18 19 29 23 22 22 27 21 23 14 27 29 22 26 19 19 20 20 24 20 19 28 33 21 25 24 28 30 21 29 19 25 26 21 19 21 28 26 21 24 21 14 15 19 18 26 20 25 14 25 26 32 11 28 21 17 16 14 22 24 16 20 17 20 35 24 19 25 26 22 21 20 20 21 24 21 18 19 24 20 23 18 22 22 22 29 38 20 18 21 18 23 31 29 20 21 23 18 22 19 22 21 17 22 32 22 18 17 23 13 12 23 23 26 18 23 
BTB PER SET COUNT: 2039 2198 3209 2473 2521 1730 1782 1689 1956 2039 1499 3164 15839 3449 2160 1513 2314 2126 1891 2302 2106 1242 2057 1946 1866 2511 2438 2919 2166 1934 2152 3108 2904 1788 2291 2714 2568 2095 1437 2421 1581 1600 1644 4725 2183 1912 2457 2641 3381 2763 2077 2611 1969 3097 1535 1568 2339 1674 1792 2017 2035 3417 2314 2423 2343 2292 1526 2831 2455 2132 2449 2260 2410 1914 1537 1708 1926 2670 1569 2729 2211 3180 2409 2334 1516 2780 2503 2427 2664 3240 2165 2102 2649 2241 1217 2244 2439 1529 2067 3835 3542 2305 1606 2373 3506 1553 2044 1266 1526 1962 2527 3045 3039 1407 2098 1945 2372 2783 3289 2302 2397 1623 2243 1530 2231 2793 1235 2420 3380 1842 1809 3299 2107 2348 2148 3027 1619 2219 1596 2841 1780 2552 1857 1782 1893 2133 2609 2219 2765 2590 1764 2123 1926 2336 916 2646 2095 2344 1224 2932 1635 1742 2582 2604 2678 2347 1572 3131 2080 1864 2832 2394 1494 3067 2430 1709 1928 1684 2229 2820 1741 2342 2477 3143 2226 4271 992 2333 2671 1825 2221 1908 2110 2686 2169 2063 2277 1640 2527 2086 2140 2410 2105 2695 1877 2083 3168 2027 2593 2281 2742 3200 1740 3587 2187 3362 1676 3068 3362 2827 1759 2160 2153 2848 1954 2128 2333 2281 1748 2836 1875 1740 2450 3625 1978 3255 2390 2342 2093 2152 2138 2488 3291 3005 2284 1790 1736 2110 1413 1616 1657 1477 1570 2582 2242 2269 534 736 600 774 982 581 153 1068 595 373 773 679 1436 752 666 793 490 312 527 347 906 958 650 953 250 1022 751 743 797 608 303 1484 1083 862 767 511 584 1457 486 1227 1497 1038 684 1301 590 658 270 1546 599 1202 989 643 1502 1388 985 1091 526 1295 2490 604 1018 830 726 1275 488 1770 402 704 1122 1740 1061 516 602 435 790 1147 498 535 569 1065 361 1391 289 1665 782 1741 447 983 1135 634 377 808 573 853 894 493 906 691 574 746 636 1187 449 529 607 1108 536 1103 634 2037 218 845 844 772 764 586 1034 1089 820 1119 784 1026 638 1172 911 693 768 358 525 542 2992 1097 668 1374 1256 293 774 1717 481 663 523 790 1441 1181 610 716 838 662 1172 914 1138 747 733 973 1182 295 472 1452 656 846 767 2602 1558 952 702 918 826 818 748 552 1527 557 834 827 1225 726 596 715 1399 1165 902 918 634 769 1655 674 526 1136 2101 844 861 1001 1180 1005 1710 2325 905 475 1111 1810 983 903 573 1211 554 660 575 1390 1353 719 5599 685 851 1098 1002 1014 694 812 787 1457 784 1524 532 1084 1670 1385 627 839 792 1244 1512 1150 1992 714 750 707 3703 541 335 859 1279 2016 792 649 625 1226 611 1368 718 442 560 1459 912 782 910 2215 1356 1365 724 1300 481 1116 590 756 339 874 696 680 942 1482 2009 1056 662 1800 1520 1014 930 723 1167 1222 803 1680 880 966 1016 657 846 998 919 1432 316 814 507 1192 904 1352 1315 1042 584 478 937 647 1310 1011 467 1399 805 804 1302 1166 905 1013 973 1274 1464 914 892 1346 2528 905 1160 1186 903 869 962 1045 394 2444 815 1244 1045 876 1560 1012 1053 645 833 405 1118 557 899 1335 733 536 388 915 867 342 1079 843 1208 2945 487 832 1212 1381 1263 339 203 954 311 936 1048 1186 1251 770 396 903 591 1140 607 1390 1831 676 405 1493 1215 773 738 846 944 1492 461 1471 855 1015 1173 828 1244 907 1043 1156 1689 443 399 837 398 625 2595 920 704 713 1051 1489 631 331 1465 1034 6114 906 658 1299 1886 768 714 647 810 885 1537 740 827 917 1075 1350 812 882 791 652 1641 716 567 690 1243 1137 606 842 722 457 3077 661 768 2180 817 765 1386 1043 1308 1088 207 996 776 679 366 432 826 1036 765 644 716 589 1532 773 655 1220 939 971 552 1209 2025 660 615 877 1139 938 1035 7520 737 556 623 949 1183 1181 1328 424 927 399 970 837 1137 958 1643 528 905 669 1897 548 1526 2622 1598 791 1234 1203 570 535 955 490 327 847 1863 1329 419 1178 
To predecode: 0
Predecoding something: 0
Predecode request dropped: 0
sizeofblock_0 0
sizeofblock_1 378861
sizeofblock_2 242842
sizeofblock_3 88583
sizeofblock_4 49390
sizeofblock_5 0
sizeofblock_6 0
sizeofblock_7 0
sizeofblock_8 0
Variant_0 Correct: 1327075 Incorrect: 0 Accuracy: 1
Variant_1 Correct: 1799063 Incorrect: 0 Accuracy: 1
Variant_2 Correct: 3293047 Incorrect: 0 Accuracy: 1
Variant_3 Correct: 0 Incorrect: 0 Accuracy: -nan
