
*** ChampSim Multicore Out-of-Order Simulator ***

Warmup Instructions: 50000000
Simulation Instructions: 50000000
Number of CPUs: 1
LLC sets: 2048
LLC ways: 16
Off-chip DRAM Size: 4096 MB Channels: 1 Width: 64-bit Data Rate: 6400 MT/s
CPU 0 runs ./micro_traces/srv347.trace.gz
.gz
ITLB has LRU replacement policy
DTLB has LRU replacement policy
STLB has LRU replacement policy
L1I has LRU replacement policy
L1D has LRU replacement policy
Initialize SRRIP state for L2C
Initialize DRRIP state for LLC
Heartbeat_Variant_0 : 1336 0.326172 per_variant_size: 0 1336 0 0 0 0 0 0 0 
Heartbeat_Variant_1 : 1226 0.299316 per_variant_size: 0 601 625 0 0 0 0 0 0 
Heartbeat_Variant_2 : 1300 0.317383 per_variant_size: 0 513 349 219 219 0 0 0 0 
Heartbeat_Variant_3 : 0 0 per_variant_size: 0 0 0 0 0 0 0 0 0 
Heartbeat_Variant_0_evicts 0 : 5814 1 : 290 2 : 290 3 : 0 
Heartbeat_Variant_1_evicts 0 : 278 1 : 0 2 : 451 3 : 0 
Heartbeat_Variant_2_evicts 0 : 273 1 : 444 2 : 0 3 : 0 
Heartbeat_Variant_3_evicts 0 : 0 1 : 0 2 : 0 3 : 0 
Heartbeat CPU 0 instructions: 10000001 cycles: 2796744 heartbeat IPC: 3.57559 cumulative IPC: 3.57559 (Simulation time: 0 hr 1 min 16 sec) 
Heartbeat_Variant_0 : 1360 0.332031 per_variant_size: 0 1360 0 0 0 0 0 0 0 
Heartbeat_Variant_1 : 1248 0.304688 per_variant_size: 0 589 659 0 0 0 0 0 0 
Heartbeat_Variant_2 : 1313 0.320557 per_variant_size: 0 499 356 220 238 0 0 0 0 
Heartbeat_Variant_3 : 0 0 per_variant_size: 0 0 0 0 0 0 0 0 0 
Heartbeat_Variant_0_evicts 0 : 5710 1 : 61 2 : 93 3 : 0 
Heartbeat_Variant_1_evicts 0 : 64 1 : 0 2 : 254 3 : 0 
Heartbeat_Variant_2_evicts 0 : 86 1 : 253 2 : 0 3 : 0 
Heartbeat_Variant_3_evicts 0 : 0 1 : 0 2 : 0 3 : 0 
Heartbeat CPU 0 instructions: 20000003 cycles: 5594553 heartbeat IPC: 3.57423 cumulative IPC: 3.57491 (Simulation time: 0 hr 2 min 33 sec) 
Heartbeat_Variant_0 : 1366 0.333496 per_variant_size: 0 1366 0 0 0 0 0 0 0 
Heartbeat_Variant_1 : 1258 0.307129 per_variant_size: 0 596 662 0 0 0 0 0 0 
Heartbeat_Variant_2 : 1323 0.322998 per_variant_size: 0 503 359 218 243 0 0 0 0 
Heartbeat_Variant_3 : 0 0 per_variant_size: 0 0 0 0 0 0 0 0 0 
Heartbeat_Variant_0_evicts 0 : 5465 1 : 49 2 : 53 3 : 0 
Heartbeat_Variant_1_evicts 0 : 52 1 : 0 2 : 239 3 : 0 
Heartbeat_Variant_2_evicts 0 : 49 1 : 239 2 : 0 3 : 0 
Heartbeat_Variant_3_evicts 0 : 0 1 : 0 2 : 0 3 : 0 
Heartbeat CPU 0 instructions: 30000003 cycles: 8390925 heartbeat IPC: 3.57606 cumulative IPC: 3.57529 (Simulation time: 0 hr 3 min 49 sec) 
Heartbeat_Variant_0 : 1370 0.334473 per_variant_size: 0 1370 0 0 0 0 0 0 0 
Heartbeat_Variant_1 : 1253 0.305908 per_variant_size: 0 583 670 0 0 0 0 0 0 
Heartbeat_Variant_2 : 1340 0.327148 per_variant_size: 0 522 351 236 231 0 0 0 0 
Heartbeat_Variant_3 : 0 0 per_variant_size: 0 0 0 0 0 0 0 0 0 
Heartbeat_Variant_0_evicts 0 : 5709 1 : 59 2 : 82 3 : 0 
Heartbeat_Variant_1_evicts 0 : 56 1 : 0 2 : 263 3 : 0 
Heartbeat_Variant_2_evicts 0 : 87 1 : 268 2 : 0 3 : 0 
Heartbeat_Variant_3_evicts 0 : 0 1 : 0 2 : 0 3 : 0 
Heartbeat CPU 0 instructions: 40000002 cycles: 11187186 heartbeat IPC: 3.5762 cumulative IPC: 3.57552 (Simulation time: 0 hr 5 min 5 sec) 
Heartbeat_Variant_0 : 1369 0.334229 per_variant_size: 0 1369 0 0 0 0 0 0 0 
Heartbeat_Variant_1 : 1252 0.305664 per_variant_size: 0 585 667 0 0 0 0 0 0 
Heartbeat_Variant_2 : 1343 0.327881 per_variant_size: 0 526 350 233 234 0 0 0 0 
Heartbeat_Variant_3 : 0 0 per_variant_size: 0 0 0 0 0 0 0 0 0 
Heartbeat_Variant_0_evicts 0 : 5504 1 : 2 2 : 0 3 : 0 
Heartbeat_Variant_1_evicts 0 : 2 1 : 0 2 : 195 3 : 0 
Heartbeat_Variant_2_evicts 0 : 2 1 : 196 2 : 0 3 : 0 
Heartbeat_Variant_3_evicts 0 : 0 1 : 0 2 : 0 3 : 0 
Heartbeat CPU 0 instructions: 50000000 cycles: 13983609 heartbeat IPC: 3.576 cumulative IPC: 3.57561 (Simulation time: 0 hr 6 min 17 sec) 

Warmup complete CPU 0 instructions: 50000004 cycles: 13983610 (Simulation time: 0 hr 6 min 17 sec) 

Cycle: 20000000 FTQ IN: 55338671 FTQ occupancy: 15.8871 DECODE IN: 55338658 DECODE occupancy: 9.51085 ROB IN: 55338649 ROB occupancy: 260.299 ROB OUT: 55338613
Heartbeat_Variant_0 : 1387 0.338623 per_variant_size: 0 1387 0 0 0 0 0 0 0 
Heartbeat_Variant_1 : 1264 0.308594 per_variant_size: 0 600 664 0 0 0 0 0 0 
Heartbeat_Variant_2 : 1351 0.329834 per_variant_size: 0 523 374 241 213 0 0 0 0 
Heartbeat_Variant_3 : 0 0 per_variant_size: 0 0 0 0 0 0 0 0 0 
Heartbeat_Variant_0_evicts 0 : 5700 1 : 113 2 : 133 3 : 0 
Heartbeat_Variant_1_evicts 0 : 100 1 : 0 2 : 322 3 : 0 
Heartbeat_Variant_2_evicts 0 : 137 1 : 309 2 : 0 3 : 0 
Heartbeat_Variant_3_evicts 0 : 0 1 : 0 2 : 0 3 : 0 
Heartbeat CPU 0 instructions: 60000002 cycles: 25155580 heartbeat IPC: 0.895097 cumulative IPC: 0.895097 (Simulation time: 0 hr 7 min 27 sec) 
Cycle: 30000000 FTQ IN: 9071617 FTQ occupancy: 14.9137 DECODE IN: 9071612 DECODE occupancy: 4.96494 ROB IN: 9071612 ROB occupancy: 53.3249 ROB OUT: 9071633
Heartbeat_Variant_0 : 1386 0.338379 per_variant_size: 0 1386 0 0 0 0 0 0 0 
Heartbeat_Variant_1 : 1267 0.309326 per_variant_size: 0 601 666 0 0 0 0 0 0 
Heartbeat_Variant_2 : 1351 0.329834 per_variant_size: 0 526 370 241 214 0 0 0 0 
Heartbeat_Variant_3 : 0 0 per_variant_size: 0 0 0 0 0 0 0 0 0 
Heartbeat_Variant_0_evicts 0 : 5612 1 : 6 2 : 14 3 : 0 
Heartbeat_Variant_1_evicts 0 : 8 1 : 0 2 : 216 3 : 0 
Heartbeat_Variant_2_evicts 0 : 15 1 : 215 2 : 0 3 : 0 
Heartbeat_Variant_3_evicts 0 : 0 1 : 0 2 : 0 3 : 0 
Heartbeat CPU 0 instructions: 70000002 cycles: 36188742 heartbeat IPC: 0.906358 cumulative IPC: 0.900693 (Simulation time: 0 hr 8 min 39 sec) 
Cycle: 40000000 FTQ IN: 9053002 FTQ occupancy: 14.9207 DECODE IN: 9053010 DECODE occupancy: 4.97146 ROB IN: 9053007 ROB occupancy: 53.5955 ROB OUT: 9052956
Heartbeat_Variant_0 : 1390 0.339355 per_variant_size: 0 1390 0 0 0 0 0 0 0 
Heartbeat_Variant_1 : 1280 0.3125 per_variant_size: 0 605 675 0 0 0 0 0 0 
Heartbeat_Variant_2 : 1352 0.330078 per_variant_size: 0 515 379 243 215 0 0 0 0 
Heartbeat_Variant_3 : 0 0 per_variant_size: 0 0 0 0 0 0 0 0 0 
Heartbeat_Variant_0_evicts 0 : 5594 1 : 75 2 : 101 3 : 0 
Heartbeat_Variant_1_evicts 0 : 80 1 : 0 2 : 298 3 : 0 
Heartbeat_Variant_2_evicts 0 : 94 1 : 297 2 : 0 3 : 0 
Heartbeat_Variant_3_evicts 0 : 0 1 : 0 2 : 0 3 : 0 
Heartbeat CPU 0 instructions: 80000000 cycles: 47425075 heartbeat IPC: 0.88997 cumulative IPC: 0.89709 (Simulation time: 0 hr 9 min 48 sec) 
Cycle: 50000000 FTQ IN: 8857596 FTQ occupancy: 14.9192 DECODE IN: 8857596 DECODE occupancy: 4.93467 ROB IN: 8857596 ROB occupancy: 54.4366 ROB OUT: 8857529
Heartbeat_Variant_0 : 1387 0.338623 per_variant_size: 0 1387 0 0 0 0 0 0 0 
Heartbeat_Variant_1 : 1285 0.313721 per_variant_size: 0 618 667 0 0 0 0 0 0 
Heartbeat_Variant_2 : 1352 0.330078 per_variant_size: 0 510 387 254 201 0 0 0 0 
Heartbeat_Variant_3 : 0 0 per_variant_size: 0 0 0 0 0 0 0 0 0 
Heartbeat_Variant_0_evicts 0 : 5605 1 : 7 2 : 9 3 : 0 
Heartbeat_Variant_1_evicts 0 : 10 1 : 0 2 : 206 3 : 0 
Heartbeat_Variant_2_evicts 0 : 10 1 : 205 2 : 0 3 : 0 
Heartbeat_Variant_3_evicts 0 : 0 1 : 0 2 : 0 3 : 0 
Heartbeat CPU 0 instructions: 90000000 cycles: 58468346 heartbeat IPC: 0.905529 cumulative IPC: 0.899185 (Simulation time: 0 hr 10 min 58 sec) 
Cycle: 60000000 FTQ IN: 9058275 FTQ occupancy: 14.9258 DECODE IN: 9058282 DECODE occupancy: 4.96767 ROB IN: 9058283 ROB occupancy: 53.0664 ROB OUT: 9058356
Heartbeat_Variant_0 : 1391 0.3396 per_variant_size: 0 1391 0 0 0 0 0 0 0 
Heartbeat_Variant_1 : 1282 0.312988 per_variant_size: 0 619 663 0 0 0 0 0 0 
Heartbeat_Variant_2 : 1353 0.330322 per_variant_size: 0 509 391 244 209 0 0 0 0 
Heartbeat_Variant_3 : 0 0 per_variant_size: 0 0 0 0 0 0 0 0 0 
Heartbeat_Variant_0_evicts 0 : 5558 1 : 31 2 : 30 3 : 0 
Heartbeat_Variant_1_evicts 0 : 29 1 : 0 2 : 213 3 : 0 
Heartbeat_Variant_2_evicts 0 : 28 1 : 214 2 : 0 3 : 0 
Heartbeat_Variant_3_evicts 0 : 0 1 : 0 2 : 0 3 : 0 
Heartbeat CPU 0 instructions: 100000000 cycles: 69644495 heartbeat IPC: 0.894763 cumulative IPC: 0.898297 (Simulation time: 0 hr 12 min 9 sec) 
Finished CPU 0 instructions: 50000000 cycles: 55660886 cumulative IPC: 0.898297 (Simulation time: 0 hr 12 min 9 sec) 

ChampSim completed all CPUs

Region of Interest Statistics

CPU 0 cumulative IPC: 0.898297 instructions: 50000000 cycles: 55660886
 Fetch stage stalled: 27.3976  Sim cycles: 55660886 fetch stall cycle: 15249750
 Empty decode stage: 68.6851  Sim cycles: 55660886 fetch stall cycle: 38230727
ITLB TOTAL     ACCESS:    7357051  HIT:    6862967  MISS:     494084  HIT %:    93.2842  MISS %:    6.71579   MPKI: 9.88168
ITLB LOAD TRANSLATION INSTRUCTION	ACCESS:    7357051  HIT:    6862967  MISS:     494084  HIT %:    93.2842  MISS %:    6.71579  MPKI: 9.88168

ITLB AVERAGE MISS LATENCY: 9.04292 cycles
ITLB RQ	ACCESS:    8470628	FORWARD:          0	MERGED:     915442	TO_CACHE:    7555186

DTLB TOTAL     ACCESS:   10301870  HIT:    9828506  MISS:     473364  HIT %:    95.4051  MISS %:    4.59493   MPKI: 9.46728
DTLB LOAD TRANSLATION DATA	ACCESS:   10301870  HIT:    9828506  MISS:     473364  HIT %:    95.4051  MISS %:    4.59493  MPKI: 9.46728

DTLB AVERAGE MISS LATENCY: 9.30854 cycles
DTLB RQ	ACCESS:   14430769	FORWARD:          0	MERGED:    4098880	TO_CACHE:   10331889

STLB TOTAL     ACCESS:    1227040  HIT:    1224983  MISS:       2057  HIT %:    99.8324  MISS %:   0.167639   MPKI: 0.04114
STLB LOAD TRANSLATION INSTRUCTION	ACCESS:     494084  HIT:     493826  MISS:        258  HIT %:    99.9478  MISS %:  0.0522178  MPKI: 0.00516
STLB LOAD TRANSLATION DATA	ACCESS:     473351  HIT:     471580  MISS:       1771  HIT %:    99.6259  MISS %:   0.374141  MPKI: 0.03542
STLB TRANSLATION FROM L1D PREFETCHER DATA	ACCESS:     259605  HIT:     259577  MISS:         28  HIT %:    99.9892  MISS %:  0.0107856  MPKI: 0.00056

STLB AVERAGE MISS LATENCY: 71.5241 cycles
STLB RQ	ACCESS:    1349588	FORWARD:          0	MERGED:     122507	TO_CACHE:    1227081

STLB Hit, L1D data hit: 0
STLB Hit, L2C data hit: 0
STLB Hit, LLC data hit: 0
STLB Hit, LLC data miss: 0
STLB STLB hints to L2: 0
L1D TOTAL     ACCESS:   14221342  HIT:   13092962  MISS:    1128380  HIT %:    92.0656  MISS %:    7.93441   MPKI: 22.5676
L1D LOAD DATA	ACCESS:    7580761  HIT:    6838039  MISS:     742722  HIT %:    90.2025  MISS %:    9.79746  MPKI: 14.8544
L1D RFO DATA	ACCESS:    6305761  HIT:    6016373  MISS:     289388  HIT %:    95.4107  MISS %:    4.58926  MPKI: 5.78776
L1D PREFETCH DATA	ACCESS:     334820  HIT:     238550  MISS:      96270  HIT %:    71.2472  MISS %:    28.7528  MPKI: 1.9254

L1D PREFETCH  REQUESTED:     764382  ISSUED:     764382  USEFUL:      37991  USELESS:      67913
L1D USEFUL LOAD PREFETCHES:      37991 PREFETCH ISSUED TO LOWER LEVEL:     105970  ACCURACY: 35.8507
 TIMELY PREFETCHES:      37991 LATE PREFETCHES: 9604 DROPPED PREFETCHES: 3
L1D AVERAGE MISS LATENCY: 361793 cycles
L1D RQ	ACCESS:   11413589	FORWARD:          0	MERGED:    3644956	TO_CACHE:    7612254
L1D WQ	ACCESS:    6939464	FORWARD:     156481	MERGED:     120949	TO_CACHE:    6818515
L1D PQ	ACCESS:     382242	FORWARD:          0	MERGED:          0	TO_CACHE:     382140

L1D UNIQUE REGIONS ACCESSED: 0
L1D REGIONS CONFLICTS: 0
L1D Cross Page Prefetch Requests: 6782
L1D Same Page Prefetch Requests: 763140
L1D ROI Sum of L1D PQ occupancy: 4854059
L1D PREFETCHES PUSHED FROM L2C: 0
L1I TOTAL     ACCESS:    7930126  HIT:    5169616  MISS:    2760510  HIT %:    65.1896  MISS %:    34.8104   MPKI: 55.2102
L1I LOAD INSTRUCTION	ACCESS:    7930126  HIT:    5169616  MISS:    2760510  HIT %:    65.1896  MISS %:    34.8104  MPKI: 55.2102

L1I AVERAGE MISS LATENCY: 17.0787 cycles
L1I RQ	ACCESS:   15511324	FORWARD:          0	MERGED:    7040696	TO_CACHE:    8470628

L1BTB TOTAL     ACCESS:    5672065  HIT:    2048372  MISS:    3623693  HIT %:    36.1133  MISS %:    63.8867   MPKI: 72.4739
L1BTB BRANCH_DIRECT_JUMP	ACCESS:     546800  HIT:     144229  MISS:     402571	AVERAGE STALL: 21.054
L1BTB BRANCH_INDIRECT	ACCESS:     182469  HIT:      65906  MISS:     116563	AVERAGE STALL: 49.8487
L1BTB BRANCH_CONDITIONAL	ACCESS:    2711963  HIT:    1421432  MISS:    1290531	AVERAGE STALL: 28.6591
L1BTB BRANCH_DIRECT_CALL	ACCESS:     943842  HIT:     105220  MISS:     838622	AVERAGE STALL: 30.4628
L1BTB BRANCH_INDIRECT_CALL	ACCESS:     171576  HIT:      21361  MISS:     150215	AVERAGE STALL: 65.6765
L1BTB BRANCH_RETURN	ACCESS:    1115415  HIT:     290224  MISS:     825191	AVERAGE STALL: 32.5322
L1BTB BRANCH_OTHER ACCESS:          0  HIT:          0  MISS:          0	AVERAGE STALL: -nan
L1BTB TOTAL ROB OCCUPANCY AT BTB MISS: 0.655203

L2BTB TOTAL     ACCESS:    3598377  HIT:    3531612  MISS:      66765  HIT %:    98.1446  MISS %:    1.85542   MPKI: 1.3353
L2BTB BRANCH_DIRECT_JUMP	ACCESS:     398427  HIT:     393621  MISS:       4806	AVERAGE STALL: 21.054
L2BTB BRANCH_INDIRECT	ACCESS:     106286  HIT:     103579  MISS:       2707	AVERAGE STALL: 49.8487
L2BTB BRANCH_CONDITIONAL	ACCESS:    1290531  HIT:    1285659  MISS:       4872	AVERAGE STALL: 28.6591
L2BTB BRANCH_DIRECT_CALL	ACCESS:     838622  HIT:     837529  MISS:       1093	AVERAGE STALL: 30.4628
L2BTB BRANCH_INDIRECT_CALL	ACCESS:     140716  HIT:     130512  MISS:      10204	AVERAGE STALL: 65.6765
L2BTB BRANCH_RETURN	ACCESS:     823795  HIT:     780712  MISS:      43083	AVERAGE STALL: 32.5322
L2BTB BRANCH_OTHER ACCESS:          0  HIT:          0  MISS:          0	AVERAGE STALL: -nan
L2BTB TOTAL ROB OCCUPANCY AT BTB MISS: 35.5614

L2C TOTAL     ACCESS:    4495954  HIT:    4033642  MISS:     462312  HIT %:    89.7172  MISS %:    10.2828   MPKI: 9.24624
L2C LOAD INSTRUCTION	ACCESS:    2760510  HIT:    2493505  MISS:     267005  HIT %:    90.3277  MISS %:    9.67231  MPKI: 5.3401
L2C LOAD TRANSLATION INSTRUCTION	ACCESS:        292  HIT:         61  MISS:        231  HIT %:    20.8904  MISS %:    79.1096  MPKI: 0.00462
L2C LOAD DATA	ACCESS:     733107  HIT:     666873  MISS:      66234  HIT %:    90.9653  MISS %:     9.0347  MPKI: 1.32468
L2C RFO DATA	ACCESS:     289283  HIT:     243102  MISS:      46181  HIT %:     84.036  MISS %:     15.964  MPKI: 0.92362
L2C PREFETCH DATA	ACCESS:     187031  HIT:     117332  MISS:      69699  HIT %:     62.734  MISS %:     37.266  MPKI: 1.39398
L2C WRITEBACK DATA	ACCESS:     523847  HIT:     512237  MISS:      11610  HIT %:    97.7837  MISS %:     2.2163  MPKI: 0.2322
L2C LOAD TRANSLATION DATA	ACCESS:       1836  HIT:        501  MISS:       1335  HIT %:    27.2876  MISS %:    72.7124  MPKI: 0.0267
L2C TRANSLATION FROM L1D PREFETCHER DATA	ACCESS:         48  HIT:         31  MISS:         17  HIT %:    64.5833  MISS %:    35.4167  MPKI: 0.00034

L2C PREFETCH  REQUESTED:      87953  ISSUED:      87953  USEFUL:       8614  USELESS:      61549
L2C USEFUL LOAD PREFETCHES:       8614 PREFETCH ISSUED TO LOWER LEVEL:      70063  ACCURACY: 12.2946
 TIMELY PREFETCHES:       8614 LATE PREFETCHES: 364 DROPPED PREFETCHES: 0
L2C AVERAGE MISS LATENCY: 39.5395 cycles
L2C RQ	ACCESS:    3785096	FORWARD:          0	MERGED:          0	TO_CACHE:    3785077
L2C WQ	ACCESS:     523847	FORWARD:         19	MERGED:          0	TO_CACHE:     523847
L2C PQ	ACCESS:     193923	FORWARD:          0	MERGED:       3441	TO_CACHE:     190482

L2C Dense regions hint from L2: 0
PSCL5 TOTAL     ACCESS:       4126  HIT:       2063  MISS:       2063  HIT %:         50  MISS %:         50   MPKI: 0.04126
PSCL5 LOAD TRANSLATION INSTRUCTION	ACCESS:       4030  HIT:       2015  MISS:       2015  HIT %:         50  MISS %:         50  MPKI: 0.0403
PSCL5 TRANSLATION FROM L1D PREFETCHER INSTRUCTION	ACCESS:         96  HIT:         48  MISS:         48  HIT %:         50  MISS %:         50  MPKI: 0.00096


PSCL4 TOTAL     ACCESS:       3733  HIT:       1861  MISS:       1872  HIT %:    49.8527  MISS %:    50.1473   MPKI: 0.03744
PSCL4 LOAD TRANSLATION INSTRUCTION	ACCESS:       3401  HIT:       1813  MISS:       1588  HIT %:    53.3079  MISS %:    46.6921  MPKI: 0.03176
PSCL4 TRANSLATION FROM L1D PREFETCHER INSTRUCTION	ACCESS:         96  HIT:         48  MISS:         48  HIT %:         50  MISS %:         50  MPKI: 0.00096
PSCL4 LOAD TRANSLATION DATA	ACCESS:        236  HIT:          0  MISS:        236  HIT %:          0  MISS %:        100  MPKI: 0.00472


PSCL3 TOTAL     ACCESS:       3767  HIT:       1878  MISS:       1889  HIT %:     49.854  MISS %:     50.146   MPKI: 0.03778
PSCL3 LOAD TRANSLATION INSTRUCTION	ACCESS:       3418  HIT:       1830  MISS:       1588  HIT %:    53.5401  MISS %:    46.4599  MPKI: 0.03176
PSCL3 TRANSLATION FROM L1D PREFETCHER INSTRUCTION	ACCESS:         96  HIT:         48  MISS:         48  HIT %:         50  MISS %:         50  MPKI: 0.00096
PSCL3 LOAD TRANSLATION DATA	ACCESS:        253  HIT:          0  MISS:        253  HIT %:          0  MISS %:        100  MPKI: 0.00506


PSCL2 TOTAL     ACCESS:       4035  HIT:       1972  MISS:       2063  HIT %:    48.8724  MISS %:    51.1276   MPKI: 0.04126
PSCL2 LOAD TRANSLATION INSTRUCTION	ACCESS:       2183  HIT:       1924  MISS:        259  HIT %:    88.1356  MISS %:    11.8644  MPKI: 0.00518
PSCL2 TRANSLATION FROM L1D PREFETCHER INSTRUCTION	ACCESS:         48  HIT:         48  MISS:          0  HIT %:        100  MISS %:          0  MPKI: 0
PSCL2 LOAD TRANSLATION DATA	ACCESS:       1756  HIT:          0  MISS:       1756  HIT %:          0  MISS %:        100  MPKI: 0.03512
PSCL2 TRANSLATION FROM L1D PREFETCHER DATA	ACCESS:         48  HIT:          0  MISS:         48  HIT %:          0  MISS %:        100  MPKI: 0.00096


LLC TOTAL     ACCESS:     518328  HIT:     488104  MISS:      30224  HIT %:    94.1689  MISS %:    5.83106   MPKI: 0.60448
LLC LOAD INSTRUCTION	ACCESS:     267005  HIT:     266003  MISS:       1002  HIT %:    99.6247  MISS %:   0.375274  MPKI: 0.02004
LLC LOAD TRANSLATION INSTRUCTION	ACCESS:        231  HIT:        203  MISS:         28  HIT %:    87.8788  MISS %:    12.1212  MPKI: 0.00056
LLC LOAD DATA	ACCESS:      65892  HIT:      62374  MISS:       3518  HIT %:     94.661  MISS %:    5.33904  MPKI: 0.07036
LLC RFO DATA	ACCESS:      46159  HIT:      30816  MISS:      15343  HIT %:    66.7605  MISS %:    33.2395  MPKI: 0.30686
LLC PREFETCH DATA	ACCESS:      70063  HIT:      60168  MISS:       9895  HIT %:     85.877  MISS %:     14.123  MPKI: 0.1979
LLC WRITEBACK DATA	ACCESS:      67626  HIT:      67267  MISS:        359  HIT %:    99.4691  MISS %:   0.530861  MPKI: 0.00718
LLC LOAD TRANSLATION DATA	ACCESS:       1335  HIT:       1258  MISS:         77  HIT %:    94.2322  MISS %:    5.76779  MPKI: 0.00154
LLC TRANSLATION FROM L1D PREFETCHER DATA	ACCESS:         17  HIT:         15  MISS:          2  HIT %:    88.2353  MISS %:    11.7647  MPKI: 4e-05

LLC AVERAGE MISS LATENCY: 156.226 cycles
LLC RQ	ACCESS:     380639	FORWARD:          0	MERGED:          0	TO_CACHE:     380639
LLC WQ	ACCESS:      67626	FORWARD:          0	MERGED:          0	TO_CACHE:      67626
LLC PQ	ACCESS:      70063	FORWARD:          0	MERGED:          0	TO_CACHE:      70063

LLC Dense regions hint to LLC: 0

RAW hits: 1217761
Loads Generated: 12631350
Loads sent to L1D: 11413589
Stores Generated: 6939455
Stores sent to L1D: 6939464
Major fault: 0 Minor fault: 2545
Allocated PAGES: 2545

stream: 
stream:times selected: 1193023
stream:pref_filled: 123620
stream:pref_useful: 26850
stream:pref_late: 6845
stream:misses: 8293
stream:misses_by_poll: 0

CS: 
CS:times selected: 182285
CS:pref_filled: 62655
CS:pref_useful: 39217
CS:pref_late: 7451
CS:misses: 18399
CS:misses_by_poll: 3

CPLX: 
CPLX:times selected: 1009673
CPLX:pref_filled: 23047
CPLX:pref_useful: 5670
CPLX:pref_late: 3169
CPLX:misses: 100725
CPLX:misses_by_poll: 2

NL_L1: 
NL:times selected: 19768
NL:pref_filled: 576
NL:pref_useful: 294
NL:pref_late: 375
NL:misses: 1626
NL:misses_by_poll: 0

total selections: 2404749
total_filled: 96270
total_useful: 37991
total_late: 19187
total_polluted: 5
total_misses_after_warmup: 774221
conflicts: 5987815

test: 116940

DRAM Statistics
 CHANNEL 0
 RQ ROW_BUFFER_HIT:      11439  ROW_BUFFER_MISS:      18406
 DBUS_CONGESTED:          7
 WQ ROW_BUFFER_HIT:       1482  ROW_BUFFER_MISS:      12659  FULL:          0

 AVG_CONGESTED_CYCLE: 6

CPU 0 Branch Prediction Accuracy: 99.8249% MPKI: 0.3202 Average ROB Occupancy at Mispredict: 73.762
Branch types
NOT_BRANCH: 40853959 81.7079%
BRANCH_DIRECT_JUMP: 546800 1.0936%
BRANCH_INDIRECT: 182469 0.364938%
BRANCH_CONDITIONAL: 6185621 12.3712%
BRANCH_DIRECT_CALL: 943842 1.88768%
BRANCH_INDIRECT_CALL: 171576 0.343152%
BRANCH_RETURN: 1115415 2.23083%
BRANCH_OTHER: 0 0%

DRAM PAGES: 1048576
Allocated PAGES: 2545
Average_ROB_Occupancy: 54.9581
Average_Decode_Occupancy: 4.95635
Average_FTQ_Occupancy: 14.9147
Indirect max targets: 14 Average targets: 1.14527
Branch_type:  BRANCH_DIRECT_JUMP:  Count Percentage: 3.2862 6.37765 4.42913 3.4393 10.298 8.94488 1.699 61.5258 
Branch_type:  BRANCH_INDIRECT:  Count Percentage: 13.7528 3.46422 2.49789 3.76812 9.67587 16.6076 3.22428 47.0092 
Branch_type:  BRANCH_CONDITIONAL:  Count Percentage: 21.542 3.03833 1.60996 3.09364 6.18126 13.3239 0.993242 50.2176 
Branch_type:  BRANCH_DIRECT_CALL:  Count Percentage: 0.767941 1.27833 1.00376 2.45462 4.77145 4.22695 0.88421 84.6127 
Branch_type:  BRANCH_INDIRECT_CALL:  Count Percentage: 9.53317 0 2.98951 4.27841 0 5.50916 0.992627 76.6971 
Branch_type:  BRANCH_RETURN:  Count Percentage: 4.53488 1.37297 2.07592 3.16352 7.80555 14.6066 1.38201 65.0586 
Branch_type:  BRANCH_DIRECT_JUMP:  Total Count: 35889 69651 48371 37561 112466 97688 18555 671930 
Branch_type:  BRANCH_INDIRECT:  Total Count: 50097 12619 9099 13726 35246 60496 11745 171239 
Branch_type:  BRANCH_CONDITIONAL:  Total Count: 2663424 375655 199053 382493 764242 1647351 122803 6208835 
Branch_type:  BRANCH_DIRECT_CALL:  Total Count: 14524 24177 18984 46424 90242 79944 16723 1600274 
Branch_type:  BRANCH_INDIRECT_CALL:  Total Count: 32788 0 10282 14715 0 18948 3414 263789 
Branch_type:  BRANCH_RETURN:  Total Count: 101401 30700 46418 70737 174534 326606 30902 1454726 
Number of unique branch instructions: 9923
Upper 32 bits: 
aaaa
ffff
ffff0000
Unique upper 32 bits: 3
Unique upper 36 bits: 3
Unique upper 40 bits: 5
Unique upper 44 bits: 32
Unique upper 48 bits: 154
Variant_0 : 1391 0.3396
Variant_1 : 1282 0.312988
Variant_2 : 1353 0.330322
Variant_3 : 0 0
Offset_3 4076
Offset_4 256
Offset_5 452
Offset_6 505
Offset_7 581
Offset_8 512
Offset_9 471
Offset_10 381
Offset_11 310
Offset_12 272
Offset_13 203
Offset_14 227
Offset_15 193
Offset_16 224
Offset_17 145
Offset_18 118
Offset_19 235
Offset_20 137
Offset_21 235
Offset_22 391
Offset_23 245
Offset_24 331
Offset_25 88
Offset_47 82
decode_dispatch_called: 30281400 54.4034
Dispatch_width: 0 18170226 60.0046 32.6445
Dispatch_width: 1 2310808 7.63111 4.15158
Dispatch_width: 2 1126242 3.71925 2.0234
Dispatch_width: 3 1088087 3.59325 1.95485
Dispatch_width: 4 1030972 3.40464 1.85224
Dispatch_width: 5 1282137 4.23407 2.30348
Dispatch_width: 6 5272928 17.4131 9.47331
Empty_decode_cycles: 25379486 45.5966
ROB_full_cycles: 528224 0.949004
Starvation_cycles_per_kilo_instr: 498.597
Starvation_cycles_per_kilo_instr_3: 475.466
Starvation_cycles_per_kilo_instr_0: 430.215
Branch_type_1  (3,1)  (4,11)  (5,37)  (6,70)  (7,115)  (8,130)  (9,123)  (10,97)  (11,70)  (12,43)  (13,5)  (14,2)  (15,3)  (16,4)  (18,1)  (19,4)  (20,2)  (21,1)  (22,3)  (23,2)  (24,10)  (25,12) 
Branch_type_2  (3,1)  (5,1)  (8,3)  (9,3)  (12,1)  (13,1)  (14,1)  (16,3)  (17,2)  (20,2)  (21,2)  (23,5)  (24,1)  (47,38) 
Branch_type_3  (3,4074)  (4,245)  (5,410)  (6,420)  (7,436)  (8,317)  (9,258)  (10,152)  (11,125)  (12,52)  (13,4) 
Branch_type_4  (6,3)  (7,8)  (8,26)  (9,53)  (10,64)  (11,58)  (12,97)  (13,88)  (14,100)  (15,91)  (16,100)  (17,65)  (18,53)  (19,115)  (20,72)  (21,124)  (22,208)  (23,138)  (24,192)  (25,72) 
Branch_type_5  (8,2)  (9,1)  (10,3)  (11,5)  (12,3)  (13,14)  (14,16)  (15,11)  (16,20)  (17,11)  (18,16)  (19,12)  (20,10)  (21,13)  (22,42)  (23,26)  (24,37) 
Branch_type_6  (5,4)  (6,12)  (7,22)  (8,34)  (9,33)  (10,65)  (11,52)  (12,76)  (13,91)  (14,108)  (15,88)  (16,97)  (17,67)  (18,48)  (19,104)  (20,51)  (21,95)  (22,138)  (23,74)  (24,91)  (25,4)  (47,44) 
Unique trigger count: 
Variant_0_evicts_0 : 0
Variant_0_evicts_1 : 0
Variant_0_evicts_2 : 0
Variant_0_evicts_3 : 0
Variant_1_evicts_0 : 0
Variant_1_evicts_1 : 0
Variant_1_evicts_2 : 0
Variant_1_evicts_3 : 0
Variant_2_evicts_0 : 0
Variant_2_evicts_1 : 0
Variant_2_evicts_2 : 0
Variant_2_evicts_3 : 0
Variant_3_evicts_0 : 0
Variant_3_evicts_1 : 0
Variant_3_evicts_2 : 0
Variant_3_evicts_3 : 0
BTB PER SET UNIQUE ADDR: 8 9 9 14 15 10 7 11 7 11 7 13 13 11 11 9 9 11 9 13 9 13 14 8 7 9 15 15 14 8 10 12 11 8 6 13 11 12 7 12 6 9 8 11 9 10 12 10 9 12 12 13 8 11 9 6 9 11 8 13 11 16 7 9 11 10 9 8 13 12 9 10 12 9 8 5 7 10 11 8 10 9 10 14 17 13 10 8 8 16 7 6 10 9 7 11 8 8 10 14 12 11 10 10 7 8 11 11 9 11 11 12 12 12 9 8 10 14 12 9 12 12 8 8 11 6 5 10 13 10 9 11 8 13 9 13 9 10 12 16 11 11 12 14 12 12 12 8 7 6 15 8 10 9 12 10 16 16 12 11 13 8 13 14 10 12 7 9 10 7 10 9 6 10 8 9 10 10 11 11 8 11 9 11 16 11 5 10 10 7 10 10 8 12 13 11 8 12 9 12 10 8 8 8 5 12 9 9 9 11 8 12 14 11 9 8 11 10 13 15 7 10 8 8 6 6 17 11 7 10 7 6 5 16 8 16 11 12 12 6 14 13 13 8 9 7 11 11 12 9 16 7 13 9 12 13 11 10 7 8 10 6 4 10 12 5 6 8 7 12 6 10 8 9 7 9 8 11 8 10 7 8 6 9 11 9 12 17 10 12 10 8 15 14 4 12 14 8 9 13 13 8 8 13 10 9 8 13 16 9 12 17 9 11 11 7 16 7 9 14 8 12 9 10 14 9 8 11 10 7 11 12 6 10 11 9 7 9 7 14 8 8 6 17 13 11 11 8 12 8 11 8 12 8 10 15 10 9 8 11 11 16 9 13 6 7 6 14 12 13 12 9 10 13 7 14 15 17 10 13 17 9 10 8 9 8 11 15 12 11 13 10 12 17 7 11 8 13 12 8 12 12 12 12 13 10 16 12 10 10 11 7 8 18 10 8 11 9 15 16 9 11 10 15 9 15 11 11 13 9 11 10 7 11 13 10 15 8 10 7 11 9 8 16 14 8 6 11 14 9 16 14 14 11 19 14 17 12 10 10 7 11 8 11 11 15 7 10 7 9 12 10 9 6 7 11 10 10 7 9 9 11 14 9 11 11 13 9 13 11 6 17 8 8 7 10 12 15 9 12 13 12 12 11 10 12 9 13 16 13 14 8 9 10 10 12 10 10 6 8 9 10 12 10 7 15 15 8 7 15 11 10 7 7 10 13 9 10 13 12 10 8 13 10 16 16 9 12 7 12 12 15 13 9 8 10 10 9 11 12 14 9 14 6 9 13 11 12 10 12 12 11 13 12 12 8 12 18 11 10 12 8 7 10 13 12 12 9 17 11 7 11 10 8 16 10 8 13 8 11 10 9 7 5 7 10 11 10 15 14 12 10 10 9 5 12 8 7 9 17 11 13 6 8 7 12 9 14 7 11 8 17 14 12 11 13 15 14 12 13 8 9 11 11 10 15 10 7 12 10 10 12 8 10 15 11 9 12 8 11 10 10 15 12 11 11 8 8 8 9 17 11 10 14 13 8 12 15 10 9 8 17 7 12 13 10 14 8 12 14 15 16 15 6 10 11 13 11 7 12 6 12 13 7 6 12 8 7 7 8 9 8 7 14 8 11 14 10 5 14 10 10 10 9 10 8 11 7 8 9 14 8 14 7 8 10 13 12 13 11 12 8 10 8 12 17 10 8 9 6 14 11 13 9 12 9 14 6 8 7 8 5 6 6 11 14 11 12 6 11 8 15 10 6 11 8 11 8 13 9 8 13 14 11 10 11 10 12 8 7 8 10 8 8 14 14 12 9 13 11 18 16 14 15 18 10 12 11 9 12 11 14 14 13 12 15 14 17 4 11 10 14 8 13 11 15 6 15 12 11 11 10 11 11 10 12 5 7 8 9 14 13 9 11 10 16 8 13 9 8 9 10 9 10 13 14 15 13 7 9 8 13 10 13 12 9 12 10 17 10 8 12 15 11 13 6 11 7 10 12 12 10 12 13 10 7 11 12 13 15 15 8 9 8 6 14 15 9 8 9 12 8 12 6 5 11 7 14 10 14 10 10 10 12 14 11 20 11 7 6 8 12 12 5 9 11 7 8 10 5 11 15 13 9 9 17 8 9 8 9 7 10 12 6 10 13 9 12 7 13 12 11 11 11 8 10 11 6 13 16 12 10 12 9 18 7 14 12 8 10 8 13 10 8 12 9 13 14 14 18 8 19 13 13 8 10 12 12 10 7 9 12 13 12 12 13 8 12 12 11 16 16 12 9 13 9 8 13 5 13 11 12 12 5 10 7 5 11 5 9 9 12 10 9 
BTB PER SET COUNT: 8 9 1929 18 355 14 8 42 1475 11 7 128 14561 695 13 9 998 15 11 19 11 16 763 11 7 10 20 1054 26 11 245 13 16 10 7 15 12 1481 9 20 6 13 9 19 10 11 17 12 10 20 14 549 11 14 11 7 11 12 14 27 14 25 7 9 11 14 9 2535 19 18 13 1348 19 12 8 5 9 681 16 14 432 13 16 23 22 68 14 8 9 65 8 785 492 11 10 11 488 9 13 16 12 2311 10 12 1995 8 15 11 657 11 14 23 144 19 10 61 12 21 2184 438 13 59 13 8 11 11 6 16 21 951 9 12 8 20 10 21 990 16 13 23 12 17 15 15 27 298 17 19 10 6 25 9 1636 11 13 11 744 18 15 14 16 238 15 15 14 301 9 13 19 1824 10 10 9 14 9 18 10 14 12 65 136 250 3425 14 18 13 8 12 858 964 15 10 8 18 13 132 8 17 10 708 11 130 991 9 8 21 9 11 10 11 8 17 26 11 9 9 11 15 2190 26 13 17 8 11 9 16 28 12 8 11 10 7 5 28 1409 22 15 21 17 7 1062 18 20 10 11 7 13 12 15 16 19 9 18 10 15 16 12 17 8 16 998 6 4 11 14 6 7 13 8 15 8 14 8 12 7 9 12 16 10 971 16 11 7 9 12 11 15 26 12 12 16 8 16 56 4 12 14 8 10 960 18 10 8 17 14 11 9 17 21 902 13 33 11 11 19 825 24 7 10 15 13 3196 12 18 15 10 8 21 11 11 14 13 8 13 13 9 8 9 7 16 10 142 7 21 14 12 11 8 16 14 1373 508 19 8 10 16 10 10 517 15 12 25 11 26 8 8 6 18 17 14 13 666 13 20 9 15 19 21 17 1485 30 10 999 11 9 8 13 20 20 128 25 11 19 17 8 15 9 24 12 8 13 12 17 15 21 14 20 274 13 11 13 7 10 29 16 9 13 11 17 21 11 13 20 17 14 25 19 17 15 11 56 14 9 17 548 15 16 9 12 12 14 12 27 19 2476 8 6 17 17 9 329 1287 22 12 20 14 22 12 15 11 11 12 12 18 15 139 7 14 13 9 14 14 10 7 7 17 17 1828 8 11 13 16 18 11 11 80 17 9 19 15 965 20 1472 9 9 12 645 252 11 13 21 14 17 14 14 21 12 20 27 13 17 482 21 548 11 12 11 12 7 11 9 10 13 62 10 24 17 9 9 40 14 17 7 8 16 18 1484 969 18 413 10 9 20 11 23 28 14 16 7 1020 14 16 878 974 20 13 11 9 17 14 16 13 16 6 93 14 22 13 13 14 22 13 21 15 204 10 13 27 14 16 13 9 9 4233 20 20 561 10 26 12 15 13 14 10 25 13 9 474 8 11 12 9 8 5 9 13 12 2704 21 19 12 1479 550 14 5 20 8 8 12 247 11 14 11 18 8 13 17 19 974 13 10 20 16 152 15 33 19 15 14 234 9 10 11 14 10 25 967 7 18 16 12 14 10 10 18 493 9 14 907 18 13 16 18 17 6033 12 16 997 1481 11 22 15 999 20 964 8 12 18 11 10 11 22 9 16 1834 13 16 10 34 15 17 31 16 7 1806 13 137 132 12 12 8 16 22 12 6 16 10 11 7 11 12 142 71 16 10 14 362 1587 6 258 17 1001 12 125 10 11 13 10 965 9 18 8 14 95 11 999 976 13 14 16 1002 8 10 110 12 20 10 13 11 9 1489 13 15 1959 1148 10 18 7 9 7 16 7 6 7 12 30 15 73 8 212 49 20 21 7 15 11 11 10 16 10 596 16 43 14 15 214 13 18 8 10 9 14 9 11 1351 269 12 14 15 17 23 23 57 148 351 12 19 12 10 12 11 7391 21 18 394 83 24 1491 4 2978 13 776 10 16 162 41 7 19 19 11 13 13 13 14 509 52 5 7 17 10 16 19 10 12 1812 16 13 14 10 14697 10 459 27 10 1136 16 18 17 11 12 12 18 12 13 13 11 17 12 23 13 8 31 18 13 19 6 11 11 10 15 17 15 17 24 11 10 13 15 13 180 18 10 9 62 6 25 19 9 23 12 13 9 16 365 5 16 7 23 15 19 15 491 17 23 21 406 1113 939 7 44 12 12 950 5 11 13 14 11 12 6 12 24 1821 11 41 1618 13 11 9 13 7 501 13 6 13 16 20 14 15 20 21 11 1484 1739 8 12 15 6 17 19 1102 16 870 12 24 7 1486 19 10 84 67 1254 10 9 494 15 18 24 711 142 12 29 17 66 9 11 12 505 10 14 20 14 19 16 16 27 11 1486 19 19 149 1149 15 9 15 9 10 24 5 1002 41 85 13 5 10 9 9 13 5 9 9 12 11 12 
To predecode: 0
Predecoding something: 0
Predecode request dropped: 0
sizeofblock_0 0
sizeofblock_1 42767
sizeofblock_2 27426
sizeofblock_3 46504
sizeofblock_4 23601
sizeofblock_5 0
sizeofblock_6 0
sizeofblock_7 0
sizeofblock_8 0
Variant_0 Correct: 1612415 Incorrect: 0 Accuracy: 1
Variant_1 Correct: 2087730 Incorrect: 0 Accuracy: 1
Variant_2 Correct: 3642740 Incorrect: 0 Accuracy: 1
Variant_3 Correct: 0 Incorrect: 0 Accuracy: -nan
