
*** ChampSim Multicore Out-of-Order Simulator ***

Warmup Instructions: 50000000
Simulation Instructions: 50000000
Number of CPUs: 1
LLC sets: 2048
LLC ways: 16
Off-chip DRAM Size: 4096 MB Channels: 1 Width: 64-bit Data Rate: 6400 MT/s
CPU 0 runs ./micro_traces/srv388.trace.gz
.gz
ITLB has LRU replacement policy
DTLB has LRU replacement policy
STLB has LRU replacement policy
CPU 0 L1I next line prefetcher
L1I has LRU replacement policy
L1D has LRU replacement policy
Initialize SRRIP state for L2C
Initialize DRRIP state for LLC
Heartbeat CPU 0 instructions: 10000003 cycles: 2798092 heartbeat IPC: 3.57386 cumulative IPC: 3.57386 (Simulation time: 0 hr 1 min 40 sec) 
Heartbeat CPU 0 instructions: 20000000 cycles: 5595036 heartbeat IPC: 3.57533 cumulative IPC: 3.5746 (Simulation time: 0 hr 3 min 23 sec) 
Heartbeat CPU 0 instructions: 30000001 cycles: 8392351 heartbeat IPC: 3.57486 cumulative IPC: 3.57468 (Simulation time: 0 hr 5 min 0 sec) 
Heartbeat CPU 0 instructions: 40000003 cycles: 11189543 heartbeat IPC: 3.57501 cumulative IPC: 3.57477 (Simulation time: 0 hr 6 min 41 sec) 
Heartbeat CPU 0 instructions: 50000000 cycles: 13986140 heartbeat IPC: 3.57577 cumulative IPC: 3.57497 (Simulation time: 0 hr 8 min 17 sec) 

Warmup complete CPU 0 instructions: 50000004 cycles: 13986141 (Simulation time: 0 hr 8 min 17 sec) 

Cycle: 20000000 FTQ IN: 56555999 FTQ occupancy: 17.1275 DECODE IN: 56555965 DECODE occupancy: 44.7716 ROB IN: 56555912 ROB occupancy: 279.039 ROB OUT: 56555843
Heartbeat CPU 0 instructions: 60000003 cycles: 23230521 heartbeat IPC: 1.08174 cumulative IPC: 1.08174 (Simulation time: 0 hr 9 min 34 sec) 
Cycle: 30000000 FTQ IN: 10940848 FTQ occupancy: 3.84683 DECODE IN: 10940878 DECODE occupancy: 10.1815 ROB IN: 10940931 ROB occupancy: 122.541 ROB OUT: 10940963
Heartbeat CPU 0 instructions: 70000000 cycles: 32255355 heartbeat IPC: 1.10805 cumulative IPC: 1.09474 (Simulation time: 0 hr 10 min 52 sec) 
Cycle: 40000000 FTQ IN: 11143660 FTQ occupancy: 3.64734 DECODE IN: 11143651 DECODE occupancy: 9.91157 ROB IN: 11143632 ROB occupancy: 124.195 ROB OUT: 11143514
Heartbeat CPU 0 instructions: 80000003 cycles: 41291672 heartbeat IPC: 1.10665 cumulative IPC: 1.09868 (Simulation time: 0 hr 12 min 7 sec) 
Cycle: 50000000 FTQ IN: 10911950 FTQ occupancy: 3.76506 DECODE IN: 10911959 DECODE occupancy: 10.1167 ROB IN: 10911978 ROB occupancy: 123.179 ROB OUT: 10911976
Heartbeat CPU 0 instructions: 90000000 cycles: 50377620 heartbeat IPC: 1.1006 cumulative IPC: 1.09916 (Simulation time: 0 hr 13 min 29 sec) 
Heartbeat CPU 0 instructions: 100000000 cycles: 59394490 heartbeat IPC: 1.10903 cumulative IPC: 1.10112 (Simulation time: 0 hr 14 min 37 sec) 
Finished CPU 0 instructions: 50000000 cycles: 45408350 cumulative IPC: 1.10112 (Simulation time: 0 hr 14 min 37 sec) 

ChampSim completed all CPUs

Region of Interest Statistics

CPU 0 cumulative IPC: 1.10112 instructions: 50000000 cycles: 45408350
 Fetch stage stalled: 73.5394  Sim cycles: 45408350 fetch stall cycle: 33393013
 Empty decode stage: 58.2869  Sim cycles: 45408350 fetch stall cycle: 26467143
ITLB TOTAL     ACCESS:    7645400  HIT:    7036860  MISS:     608540  HIT %:    92.0404  MISS %:    7.95956   MPKI: 12.1708
ITLB LOAD TRANSLATION INSTRUCTION	ACCESS:    5871965  HIT:    5743576  MISS:     128389  HIT %:    97.8135  MISS %:    2.18647  MPKI: 2.56778
ITLB TRANSLATION FROM L1D PREFETCHER INSTRUCTION	ACCESS:    1773435  HIT:    1293284  MISS:     480151  HIT %:    72.9254  MISS %:    27.0746  MPKI: 9.60302

ITLB AVERAGE MISS LATENCY: 101284 cycles
ITLB RQ	ACCESS:   11593041	FORWARD:          0	MERGED:    3805988	TO_CACHE:    7787053

DTLB TOTAL     ACCESS:    9381709  HIT:    8905739  MISS:     475970  HIT %:    94.9266  MISS %:    5.07338   MPKI: 9.5194
DTLB LOAD TRANSLATION DATA	ACCESS:    9381709  HIT:    8905739  MISS:     475970  HIT %:    94.9266  MISS %:    5.07338  MPKI: 9.5194

DTLB AVERAGE MISS LATENCY: 9.31707 cycles
DTLB RQ	ACCESS:   13659305	FORWARD:          0	MERGED:    4244149	TO_CACHE:    9415156

STLB TOTAL     ACCESS:    1330554  HIT:    1328518  MISS:       2036  HIT %:     99.847  MISS %:   0.153019   MPKI: 0.04072
STLB LOAD TRANSLATION INSTRUCTION	ACCESS:     126700  HIT:     126578  MISS:        122  HIT %:    99.9037  MISS %:  0.0962904  MPKI: 0.00244
STLB TRANSLATION FROM L1D PREFETCHER INSTRUCTION	ACCESS:     481840  HIT:     481763  MISS:         77  HIT %:     99.984  MISS %:  0.0159804  MPKI: 0.00154
STLB LOAD TRANSLATION DATA	ACCESS:     475970  HIT:     474156  MISS:       1814  HIT %:    99.6189  MISS %:   0.381116  MPKI: 0.03628
STLB TRANSLATION FROM L1D PREFETCHER DATA	ACCESS:     246044  HIT:     246021  MISS:         23  HIT %:    99.9907  MISS %: 0.00934792  MPKI: 0.00046

STLB AVERAGE MISS LATENCY: 71.2421 cycles
STLB RQ	ACCESS:    1454651	FORWARD:          0	MERGED:     120263	TO_CACHE:    1334388

STLB Hit, L1D data hit: 0
STLB Hit, L2C data hit: 0
STLB Hit, LLC data hit: 0
STLB Hit, LLC data miss: 0
STLB STLB hints to L2: 0
L1D TOTAL     ACCESS:   13400873  HIT:   12280052  MISS:    1120821  HIT %:    91.6362  MISS %:    8.36379   MPKI: 22.4164
L1D LOAD DATA	ACCESS:    6841620  HIT:    6100080  MISS:     741540  HIT %:    89.1613  MISS %:    10.8387  MPKI: 14.8308
L1D RFO DATA	ACCESS:    6234789  HIT:    5949196  MISS:     285593  HIT %:    95.4194  MISS %:    4.58064  MPKI: 5.71186
L1D PREFETCH DATA	ACCESS:     324464  HIT:     230776  MISS:      93688  HIT %:    71.1253  MISS %:    28.8747  MPKI: 1.87376

L1D PREFETCH  REQUESTED:     732994  ISSUED:     732994  USEFUL:      34311  USELESS:      67857
L1D USEFUL LOAD PREFETCHES:      34311 PREFETCH ISSUED TO LOWER LEVEL:     102235  ACCURACY: 33.5609
 TIMELY PREFETCHES:      34311 LATE PREFETCHES: 8481 DROPPED PREFETCHES: 2
L1D AVERAGE MISS LATENCY: 276410 cycles
L1D RQ	ACCESS:   10907674	FORWARD:          0	MERGED:    3860929	TO_CACHE:    6880337
L1D WQ	ACCESS:    6952044	FORWARD:     166734	MERGED:     173076	TO_CACHE:    6778968
L1D PQ	ACCESS:     366660	FORWARD:          0	MERGED:          0	TO_CACHE:     366334

L1D UNIQUE REGIONS ACCESSED: 0
L1D REGIONS CONFLICTS: 0
L1D Cross Page Prefetch Requests: 6622
L1D Same Page Prefetch Requests: 748813
L1D ROI Sum of L1D PQ occupancy: 4654418
L1D PREFETCHES PUSHED FROM L2C: 0
L1I TOTAL     ACCESS:   11308166  HIT:    7660605  MISS:    3647561  HIT %:     67.744  MISS %:     32.256   MPKI: 72.9512
L1I LOAD INSTRUCTION	ACCESS:    6690647  HIT:    6193060  MISS:     497587  HIT %:    92.5629  MISS %:    7.43705  MPKI: 9.95174
L1I PREFETCH INSTRUCTION	ACCESS:    4617519  HIT:    1467545  MISS:    3149974  HIT %:    31.7821  MISS %:    68.2179  MPKI: 62.9995

L1I PREFETCH  REQUESTED:    5176651  ISSUED:    5176632  USEFUL:    2405594  USELESS:     784215
L1I USEFUL LOAD PREFETCHES:    2405594 PREFETCH ISSUED TO LOWER LEVEL:    3189812  ACCURACY: 75.4149
 TIMELY PREFETCHES:    2405594 LATE PREFETCHES: 39840 DROPPED PREFETCHES: 10283
L1I AVERAGE MISS LATENCY: 396670 cycles
L1I RQ	ACCESS:    9430970	FORWARD:          0	MERGED:    2720383	TO_CACHE:    6710587
L1I PQ	ACCESS:    5176632	FORWARD:          0	MERGED:     294178	TO_CACHE:    4882454

L1BTB TOTAL     ACCESS:    5671857  HIT:    2030302  MISS:    3641555  HIT %:    35.7961  MISS %:    64.2039   MPKI: 72.8311
L1BTB BRANCH_DIRECT_JUMP	ACCESS:     547660  HIT:     143390  MISS:     404270	AVERAGE STALL: 19.8773
L1BTB BRANCH_INDIRECT	ACCESS:     182452  HIT:      65577  MISS:     116875	AVERAGE STALL: 79.4221
L1BTB BRANCH_CONDITIONAL	ACCESS:    2701284  HIT:    1404839  MISS:    1296445	AVERAGE STALL: 19.5835
L1BTB BRANCH_DIRECT_CALL	ACCESS:     948356  HIT:     105211  MISS:     843145	AVERAGE STALL: 20.3117
L1BTB BRANCH_INDIRECT_CALL	ACCESS:     171878  HIT:      20949  MISS:     150929	AVERAGE STALL: 101.332
L1BTB BRANCH_RETURN	ACCESS:    1120227  HIT:     290336  MISS:     829891	AVERAGE STALL: 21.5826
L1BTB BRANCH_OTHER ACCESS:          0  HIT:          0  MISS:          0	AVERAGE STALL: -nan
L1BTB TOTAL ROB OCCUPANCY AT BTB MISS: 29.647

L2BTB TOTAL     ACCESS:    3616241  HIT:    2584980  MISS:    1031261  HIT %:    71.4825  MISS %:    28.5175   MPKI: 20.6252
L2BTB BRANCH_DIRECT_JUMP	ACCESS:     400175  HIT:     283704  MISS:     116471	AVERAGE STALL: 19.8773
L2BTB BRANCH_INDIRECT	ACCESS:     106545  HIT:      93534  MISS:      13011	AVERAGE STALL: 79.4221
L2BTB BRANCH_CONDITIONAL	ACCESS:    1296445  HIT:     925139  MISS:     371306	AVERAGE STALL: 19.5835
L2BTB BRANCH_DIRECT_CALL	ACCESS:     843145  HIT:     576282  MISS:     266863	AVERAGE STALL: 20.3117
L2BTB BRANCH_INDIRECT_CALL	ACCESS:     141458  HIT:      93025  MISS:      48433	AVERAGE STALL: 101.332
L2BTB BRANCH_RETURN	ACCESS:     828473  HIT:     613296  MISS:     215177	AVERAGE STALL: 21.5826
L2BTB BRANCH_OTHER ACCESS:          0  HIT:          0  MISS:          0	AVERAGE STALL: -nan
L2BTB TOTAL ROB OCCUPANCY AT BTB MISS: 104.688

L2C TOTAL     ACCESS:    6644795  HIT:    5635564  MISS:    1009231  HIT %:    84.8117  MISS %:    15.1883   MPKI: 20.1846
L2C LOAD INSTRUCTION	ACCESS:     457747  HIT:     372605  MISS:      85142  HIT %:    81.3998  MISS %:    18.6002  MPKI: 1.70284
L2C PREFETCH INSTRUCTION	ACCESS:    3189813  HIT:    2816610  MISS:     373203  HIT %:    88.3002  MISS %:    11.6998  MPKI: 7.46406
L2C LOAD TRANSLATION INSTRUCTION	ACCESS:        143  HIT:         39  MISS:        104  HIT %:    27.2727  MISS %:    72.7273  MPKI: 0.00208
L2C TRANSLATION FROM L1D PREFETCHER INSTRUCTION	ACCESS:       4641  HIT:       4492  MISS:        149  HIT %:    96.7895  MISS %:    3.21051  MPKI: 0.00298
L2C LOAD DATA	ACCESS:     733044  HIT:     582464  MISS:     150580  HIT %:    79.4583  MISS %:    20.5417  MPKI: 3.0116
L2C RFO DATA	ACCESS:     285509  HIT:     192506  MISS:      93003  HIT %:    67.4255  MISS %:    32.5745  MPKI: 1.86006
L2C PREFETCH DATA	ACCESS:    1448342  HIT:    1183666  MISS:     264676  HIT %:    81.7256  MISS %:    18.2744  MPKI: 5.29352
L2C WRITEBACK DATA	ACCESS:     523626  HIT:     482703  MISS:      40923  HIT %:    92.1847  MISS %:    7.81531  MPKI: 0.81846
L2C LOAD TRANSLATION DATA	ACCESS:       1893  HIT:        452  MISS:       1441  HIT %:    23.8774  MISS %:    76.1226  MPKI: 0.02882
L2C TRANSLATION FROM L1D PREFETCHER DATA	ACCESS:         37  HIT:         27  MISS:         10  HIT %:     72.973  MISS %:     27.027  MPKI: 0.0002

L2C PREFETCH  REQUESTED:    3309267  ISSUED:    3309267  USEFUL:      33722  USELESS:     606165
L2C USEFUL LOAD PREFETCHES:      33722 PREFETCH ISSUED TO LOWER LEVEL:     639136  ACCURACY: 5.27619
 TIMELY PREFETCHES:      33722 LATE PREFETCHES: 1257 DROPPED PREFETCHES: 0
L2C AVERAGE MISS LATENCY: 33.2625 cycles
L2C RQ	ACCESS:    1483045	FORWARD:          0	MERGED:          0	TO_CACHE:    1483014
L2C WQ	ACCESS:     523626	FORWARD:         32	MERGED:          0	TO_CACHE:     523626
L2C PQ	ACCESS:    6601314	FORWARD:          0	MERGED:    1944312	TO_CACHE:    4657001

L2C Dense regions hint from L2: 0
PSCL5 TOTAL     ACCESS:      11692  HIT:       5846  MISS:       5846  HIT %:         50  MISS %:         50   MPKI: 0.11692
PSCL5 LOAD TRANSLATION INSTRUCTION	ACCESS:       3850  HIT:       1925  MISS:       1925  HIT %:         50  MISS %:         50  MPKI: 0.0385
PSCL5 TRANSLATION FROM L1D PREFETCHER INSTRUCTION	ACCESS:       7842  HIT:       3921  MISS:       3921  HIT %:         50  MISS %:         50  MPKI: 0.07842


PSCL4 TOTAL     ACCESS:      11037  HIT:       5511  MISS:       5526  HIT %:     49.932  MISS %:     50.068   MPKI: 0.11052
PSCL4 LOAD TRANSLATION INSTRUCTION	ACCESS:       2580  HIT:       1798  MISS:        782  HIT %:    69.6899  MISS %:    30.3101  MPKI: 0.01564
PSCL4 TRANSLATION FROM L1D PREFETCHER INSTRUCTION	ACCESS:       5544  HIT:       3713  MISS:       1831  HIT %:    66.9733  MISS %:    33.0267  MPKI: 0.03662
PSCL4 LOAD TRANSLATION DATA	ACCESS:       1031  HIT:          0  MISS:       1031  HIT %:          0  MISS %:        100  MPKI: 0.02062
PSCL4 TRANSLATION FROM L1D PREFETCHER DATA	ACCESS:       1882  HIT:          0  MISS:       1882  HIT %:          0  MISS %:        100  MPKI: 0.03764


PSCL3 TOTAL     ACCESS:      11091  HIT:       5538  MISS:       5553  HIT %:    49.9324  MISS %:    50.0676   MPKI: 0.11106
PSCL3 LOAD TRANSLATION INSTRUCTION	ACCESS:       2607  HIT:       1825  MISS:        782  HIT %:    70.0038  MISS %:    29.9962  MPKI: 0.01564
PSCL3 TRANSLATION FROM L1D PREFETCHER INSTRUCTION	ACCESS:       5544  HIT:       3713  MISS:       1831  HIT %:    66.9733  MISS %:    33.0267  MPKI: 0.03662
PSCL3 LOAD TRANSLATION DATA	ACCESS:       1058  HIT:          0  MISS:       1058  HIT %:          0  MISS %:        100  MPKI: 0.02116
PSCL3 TRANSLATION FROM L1D PREFETCHER DATA	ACCESS:       1882  HIT:          0  MISS:       1882  HIT %:          0  MISS %:        100  MPKI: 0.03764


PSCL2 TOTAL     ACCESS:      10116  HIT:       5010  MISS:       5106  HIT %:    49.5255  MISS %:    50.4745   MPKI: 0.10212
PSCL2 LOAD TRANSLATION INSTRUCTION	ACCESS:       1976  HIT:       1842  MISS:        134  HIT %:    93.2186  MISS %:    6.78138  MPKI: 0.00268
PSCL2 TRANSLATION FROM L1D PREFETCHER INSTRUCTION	ACCESS:       6299  HIT:       3168  MISS:       3131  HIT %:    50.2937  MISS %:    49.7063  MPKI: 0.06262
PSCL2 LOAD TRANSLATION DATA	ACCESS:       1804  HIT:          0  MISS:       1804  HIT %:          0  MISS %:        100  MPKI: 0.03608
PSCL2 TRANSLATION FROM L1D PREFETCHER DATA	ACCESS:         37  HIT:          0  MISS:         37  HIT %:          0  MISS %:        100  MPKI: 0.00074


LLC TOTAL     ACCESS:    1107431  HIT:    1078923  MISS:      28508  HIT %:    97.4258  MISS %:    2.57425   MPKI: 0.57016
LLC LOAD INSTRUCTION	ACCESS:      84624  HIT:      84278  MISS:        346  HIT %:    99.5911  MISS %:   0.408867  MPKI: 0.00692
LLC PREFETCH INSTRUCTION	ACCESS:     370944  HIT:     370429  MISS:        515  HIT %:    99.8612  MISS %:   0.138835  MPKI: 0.0103
LLC LOAD TRANSLATION INSTRUCTION	ACCESS:        104  HIT:         77  MISS:         27  HIT %:    74.0385  MISS %:    25.9615  MPKI: 0.00054
LLC TRANSLATION FROM L1D PREFETCHER INSTRUCTION	ACCESS:        149  HIT:        135  MISS:         14  HIT %:     90.604  MISS %:    9.39597  MPKI: 0.00028
LLC LOAD DATA	ACCESS:     149833  HIT:     146214  MISS:       3619  HIT %:    97.5846  MISS %:    2.41536  MPKI: 0.07238
LLC RFO DATA	ACCESS:      92985  HIT:      79835  MISS:      13150  HIT %:    85.8579  MISS %:    14.1421  MPKI: 0.263
LLC PREFETCH DATA	ACCESS:     268191  HIT:     257690  MISS:      10501  HIT %:    96.0845  MISS %:    3.91549  MPKI: 0.21002
LLC WRITEBACK DATA	ACCESS:     139150  HIT:     138878  MISS:        272  HIT %:    99.8045  MISS %:   0.195473  MPKI: 0.00544
LLC LOAD TRANSLATION DATA	ACCESS:       1441  HIT:       1377  MISS:         64  HIT %:    95.5586  MISS %:    4.44136  MPKI: 0.00128
LLC TRANSLATION FROM L1D PREFETCHER DATA	ACCESS:         10  HIT:         10  MISS:          0  HIT %:        100  MISS %:          0  MPKI: 0

LLC AVERAGE MISS LATENCY: 157.473 cycles
LLC RQ	ACCESS:     329172	FORWARD:          0	MERGED:          0	TO_CACHE:     329146
LLC WQ	ACCESS:     139150	FORWARD:         27	MERGED:          0	TO_CACHE:     139150
LLC PQ	ACCESS:     639136	FORWARD:          0	MERGED:          0	TO_CACHE:     639135

LLC Dense regions hint to LLC: 0

RAW hits: 1723032
Loads Generated: 12630703
Loads sent to L1D: 10907674
Stores Generated: 6952043
Stores sent to L1D: 6952044
Major fault: 0 Minor fault: 2633
Allocated PAGES: 2633
I-Shadow cache 408 bytes
Touched + WorthPF tables 12288 bytes 
MMA filter 174 bytes 
FNL filter 272 bytes 
TOTAL PREFETCHER STORAGE SIZE: 31318 bytes
CPU 0 L1I next line prefetcher final stats

stream: 
stream:times selected: 1183985
stream:pref_filled: 117314
stream:pref_useful: 22037
stream:pref_late: 8323
stream:misses: 8229
stream:misses_by_poll: 0

CS: 
CS:times selected: 175725
CS:pref_filled: 54755
CS:pref_useful: 31058
CS:pref_late: 12762
CS:misses: 21717
CS:misses_by_poll: 5

CPLX: 
CPLX:times selected: 1007056
CPLX:pref_filled: 18996
CPLX:pref_useful: 3783
CPLX:pref_late: 3647
CPLX:misses: 95468
CPLX:misses_by_poll: 2

NL_L1: 
NL:times selected: 19483
NL:pref_filled: 568
NL:pref_useful: 212
NL:pref_late: 365
NL:misses: 1630
NL:misses_by_poll: 0

total selections: 2386249
total_filled: 93688
total_useful: 34311
total_late: 26563
total_polluted: 7
total_misses_after_warmup: 780258
conflicts: 5667225

test: 117114

DRAM Statistics
 CHANNEL 0
 RQ ROW_BUFFER_HIT:      10068  ROW_BUFFER_MISS:      18142
 DBUS_CONGESTED:         10
 WQ ROW_BUFFER_HIT:       1381  ROW_BUFFER_MISS:      12118  FULL:          0

 AVG_CONGESTED_CYCLE: 2

CPU 0 Branch Prediction Accuracy: 99.8241% MPKI: 0.32188 Average ROB Occupancy at Mispredict: 129.271
Branch types
NOT_BRANCH: 40848946 81.6979%
BRANCH_DIRECT_JUMP: 547660 1.09532%
BRANCH_INDIRECT: 182452 0.364904%
BRANCH_CONDITIONAL: 6180190 12.3604%
BRANCH_DIRECT_CALL: 948356 1.89671%
BRANCH_INDIRECT_CALL: 171878 0.343756%
BRANCH_RETURN: 1120227 2.24045%
BRANCH_OTHER: 0 0%

DRAM PAGES: 1048576
Allocated PAGES: 2633
Average_ROB_Occupancy: 123.848
Average_Decode_Occupancy: 9.99594
Average_FTQ_Occupancy: 3.72031
Indirect max targets: 14 Average targets: 1.17778
Branch_type:  BRANCH_DIRECT_JUMP:  Count Percentage: 2.89966 7.27593 3.94088 14.4893 1.69595 5.97386 1.22926 62.4952 
Branch_type:  BRANCH_INDIRECT:  Count Percentage: 11.7637 3.41888 12.2102 23.3787 1.33895 14.5395 1.07209 32.2778 
Branch_type:  BRANCH_CONDITIONAL:  Count Percentage: 21.0439 3.55918 2.39188 9.03417 1.07188 4.45551 0.757609 57.6859 
Branch_type:  BRANCH_DIRECT_CALL:  Count Percentage: 0.78801 1.29926 1.43335 5.40608 1.99518 2.56056 0.932479 85.5851 
Branch_type:  BRANCH_INDIRECT_CALL:  Count Percentage: 9.57299 0.568591 2.99962 4.85622 0 3.558 0 78.4446 
Branch_type:  BRANCH_RETURN:  Count Percentage: 4.49777 1.1166 3.65908 9.02336 2.12782 5.06095 1.01073 73.5037 
Branch_type:  BRANCH_DIRECT_JUMP:  Total Count: 31781 79746 43193 158806 18588 65475 13473 684963 
Branch_type:  BRANCH_INDIRECT:  Total Count: 43024 12504 44657 85504 4897 53176 3921 118051 
Branch_type:  BRANCH_CONDITIONAL:  Total Count: 2600537 439833 295581 1116415 132460 550598 93623 7128648 
Branch_type:  BRANCH_DIRECT_CALL:  Total Count: 14880 24534 27066 102083 37675 48351 17608 1616103 
Branch_type:  BRANCH_INDIRECT_CALL:  Total Count: 32814 1949 10282 16646 0 12196 0 268890 
Branch_type:  BRANCH_RETURN:  Total Count: 100388 24922 81669 201397 47492 112958 22559 1640567 
Number of unique branch instructions: 10817
Upper 32 bits: 
aaaa
ffff
ffff0000
Unique upper 32 bits: 3
Unique upper 36 bits: 3
Unique upper 40 bits: 5
Unique upper 44 bits: 32
Unique upper 48 bits: 158
Offset_3 4469
Offset_4 258
Offset_5 484
Offset_6 542
Offset_7 640
Offset_8 583
Offset_9 523
Offset_10 427
Offset_11 355
Offset_12 327
Offset_13 240
Offset_14 247
Offset_15 194
Offset_16 233
Offset_17 169
Offset_18 149
Offset_19 257
Offset_20 143
Offset_21 235
Offset_22 415
Offset_23 241
Offset_24 351
Offset_25 117
Offset_47 94
decode_dispatch_called: 20868607 45.9576
Dispatch_width: 0 10154274 48.6581 22.3621
Dispatch_width: 1 699565 3.35224 1.54061
Dispatch_width: 2 988371 4.73616 2.17663
Dispatch_width: 3 698215 3.34577 1.53764
Dispatch_width: 4 2111247 10.1169 4.64947
Dispatch_width: 5 517659 2.48056 1.14001
Dispatch_width: 6 5699276 27.3103 12.5512
Empty_decode_cycles: 24539743 54.0424
ROB_full_cycles: 2473386 5.44698
Starvation_cycles_per_kilo_instr: 372.357
Starvation_cycles_per_kilo_instr_3: 346.068
Starvation_cycles_per_kilo_instr_0: 322.206
Branch_type_1  (3,1)  (4,9)  (5,39)  (6,74)  (7,125)  (8,151)  (9,137)  (10,111)  (11,78)  (12,55)  (13,11)  (14,2)  (15,3)  (16,4)  (18,1)  (19,5)  (20,2)  (21,1)  (22,3)  (23,2)  (24,10)  (25,12) 
Branch_type_2  (3,1)  (4,1)  (5,1)  (8,4)  (9,4)  (10,1)  (12,1)  (13,1)  (14,1)  (16,3)  (17,2)  (20,2)  (21,2)  (23,5)  (24,1)  (47,43) 
Branch_type_3  (3,4467)  (4,248)  (5,440)  (6,452)  (7,485)  (8,363)  (9,287)  (10,172)  (11,141)  (12,62)  (13,10) 
Branch_type_4  (6,3)  (7,8)  (8,25)  (9,56)  (10,68)  (11,70)  (12,117)  (13,102)  (14,112)  (15,92)  (16,102)  (17,79)  (18,65)  (19,125)  (20,73)  (21,124)  (22,219)  (23,136)  (24,206)  (25,101) 
Branch_type_5  (8,3)  (9,1)  (10,4)  (11,5)  (12,3)  (13,14)  (14,16)  (15,11)  (16,22)  (17,11)  (18,23)  (19,14)  (20,11)  (21,13)  (22,43)  (23,26)  (24,38) 
Branch_type_6  (5,4)  (6,13)  (7,22)  (8,37)  (9,38)  (10,71)  (11,61)  (12,89)  (13,102)  (14,116)  (15,88)  (16,102)  (17,77)  (18,60)  (19,113)  (20,55)  (21,95)  (22,150)  (23,72)  (24,96)  (25,4)  (47,51) 
Unique trigger count: 
BTB PER SET UNIQUE ADDR: 23 26 22 28 28 27 17 22 16 27 19 29 25 20 23 18 20 22 22 26 23 22 24 29 17 26 25 26 26 21 22 24 28 15 16 24 24 24 16 20 20 24 26 29 20 16 27 17 26 21 30 21 25 27 22 11 21 18 19 26 23 31 25 22 25 29 24 16 30 26 22 21 29 21 18 16 16 24 19 30 25 15 22 27 27 22 28 22 18 41 19 16 25 21 14 26 19 22 27 28 36 32 25 20 25 19 24 25 14 19 20 33 25 20 22 15 26 27 24 24 27 18 21 15 24 21 12 25 31 19 19 33 22 30 20 28 16 30 21 31 20 28 23 26 23 24 27 21 15 24 23 26 17 23 18 32 26 28 27 28 25 22 27 27 21 27 27 19 29 20 21 27 24 24 24 21 23 23 20 26 19 22 21 29 35 31 17 25 28 19 24 19 16 31 25 17 18 26 23 25 28 25 20 19 16 21 23 23 22 26 21 28 21 22 23 26 21 27 17 39 15 26 17 22 20 27 30 27 17 31 21 11 22 29 22 29 29 21 21 18 26 23 29 30 21 24 20 22 26 23 30 30 26 18 27 26 19 19 19 22 24 18 11 23 23 18 20 19 22 22 22 25 19 15 16 17 22 27 22 23 17 26 20 18 26 19 18 34 33 27 25 18 24 26 17 30 23 27 26 24 21 20 20 37 22 30 27 22 31 24 23 30 22 36 29 13 31 21 22 28 21 28 20 21 27 27 24 19 22 17 22 31 16 21 22 25 20 19 17 37 24 25 15 28 28 28 19 23 21 22 24 27 29 27 23 27 24 26 21 18 20 29 21 35 25 27 13 26 27 24 24 17 22 27 17 33 24 29 21 25 25 23 17 15 24 20 29 31 24 23 30 14 27 29 19 18 21 18 30 26 21 28 24 24 28 27 25 25 22 24 28 21 17 29 22 22 20 32 38 31 21 26 23 26 30 20 26 18 25 24 29 23 19 23 31 29 28 20 22 25 27 21 20 31 33 19 16 28 30 25 28 38 25 18 28 36 26 28 19 31 19 22 19 29 34 20 22 24 27 26 24 28 26 25 26 34 28 33 17 24 35 28 19 24 16 27 36 32 28 23 22 27 18 19 19 20 27 27 22 25 21 29 21 34 22 18 21 30 30 27 23 34 24 22 19 27 22 30 19 17 18 22 27 18 23 36 37 17 16 33 27 23 26 24 27 31 21 25 28 24 29 21 25 25 28 31 16 25 17 23 25 34 25 24 22 25 23 24 31 27 23 34 24 24 25 31 23 29 25 28 29 24 30 35 22 29 29 29 21 24 24 26 16 24 25 27 22 24 35 29 20 22 26 19 26 18 15 23 27 23 24 23 22 15 26 26 31 21 22 25 34 27 22 15 10 32 18 29 21 27 31 26 19 20 20 30 22 30 17 25 24 31 32 24 23 25 26 30 23 27 22 26 26 34 27 27 20 25 35 20 18 25 20 19 31 24 23 25 29 25 23 13 27 31 21 26 17 23 18 20 25 22 19 26 34 21 27 28 28 30 21 30 23 28 26 24 22 23 27 28 23 26 24 16 17 22 17 27 22 28 14 25 28 32 14 27 22 18 18 15 21 24 18 24 22 21 35 25 22 29 27 24 21 23 20 22 27 23 21 19 25 20 23 18 24 28 23 30 39 21 19 22 23 24 34 29 24 22 22 19 23 22 24 23 18 23 32 22 21 18 24 15 16 24 24 28 17 23 26 27 24 31 21 19 26 21 27 21 25 30 17 25 22 21 23 22 18 28 23 14 17 14 27 27 25 31 21 18 29 23 37 25 32 30 36 19 24 23 24 19 21 36 31 30 19 25 37 31 13 29 26 32 18 26 27 23 21 29 25 28 24 31 27 24 20 27 26 24 26 24 27 23 22 27 24 27 21 38 21 27 25 21 18 22 30 30 33 28 29 26 25 25 21 29 31 17 24 18 30 21 19 30 28 23 23 14 21 23 21 22 31 16 21 30 26 25 31 23 24 22 28 19 23 20 24 28 32 23 21 18 22 23 25 25 15 27 22 28 21 32 19 25 23 26 27 26 35 23 25 26 24 26 19 27 22 21 12 31 19 17 30 33 28 23 23 31 22 19 27 29 19 30 24 24 22 25 24 28 23 26 24 25 19 26 21 25 29 23 27 26 25 26 23 33 29 24 29 25 20 26 22 28 30 23 29 21 35 30 30 34 21 30 25 25 23 32 38 19 27 25 28 26 27 23 25 20 22 22 30 23 31 29 21 22 27 28 19 34 23 26 27 27 26 17 18 21 15 19 12 15 21 31 23 15 
BTB PER SET COUNT: 2258 2387 2778 2067 2719 2064 1901 1726 1749 2279 1232 2585 12578 1812 1962 1179 2118 2280 1628 2219 1804 1689 2148 2213 1185 1922 2196 2081 2296 1982 1923 2552 1975 827 1155 1941 2026 2271 1062 2261 1620 1644 2472 2408 1818 704 2125 1539 2092 1793 2384 1441 2049 2202 1714 894 1623 1551 1453 2200 1750 3039 2060 1919 2456 2224 1771 1431 2191 1942 2585 2036 2555 1459 1270 889 911 2125 1464 2670 2612 1025 1976 2616 2141 1953 2264 2193 1798 3752 1383 1278 2305 1915 812 2149 1631 1630 2230 3697 3678 2791 2151 1672 3688 1343 1748 2293 1524 3111 1911 2873 2461 1656 1763 1230 2118 2335 2388 2049 2244 1408 1722 1049 1873 1541 655 2740 3307 1657 1454 3230 1541 2381 1713 2255 1322 2173 1712 2935 1695 2203 1712 1823 1829 1738 2587 1350 1033 1850 1709 2200 1597 1637 1008 3050 2640 2324 2221 2689 2049 1819 2711 2261 1664 2344 1923 1639 2187 1754 1543 2482 1977 1867 2212 1916 1764 1598 1744 2484 1500 1962 1888 2128 2751 3207 1045 2001 2331 2303 1783 1358 1232 2701 2129 1279 1319 2018 1624 1657 2161 2063 1793 1570 1110 1941 1861 1952 1867 2495 1523 2397 1351 4092 2089 2260 1703 2431 1680 3634 1103 2203 1421 1747 1532 2198 2947 2323 1430 3435 1652 593 1762 2343 1415 6809 2297 1715 2236 1237 1857 2025 3026 2746 1771 2003 1337 1862 2052 1648 1981 2155 2010 1552 1975 2573 1511 1351 1389 1699 2194 1464 340 1843 2012 819 1752 1458 2345 1924 1566 1771 1204 839 1573 1236 2078 2270 1890 2057 1031 2229 1507 1823 2119 1601 1352 2817 3062 2425 1978 1211 1856 2508 1101 2902 2231 2158 1795 2182 1577 1477 1878 3127 1947 2863 2027 1808 2915 2318 2418 2374 1418 3045 3149 1381 2555 1843 1656 2814 1593 3271 1067 1598 2572 2587 2345 1404 1686 1124 1811 2834 1240 1455 1870 1765 1297 1756 1131 3522 1899 3045 1126 2073 2478 1952 1429 1809 1881 2067 2234 1800 2421 1826 1783 2547 2012 2670 1478 1346 1308 2752 1553 2657 1956 2997 739 1675 1833 1547 2156 1322 2235 2224 1202 2801 2004 2447 1841 2494 2404 2138 1525 1042 1166 1766 3099 2345 2197 2145 2216 985 2366 2477 1375 1213 1478 1507 2877 2135 1632 1952 2155 1626 2319 2172 2284 2187 1373 2205 2136 1356 1451 2610 1698 1866 1793 4569 3498 2605 1416 2117 2367 1979 2393 1833 2620 1473 1693 1905 2624 2121 1445 1727 2671 2414 1849 1607 1945 1874 2794 1408 1425 2779 2953 1913 1467 2032 2455 1845 2353 3848 1906 1623 2502 3227 1983 2659 1326 2222 1318 1867 1462 2633 2744 1733 6557 1984 2575 2136 2039 2103 1956 1715 2142 3010 1845 3253 1303 1853 2748 2458 1645 2278 1549 1956 3163 2504 2656 1804 1856 2326 4722 1095 1018 1764 2731 2582 1615 2103 1500 2914 1411 3304 1520 1275 1226 2868 2539 2029 1879 3329 2680 2487 1704 2640 1481 3022 1207 1395 892 1974 2265 1166 1832 2877 3497 2115 1047 4296 3132 2078 2083 1704 2488 2593 2313 2363 2045 1889 2335 1652 2412 2129 2191 2868 966 2203 1223 2426 1759 2875 2083 2156 1485 1425 1921 1908 2377 2275 1400 2920 1645 2027 2317 2700 1860 2165 1761 2553 2755 2204 3153 2968 2121 2569 2651 2661 1795 1903 2408 2283 1012 3151 2204 2239 1833 2134 3079 2761 2102 1884 2324 1031 1756 1314 1776 2377 2025 1457 1506 1840 1845 1025 1947 2164 2656 2178 1392 1797 2999 2686 2171 1138 758 2688 1059 2450 2288 2501 2886 1848 1125 1470 1644 2892 1529 2911 2335 2028 1710 3116 2997 1813 1822 1789 2234 2628 1607 2380 2253 2256 2593 2715 3126 2377 1444 2394 3703 1221 1117 2217 1181 1744 3421 2011 1610 1741 2379 1915 2154 732 2429 2820 5657 2469 1367 1887 2300 1758 1744 1812 1541 2285 2969 2087 2075 2666 2291 3029 1855 2721 1886 2338 2818 2107 1851 1948 2266 2476 1635 2468 2053 909 1485 1832 1745 2432 1517 1973 1422 2480 2561 2831 787 2144 1829 1466 1200 1126 1972 2263 1277 2009 1704 1581 3202 2167 1510 2722 2282 2508 1614 1917 1819 1758 1741 2322 1823 1976 2136 5375 1717 1800 1847 2241 2273 3108 3767 1751 1931 1484 1827 2331 3163 2624 2288 1790 1950 1598 2556 1511 2637 2073 1245 1993 2692 2311 1769 1082 2209 1026 760 1833 2892 3058 1228 2037 1172 2133 1743 2515 1733 1421 2049 1368 2420 1904 1495 2735 1657 2365 1959 1692 1912 1959 1354 2234 1500 1022 1257 1472 2248 2377 1719 2967 1728 1350 1765 2197 3282 2009 2644 2605 2888 1598 1869 1929 1730 1550 1424 4690 2713 2276 1738 2941 2845 3022 1086 2733 1885 2798 1248 2418 2621 1959 1503 2069 2160 2703 2105 3181 2222 2131 1270 2951 1748 2079 2425 1899 2288 2158 2154 1947 2148 2265 1738 3403 1455 5655 2648 2011 1552 1717 2838 2604 2827 2391 2632 2157 2691 1836 1647 2119 2872 1131 1963 1063 2874 1568 1610 2736 2312 1631 1969 926 1679 2014 2606 1942 2207 865 1529 2925 2319 2343 2431 1972 1962 1997 2254 1177 2982 2895 1581 2525 2879 1758 1594 1620 2206 1734 1864 2301 778 2398 1526 2633 1667 2769 1635 1864 1979 2318 2589 2465 3488 2158 1977 2065 2049 1917 1419 2447 1442 1453 667 2663 1236 1238 2316 2762 3106 1496 1706 3215 1936 1619 2410 2418 1374 3161 2144 1553 1948 2135 1753 2412 2249 2299 2177 2505 2009 3467 1693 2133 2416 1706 2026 2277 2044 2242 1693 2637 2565 1437 2827 2199 1359 2252 1973 2732 2466 1778 2705 1550 3255 2335 2686 3320 1814 2362 2240 2265 1467 3300 4212 1454 2535 2135 2179 2729 1923 1985 2304 1949 1500 3121 2263 2318 2645 3016 1643 1794 2362 2077 1550 3126 1730 2466 2579 2372 2384 1318 1364 1793 896 1713 537 1205 1605 3015 2102 1107 
