
*** ChampSim Multicore Out-of-Order Simulator ***

Warmup Instructions: 50000000
Simulation Instructions: 50000000
Number of CPUs: 1
LLC sets: 2048
LLC ways: 16
Off-chip DRAM Size: 4096 MB Channels: 1 Width: 64-bit Data Rate: 6400 MT/s
CPU 0 runs ./micro_traces/srv307.trace.gz
.gz
ITLB has LRU replacement policy
DTLB has LRU replacement policy
STLB has LRU replacement policy
CPU 0 L1I next line prefetcher
./conditional/srv307.cond
L1I has LRU replacement policy
L1D has LRU replacement policy
Initialize SRRIP state for L2C
Initialize DRRIP state for LLC
Heartbeat_Variant_0 : 1297 0.158325 per_variant_size: 0 1297 0 0 0 0 0 0 0 
Heartbeat_Variant_1 : 1353 0.165161 per_variant_size: 0 918 435 0 0 0 0 0 0 
Heartbeat_Variant_2 : 1628 0.19873 per_variant_size: 0 941 434 219 34 0 0 0 0 
Heartbeat_Variant_3 : 0 0 per_variant_size: 0 0 0 0 0 0 0 0 0 
Heartbeat_Variant_0_evicts 0 : 5597 1 : 0 2 : 1 3 : 0 
Heartbeat_Variant_1_evicts 0 : 2 1 : 0 2 : 245 3 : 0 
Heartbeat_Variant_2_evicts 0 : 1 1 : 244 2 : 0 3 : 0 
Heartbeat_Variant_3_evicts 0 : 0 1 : 0 2 : 0 3 : 0 
Heartbeat CPU 0 instructions: 10000002 cycles: 2797881 heartbeat IPC: 3.57413 cumulative IPC: 3.57413 (Simulation time: 0 hr 1 min 44 sec) 
Heartbeat_Variant_0 : 1337 0.163208 per_variant_size: 0 1337 0 0 0 0 0 0 0 
Heartbeat_Variant_1 : 1403 0.171265 per_variant_size: 0 935 468 0 0 0 0 0 0 
Heartbeat_Variant_2 : 1690 0.206299 per_variant_size: 0 975 441 249 25 0 0 0 0 
Heartbeat_Variant_3 : 0 0 per_variant_size: 0 0 0 0 0 0 0 0 0 
Heartbeat_Variant_0_evicts 0 : 5517 1 : 2 2 : 0 3 : 0 
Heartbeat_Variant_1_evicts 0 : 0 1 : 0 2 : 252 3 : 0 
Heartbeat_Variant_2_evicts 0 : 0 1 : 252 2 : 0 3 : 0 
Heartbeat_Variant_3_evicts 0 : 0 1 : 0 2 : 0 3 : 0 
Heartbeat CPU 0 instructions: 20000003 cycles: 5594758 heartbeat IPC: 3.57542 cumulative IPC: 3.57478 (Simulation time: 0 hr 3 min 27 sec) 
Heartbeat_Variant_0 : 1383 0.168823 per_variant_size: 0 1383 0 0 0 0 0 0 0 
Heartbeat_Variant_1 : 1448 0.176758 per_variant_size: 0 960 488 0 0 0 0 0 0 
Heartbeat_Variant_2 : 1728 0.210938 per_variant_size: 0 981 453 253 41 0 0 0 0 
Heartbeat_Variant_3 : 0 0 per_variant_size: 0 0 0 0 0 0 0 0 0 
Heartbeat_Variant_0_evicts 0 : 5613 1 : 0 2 : 1 3 : 0 
Heartbeat_Variant_1_evicts 0 : 0 1 : 0 2 : 245 3 : 0 
Heartbeat_Variant_2_evicts 0 : 1 1 : 244 2 : 0 3 : 0 
Heartbeat_Variant_3_evicts 0 : 0 1 : 0 2 : 0 3 : 0 
Heartbeat CPU 0 instructions: 30000003 cycles: 8393078 heartbeat IPC: 3.57357 cumulative IPC: 3.57437 (Simulation time: 0 hr 5 min 8 sec) 
Heartbeat_Variant_0 : 1383 0.168823 per_variant_size: 0 1383 0 0 0 0 0 0 0 
Heartbeat_Variant_1 : 1449 0.17688 per_variant_size: 0 960 489 0 0 0 0 0 0 
Heartbeat_Variant_2 : 1729 0.21106 per_variant_size: 0 981 453 270 25 0 0 0 0 
Heartbeat_Variant_3 : 0 0 per_variant_size: 0 0 0 0 0 0 0 0 0 
Heartbeat_Variant_0_evicts 0 : 5563 1 : 0 2 : 0 3 : 0 
Heartbeat_Variant_1_evicts 0 : 0 1 : 0 2 : 246 3 : 0 
Heartbeat_Variant_2_evicts 0 : 1 1 : 245 2 : 0 3 : 0 
Heartbeat_Variant_3_evicts 0 : 0 1 : 0 2 : 0 3 : 0 
Heartbeat CPU 0 instructions: 40000003 cycles: 11190475 heartbeat IPC: 3.57475 cumulative IPC: 3.57447 (Simulation time: 0 hr 6 min 49 sec) 
Heartbeat_Variant_0 : 1384 0.168945 per_variant_size: 0 1384 0 0 0 0 0 0 0 
Heartbeat_Variant_1 : 1449 0.17688 per_variant_size: 0 960 489 0 0 0 0 0 0 
Heartbeat_Variant_2 : 1735 0.211792 per_variant_size: 0 987 452 252 44 0 0 0 0 
Heartbeat_Variant_3 : 0 0 per_variant_size: 0 0 0 0 0 0 0 0 0 
Heartbeat_Variant_0_evicts 0 : 5649 1 : 0 2 : 0 3 : 0 
Heartbeat_Variant_1_evicts 0 : 0 1 : 0 2 : 243 3 : 0 
Heartbeat_Variant_2_evicts 0 : 0 1 : 243 2 : 0 3 : 0 
Heartbeat_Variant_3_evicts 0 : 0 1 : 0 2 : 0 3 : 0 
Heartbeat CPU 0 instructions: 50000002 cycles: 13987538 heartbeat IPC: 3.57518 cumulative IPC: 3.57461 (Simulation time: 0 hr 8 min 20 sec) 

Warmup complete CPU 0 instructions: 50000002 cycles: 13987538 (Simulation time: 0 hr 8 min 20 sec) 

Cycle: 20000000 FTQ IN: 58111990 FTQ occupancy: 19.7867 DECODE IN: 58111853 DECODE occupancy: 51.8556 ROB IN: 58111793 ROB occupancy: 315.606 ROB OUT: 58111445
Heartbeat_Variant_0 : 1385 0.169067 per_variant_size: 0 1385 0 0 0 0 0 0 0 
Heartbeat_Variant_1 : 1455 0.177612 per_variant_size: 0 959 496 0 0 0 0 0 0 
Heartbeat_Variant_2 : 1741 0.212524 per_variant_size: 0 990 449 256 46 0 0 0 0 
Heartbeat_Variant_3 : 0 0 per_variant_size: 0 0 0 0 0 0 0 0 0 
Heartbeat_Variant_0_evicts 0 : 5589 1 : 0 2 : 0 3 : 0 
Heartbeat_Variant_1_evicts 0 : 0 1 : 0 2 : 239 3 : 0 
Heartbeat_Variant_2_evicts 0 : 0 1 : 239 2 : 0 3 : 0 
Heartbeat_Variant_3_evicts 0 : 0 1 : 0 2 : 0 3 : 0 
Heartbeat CPU 0 instructions: 60000002 cycles: 21379920 heartbeat IPC: 1.35274 cumulative IPC: 1.35274 (Simulation time: 0 hr 10 min 13 sec) 
Heartbeat_Variant_0 : 1402 0.171143 per_variant_size: 0 1402 0 0 0 0 0 0 0 
Heartbeat_Variant_1 : 1494 0.182373 per_variant_size: 0 975 519 0 0 0 0 0 0 
Heartbeat_Variant_2 : 1752 0.213867 per_variant_size: 0 993 454 250 55 0 0 0 0 
Heartbeat_Variant_3 : 0 0 per_variant_size: 0 0 0 0 0 0 0 0 0 
Heartbeat_Variant_0_evicts 0 : 5580 1 : 0 2 : 0 3 : 0 
Heartbeat_Variant_1_evicts 0 : 0 1 : 0 2 : 251 3 : 0 
Heartbeat_Variant_2_evicts 0 : 0 1 : 251 2 : 0 3 : 0 
Heartbeat_Variant_3_evicts 0 : 0 1 : 0 2 : 0 3 : 0 
Heartbeat CPU 0 instructions: 70000002 cycles: 28678369 heartbeat IPC: 1.37015 cumulative IPC: 1.36139 (Simulation time: 0 hr 12 min 6 sec) 
Cycle: 30000000 FTQ IN: 13710623 FTQ occupancy: 12.1703 DECODE IN: 13710620 DECODE occupancy: 32.7765 ROB IN: 13710620 ROB occupancy: 239.105 ROB OUT: 13710616
Heartbeat_Variant_0 : 1402 0.171143 per_variant_size: 0 1402 0 0 0 0 0 0 0 
Heartbeat_Variant_1 : 1494 0.182373 per_variant_size: 0 976 518 0 0 0 0 0 0 
Heartbeat_Variant_2 : 1753 0.213989 per_variant_size: 0 994 454 253 52 0 0 0 0 
Heartbeat_Variant_3 : 0 0 per_variant_size: 0 0 0 0 0 0 0 0 0 
Heartbeat_Variant_0_evicts 0 : 5675 1 : 0 2 : 0 3 : 0 
Heartbeat_Variant_1_evicts 0 : 0 1 : 0 2 : 235 3 : 0 
Heartbeat_Variant_2_evicts 0 : 0 1 : 235 2 : 0 3 : 0 
Heartbeat_Variant_3_evicts 0 : 0 1 : 0 2 : 0 3 : 0 
Heartbeat CPU 0 instructions: 80000000 cycles: 36039047 heartbeat IPC: 1.35857 cumulative IPC: 1.36045 (Simulation time: 0 hr 14 min 0 sec) 
Cycle: 40000000 FTQ IN: 13414598 FTQ occupancy: 12.232 DECODE IN: 13414738 DECODE occupancy: 32.6147 ROB IN: 13414790 ROB occupancy: 236.066 ROB OUT: 13415071
Heartbeat_Variant_0 : 1495 0.182495 per_variant_size: 0 1495 0 0 0 0 0 0 0 
Heartbeat_Variant_1 : 1641 0.200317 per_variant_size: 0 1035 606 0 0 0 0 0 0 
Heartbeat_Variant_2 : 1825 0.222778 per_variant_size: 0 998 486 283 58 0 0 0 0 
Heartbeat_Variant_3 : 0 0 per_variant_size: 0 0 0 0 0 0 0 0 0 
Heartbeat_Variant_0_evicts 0 : 5607 1 : 1 2 : 1 3 : 0 
Heartbeat_Variant_1_evicts 0 : 4 1 : 0 2 : 250 3 : 0 
Heartbeat_Variant_2_evicts 0 : 1 1 : 249 2 : 0 3 : 0 
Heartbeat_Variant_3_evicts 0 : 0 1 : 0 2 : 0 3 : 0 
Heartbeat CPU 0 instructions: 90000003 cycles: 43471004 heartbeat IPC: 1.34554 cumulative IPC: 1.35669 (Simulation time: 0 hr 15 min 50 sec) 
Cycle: 50000000 FTQ IN: 13753703 FTQ occupancy: 12.2175 DECODE IN: 13753656 DECODE occupancy: 32.778 ROB IN: 13753604 ROB occupancy: 239.463 ROB OUT: 13753324
*** Reached end of trace for Core: 0 Repeating trace: ./micro_traces/srv307.trace.gz
Heartbeat_Variant_0 : 1496 0.182617 per_variant_size: 0 1496 0 0 0 0 0 0 0 
Heartbeat_Variant_1 : 1639 0.200073 per_variant_size: 0 1034 605 0 0 0 0 0 0 
Heartbeat_Variant_2 : 1827 0.223022 per_variant_size: 0 999 485 288 55 0 0 0 0 
Heartbeat_Variant_3 : 0 0 per_variant_size: 0 0 0 0 0 0 0 0 0 
Heartbeat_Variant_0_evicts 0 : 5668 1 : 1 2 : 0 3 : 0 
Heartbeat_Variant_1_evicts 0 : 0 1 : 0 2 : 236 3 : 0 
Heartbeat_Variant_2_evicts 0 : 1 1 : 237 2 : 0 3 : 0 
Heartbeat_Variant_3_evicts 0 : 0 1 : 0 2 : 0 3 : 0 
Heartbeat CPU 0 instructions: 100000000 cycles: 50731493 heartbeat IPC: 1.37732 cumulative IPC: 1.36077 (Simulation time: 0 hr 17 min 33 sec) 
Finished CPU 0 instructions: 50000001 cycles: 36743956 cumulative IPC: 1.36077 (Simulation time: 0 hr 17 min 33 sec) 

ChampSim completed all CPUs

Region of Interest Statistics

CPU 0 cumulative IPC: 1.36077 instructions: 50000001 cycles: 36743956
 Fetch stage stalled: 55.3213  Sim cycles: 36743956 fetch stall cycle: 20327219
 Empty decode stage: 35.991  Sim cycles: 36743956 fetch stall cycle: 13224505
ITLB TOTAL     ACCESS:    6893200  HIT:    6389824  MISS:     503376  HIT %:    92.6975  MISS %:     7.3025   MPKI: 10.0675
ITLB LOAD TRANSLATION INSTRUCTION	ACCESS:    5672591  HIT:    5189003  MISS:     483588  HIT %:     91.475  MISS %:    8.52499  MPKI: 9.67176
ITLB TRANSLATION FROM L1D PREFETCHER INSTRUCTION	ACCESS:    1220609  HIT:    1200821  MISS:      19788  HIT %:    98.3788  MISS %:    1.62116  MPKI: 0.39576

ITLB AVERAGE MISS LATENCY: 61338.1 cycles
ITLB RQ	ACCESS:   10137300	FORWARD:          0	MERGED:    2766119	TO_CACHE:    7371181

DTLB TOTAL     ACCESS:    8973690  HIT:    8504342  MISS:     469348  HIT %:    94.7697  MISS %:    5.23027   MPKI: 9.38696
DTLB LOAD TRANSLATION DATA	ACCESS:    8973690  HIT:    8504342  MISS:     469348  HIT %:    94.7697  MISS %:    5.23027  MPKI: 9.38696

DTLB AVERAGE MISS LATENCY: 9.37236 cycles
DTLB RQ	ACCESS:   13339134	FORWARD:          0	MERGED:    4329374	TO_CACHE:    9009760

STLB TOTAL     ACCESS:    1224156  HIT:    1222008  MISS:       2148  HIT %:    99.8245  MISS %:   0.175468   MPKI: 0.04296
STLB LOAD TRANSLATION INSTRUCTION	ACCESS:     482626  HIT:     482369  MISS:        257  HIT %:    99.9467  MISS %:  0.0532503  MPKI: 0.00514
STLB TRANSLATION FROM L1D PREFETCHER INSTRUCTION	ACCESS:      20750  HIT:      20706  MISS:         44  HIT %:     99.788  MISS %:   0.212048  MPKI: 0.00088
STLB LOAD TRANSLATION DATA	ACCESS:     469348  HIT:     467524  MISS:       1824  HIT %:    99.6114  MISS %:   0.388624  MPKI: 0.03648
STLB TRANSLATION FROM L1D PREFETCHER DATA	ACCESS:     251432  HIT:     251409  MISS:         23  HIT %:    99.9909  MISS %:  0.0091476  MPKI: 0.00046

STLB AVERAGE MISS LATENCY: 78.6248 cycles
STLB RQ	ACCESS:    1374351	FORWARD:          0	MERGED:     121852	TO_CACHE:    1252499

STLB Hit, L1D data hit: 0
STLB Hit, L2C data hit: 0
STLB Hit, LLC data hit: 0
STLB Hit, LLC data miss: 0
STLB STLB hints to L2: 0
L1D TOTAL     ACCESS:   13083475  HIT:   11969396  MISS:    1114079  HIT %:    91.4848  MISS %:    8.51516   MPKI: 22.2816
L1D LOAD DATA	ACCESS:    6553752  HIT:    5819496  MISS:     734256  HIT %:    88.7964  MISS %:    11.2036  MPKI: 14.6851
L1D RFO DATA	ACCESS:    6198164  HIT:    5912918  MISS:     285246  HIT %:    95.3979  MISS %:     4.6021  MPKI: 5.70492
L1D PREFETCH DATA	ACCESS:     331559  HIT:     236982  MISS:      94577  HIT %:    71.4751  MISS %:    28.5249  MPKI: 1.89154

L1D PREFETCH  REQUESTED:     747105  ISSUED:     747105  USEFUL:      34163  USELESS:      68861
L1D USEFUL LOAD PREFETCHES:      34163 PREFETCH ISSUED TO LOWER LEVEL:     103138  ACCURACY: 33.1236
 TIMELY PREFETCHES:      34163 LATE PREFETCHES: 8481 DROPPED PREFETCHES: 11
L1D AVERAGE MISS LATENCY: 242309 cycles
L1D RQ	ACCESS:   10700564	FORWARD:          0	MERGED:    3943596	TO_CACHE:    6592664
L1D WQ	ACCESS:    6943592	FORWARD:     164755	MERGED:     197122	TO_CACHE:    6746470
L1D PQ	ACCESS:     373778	FORWARD:          0	MERGED:          0	TO_CACHE:     373327

L1D UNIQUE REGIONS ACCESSED: 0
L1D REGIONS CONFLICTS: 0
L1D Cross Page Prefetch Requests: 6690
L1D Same Page Prefetch Requests: 754231
L1D ROI Sum of L1D PQ occupancy: 4760938
L1D PREFETCHES PUSHED FROM L2C: 0
L1I TOTAL     ACCESS:    8756042  HIT:    5452915  MISS:    3303127  HIT %:     62.276  MISS %:     37.724   MPKI: 66.0625
L1I LOAD INSTRUCTION	ACCESS:    6551635  HIT:    4434576  MISS:    2117059  HIT %:    67.6866  MISS %:    32.3134  MPKI: 42.3412
L1I PREFETCH INSTRUCTION	ACCESS:    2204407  HIT:    1018339  MISS:    1186068  HIT %:    46.1956  MISS %:    53.8044  MPKI: 23.7214

L1I PREFETCH  REQUESTED:    3914026  ISSUED:    3909765  USEFUL:     931989  USELESS:     487497
L1I USEFUL LOAD PREFETCHES:     931989 PREFETCH ISSUED TO LOWER LEVEL:    1419502  ACCURACY: 65.6561
 TIMELY PREFETCHES:     931989 LATE PREFETCHES: 233434 DROPPED PREFETCHES: 67337
L1I AVERAGE MISS LATENCY: 2.28642e+06 cycles
L1I RQ	ACCESS:    9494370	FORWARD:          0	MERGED:    2733594	TO_CACHE:    6760776
L1I PQ	ACCESS:    3909765	FORWARD:          0	MERGED:     533241	TO_CACHE:    3376524

L1BTB TOTAL     ACCESS:    5670182  HIT:    2051550  MISS:    3618632  HIT %:    36.1814  MISS %:    63.8186   MPKI: 72.3726
L1BTB BRANCH_DIRECT_JUMP	ACCESS:     548687  HIT:     145652  MISS:     403035	AVERAGE STALL: 48.0217
L1BTB BRANCH_INDIRECT	ACCESS:     183413  HIT:      66311  MISS:     117102	AVERAGE STALL: 103.314
L1BTB BRANCH_CONDITIONAL	ACCESS:    2714089  HIT:    1424823  MISS:    1289266	AVERAGE STALL: 67.695
L1BTB BRANCH_DIRECT_CALL	ACCESS:     941312  HIT:     104658  MISS:     836654	AVERAGE STALL: 71.408
L1BTB BRANCH_INDIRECT_CALL	ACCESS:     170683  HIT:      20677  MISS:     150006	AVERAGE STALL: 132.508
L1BTB BRANCH_RETURN	ACCESS:    1111998  HIT:     289429  MISS:     822569	AVERAGE STALL: 51.0177
L1BTB BRANCH_OTHER ACCESS:          0  HIT:          0  MISS:          0	AVERAGE STALL: -nan
L1BTB TOTAL ROB OCCUPANCY AT BTB MISS: 3.50238

L2BTB TOTAL     ACCESS:    3593135  HIT:    3516214  MISS:      76921  HIT %:    97.8592  MISS %:    2.14078   MPKI: 1.53842
L2BTB BRANCH_DIRECT_JUMP	ACCESS:     398811  HIT:     394787  MISS:       4024	AVERAGE STALL: 48.0217
L2BTB BRANCH_INDIRECT	ACCESS:     106823  HIT:     104193  MISS:       2630	AVERAGE STALL: 103.314
L2BTB BRANCH_CONDITIONAL	ACCESS:    1289266  HIT:    1276486  MISS:      12780	AVERAGE STALL: 67.695
L2BTB BRANCH_DIRECT_CALL	ACCESS:     836654  HIT:     835611  MISS:       1043	AVERAGE STALL: 71.408
L2BTB BRANCH_INDIRECT_CALL	ACCESS:     140406  HIT:     130266  MISS:      10140	AVERAGE STALL: 132.508
L2BTB BRANCH_RETURN	ACCESS:     821175  HIT:     774871  MISS:      46304	AVERAGE STALL: 51.0177
L2BTB BRANCH_OTHER ACCESS:          0  HIT:          0  MISS:          0	AVERAGE STALL: -nan
L2BTB TOTAL ROB OCCUPANCY AT BTB MISS: 164.764

L2C TOTAL     ACCESS:    5683465  HIT:    4830950  MISS:     852515  HIT %:    85.0001  MISS %:    14.9999   MPKI: 17.0503
L2C LOAD INSTRUCTION	ACCESS:    1883626  HIT:    1649564  MISS:     234062  HIT %:    87.5739  MISS %:    12.4261  MPKI: 4.68124
L2C PREFETCH INSTRUCTION	ACCESS:    1419502  HIT:    1242015  MISS:     177487  HIT %:    87.4965  MISS %:    12.5035  MPKI: 3.54974
L2C LOAD TRANSLATION INSTRUCTION	ACCESS:        292  HIT:         96  MISS:        196  HIT %:    32.8767  MISS %:    67.1233  MPKI: 0.00392
L2C TRANSLATION FROM L1D PREFETCHER INSTRUCTION	ACCESS:      44417  HIT:      30409  MISS:      14008  HIT %:    68.4625  MISS %:    31.5375  MPKI: 0.28016
L2C LOAD DATA	ACCESS:     725760  HIT:     593924  MISS:     131836  HIT %:    81.8348  MISS %:    18.1652  MPKI: 2.63672
L2C RFO DATA	ACCESS:     285133  HIT:     207209  MISS:      77924  HIT %:     72.671  MISS %:     27.329  MPKI: 1.55848
L2C PREFETCH DATA	ACCESS:     802599  HIT:     621363  MISS:     181236  HIT %:    77.4189  MISS %:    22.5811  MPKI: 3.62472
L2C WRITEBACK DATA	ACCESS:     520185  HIT:     485903  MISS:      34282  HIT %:    93.4097  MISS %:    6.59035  MPKI: 0.68564
L2C LOAD TRANSLATION DATA	ACCESS:       1903  HIT:        436  MISS:       1467  HIT %:    22.9112  MISS %:    77.0888  MPKI: 0.02934
L2C TRANSLATION FROM L1D PREFETCHER DATA	ACCESS:         48  HIT:         31  MISS:         17  HIT %:    64.5833  MISS %:    35.4167  MPKI: 0.00034

L2C PREFETCH  REQUESTED:    1498671  ISSUED:    1498671  USEFUL:      32611  USELESS:     344139
L2C USEFUL LOAD PREFETCHES:      32611 PREFETCH ISSUED TO LOWER LEVEL:     362003  ACCURACY: 9.00849
 TIMELY PREFETCHES:      32611 LATE PREFETCHES: 3280 DROPPED PREFETCHES: 0
L2C AVERAGE MISS LATENCY: 35.0948 cycles
L2C RQ	ACCESS:    2941232	FORWARD:          0	MERGED:          0	TO_CACHE:    2941184
L2C WQ	ACCESS:     520185	FORWARD:         49	MERGED:          0	TO_CACHE:     520185
L2C PQ	ACCESS:    3021311	FORWARD:          0	MERGED:     778586	TO_CACHE:    2242724

L2C Dense regions hint from L2: 0
PSCL5 TOTAL     ACCESS:      60920  HIT:      30460  MISS:      30460  HIT %:         50  MISS %:         50   MPKI: 0.6092
PSCL5 LOAD TRANSLATION INSTRUCTION	ACCESS:       4142  HIT:       2071  MISS:       2071  HIT %:         50  MISS %:         50  MPKI: 0.04142
PSCL5 TRANSLATION FROM L1D PREFETCHER INSTRUCTION	ACCESS:      56778  HIT:      28389  MISS:      28389  HIT %:         50  MISS %:         50  MPKI: 0.56778


PSCL4 TOTAL     ACCESS:      53987  HIT:      26989  MISS:      26998  HIT %:    49.9917  MISS %:    50.0083   MPKI: 0.53996
PSCL4 LOAD TRANSLATION INSTRUCTION	ACCESS:       2597  HIT:       1923  MISS:        674  HIT %:     74.047  MISS %:     25.953  MPKI: 0.01348
PSCL4 TRANSLATION FROM L1D PREFETCHER INSTRUCTION	ACCESS:      39043  HIT:      25066  MISS:      13977  HIT %:     64.201  MISS %:     35.799  MPKI: 0.27954
PSCL4 LOAD TRANSLATION DATA	ACCESS:       1258  HIT:          0  MISS:       1258  HIT %:          0  MISS %:        100  MPKI: 0.02516
PSCL4 TRANSLATION FROM L1D PREFETCHER DATA	ACCESS:      11089  HIT:          0  MISS:      11089  HIT %:          0  MISS %:        100  MPKI: 0.22178


PSCL3 TOTAL     ACCESS:      54077  HIT:      27034  MISS:      27043  HIT %:    49.9917  MISS %:    50.0083   MPKI: 0.54086
PSCL3 LOAD TRANSLATION INSTRUCTION	ACCESS:       2642  HIT:       1968  MISS:        674  HIT %:     74.489  MISS %:     25.511  MPKI: 0.01348
PSCL3 TRANSLATION FROM L1D PREFETCHER INSTRUCTION	ACCESS:      39043  HIT:      25066  MISS:      13977  HIT %:     64.201  MISS %:     35.799  MPKI: 0.27954
PSCL3 LOAD TRANSLATION DATA	ACCESS:       1303  HIT:          0  MISS:       1303  HIT %:          0  MISS %:        100  MPKI: 0.02606
PSCL3 TRANSLATION FROM L1D PREFETCHER DATA	ACCESS:      11089  HIT:          0  MISS:      11089  HIT %:          0  MISS %:        100  MPKI: 0.22178


PSCL2 TOTAL     ACCESS:      35221  HIT:      17550  MISS:      17671  HIT %:    49.8282  MISS %:    50.1718   MPKI: 0.35342
PSCL2 LOAD TRANSLATION INSTRUCTION	ACCESS:       2231  HIT:       1957  MISS:        274  HIT %:    87.7185  MISS %:    12.2815  MPKI: 0.00548
PSCL2 TRANSLATION FROM L1D PREFETCHER INSTRUCTION	ACCESS:      30582  HIT:      15593  MISS:      14989  HIT %:    50.9875  MISS %:    49.0125  MPKI: 0.29978
PSCL2 LOAD TRANSLATION DATA	ACCESS:       1804  HIT:          0  MISS:       1804  HIT %:          0  MISS %:        100  MPKI: 0.03608
PSCL2 TRANSLATION FROM L1D PREFETCHER DATA	ACCESS:        604  HIT:          0  MISS:        604  HIT %:          0  MISS %:        100  MPKI: 0.01208


LLC TOTAL     ACCESS:     939104  HIT:     905995  MISS:      33109  HIT %:    96.4744  MISS %:    3.52559   MPKI: 0.66218
LLC LOAD INSTRUCTION	ACCESS:     231907  HIT:     230864  MISS:       1043  HIT %:    99.5503  MISS %:   0.449749  MPKI: 0.02086
LLC PREFETCH INSTRUCTION	ACCESS:     175737  HIT:     174477  MISS:       1260  HIT %:     99.283  MISS %:    0.71698  MPKI: 0.0252
LLC LOAD TRANSLATION INSTRUCTION	ACCESS:        196  HIT:        190  MISS:          6  HIT %:    96.9388  MISS %:    3.06122  MPKI: 0.00012
LLC TRANSLATION FROM L1D PREFETCHER INSTRUCTION	ACCESS:      14008  HIT:      13921  MISS:         87  HIT %:    99.3789  MISS %:   0.621074  MPKI: 0.00174
LLC LOAD DATA	ACCESS:     130763  HIT:     126605  MISS:       4158  HIT %:    96.8202  MISS %:     3.1798  MPKI: 0.08316
LLC RFO DATA	ACCESS:      77844  HIT:      63549  MISS:      14295  HIT %:    81.6363  MISS %:    18.3637  MPKI: 0.2859
LLC PREFETCH DATA	ACCESS:     186259  HIT:     174481  MISS:      11778  HIT %:    93.6765  MISS %:    6.32345  MPKI: 0.23556
LLC WRITEBACK DATA	ACCESS:     120906  HIT:     120564  MISS:        342  HIT %:    99.7171  MISS %:   0.282864  MPKI: 0.00684
LLC LOAD TRANSLATION DATA	ACCESS:       1467  HIT:       1333  MISS:        134  HIT %:    90.8657  MISS %:    9.13429  MPKI: 0.00268
LLC TRANSLATION FROM L1D PREFETCHER DATA	ACCESS:         17  HIT:         11  MISS:          6  HIT %:    64.7059  MISS %:    35.2941  MPKI: 0.00012

LLC AVERAGE MISS LATENCY: 161.182 cycles
LLC RQ	ACCESS:     456231	FORWARD:          0	MERGED:          0	TO_CACHE:     456203
LLC WQ	ACCESS:     120906	FORWARD:         35	MERGED:          0	TO_CACHE:     120906
LLC PQ	ACCESS:     362003	FORWARD:          0	MERGED:          0	TO_CACHE:     361996

LLC Dense regions hint to LLC: 0

RAW hits: 1936843
Loads Generated: 12637409
Loads sent to L1D: 10700564
Stores Generated: 6943578
Stores sent to L1D: 6943592
Major fault: 0 Minor fault: 2597
Allocated PAGES: 2597
I-Shadow cache 408 bytes
Touched + WorthPF tables 12288 bytes 
MMA filter 42 bytes 
FNL filter 272 bytes 
TOTAL PREFETCHER STORAGE SIZE: 19922 bytes
CPU 0 L1I next line prefetcher final stats

stream: 
stream:times selected: 1190817
stream:pref_filled: 119900
stream:pref_useful: 22817
stream:pref_late: 8206
stream:misses: 8232
stream:misses_by_poll: 0

CS: 
CS:times selected: 178570
CS:pref_filled: 55618
CS:pref_useful: 32183
CS:pref_late: 10402
CS:misses: 20082
CS:misses_by_poll: 6

CPLX: 
CPLX:times selected: 1011073
CPLX:pref_filled: 18757
CPLX:pref_useful: 3879
CPLX:pref_late: 3805
CPLX:misses: 94590
CPLX:misses_by_poll: 0

NL_L1: 
NL:times selected: 19634
NL:pref_filled: 523
NL:pref_useful: 183
NL:pref_late: 408
NL:misses: 1786
NL:misses_by_poll: 0

total selections: 2400094
total_filled: 94577
total_useful: 34163
total_late: 24184
total_polluted: 6
total_misses_after_warmup: 773172
conflicts: 5519714

test: 117326

DRAM Statistics
 CHANNEL 0
 RQ ROW_BUFFER_HIT:      11069  ROW_BUFFER_MISS:      21696
 DBUS_CONGESTED:          7
 WQ ROW_BUFFER_HIT:       1708  ROW_BUFFER_MISS:      13475  FULL:          0

 AVG_CONGESTED_CYCLE: 6

CPU 0 Branch Prediction Accuracy: 99.8062% MPKI: 0.3542 Average ROB Occupancy at Mispredict: 182.104
Branch types
NOT_BRANCH: 40859587 81.7192%
BRANCH_DIRECT_JUMP: 548687 1.09737%
BRANCH_INDIRECT: 183413 0.366826%
BRANCH_CONDITIONAL: 6184311 12.3686%
BRANCH_DIRECT_CALL: 941312 1.88262%
BRANCH_INDIRECT_CALL: 170683 0.341366%
BRANCH_RETURN: 1111998 2.224%
BRANCH_OTHER: 0 0%

DRAM PAGES: 1048576
Allocated PAGES: 2597
Average_ROB_Occupancy: 239.477
Average_Decode_Occupancy: 32.7171
Average_FTQ_Occupancy: 12.2206
Indirect max targets: 14 Average targets: 1.17949
Branch_type:  BRANCH_DIRECT_JUMP:  Count Percentage: 2.13511 6.66011 4.42913 9.17952 2.14341 11.106 1.30623 63.0405 
Branch_type:  BRANCH_INDIRECT:  Count Percentage: 11.7665 3.41891 2.57045 0 1.33488 25.0078 2.26981 53.6317 
Branch_type:  BRANCH_CONDITIONAL:  Count Percentage: 23.7814 3.96613 1.66544 5.35678 1.33255 8.30763 0.679899 54.9101 
Branch_type:  BRANCH_DIRECT_CALL:  Count Percentage: 0.260656 1.74958 1.29739 4.76305 1.86053 2.83297 0.860961 86.3749 
Branch_type:  BRANCH_INDIRECT_CALL:  Count Percentage: 9.56943 0 2.99878 8.7333 0 2.55105 1.29145 74.856 
Branch_type:  BRANCH_RETURN:  Count Percentage: 4.1121 4.94812 1.17108 6.181 3.19112 9.15942 1.70725 69.5299 
Branch_type:  BRANCH_DIRECT_JUMP:  Total Count: 23407 73014 48556 100634 23498 121754 14320 691105 
Branch_type:  BRANCH_INDIRECT:  Total Count: 43130 12532 9422 0 4893 91666 8320 196587 
Branch_type:  BRANCH_CONDITIONAL:  Total Count: 2939750 490275 205874 662181 164724 1026951 84046 6787738 
Branch_type:  BRANCH_DIRECT_CALL:  Total Count: 4910 32957 24439 89722 35047 53365 16218 1627052 
Branch_type:  BRANCH_INDIRECT_CALL:  Total Count: 32744 0 10261 29883 0 8729 4419 256137 
Branch_type:  BRANCH_RETURN:  Total Count: 91566 110182 26077 137635 71058 203957 38016 1548254 
Number of unique branch instructions: 10693
Upper 32 bits: 
aaaa
ffff
ffff0000
Unique upper 32 bits: 3
Unique upper 36 bits: 3
Unique upper 40 bits: 5
Unique upper 44 bits: 32
Unique upper 48 bits: 157
Variant_0 : 1496 0.182617
Variant_1 : 1639 0.200073
Variant_2 : 1827 0.223022
Variant_3 : 0 0
Offset_3 4443
Offset_4 257
Offset_5 476
Offset_6 538
Offset_7 636
Offset_8 580
Offset_9 513
Offset_10 417
Offset_11 348
Offset_12 321
Offset_13 236
Offset_14 247
Offset_15 199
Offset_16 227
Offset_17 163
Offset_18 152
Offset_19 257
Offset_20 144
Offset_21 235
Offset_22 408
Offset_23 241
Offset_24 342
Offset_25 117
Offset_47 92
decode_dispatch_called: 25318813 68.9061
Dispatch_width: 0 13604230 53.7317 37.0244
Dispatch_width: 1 899335 3.55204 2.44757
Dispatch_width: 2 839897 3.31728 2.28581
Dispatch_width: 3 485733 1.91847 1.32194
Dispatch_width: 4 5400455 21.3298 14.6975
Dispatch_width: 5 173125 0.68378 0.471166
Dispatch_width: 6 3916038 15.4669 10.6576
Empty_decode_cycles: 11425143 31.0939
ROB_full_cycles: 8834113 24.0424
Starvation_cycles_per_kilo_instr: 239.938
Starvation_cycles_per_kilo_instr_3: 184.202
Starvation_cycles_per_kilo_instr_0: 161.953
Branch_type_1  (3,1)  (4,7)  (5,38)  (6,74)  (7,125)  (8,148)  (9,135)  (10,110)  (11,77)  (12,55)  (13,11)  (14,2)  (15,3)  (16,4)  (18,1)  (19,5)  (20,2)  (21,1)  (22,3)  (23,2)  (24,10)  (25,12) 
Branch_type_2  (3,1)  (4,1)  (5,1)  (8,4)  (9,4)  (10,1)  (12,1)  (13,1)  (14,1)  (16,3)  (17,2)  (20,2)  (21,2)  (23,5)  (24,1)  (47,41) 
Branch_type_3  (3,4441)  (4,249)  (5,433)  (6,447)  (7,480)  (8,362)  (9,281)  (10,167)  (11,135)  (12,62)  (13,10) 
Branch_type_4  (6,4)  (7,8)  (8,26)  (9,55)  (10,66)  (11,70)  (12,113)  (13,100)  (14,111)  (15,95)  (16,100)  (17,75)  (18,65)  (19,124)  (20,73)  (21,124)  (22,214)  (23,136)  (24,198)  (25,101) 
Branch_type_5  (8,3)  (9,1)  (10,4)  (11,5)  (12,3)  (13,14)  (14,16)  (15,11)  (16,22)  (17,11)  (18,23)  (19,14)  (20,11)  (21,13)  (22,43)  (23,26)  (24,37) 
Branch_type_6  (5,4)  (6,13)  (7,23)  (8,37)  (9,37)  (10,69)  (11,61)  (12,87)  (13,100)  (14,117)  (15,90)  (16,98)  (17,75)  (18,63)  (19,114)  (20,56)  (21,95)  (22,148)  (23,72)  (24,96)  (25,4)  (47,51) 
Unique trigger count: 
Variant_0_evicts_0 : 0
Variant_0_evicts_1 : 0
Variant_0_evicts_2 : 0
Variant_0_evicts_3 : 0
Variant_1_evicts_0 : 0
Variant_1_evicts_1 : 0
Variant_1_evicts_2 : 0
Variant_1_evicts_3 : 0
Variant_2_evicts_0 : 0
Variant_2_evicts_1 : 0
Variant_2_evicts_2 : 0
Variant_2_evicts_3 : 0
Variant_3_evicts_0 : 0
Variant_3_evicts_1 : 0
Variant_3_evicts_2 : 0
Variant_3_evicts_3 : 0
BTB PER SET UNIQUE ADDR: 1 4 2 6 3 3 4 3 2 4 3 3 1 6 2 6 1 3 5 2 2 4 4 4 4 4 3 2 3 5 4 3 2 3 4 5 3 3 2 3 4 6 3 2 2 3 3 3 3 2 3 3 3 3 3 3 3 2 2 3 3 3 2 3 7 2 4 3 5 3 3 3 6 3 2 7 5 3 6 4 8 5 3 6 5 3 2 5 4 2 2 5 3 4 3 2 4 3 2 4 3 4 3 5 2 6 2 2 3 6 6 2 2 3 0 2 3 5 4 6 3 3 3 4 7 3 3 3 4 1 5 4 5 1 4 3 4 1 3 3 2 4 2 5 6 6 6 4 5 5 3 2 4 7 5 3 3 2 4 3 1 3 4 1 4 1 0 6 5 6 4 4 4 2 3 4 5 7 2 2 3 2 2 5 3 4 2 4 4 3 3 2 3 5 1 4 4 4 5 4 4 2 3 3 1 3 3 2 5 5 3 4 5 2 3 4 4 4 2 6 3 5 3 2 4 2 4 5 4 5 1 4 5 4 3 3 5 6 3 4 5 6 4 4 3 2 3 2 6 4 3 4 2 2 2 4 2 2 3 2 6 2 6 3 4 2 6 2 4 7 1 4 3 4 4 3 5 3 0 6 5 4 1 6 3 2 4 3 5 3 4 2 4 3 2 4 2 2 2 2 5 1 3 4 4 2 2 6 5 4 3 2 4 4 4 4 2 3 3 2 7 4 3 3 7 5 2 4 2 6 3 6 2 3 4 3 2 4 4 3 4 5 3 2 3 2 4 2 2 2 4 5 3 3 4 5 4 3 2 3 4 4 2 4 2 5 2 4 2 2 5 5 1 2 2 4 1 2 2 2 2 4 4 3 4 6 1 4 3 5 4 2 3 4 2 3 4 2 3 3 5 5 3 1 3 5 2 3 7 2 2 4 1 4 7 3 3 3 3 3 3 3 1 6 3 2 3 3 1 5 5 2 8 3 4 0 3 3 2 3 3 1 1 3 6 0 2 5 6 5 3 2 3 3 6 1 4 3 5 2 3 6 5 4 2 2 3 4 4 3 5 4 5 4 6 6 1 4 4 4 3 2 5 3 2 2 2 4 5 6 2 3 4 2 4 5 4 2 2 5 3 3 5 1 5 3 4 1 2 2 2 3 4 3 2 5 6 2 3 3 3 2 5 3 4 3 1 5 2 2 5 4 6 3 2 4 2 3 4 4 5 3 5 7 3 4 3 3 4 4 4 4 2 5 4 2 4 1 5 5 2 3 3 5 6 2 3 3 3 2 2 1 1 1 2 3 5 2 3 2 1 4 3 3 2 1 3 2 5 3 3 3 3 4 2 4 5 5 4 3 4 4 2 2 3 3 3 2 3 3 2 3 3 3 1 4 2 4 3 3 5 1 4 3 2 5 2 5 3 3 2 2 4 4 2 4 5 3 4 4 8 5 2 1 5 3 4 3 4 2 2 2 3 2 3 7 4 3 4 2 1 3 2 5 2 1 6 3 3 4 5 3 3 4 3 3 2 4 3 4 3 6 2 2 6 4 3 5 5 3 5 3 4 2 3 3 3 3 2 5 4 2 2 2 5 3 3 3 4 5 4 2 1 3 5 3 4 3 3 2 5 5 3 4 4 2 4 4 3 7 3 3 4 3 4 3 5 4 2 3 4 8 4 5 5 1 6 2 2 3 6 5 3 3 3 5 2 2 2 3 5 2 4 5 4 4 4 6 2 7 3 2 1 3 2 3 4 3 1 3 3 5 3 3 5 6 3 3 6 2 4 4 2 5 3 3 7 1 2 1 3 5 4 3 6 3 4 3 4 4 4 1 1 2 3 3 3 3 2 3 3 2 4 1 3 3 4 2 3 5 2 5 3 4 4 2 5 5 3 3 1 4 3 3 2 4 6 3 3 4 6 4 2 3 2 3 4 5 3 4 2 3 3 4 3 3 5 3 2 3 6 1 4 3 2 3 3 4 1 3 3 4 3 3 4 3 5 4 3 1 8 2 2 2 3 4 1 4 3 2 3 2 3 4 4 1 5 4 5 5 6 3 2 4 3 3 3 4 5 2 4 4 3 4 2 3 7 6 2 1 5 8 3 2 3 4 4 1 2 2 3 4 3 3 3 1 2 2 4 5 5 5 4 3 7 3 2 5 2 1 4 2 4 5 3 1 7 3 1 2 5 3 5 7 3 4 3 2 5 2 3 2 3 5 4 2 3 2 3 4 4 3 3 4 4 2 2 4 2 3 4 4 4 1 4 3 4 5 3 5 3 5 6 4 4 2 3 3 4 3 2 2 4 5 5 2 3 5 4 3 1 5 3 2 3 3 5 5 3 3 3 5 3 5 5 2 4 6 3 3 2 4 4 3 2 5 6 3 2 2 3 5 3 3 1 4 5 5 5 6 4 4 2 5 4 5 2 3 3 3 4 2 4 4 4 3 2 2 2 6 2 6 3 5 4 4 4 3 4 3 5 4 3 11 3 3 1 5 2 2 2 5 2 1 4 3 2 5 4 5 4 5 3 3 3 4 3 5 2 1 6 3 4 3 2 2 3 2 4 3 4 5 2 2 3 4 2 4 3 3 3 5 2 5 1 1 4 5 2 3 4 2 5 4 3 4 4 4 5 4 8 5 3 4 2 5 2 3 4 4 1 2 6 4 2 3 5 3 2 5 3 3 2 0 3 3 3 6 4 2 2 2 2 3 9 2 4 3 5 1 3 5 2 4 1 4 4 2 4 3 5 1 3 5 4 4 3 2 3 3 4 3 5 3 3 3 3 2 2 2 3 3 6 3 3 2 6 3 1 5 3 4 3 4 3 3 1 3 3 4 3 2 3 4 2 2 3 3 3 6 3 3 6 2 3 3 2 4 3 3 5 3 7 3 4 4 4 5 4 4 5 3 1 5 4 4 4 5 3 5 2 4 3 6 4 2 2 3 3 4 5 6 5 4 3 2 4 5 3 4 2 5 5 2 4 2 3 4 7 4 2 3 5 3 5 1 2 3 3 6 3 3 2 3 3 6 3 2 6 3 3 2 3 5 4 2 2 2 2 3 4 5 2 5 4 4 4 5 4 4 4 3 1 5 3 7 2 4 2 5 2 2 1 2 4 4 6 6 2 4 2 3 1 4 2 5 4 4 4 4 2 3 4 3 1 2 3 4 3 6 3 3 4 4 6 2 2 3 2 2 5 4 5 5 6 4 3 5 3 5 4 1 4 3 2 3 4 5 5 4 3 3 1 2 2 6 4 3 3 4 3 2 3 2 3 4 2 6 5 4 3 1 2 3 4 5 3 2 3 4 2 2 4 4 4 1 4 3 5 5 4 4 2 4 4 3 6 2 6 4 2 2 2 6 4 6 2 3 2 2 4 4 4 6 4 4 2 4 7 3 2 5 3 3 3 4 4 4 4 8 4 1 4 7 3 2 5 2 4 3 2 5 3 3 5 4 4 3 2 4 7 2 6 3 6 4 3 4 3 2 2 6 1 4 3 4 4 3 5 1 3 4 4 4 2 3 6 5 4 7 4 3 7 1 4 4 4 2 4 3 3 3 4 4 4 4 2 2 4 4 5 2 4 4 4 2 2 2 2 4 3 4 3 3 4 3 5 4 2 2 4 4 4 2 4 5 4 4 1 2 2 3 2 5 4 4 3 1 2 2 3 4 4 5 2 3 4 4 4 5 3 4 4 1 3 7 2 2 5 3 5 3 3 3 5 2 3 3 5 3 2 4 2 4 6 5 2 3 4 1 3 3 4 2 3 2 3 3 5 3 2 4 6 2 1 2 4 4 6 3 3 3 2 3 2 3 4 3 2 4 2 4 3 0 3 3 3 2 4 3 1 2 5 6 1 3 4 2 2 1 2 3 2 4 4 3 4 1 3 2 2 4 3 4 4 2 3 7 4 1 5 2 3 5 4 2 1 5 3 3 4 4 4 4 4 2 1 1 2 4 2 4 3 6 3 2 2 3 2 2 2 4 6 6 2 6 4 6 3 2 1 6 3 6 6 4 2 3 3 2 3 2 3 2 2 4 2 3 6 2 2 4 2 5 1 2 3 1 5 2 5 2 6 3 4 2 3 2 1 3 2 3 3 2 5 4 3 2 2 1 3 4 4 1 2 4 4 1 3 2 3 3 3 3 3 2 2 4 3 3 2 3 3 4 8 4 3 4 5 4 2 4 5 4 2 2 2 3 3 1 1 2 2 4 3 4 3 4 2 2 2 5 3 2 4 3 3 3 2 1 3 2 2 3 4 5 1 3 2 5 4 1 1 2 1 2 4 0 3 7 3 4 3 5 2 3 5 3 3 2 5 4 5 2 2 3 2 2 6 3 2 2 3 8 2 4 3 3 3 5 3 2 4 2 3 6 3 0 3 2 3 6 6 5 5 6 2 3 1 4 3 8 3 4 3 3 4 3 6 3 3 5 6 2 4 3 4 3 2 7 3 4 2 5 4 3 3 6 1 3 4 3 3 2 4 5 3 3 1 4 2 3 5 7 5 3 1 1 3 4 2 2 3 6 3 2 5 3 4 2 6 2 5 4 3 4 3 3 5 5 2 2 4 2 4 2 5 3 4 5 3 3 1 1 2 2 3 4 
BTB PER SET COUNT: 1 3424 2940 2983 26 618 603 5038 523 5 55 123 1 724 2 1837 1 3 1664 3 2 4 69 50 534 3477 3 2 6 1471 5 5 11 13 2040 89 3 4 153 3 1931 3421 3673 3 2175 3257 754 979 1021 2 3 3 504 4 3 45 3 994 2 3 6 1947 2 3 5106 2 3645 235 2576 8 3 3 8 1387 352 4249 1947 2076 4322 4 4935 947 247 2906 392 3 2 523 531 993 2 467 3 336 1714 2 8 4 50 6 5 551 4 1519 2 21 2 969 3 867 1634 297 2 1378 0 4 3 5 565 2265 32 29 3466 1924 3329 76 2923 4 4 1 1183 4 1731 496 4547 3 1742 252 3 994 17 1001 2 2009 2950 11 642 711 259 27 3 6 1970 559 521 5 3 993 5 3 1 265 1198 1 2371 1 0 1706 2964 2243 1608 400 6 4 618 534 498 2971 498 2 3 2 3 1483 3 2015 508 6 640 468 9 6 3 1019 741 308 499 1154 5 288 4 2 7 3 6 4 9 338 3411 1967 62 1573 1097 392 3 5 4 1032 2 2375 1050 5046 29 2099 4 2 3892 587 12 193 1733 2943 539 1871 2508 2209 644 2411 3 2712 695 4190 1515 647 1466 2 10773 2 1884 5 3 96 2 503 1402 12 1963 2 7 344 2502 2 2654 3 73 9 1475 1466 4 1574 1 8 9 4 7 3 1956 981 0 2975 917 4 1 312 3 328 5 322 626 103 148 2 72 408 4206 4363 1464 497 2 1466 4413 1 2467 4904 463 246 497 2856 4367 1038 994 2 4 373 7198 4 2 3 499 2 4976 4 5 3 4543 92 36 10 2 2624 721 1521 497 3 2130 3 2 1872 1469 3 1208 10 769 60 2924 13 2509 2 513 2 4 1541 2720 20 249 544 982 51 2 9 8 508 2 1301 2 5 387 477 13 502 6714 1639 1 2 1468 52 1 3 2 2 1631 1891 6 8 1008 1042 1 7037 1467 252 4 1499 3 4 2 3 5577 2 1023 4 564 372 3 1 5 13 2 3 1461 1464 2 91 1 1474 744 5 981 3 4 2146 7 3 1 3928 252 361 5 372 2925 12 11 2 2476 3 34 0 283 10 2868 3 3 1 1 885 2071 0 4 94 379 1469 6 311 1461 390 1342 1 4 173 1258 33 2205 678 739 499 9 4 3 2982 4 498 5648 1899 1471 1489 4130 1365 1 5 9 2036 9 1465 4467 1468 1530 3 1553 1200 5571 497 977 1466 2901 6 1043 14 4 2439 237 640 1464 3 1416 1465 964 3 1294 1 3 136 2 4 2469 1984 1713 5 1284 1971 34 1035 14 1624 1496 1728 5 3 2 791 48 2 3976 4 693 498 2 491 2 1537 1406 504 2351 1191 9 510 224 6496 496 1288 4 486 4 4 994 1641 352 451 75 1 5518 3217 993 34 3 7 1501 26 2426 1217 3 4 2 791 1 2 961 2440 2935 2 4 8 8 4 394 7 2 1 9 1463 499 1461 3990 8 3 4 4 3893 6037 6 731 1099 4 1291 2 2 1427 1934 4 2 3 4 3 4 4 1464 1 951 960 4361 3 34 479 1 515 5 491 338 2 1474 3 1944 2 2 28 1532 2 2888 19 3 5 3270 36 1484 1043 2 1932 498 23 3885 495 3406 2 18 3 1960 3 419 2558 486 4 1539 1 2339 1057 964 246 1 5815 2432 10 646 54 3 3 6 26 203 2 499 5 4 957 960 5908 2 447 2182 3 6 9 406 4001 6 1348 2 1468 537 3 3 2 5 4 2 3 2437 48 3 4 67 5 290 1384 5 1 3 2195 523 3403 581 498 5 641 2842 743 2774 2442 2 4 2447 2424 2608 3 263 1473 3 1461 9 6732 5 2 1497 1977 6250 1172 915 1739 1 2640 2 2 3 1239 635 4134 3 1958 99 2 2 176 3 1770 4 250 5806 524 23 46 3741 3 5046 11 2 5 3 1497 45 4 3 1 257 3 608 1028 3 2511 1057 1398 61 218 4 5 24 2776 395 11 3 636 1453 2 98 1958 3001 1969 1300 3216 4 4876 4 3938 5 4133 1948 1 1040 3 331 12 508 11 820 5 2 31 2 3 600 4 1902 3 1533 5775 1959 4 1177 530 3 2357 3948 429 5 1 3479 5 6 2 4 2359 15 3 6 4142 4 2 7 4 3 4 7184 1472 422 1028 1365 3 254 1494 3 4137 3 2 952 560 19 2429 3 1462 33 3 1910 1 7 1221 5 3 925 416 3 107 4 283 1 5467 2 1469 284 7 8 1 150 2916 90 4 140 3663 4 4 1963 3943 762 3480 4437 1084 3273 2 5 1896 3 1472 4 3321 2 2925 2913 3 1521 3 388 6497 41 4 724 4396 2774 3 3 3 1490 4 1 2 10 9 208 526 4 3 1 212 912 13 143 12 3834 499 3 4114 3 2 7 1985 1 4 2 94 5 1074 2 4102 6 1 2 4095 3 6 2120 3 1448 4 2 4254 271 1958 305 1131 2951 1012 2478 567 1993 2146 4 9 9 695 1715 166 16 2 3503 102 498 4 10 191 1 316 1811 4 5 4 2313 3 5 3930 490 4 865 159 983 277 983 2 2 2578 48 6 2 500 538 5 3 1 1472 3 2 3 367 978 5 3 1963 3 5 2304 7 2882 1911 1470 1645 1098 256 242 4 265 675 20 2685 3387 3 2 29 25 2944 11 3 1 11 986 146 1364 1723 5 2242 2 3005 978 1468 1663 14 3 7 1159 987 4 1956 4 2388 986 2 2 6137 2 948 1890 1483 6 4 516 625 2098 1910 977 10 4 6073 866 206 3 1940 4 496 2 5 16 1 1017 46 105 30 2017 49 1125 11 767 4 1207 2006 44 15 2 2 1772 3 2514 487 2 2 2004 2 7 205 475 6 2 2 3 1420 3 2477 3 718 3 2822 1269 436 481 1 6 8 632 3 3338 484 1942 133 7 487 993 86 748 4 3726 617 7 637 2 4198 504 63 817 23 1 2 1717 1948 915 3 3742 47 993 571 2833 3 208 0 2640 4 1466 9 1100 2 2 2 2937 1232 365 2 291 604 6069 1 1717 1140 2 4 1 1224 5 497 157 288 643 1 754 1476 1769 4 3 2 3 3 1825 141 3934 3 5 5 2311 616 339 1965 1477 3 1475 602 505 2 12 3 1 511 249 5 3 245 1467 3 4 492 993 231 16 1931 1511 4 2 1121 8 3 2725 1384 3 3 3917 2 72 2535 50 770 3 6 2178 174 437 49 12 6 452 2535 2914 4 2422 3 1 911 252 4 4 1753 3 7 5 548 3 1841 1469 4 64 5 3 1454 2336 136 5 7 3 5 1472 1462 4 9 2 172 5 2 4 1467 496 2207 3047 4 13 6 1546 3 1861 1 2 3 3 3768 1467 3 2 187 4 3516 1210 2 2767 500 3 248 1958 4445 1166 74 2199 2 3 260 2354 1421 2 362 1446 4 5 6 6 1835 171 4 1 626 3 3455 2 321 4 1974 131 2 234 973 4 25 4569 3537 2 101 2 1446 1 5 246 5 478 643 2021 2639 2 3 976 49 1 2 3 2275 13 1331 4 8 6 6 4387 2 2 3 4 6 5 1463 1288 1736 1456 4 922 5 3 2437 5 1 87 2915 2 920 6 2153 304 4 503 3 1 2242 2 7246 8 3 447 4 5 3 3 2 1465 5 47 2168 6 4 76 242 7 3 302 5 511 2 3 4 2 2 1195 4 4 1 73 1978 606 1491 5 4 2 823 929 4 1942 6 508 13 946 4 2 1020 6 1124 2 1673 2 3 2067 4 2039 3212 4 1333 2 2939 1026 3 915 2289 3 21 1002 8 1239 10 4431 4734 11 1 1563 3971 4 2 1582 983 2415 4229 2 1377 41 1464 5 4 242 106 2 6 2599 2451 921 13 10148 733 4 5 1224 957 2 155 1 4 971 3193 1927 3 558 1 4 1725 5 2464 4 580 10195 5 1032 1706 4 1458 978 1 218 848 3347 2 4 383 137 3 1263 5 4 6 2 2 2028 2017 3265 941 1295 4 981 3 1470 2 971 1005 3 4 5 1464 11 30 1119 6 2 2 535 2891 573 2 36 1475 422 7 1 2 2 3 2 2820 508 1498 3 491 2718 492 3 8 745 1528 2 3 32 7 4 4117 3307 105 4 1 3 4078 288 2 1892 5 4654 2404 1038 3 757 3 1038 5 4385 9 2 2241 2 2494 2889 19 2 3 9 1 49 1315 200 2 48 654 12 83 1152 3 3 1517 49 1405 139 2 5 4 6028 3 3 22 121 3 2 1351 1101 3 2 276 3 3088 3 0 1824 3 203 2 2438 971 1 2 6 1581 1 1465 252 410 3 1 1946 208 4 4083 258 5 1202 947 733 3 2618 2141 3046 300 857 2 744 3368 47 1 9 731 4 1470 4 2 550 2845 30 11 4 574 4 988 2135 514 1 1465 551 714 2 2671 812 6 506 2 1449 451 728 2 5 2156 2598 1978 2 1757 4 4045 8 2 1 4839 11 997 4224 6 13 963 2455 2 918 1665 1889 2 1414 980 3 12 4474 2 1888 5 3 2386 1 2 1257 1951 417 504 979 507 8054 5 3291 4 197 2 1 7 2 981 4 2 2349 59 1471 2 2 138 1129 2718 1392 1 1259 965 15 1 4 2 993 7 55 3 3 496 46 4686 19 3 2 3 233 13 6436 6 53 7 137 10 1958 4 1457 5 2 2 2 712 20526 1 1 4 787 749 3 6 3 1932 220 2 498 755 720 2 557 6 3 263 2 1 3 2 2 2025 11 152 1 3 2 1916 15075 1 2 498 444 2477 125 0 1989 3479 443 1467 2230 34 3 3 3226 972 4154 2 5 2454 547 2 24 3 2 468 263 268 3 2 4 4114 11 1475 3 1462 3 136 4 2 1469 2 27 3307 1475 0 1085 504 1799 1580 6859 661 8 5581 587 551 1 4 7 4295 1410 452 3 491 2923 994 1255 994 6 1080 516 2 2501 41 3257 135 1055 1101 6878 521 6 6 513 31 3126 270 1 3 2569 4 3 2 512 2646 616 2374 1 3504 4 3 1553 498 946 3 1365 1 3 31 994 495 372 6346 3 2 2405 3 1964 1468 54 673 1198 2953 3 3543 3158 33 2827 5 3 2 1000 768 4 2 1267 7 1041 2806 48 1195 1 1 497 2 3 2763 
To predecode: 1186068
Predecoding something: 752391
Predecode request dropped: 0
sizeofblock_0 0
sizeofblock_1 565955
sizeofblock_2 529478
sizeofblock_3 533450
sizeofblock_4 99477
sizeofblock_5 0
sizeofblock_6 0
sizeofblock_7 0
sizeofblock_8 0
