
*** ChampSim Multicore Out-of-Order Simulator ***

Warmup Instructions: 50000000
Simulation Instructions: 50000000
Number of CPUs: 1
LLC sets: 2048
LLC ways: 16
Off-chip DRAM Size: 4096 MB Channels: 1 Width: 64-bit Data Rate: 6400 MT/s
CPU 0 runs ./micro_traces/srv385.trace.gz
.gz
ITLB has LRU replacement policy
DTLB has LRU replacement policy
STLB has LRU replacement policy
FDIP Prefetcher at L1I
L1I has LRU replacement policy
L1D has LRU replacement policy
Initialize SRRIP state for L2C
Initialize DRRIP state for LLC
Heartbeat_Variant_0 : 1066 0.260254 per_variant_size: 0 1066 0 0 0 0 0 0 0 
Heartbeat_Variant_1 : 2288 0.558594 per_variant_size: 0 444 1844 0 0 0 0 0 0 
Heartbeat_Variant_2 : 0 0 per_variant_size: 0 0 0 0 0 0 0 0 0 
Heartbeat_Variant_3 : 0 0 per_variant_size: 0 0 0 0 0 0 0 0 0 
Heartbeat_Variant_0_evicts 0 : 21639 1 : 18242 2 : 0 3 : 0 
Heartbeat_Variant_1_evicts 0 : 18315 1 : 0 2 : 0 3 : 0 
Heartbeat_Variant_2_evicts 0 : 0 1 : 0 2 : 0 3 : 0 
Heartbeat_Variant_3_evicts 0 : 0 1 : 0 2 : 0 3 : 0 
Heartbeat CPU 0 instructions: 10000001 cycles: 2797495 heartbeat IPC: 3.57463 cumulative IPC: 3.57463 (Simulation time: 0 hr 2 min 1 sec) 
Heartbeat_Variant_0 : 1087 0.265381 per_variant_size: 0 1087 0 0 0 0 0 0 0 
Heartbeat_Variant_1 : 2274 0.555176 per_variant_size: 0 439 1835 0 0 0 0 0 0 
Heartbeat_Variant_2 : 0 0 per_variant_size: 0 0 0 0 0 0 0 0 0 
Heartbeat_Variant_3 : 0 0 per_variant_size: 0 0 0 0 0 0 0 0 0 
Heartbeat_Variant_0_evicts 0 : 21696 1 : 18244 2 : 0 3 : 0 
Heartbeat_Variant_1_evicts 0 : 18225 1 : 0 2 : 0 3 : 0 
Heartbeat_Variant_2_evicts 0 : 0 1 : 0 2 : 0 3 : 0 
Heartbeat_Variant_3_evicts 0 : 0 1 : 0 2 : 0 3 : 0 
Heartbeat CPU 0 instructions: 20000000 cycles: 5594428 heartbeat IPC: 3.57534 cumulative IPC: 3.57499 (Simulation time: 0 hr 4 min 12 sec) 
Heartbeat_Variant_0 : 1082 0.26416 per_variant_size: 0 1082 0 0 0 0 0 0 0 
Heartbeat_Variant_1 : 2347 0.572998 per_variant_size: 0 423 1924 0 0 0 0 0 0 
Heartbeat_Variant_2 : 0 0 per_variant_size: 0 0 0 0 0 0 0 0 0 
Heartbeat_Variant_3 : 0 0 per_variant_size: 0 0 0 0 0 0 0 0 0 
Heartbeat_Variant_0_evicts 0 : 21947 1 : 18720 2 : 0 3 : 0 
Heartbeat_Variant_1_evicts 0 : 18741 1 : 0 2 : 0 3 : 0 
Heartbeat_Variant_2_evicts 0 : 0 1 : 0 2 : 0 3 : 0 
Heartbeat_Variant_3_evicts 0 : 0 1 : 0 2 : 0 3 : 0 
Heartbeat CPU 0 instructions: 30000000 cycles: 8391195 heartbeat IPC: 3.57556 cumulative IPC: 3.57518 (Simulation time: 0 hr 6 min 23 sec) 
Heartbeat_Variant_0 : 1084 0.264648 per_variant_size: 0 1084 0 0 0 0 0 0 0 
Heartbeat_Variant_1 : 2347 0.572998 per_variant_size: 0 429 1918 0 0 0 0 0 0 
Heartbeat_Variant_2 : 0 0 per_variant_size: 0 0 0 0 0 0 0 0 0 
Heartbeat_Variant_3 : 0 0 per_variant_size: 0 0 0 0 0 0 0 0 0 
Heartbeat_Variant_0_evicts 0 : 22273 1 : 19191 2 : 0 3 : 0 
Heartbeat_Variant_1_evicts 0 : 19189 1 : 0 2 : 0 3 : 0 
Heartbeat_Variant_2_evicts 0 : 0 1 : 0 2 : 0 3 : 0 
Heartbeat_Variant_3_evicts 0 : 0 1 : 0 2 : 0 3 : 0 
Heartbeat CPU 0 instructions: 40000000 cycles: 11187994 heartbeat IPC: 3.57552 cumulative IPC: 3.57526 (Simulation time: 0 hr 8 min 33 sec) 
Heartbeat_Variant_0 : 1081 0.263916 per_variant_size: 0 1081 0 0 0 0 0 0 0 
Heartbeat_Variant_1 : 2371 0.578857 per_variant_size: 0 431 1940 0 0 0 0 0 0 
Heartbeat_Variant_2 : 0 0 per_variant_size: 0 0 0 0 0 0 0 0 0 
Heartbeat_Variant_3 : 0 0 per_variant_size: 0 0 0 0 0 0 0 0 0 
Heartbeat_Variant_0_evicts 0 : 21559 1 : 18462 2 : 0 3 : 0 
Heartbeat_Variant_1_evicts 0 : 18468 1 : 0 2 : 0 3 : 0 
Heartbeat_Variant_2_evicts 0 : 0 1 : 0 2 : 0 3 : 0 
Heartbeat_Variant_3_evicts 0 : 0 1 : 0 2 : 0 3 : 0 
Heartbeat CPU 0 instructions: 50000002 cycles: 13984234 heartbeat IPC: 3.57623 cumulative IPC: 3.57546 (Simulation time: 0 hr 10 min 38 sec) 

Warmup complete CPU 0 instructions: 50000002 cycles: 13984234 (Simulation time: 0 hr 10 min 38 sec) 

Cycle: 20000000 FTQ IN: 56915151 FTQ occupancy: 18.1712 DECODE IN: 56915114 DECODE occupancy: 46.5613 ROB IN: 56915054 ROB occupancy: 281.771 ROB OUT: 56915054
Heartbeat_Variant_0 : 1106 0.27002 per_variant_size: 0 1106 0 0 0 0 0 0 0 
Heartbeat_Variant_1 : 2346 0.572754 per_variant_size: 0 433 1913 0 0 0 0 0 0 
Heartbeat_Variant_2 : 0 0 per_variant_size: 0 0 0 0 0 0 0 0 0 
Heartbeat_Variant_3 : 0 0 per_variant_size: 0 0 0 0 0 0 0 0 0 
Heartbeat_Variant_0_evicts 0 : 21825 1 : 18947 2 : 0 3 : 0 
Heartbeat_Variant_1_evicts 0 : 18922 1 : 0 2 : 0 3 : 0 
Heartbeat_Variant_2_evicts 0 : 0 1 : 0 2 : 0 3 : 0 
Heartbeat_Variant_3_evicts 0 : 0 1 : 0 2 : 0 3 : 0 
Heartbeat CPU 0 instructions: 60000002 cycles: 22683779 heartbeat IPC: 1.14949 cumulative IPC: 1.14949 (Simulation time: 0 hr 12 min 33 sec) 
Cycle: 30000000 FTQ IN: 11558550 FTQ occupancy: 6.96739 DECODE IN: 11558586 DECODE occupancy: 15.2587 ROB IN: 11558633 ROB occupancy: 128.162 ROB OUT: 11558542
Heartbeat_Variant_0 : 1106 0.27002 per_variant_size: 0 1106 0 0 0 0 0 0 0 
Heartbeat_Variant_1 : 2347 0.572998 per_variant_size: 0 430 1917 0 0 0 0 0 0 
Heartbeat_Variant_2 : 0 0 per_variant_size: 0 0 0 0 0 0 0 0 0 
Heartbeat_Variant_3 : 0 0 per_variant_size: 0 0 0 0 0 0 0 0 0 
Heartbeat_Variant_0_evicts 0 : 21632 1 : 18646 2 : 0 3 : 0 
Heartbeat_Variant_1_evicts 0 : 18646 1 : 0 2 : 0 3 : 0 
Heartbeat_Variant_2_evicts 0 : 0 1 : 0 2 : 0 3 : 0 
Heartbeat_Variant_3_evicts 0 : 0 1 : 0 2 : 0 3 : 0 
Heartbeat CPU 0 instructions: 70000003 cycles: 31463284 heartbeat IPC: 1.13902 cumulative IPC: 1.14423 (Simulation time: 0 hr 14 min 30 sec) 
Cycle: 40000000 FTQ IN: 11366210 FTQ occupancy: 7.17501 DECODE IN: 11366211 DECODE occupancy: 15.5407 ROB IN: 11366224 ROB occupancy: 128.624 ROB OUT: 11366216
Heartbeat_Variant_0 : 1098 0.268066 per_variant_size: 0 1098 0 0 0 0 0 0 0 
Heartbeat_Variant_1 : 2361 0.576416 per_variant_size: 0 426 1935 0 0 0 0 0 0 
Heartbeat_Variant_2 : 0 0 per_variant_size: 0 0 0 0 0 0 0 0 0 
Heartbeat_Variant_3 : 0 0 per_variant_size: 0 0 0 0 0 0 0 0 0 
Heartbeat_Variant_0_evicts 0 : 21985 1 : 18624 2 : 0 3 : 0 
Heartbeat_Variant_1_evicts 0 : 18634 1 : 0 2 : 0 3 : 0 
Heartbeat_Variant_2_evicts 0 : 0 1 : 0 2 : 0 3 : 0 
Heartbeat_Variant_3_evicts 0 : 0 1 : 0 2 : 0 3 : 0 
Heartbeat CPU 0 instructions: 80000001 cycles: 40133670 heartbeat IPC: 1.15335 cumulative IPC: 1.14725 (Simulation time: 0 hr 16 min 24 sec) 
Heartbeat_Variant_0 : 1084 0.264648 per_variant_size: 0 1084 0 0 0 0 0 0 0 
Heartbeat_Variant_1 : 2375 0.579834 per_variant_size: 0 429 1946 0 0 0 0 0 0 
Heartbeat_Variant_2 : 0 0 per_variant_size: 0 0 0 0 0 0 0 0 0 
Heartbeat_Variant_3 : 0 0 per_variant_size: 0 0 0 0 0 0 0 0 0 
Heartbeat_Variant_0_evicts 0 : 22082 1 : 18800 2 : 0 3 : 0 
Heartbeat_Variant_1_evicts 0 : 18814 1 : 0 2 : 0 3 : 0 
Heartbeat_Variant_2_evicts 0 : 0 1 : 0 2 : 0 3 : 0 
Heartbeat_Variant_3_evicts 0 : 0 1 : 0 2 : 0 3 : 0 
Heartbeat CPU 0 instructions: 90000000 cycles: 48930145 heartbeat IPC: 1.13682 cumulative IPC: 1.14463 (Simulation time: 0 hr 18 min 20 sec) 
Cycle: 50000000 FTQ IN: 11373261 FTQ occupancy: 7.11651 DECODE IN: 11373257 DECODE occupancy: 15.4965 ROB IN: 11373257 ROB occupancy: 128.628 ROB OUT: 11373271
Heartbeat_Variant_0 : 1083 0.264404 per_variant_size: 0 1083 0 0 0 0 0 0 0 
Heartbeat_Variant_1 : 2384 0.582031 per_variant_size: 0 430 1954 0 0 0 0 0 0 
Heartbeat_Variant_2 : 0 0 per_variant_size: 0 0 0 0 0 0 0 0 0 
Heartbeat_Variant_3 : 0 0 per_variant_size: 0 0 0 0 0 0 0 0 0 
Heartbeat_Variant_0_evicts 0 : 22308 1 : 19140 2 : 0 3 : 0 
Heartbeat_Variant_1_evicts 0 : 19143 1 : 0 2 : 0 3 : 0 
Heartbeat_Variant_2_evicts 0 : 0 1 : 0 2 : 0 3 : 0 
Heartbeat_Variant_3_evicts 0 : 0 1 : 0 2 : 0 3 : 0 
Heartbeat CPU 0 instructions: 100000000 cycles: 57690807 heartbeat IPC: 1.14147 cumulative IPC: 1.14399 (Simulation time: 0 hr 20 min 18 sec) 
Finished CPU 0 instructions: 50000001 cycles: 43706575 cumulative IPC: 1.14399 (Simulation time: 0 hr 20 min 18 sec) 

ChampSim completed all CPUs

Region of Interest Statistics

CPU 0 cumulative IPC: 1.14399 instructions: 50000001 cycles: 43706575
 Fetch stage stalled: 69.9872  Sim cycles: 43706575 fetch stall cycle: 30588988
 Empty decode stage: 58.4683  Sim cycles: 43706575 fetch stall cycle: 25554506
ITLB TOTAL     ACCESS:    5601843  HIT:    5108374  MISS:     493469  HIT %:     91.191  MISS %:    8.80905   MPKI: 9.86938
ITLB LOAD TRANSLATION INSTRUCTION	ACCESS:    5497991  HIT:    5004522  MISS:     493469  HIT %:    91.0246  MISS %:    8.97544  MPKI: 9.86938
ITLB TRANSLATION FROM L1D PREFETCHER INSTRUCTION	ACCESS:     103852  HIT:     103852  MISS:          0  HIT %:        100  MISS %:          0  MPKI: 0

ITLB AVERAGE MISS LATENCY: 9.0441 cycles
ITLB RQ	ACCESS:    7442390	FORWARD:          0	MERGED:    1344293	TO_CACHE:    6098097

DTLB TOTAL     ACCESS:    9290879  HIT:    8814769  MISS:     476110  HIT %:    94.8755  MISS %:    5.12449   MPKI: 9.5222
DTLB LOAD TRANSLATION DATA	ACCESS:    9290879  HIT:    8814769  MISS:     476110  HIT %:    94.8755  MISS %:    5.12449  MPKI: 9.5222

DTLB AVERAGE MISS LATENCY: 9.3067 cycles
DTLB RQ	ACCESS:   13576631	FORWARD:          0	MERGED:    4251861	TO_CACHE:    9324770

STLB TOTAL     ACCESS:    1217889  HIT:    1215905  MISS:       1984  HIT %:    99.8371  MISS %:   0.162905   MPKI: 0.03968
STLB LOAD TRANSLATION INSTRUCTION	ACCESS:     493469  HIT:     493223  MISS:        246  HIT %:    99.9501  MISS %:  0.0498512  MPKI: 0.00492
STLB LOAD TRANSLATION DATA	ACCESS:     476055  HIT:     474337  MISS:       1718  HIT %:    99.6391  MISS %:   0.360883  MPKI: 0.03436
STLB TRANSLATION FROM L1D PREFETCHER DATA	ACCESS:     248365  HIT:     248345  MISS:         20  HIT %:    99.9919  MISS %: 0.00805266  MPKI: 0.0004

STLB AVERAGE MISS LATENCY: 71.0035 cycles
STLB RQ	ACCESS:    1339179	FORWARD:          0	MERGED:     121247	TO_CACHE:    1217932

STLB Hit, L1D data hit: 0
STLB Hit, L2C data hit: 0
STLB Hit, LLC data hit: 0
STLB Hit, LLC data miss: 0
STLB STLB hints to L2: 0
L1D TOTAL     ACCESS:   13345546  HIT:   12231162  MISS:    1114384  HIT %:    91.6498  MISS %:    8.35023   MPKI: 22.2877
L1D LOAD DATA	ACCESS:    6779122  HIT:    6043776  MISS:     735346  HIT %:    89.1528  MISS %:    10.8472  MPKI: 14.7069
L1D RFO DATA	ACCESS:    6237934  HIT:    5952306  MISS:     285628  HIT %:    95.4211  MISS %:    4.57889  MPKI: 5.71256
L1D PREFETCH DATA	ACCESS:     328490  HIT:     235080  MISS:      93410  HIT %:    71.5638  MISS %:    28.4362  MPKI: 1.8682

L1D PREFETCH  REQUESTED:     739476  ISSUED:     739476  USEFUL:      33036  USELESS:      68885
L1D USEFUL LOAD PREFETCHES:      33036 PREFETCH ISSUED TO LOWER LEVEL:     101991  ACCURACY: 32.3911
 TIMELY PREFETCHES:      33036 LATE PREFETCHES: 8535 DROPPED PREFETCHES: 5
L1D AVERAGE MISS LATENCY: 279465 cycles
L1D RQ	ACCESS:   10867403	FORWARD:          0	MERGED:    3894068	TO_CACHE:    6809564
L1D WQ	ACCESS:    6943836	FORWARD:     164047	MERGED:     176769	TO_CACHE:    6767067
L1D PQ	ACCESS:     369876	FORWARD:          0	MERGED:          0	TO_CACHE:     369600

L1D UNIQUE REGIONS ACCESSED: 0
L1D REGIONS CONFLICTS: 0
L1D Cross Page Prefetch Requests: 7047
L1D Same Page Prefetch Requests: 747643
L1D ROI Sum of L1D PQ occupancy: 4691042
L1D PREFETCHES PUSHED FROM L2C: 0
L1I TOTAL     ACCESS:    6931461  HIT:    4168212  MISS:    2763249  HIT %:    60.1347  MISS %:    39.8653   MPKI: 55.265
L1I LOAD INSTRUCTION	ACCESS:    6443064  HIT:    3679815  MISS:    2763249  HIT %:    57.1128  MISS %:    42.8872  MPKI: 55.265
L1I PREFETCH INSTRUCTION	ACCESS:     488397  HIT:     488397  MISS:          0  HIT %:        100  MISS %:          0  MPKI: 0

L1I PREFETCH  REQUESTED:    1096450  ISSUED:    1096450  USEFUL:          0  USELESS:          0
L1I USEFUL LOAD PREFETCHES:          0 PREFETCH ISSUED TO LOWER LEVEL:          0  ACCURACY: -nan
 TIMELY PREFETCHES:          0 LATE PREFETCHES: 0 DROPPED PREFETCHES: 0
L1I AVERAGE MISS LATENCY: 17.2162 cycles
L1I RQ	ACCESS:    9455938	FORWARD:          0	MERGED:    2796820	TO_CACHE:    6659118
L1I PQ	ACCESS:    1096450	FORWARD:          0	MERGED:     313178	TO_CACHE:     783272

L1BTB TOTAL     ACCESS:    5671838  HIT:    2043639  MISS:    3628199  HIT %:    36.0313  MISS %:    63.9687   MPKI: 72.564
L1BTB BRANCH_DIRECT_JUMP	ACCESS:     548746 HIT:     144634 MISS:     404112 AVERAGE STALL: 35.0449 AVERAGE FETCH STALL: 18.5666 AVERAGE FETCH QUEUE STALL: 7.98178 AVERAGE DECODE STALL: 7.69887 AVERAGE EXECUTE STALL: 3.91219e+14
L1BTB BRANCH_INDIRECT	ACCESS:     183366 HIT:      66348 MISS:     117018 AVERAGE STALL: 93.2338 AVERAGE FETCH STALL: 14.4776 AVERAGE FETCH QUEUE STALL: 8.611 AVERAGE DECODE STALL: 7.5795 AVERAGE EXECUTE STALL: 61.6187
L1BTB BRANCH_CONDITIONAL	ACCESS:    2710508 HIT:    1417570 MISS:    1292938 AVERAGE STALL: 36.4804 AVERAGE FETCH STALL: 21.7225 AVERAGE FETCH QUEUE STALL: 6.93769 AVERAGE DECODE STALL: 7.07319 AVERAGE EXECUTE STALL: 1.64619e+14
L1BTB BRANCH_DIRECT_CALL	ACCESS:     943397 HIT:     104652 MISS:     838745 AVERAGE STALL: 39.0392 AVERAGE FETCH STALL: 21.9732 AVERAGE FETCH QUEUE STALL: 8.39911 AVERAGE DECODE STALL: 7.90743 AVERAGE EXECUTE STALL: 1.0752e+14
L1BTB BRANCH_INDIRECT_CALL	ACCESS:     171214 HIT:      20843 MISS:     150371 AVERAGE STALL: 114.691 AVERAGE FETCH STALL: 18.198 AVERAGE FETCH QUEUE STALL: 6.6145 AVERAGE DECODE STALL: 7.15647 AVERAGE EXECUTE STALL: 82.1857
L1BTB BRANCH_RETURN	ACCESS:    1114607 HIT:     289592 MISS:     825015 AVERAGE STALL: 37.1429 AVERAGE FETCH STALL: 18.7242 AVERAGE FETCH QUEUE STALL: 5.37963 AVERAGE DECODE STALL: 5.95312 AVERAGE EXECUTE STALL: 2.00443e+14
L1BTB BRANCH_OTHER ACCESS:          0 HIT:          0 MISS:          0 AVERAGE STALL: -nan AVERAGE FETCH STALL: -nan AVERAGE FETCH QUEUE STALL: -nan AVERAGE DECODE STALL: -nan AVERAGE EXECUTE STALL: -nan
L1BTB TOTAL ROB OCCUPANCY AT BTB MISS: 13.565

L2BTB TOTAL     ACCESS:    3602749  HIT:    3142215  MISS:     460534  HIT %:    87.2172  MISS %:    12.7828   MPKI: 9.21068
L2BTB BRANCH_DIRECT_JUMP	ACCESS:     399920 HIT:     356955 MISS:      42965 AVERAGE STALL: 35.0449 AVERAGE FETCH STALL: 18.5666 AVERAGE FETCH QUEUE STALL: 7.98178 AVERAGE DECODE STALL: 7.69887 AVERAGE EXECUTE STALL: 3.91219e+14
L2BTB BRANCH_INDIRECT	ACCESS:     106721 HIT:      97747 MISS:       8974 AVERAGE STALL: 93.2338 AVERAGE FETCH STALL: 14.4776 AVERAGE FETCH QUEUE STALL: 8.611 AVERAGE DECODE STALL: 7.5795 AVERAGE EXECUTE STALL: 61.6187
L2BTB BRANCH_CONDITIONAL	ACCESS:    1292938 HIT:    1180274 MISS:     112664 AVERAGE STALL: 36.4804 AVERAGE FETCH STALL: 21.7225 AVERAGE FETCH QUEUE STALL: 6.93769 AVERAGE DECODE STALL: 7.07319 AVERAGE EXECUTE STALL: 1.64619e+14
L2BTB BRANCH_DIRECT_CALL	ACCESS:     838745 HIT:     667137 MISS:     171608 AVERAGE STALL: 39.0392 AVERAGE FETCH STALL: 21.9732 AVERAGE FETCH QUEUE STALL: 8.39911 AVERAGE DECODE STALL: 7.90743 AVERAGE EXECUTE STALL: 1.0752e+14
L2BTB BRANCH_INDIRECT_CALL	ACCESS:     140807 HIT:     107138 MISS:      33669 AVERAGE STALL: 114.691 AVERAGE FETCH STALL: 18.198 AVERAGE FETCH QUEUE STALL: 6.6145 AVERAGE DECODE STALL: 7.15647 AVERAGE EXECUTE STALL: 82.1857
L2BTB BRANCH_RETURN	ACCESS:     823618 HIT:     732964 MISS:      90654 AVERAGE STALL: 37.1429 AVERAGE FETCH STALL: 18.7242 AVERAGE FETCH QUEUE STALL: 5.37963 AVERAGE DECODE STALL: 5.95312 AVERAGE EXECUTE STALL: 2.00443e+14
L2BTB BRANCH_OTHER ACCESS:          0 HIT:          0 MISS:          0 AVERAGE STALL: -nan AVERAGE FETCH STALL: -nan AVERAGE FETCH QUEUE STALL: -nan AVERAGE DECODE STALL: -nan AVERAGE EXECUTE STALL: -nan
L2BTB TOTAL ROB OCCUPANCY AT BTB MISS: 106.869

L2C TOTAL     ACCESS:    4485466  HIT:    4000845  MISS:     484621  HIT %:    89.1957  MISS %:    10.8043   MPKI: 9.69242
L2C LOAD INSTRUCTION	ACCESS:    2763249  HIT:    2506482  MISS:     256767  HIT %:    90.7078  MISS %:    9.29221  MPKI: 5.13534
L2C LOAD TRANSLATION INSTRUCTION	ACCESS:        276  HIT:         87  MISS:        189  HIT %:    31.5217  MISS %:    68.4783  MPKI: 0.00378
L2C LOAD DATA	ACCESS:     726799  HIT:     646963  MISS:      79836  HIT %:    89.0154  MISS %:    10.9846  MPKI: 1.59672
L2C RFO DATA	ACCESS:     285563  HIT:     231256  MISS:      54307  HIT %:    80.9825  MISS %:    19.0175  MPKI: 1.08614
L2C PREFETCH DATA	ACCESS:     187145  HIT:     112035  MISS:      75110  HIT %:    59.8653  MISS %:    40.1347  MPKI: 1.5022
L2C WRITEBACK DATA	ACCESS:     520607  HIT:     503547  MISS:      17060  HIT %:    96.7231  MISS %:    3.27694  MPKI: 0.3412
L2C LOAD TRANSLATION DATA	ACCESS:       1786  HIT:        446  MISS:       1340  HIT %:     24.972  MISS %:     75.028  MPKI: 0.0268
L2C TRANSLATION FROM L1D PREFETCHER DATA	ACCESS:         41  HIT:         29  MISS:         12  HIT %:    70.7317  MISS %:    29.2683  MPKI: 0.00024

L2C PREFETCH  REQUESTED:      92654  ISSUED:      92654  USEFUL:       7873  USELESS:      67626
L2C USEFUL LOAD PREFETCHES:       7873 PREFETCH ISSUED TO LOWER LEVEL:      75507  ACCURACY: 10.4268
 TIMELY PREFETCHES:       7873 LATE PREFETCHES: 397 DROPPED PREFETCHES: 0
L2C AVERAGE MISS LATENCY: 37.6678 cycles
L2C RQ	ACCESS:    3777746	FORWARD:          0	MERGED:          0	TO_CACHE:    3777715
L2C WQ	ACCESS:     520607	FORWARD:         31	MERGED:          0	TO_CACHE:     520607
L2C PQ	ACCESS:     194645	FORWARD:          0	MERGED:       3504	TO_CACHE:     191141

L2C Dense regions hint from L2: 0
PSCL5 TOTAL     ACCESS:       3992  HIT:       1996  MISS:       1996  HIT %:         50  MISS %:         50   MPKI: 0.03992
PSCL5 LOAD TRANSLATION INSTRUCTION	ACCESS:       3910  HIT:       1955  MISS:       1955  HIT %:         50  MISS %:         50  MPKI: 0.0391
PSCL5 TRANSLATION FROM L1D PREFETCHER INSTRUCTION	ACCESS:         82  HIT:         41  MISS:         41  HIT %:         50  MISS %:         50  MPKI: 0.00082


PSCL4 TOTAL     ACCESS:       3775  HIT:       1883  MISS:       1892  HIT %:    49.8808  MISS %:    50.1192   MPKI: 0.03784
PSCL4 LOAD TRANSLATION INSTRUCTION	ACCESS:       2324  HIT:       1842  MISS:        482  HIT %:    79.2599  MISS %:    20.7401  MPKI: 0.00964
PSCL4 TRANSLATION FROM L1D PREFETCHER INSTRUCTION	ACCESS:         53  HIT:         41  MISS:         12  HIT %:    77.3585  MISS %:    22.6415  MPKI: 0.00024
PSCL4 LOAD TRANSLATION DATA	ACCESS:       1369  HIT:          0  MISS:       1369  HIT %:          0  MISS %:        100  MPKI: 0.02738
PSCL4 TRANSLATION FROM L1D PREFETCHER DATA	ACCESS:         29  HIT:          0  MISS:         29  HIT %:          0  MISS %:        100  MPKI: 0.00058


PSCL3 TOTAL     ACCESS:       3853  HIT:       1922  MISS:       1931  HIT %:    49.8832  MISS %:    50.1168   MPKI: 0.03862
PSCL3 LOAD TRANSLATION INSTRUCTION	ACCESS:       2363  HIT:       1881  MISS:        482  HIT %:    79.6022  MISS %:    20.3978  MPKI: 0.00964
PSCL3 TRANSLATION FROM L1D PREFETCHER INSTRUCTION	ACCESS:         53  HIT:         41  MISS:         12  HIT %:    77.3585  MISS %:    22.6415  MPKI: 0.00024
PSCL3 LOAD TRANSLATION DATA	ACCESS:       1408  HIT:          0  MISS:       1408  HIT %:          0  MISS %:        100  MPKI: 0.02816
PSCL3 TRANSLATION FROM L1D PREFETCHER DATA	ACCESS:         29  HIT:          0  MISS:         29  HIT %:          0  MISS %:        100  MPKI: 0.00058


PSCL2 TOTAL     ACCESS:       3903  HIT:       1907  MISS:       1996  HIT %:    48.8599  MISS %:    51.1401   MPKI: 0.03992
PSCL2 LOAD TRANSLATION INSTRUCTION	ACCESS:       2111  HIT:       1866  MISS:        245  HIT %:    88.3941  MISS %:    11.6059  MPKI: 0.0049
PSCL2 TRANSLATION FROM L1D PREFETCHER INSTRUCTION	ACCESS:         41  HIT:         41  MISS:          0  HIT %:        100  MISS %:          0  MPKI: 0
PSCL2 LOAD TRANSLATION DATA	ACCESS:       1710  HIT:          0  MISS:       1710  HIT %:          0  MISS %:        100  MPKI: 0.0342
PSCL2 TRANSLATION FROM L1D PREFETCHER DATA	ACCESS:         41  HIT:          0  MISS:         41  HIT %:          0  MISS %:        100  MPKI: 0.00082


LLC TOTAL     ACCESS:     545179  HIT:     518047  MISS:      27132  HIT %:    95.0233  MISS %:    4.97671   MPKI: 0.54264
LLC LOAD INSTRUCTION	ACCESS:     256767  HIT:     255961  MISS:        806  HIT %:    99.6861  MISS %:   0.313903  MPKI: 0.01612
LLC LOAD TRANSLATION INSTRUCTION	ACCESS:        189  HIT:        160  MISS:         29  HIT %:    84.6561  MISS %:    15.3439  MPKI: 0.00058
LLC LOAD DATA	ACCESS:      79473  HIT:      76208  MISS:       3265  HIT %:    95.8917  MISS %:    4.10831  MPKI: 0.0653
LLC RFO DATA	ACCESS:      54256  HIT:      40922  MISS:      13334  HIT %:    75.4239  MISS %:    24.5761  MPKI: 0.26668
LLC PREFETCH DATA	ACCESS:      75507  HIT:      66224  MISS:       9283  HIT %:    87.7058  MISS %:    12.2942  MPKI: 0.18566
LLC WRITEBACK DATA	ACCESS:      77635  HIT:      77297  MISS:        338  HIT %:    99.5646  MISS %:   0.435371  MPKI: 0.00676
LLC LOAD TRANSLATION DATA	ACCESS:       1340  HIT:       1263  MISS:         77  HIT %:    94.2537  MISS %:    5.74627  MPKI: 0.00154
LLC TRANSLATION FROM L1D PREFETCHER DATA	ACCESS:         12  HIT:         12  MISS:          0  HIT %:        100  MISS %:          0  MPKI: 0

LLC AVERAGE MISS LATENCY: 154.417 cycles
LLC RQ	ACCESS:     392054	FORWARD:          0	MERGED:          0	TO_CACHE:     392037
LLC WQ	ACCESS:      77635	FORWARD:         17	MERGED:          0	TO_CACHE:      77635
LLC PQ	ACCESS:      75507	FORWARD:          0	MERGED:          0	TO_CACHE:      75507

LLC Dense regions hint to LLC: 0

RAW hits: 1765400
Loads Generated: 12632804
Loads sent to L1D: 10867403
Stores Generated: 6943830
Stores sent to L1D: 6943836
Major fault: 0 Minor fault: 2545
Allocated PAGES: 2545

stream: 
stream:times selected: 1184434
stream:pref_filled: 121825
stream:pref_useful: 23428
stream:pref_late: 7207
stream:misses: 8125
stream:misses_by_poll: 0

CS: 
CS:times selected: 176485
CS:pref_filled: 59846
CS:pref_useful: 36656
CS:pref_late: 7469
CS:misses: 16128
CS:misses_by_poll: 3

CPLX: 
CPLX:times selected: 1006851
CPLX:pref_filled: 19135
CPLX:pref_useful: 4367
CPLX:pref_late: 3214
CPLX:misses: 94254
CPLX:misses_by_poll: 0

NL_L1: 
NL:times selected: 20802
NL:pref_filled: 658
NL:pref_useful: 290
NL:pref_late: 345
NL:misses: 1767
NL:misses_by_poll: 0

total selections: 2388572
total_filled: 93410
total_useful: 33036
total_late: 19507
total_polluted: 3
total_misses_after_warmup: 765787
conflicts: 5628502

test: 116803

DRAM Statistics
 CHANNEL 0
 RQ ROW_BUFFER_HIT:       9987  ROW_BUFFER_MISS:      16791
 DBUS_CONGESTED:         14
 WQ ROW_BUFFER_HIT:       1231  ROW_BUFFER_MISS:      11802  FULL:          0

 AVG_CONGESTED_CYCLE: 6

CPU 0 Branch Prediction Accuracy: 99.8223% MPKI: 0.32502 Average ROB Occupancy at Mispredict: 144.711
Branch types
NOT_BRANCH: 40852731 81.7055%
BRANCH_DIRECT_JUMP: 548746 1.09749%
BRANCH_INDIRECT: 183366 0.366732%
BRANCH_CONDITIONAL: 6185521 12.371%
BRANCH_DIRECT_CALL: 943397 1.88679%
BRANCH_INDIRECT_CALL: 171214 0.342428%
BRANCH_RETURN: 1114607 2.22921%
BRANCH_OTHER: 0 0%

DRAM PAGES: 1048576
Allocated PAGES: 2545
Average_ROB_Occupancy: 128.737
Average_Decode_Occupancy: 15.3473
Average_FTQ_Occupancy: 7.04084
Indirect max targets: 14 Average targets: 1.14527
Branch_type:  BRANCH_DIRECT_JUMP:  Count Percentage: 2.51394 6.83069 4.03621 9.36069 1.69652 6.29142 0.26767 69.0029 
Branch_type:  BRANCH_INDIRECT:  Count Percentage: 14.4773 0.804522 2.54797 0 1.33613 9.66983 2.27151 68.8927 
Branch_type:  BRANCH_CONDITIONAL:  Count Percentage: 21.2518 2.5784 1.75294 5.52861 1.27799 9.48575 3.57491 54.5496 
Branch_type:  BRANCH_DIRECT_CALL:  Count Percentage: 0.769916 1.30846 1.28201 4.55414 2.1969 2.54685 0.56934 86.7724 
Branch_type:  BRANCH_INDIRECT_CALL:  Count Percentage: 9.55435 0 2.99454 8.70743 0 2.3401 1.28496 75.1186 
Branch_type:  BRANCH_RETURN:  Count Percentage: 4.90626 0.785382 1.16408 6.19804 2.06156 9.62936 4.27705 70.9783 
Branch_type:  BRANCH_DIRECT_JUMP:  Total Count: 27556 74873 44242 102605 18596 68962 2934 756359 
Branch_type:  BRANCH_INDIRECT:  Total Count: 52995 2945 9327 0 4891 35397 8315 252186 
Branch_type:  BRANCH_CONDITIONAL:  Total Count: 2626633 318679 216656 683313 157954 1172398 441844 6742096 
Branch_type:  BRANCH_DIRECT_CALL:  Total Count: 14525 24685 24186 85917 41446 48048 10741 1637021 
Branch_type:  BRANCH_INDIRECT_CALL:  Total Count: 32761 0 10268 29857 0 8024 4406 257575 
Branch_type:  BRANCH_RETURN:  Total Count: 109422 17516 25962 138232 45978 214759 95389 1582995 
Number of unique branch instructions: 9824
Upper 32 bits: 
aaaa
ffff
ffff0000
Unique upper 32 bits: 3
Unique upper 36 bits: 3
Unique upper 40 bits: 5
Unique upper 44 bits: 32
Unique upper 48 bits: 154
Variant_0 : 1083 0.264404
Variant_1 : 2384 0.582031
Variant_2 : 0 0
Variant_3 : 0 0
Offset_3 4037
Offset_4 247
Offset_5 449
Offset_6 502
Offset_7 576
Offset_8 508
Offset_9 465
Offset_10 376
Offset_11 303
Offset_12 269
Offset_13 203
Offset_14 227
Offset_15 185
Offset_16 222
Offset_17 146
Offset_18 118
Offset_19 236
Offset_20 136
Offset_21 235
Offset_22 392
Offset_23 241
Offset_24 332
Offset_25 88
Offset_47 82
decode_dispatch_called: 19903708 45.5394
Dispatch_width: 0 9808250 49.2785 22.4411
Dispatch_width: 1 562788 2.82755 1.28765
Dispatch_width: 2 662425 3.32815 1.51562
Dispatch_width: 3 412223 2.07109 0.94316
Dispatch_width: 4 1783542 8.96085 4.08072
Dispatch_width: 5 305660 1.53569 0.699346
Dispatch_width: 6 6368820 31.9982 14.5718
Empty_decode_cycles: 23802867 54.4606
ROB_full_cycles: 2593345 5.93354
Starvation_cycles_per_kilo_instr: 347.444
Starvation_cycles_per_kilo_instr_3: 326.552
Starvation_cycles_per_kilo_instr_0: 310.178
Branch_type_1  (3,1)  (4,9)  (5,37)  (6,70)  (7,114)  (8,127)  (9,122)  (10,97)  (11,67)  (12,43)  (13,5)  (14,2)  (15,3)  (16,4)  (18,1)  (19,4)  (20,2)  (21,1)  (22,3)  (23,2)  (24,10)  (25,12) 
Branch_type_2  (3,1)  (5,1)  (8,3)  (9,3)  (12,1)  (13,1)  (14,1)  (16,3)  (17,2)  (20,2)  (21,2)  (23,5)  (24,1)  (47,38) 
Branch_type_3  (3,4035)  (4,238)  (5,407)  (6,417)  (7,433)  (8,319)  (9,257)  (10,153)  (11,120)  (12,50)  (13,4) 
Branch_type_4  (6,3)  (7,8)  (8,25)  (9,51)  (10,60)  (11,59)  (12,96)  (13,88)  (14,100)  (15,87)  (16,99)  (17,65)  (18,53)  (19,115)  (20,71)  (21,124)  (22,208)  (23,136)  (24,193)  (25,72) 
Branch_type_5  (8,2)  (9,1)  (10,3)  (11,5)  (12,3)  (13,14)  (14,16)  (15,11)  (16,20)  (17,11)  (18,16)  (19,12)  (20,10)  (21,13)  (22,42)  (23,26)  (24,37) 
Branch_type_6  (5,4)  (6,12)  (7,21)  (8,32)  (9,31)  (10,63)  (11,52)  (12,76)  (13,91)  (14,108)  (15,84)  (16,96)  (17,68)  (18,48)  (19,105)  (20,51)  (21,95)  (22,139)  (23,72)  (24,91)  (25,4)  (47,44) 
Unique trigger count: 
Variant_0_evicts_0 : 0
Variant_0_evicts_1 : 0
Variant_0_evicts_2 : 0
Variant_0_evicts_3 : 0
Variant_1_evicts_0 : 0
Variant_1_evicts_1 : 0
Variant_1_evicts_2 : 0
Variant_1_evicts_3 : 0
Variant_2_evicts_0 : 0
Variant_2_evicts_1 : 0
Variant_2_evicts_2 : 0
Variant_2_evicts_3 : 0
Variant_3_evicts_0 : 0
Variant_3_evicts_1 : 0
Variant_3_evicts_2 : 0
Variant_3_evicts_3 : 0
BTB PER SET UNIQUE ADDR: 4 7 6 4 3 3 7 9 10 2 5 2 8 5 4 4 6 4 7 8 4 8 7 8 8 11 1 7 6 5 9 10 6 3 7 4 4 6 7 3 7 5 6 9 9 7 6 11 11 6 5 3 13 2 2 7 5 5 8 8 4 10 5 8 6 9 7 7 5 7 6 2 6 4 6 7 6 13 5 4 9 6 7 6 7 8 7 8 8 10 10 8 9 6 6 4 10 7 4 6 8 5 9 9 4 8 6 8 7 5 7 4 4 8 6 11 3 7 6 2 7 8 4 2 6 4 4 6 10 5 10 3 11 4 8 5 5 2 6 8 8 7 6 6 3 10 4 8 10 6 7 11 6 10 4 8 6 8 6 10 9 6 10 5 9 5 3 4 12 5 5 3 7 6 3 2 5 5 9 4 6 6 9 7 6 10 5 6 6 8 5 8 6 6 6 10 10 3 10 5 4 6 9 3 8 4 5 7 6 2 3 6 9 9 6 6 4 9 8 6 6 2 6 6 6 8 13 7 2 9 14 9 4 2 6 8 9 5 3 4 5 3 9 7 14 10 2 5 5 5 8 10 6 6 5 12 4 6 9 5 8 5 7 4 9 14 6 4 7 5 7 6 4 8 10 7 5 3 4 8 7 4 10 5 9 9 7 7 8 4 5 7 4 10 6 4 6 10 5 6 6 6 4 4 6 5 6 4 11 9 6 3 8 3 6 4 8 14 7 3 6 10 5 7 5 5 5 9 3 2 7 2 6 7 10 4 6 6 7 1 5 6 2 8 6 6 3 6 8 4 4 9 8 6 8 6 7 2 7 5 6 9 6 8 10 8 4 3 4 4 7 4 6 5 7 4 11 6 5 10 9 7 6 12 6 4 8 5 5 3 9 5 8 4 7 3 5 6 2 9 6 4 7 5 5 6 8 5 5 3 4 4 10 4 2 5 8 4 2 6 2 5 5 7 10 6 4 2 4 8 4 4 15 5 8 10 6 6 6 3 4 6 8 4 6 8 4 7 5 3 6 3 4 1 9 3 4 7 9 5 5 4 6 10 5 5 10 3 6 6 2 6 8 8 5 3 9 5 2 3 5 2 3 4 3 7 8 3 6 2 9 4 5 8 2 11 4 7 5 4 11 3 3 3 2 5 5 3 2 6 7 3 5 9 3 3 2 10 5 8 6 5 7 4 11 8 4 9 9 7 5 6 4 8 4 7 4 1 6 4 4 8 9 3 8 5 9 12 12 11 5 8 7 7 2 6 8 3 5 3 11 4 8 4 5 5 9 7 9 7 7 3 9 11 6 7 6 10 3 9 12 5 1 6 4 3 3 13 8 6 7 8 3 5 4 5 6 5 4 4 9 5 9 9 8 5 4 9 8 5 8 6 7 5 8 4 7 5 5 7 8 6 9 3 5 9 7 8 4 6 8 7 6 6 7 4 5 4 5 3 10 8 4 5 2 3 6 6 8 6 8 4 10 3 5 2 9 5 6 8 11 3 6 11 8 8 7 5 5 10 7 6 6 6 11 9 6 6 8 6 7 11 8 6 8 8 7 8 8 6 3 7 2 4 4 6 10 7 7 6 3 10 4 5 6 9 3 4 5 5 7 7 6 5 5 7 9 6 1 8 4 3 5 3 4 1 4 9 2 11 7 9 7 2 6 7 6 3 6 4 4 8 5 10 4 3 5 3 5 6 6 3 5 6 2 5 4 10 9 4 4 6 6 7 7 6 14 5 6 3 9 6 0 5 7 5 6 10 3 3 7 5 4 6 10 9 9 6 3 8 3 9 5 6 6 12 11 4 5 4 12 4 8 3 7 6 7 9 5 6 3 4 6 3 4 6 1 5 4 10 6 4 9 4 5 4 5 3 6 6 7 3 7 4 10 5 4 4 6 4 5 4 6 5 4 8 8 5 5 4 8 7 6 8 5 10 7 4 7 5 6 7 4 4 14 5 5 8 9 8 4 6 6 10 7 2 2 5 7 4 5 6 5 6 9 5 7 4 4 7 8 3 5 7 6 3 9 10 4 3 12 8 5 5 8 6 5 10 6 8 11 6 4 3 2 7 4 3 7 6 8 6 10 6 8 8 7 4 5 10 5 4 10 10 5 8 10 10 2 9 8 8 4 4 6 7 9 6 7 3 9 2 13 8 3 5 9 11 6 9 5 6 11 5 3 8 10 8 8 4 2 5 3 8 10 5 7 5 4 7 11 6 4 6 5 6 4 3 8 6 8 7 7 11 5 9 6 11 5 6 3 4 6 4 7 6 7 4 5 5 8 3 9 5 10 5 9 4 3 6 10 6 13 5 
BTB PER SET COUNT: 4 7 7 4 4 3 8 1975 5387 3 5 2 1485 5 4 4 6 4 29 3429 4 8 9 86 4894 2640 1 7 1472 6 3926 1442 1473 3 9 4 2937 6 7 3 27 5 6 2725 2451 9 6 4834 3987 6 5 3 10274 2 2 1475 7 5 993 1820 4 2986 5 37 6 1247 396 22 5 742 740 2 6 4 6 7 496 6890 5 4 935 6 993 6 987 9 7 322 8071 2136 1736 508 2951 6 7 5 2213 7 4 6 18 5 19 3188 4 19 6 1971 1969 5 1964 5 4 1055 7 4594 3 7 6 2 7 26 4 2 498 6 4 6 7455 6 2004 3 8794 4 2954 5 6 2 6 1976 24 10 6 6 3 899 4 8 1189 2453 7 6509 6 10010 4 765 6 1971 6 1367 4772 7 4715 5 1001 2933 3 4 7341 5 5 3 11 143 4 2 5 495 2271 4 8 6 5408 7 6 6857 5 6 2932 16 5 3854 7 6 6 30 1001 3 22 5 4 7 11 4 10 4 5 3921 6 2 4 6 104 20 6 6 4 584 9 6 7 2 6 6 6 1979 5561 3237 2 3648 7749 987 4 2 13 2454 1969 5 3 4 7 3 6365 7 7348 3475 2 5 7 5 17 4047 6 6 5 3033 6 6 2491 5 2164 5 7 4 2215 6965 981 4 1974 5 1847 6 4 1964 1001 743 5 3 4 2461 7 4 1251 5 2708 3441 7 246 25 4 5 7 497 2476 2946 12 7 3775 5 6 6 7 4 4 6 5 8 4 4312 1605 9 3 2131 3 6 8 993 4145 1968 4 7 1586 6 7 5 5 5 1374 4 2 2211 2 6 8 5442 5 1481 6 7 1 5 6 2 2386 989 985 3 6 355 5 4 556 8 981 8 9 12 2 2194 47 6 912 7 2151 1033 1414 5 3 4 4 7 6 6 5 23 4 6108 6 6 2114 2462 2453 6 7431 7 4 41 5 5 3 1488 6 2453 6 8 5 1471 15 2 10 6 4 1474 5 761 6 2941 6 5 2812 6 4 1491 4 1466 5 164 4 2 1442 2 5 5 12 1006 6 6 2 4 541 145 4 6639 5 1703 2283 7 6 6 5 4 6 1410 4 10 22 4 1962 5 3 6 3 5 1 1497 3 4 8 533 6 984 4 16 662 35 5 3856 3 6 6 2 18 1926 501 285 3 25991 5 2 3 5 2 3 494 3 118 1728 396 6 2 1149 4 5 1236 2 5637 4 26 5 4 3709 13 3 3 2 5 5 3 2 6 12 4 5 24 4 3 2 11242 5 1427 7 1471 8 432 148 1964 4 994 1697 16 5 6 4 18 4 991 4 1 6 4 4 1967 27 5 25 5 61 2240 3090 7842 6 3943 10 8 2 6 1471 3 5 3 5317 6 1974 4 5 5 1004 11 1965 42 2201 5 2550 5417 1474 1476 6 5387 3 4647 10087 45 1 1473 1471 3 3 6477 16 6 7 2463 3 980 981 6 6 5 4 4 1841 6 4776 1128 10 2939 4 2936 8 5 2950 9 9 5 8 4 2326 7 5 7 12 1403 4420 3 1819 991 35 1976 9 1473 1478 1473 8 9 7 4 7 4 5 3 7343 748 4 5 2 3 7 6 722 8 12 4 8321 3 5 2 1959 5 1479 2949 12734 3 6 6362 8 1486 2948 988 24 1972 989 7 6 8 6741 3109 497 6 2418 6 7 6658 16 989 17609 1457 29 4413 1483 6 4 1229 2 4 4 6 6844 7 10 92 3 3064 4 5 308 4172 3 1471 5 1472 107 9 8 5 988 7 2405 1112 1 1966 4 3 5 3 4 1 4 1044 2 6395 1475 4017 984 2 8 8 6 3 6 4 5 509 5 8311 4 3 985 3 5 986 6 3 5 538 2 5 4 2373 6348 979 4 6 982 13 2928 6 9388 5 10 3 269 8 0 208 8 1474 6 2990 3 3 2459 6 4 6 1980 1850 1070 13 439 987 3 1791 5 8 208 7010 3140 4 5 4 4647 4 1724 5 1990 2448 9 22 5 9 3 4 6 488 8 8 2 5 6 3325 7 4 508 387 6 5 1464 3 1473 106 745 3 497 4 7869 5 4 4 6 4 408 4 6 1474 4 13 1010 5 5 6 3439 1537 6 9 5 9772 37 4 1478 16 6 7 4 4 8893 982 5 1983 3438 8 4 6 6 1537 7 2 5 5 7 4 5 6 5 6 3143 6 1479 4 4 7 12 3 7 9 6 3 19 4036 4 3 5142 2139 117 101 779 7 5 3468 6 543 1984 6 4 3 2 7 4 984 4903 1795 41 6 1973 6 1026 1554 8 4 5 1066 5 494 3925 1967 5 994 4867 2891 3 3437 418 9 4 979 6 1478 15 253 8 4 3798 2 7105 12 5 5 2053 8327 10 3434 5 497 7350 5 9 1056 44 749 939 4 2 5 3 380 2504 6 982 5 4 7 2724 8 494 10 5 7 4 3 19 6 3513 11 2456 3004 5 1500 6 5411 5 9 3 4 10 4 10 7 991 4 5 8 2959 3 7323 377 3082 5 1014 6 3 6 1523 6 3604 5 
To predecode: 0
Predecoding something: 0
Predecode request dropped: 0
sizeofblock_0 0
sizeofblock_1 225074
sizeofblock_2 346945
sizeofblock_3 0
sizeofblock_4 0
sizeofblock_5 0
sizeofblock_6 0
sizeofblock_7 0
sizeofblock_8 0
Variant_0 Correct: 0 Incorrect: 0 Accuracy: -nan
Variant_1 Correct: 0 Incorrect: 0 Accuracy: -nan
Variant_2 Correct: 0 Incorrect: 0 Accuracy: -nan
Variant_3 Correct: 0 Incorrect: 0 Accuracy: -nan
