
*** ChampSim Multicore Out-of-Order Simulator ***

Warmup Instructions: 50000000
Simulation Instructions: 50000000
Number of CPUs: 1
LLC sets: 2048
LLC ways: 16
Off-chip DRAM Size: 4096 MB Channels: 1 Width: 64-bit Data Rate: 6400 MT/s
CPU 0 runs ./micro_traces/srv344.trace.gz
.gz
ITLB has LRU replacement policy
DTLB has LRU replacement policy
STLB has LRU replacement policy
FDIP Prefetcher at L1I
L1I has LRU replacement policy
L1D has LRU replacement policy
Initialize SRRIP state for L2C
Initialize DRRIP state for LLC
Heartbeat_Variant_0 : 1125 0.274658 per_variant_size: 0 1125 0 0 0 0 0 0 0 
Heartbeat_Variant_1 : 1084 0.264648 per_variant_size: 0 508 576 0 0 0 0 0 0 
Heartbeat_Variant_2 : 982 0.239746 per_variant_size: 0 296 298 237 151 0 0 0 0 
Heartbeat_Variant_3 : 0 0 per_variant_size: 0 0 0 0 0 0 0 0 0 
Heartbeat_Variant_0_evicts 0 : 18206 1 : 7280 2 : 6999 3 : 0 
Heartbeat_Variant_1_evicts 0 : 7292 1 : 0 2 : 4377 3 : 0 
Heartbeat_Variant_2_evicts 0 : 6931 1 : 4253 2 : 0 3 : 0 
Heartbeat_Variant_3_evicts 0 : 0 1 : 0 2 : 0 3 : 0 
Heartbeat CPU 0 instructions: 10000001 cycles: 2795688 heartbeat IPC: 3.57694 cumulative IPC: 3.57694 (Simulation time: 0 hr 2 min 8 sec) 
Heartbeat_Variant_0 : 1154 0.281738 per_variant_size: 0 1154 0 0 0 0 0 0 0 
Heartbeat_Variant_1 : 1106 0.27002 per_variant_size: 0 509 597 0 0 0 0 0 0 
Heartbeat_Variant_2 : 987 0.240967 per_variant_size: 0 281 297 240 169 0 0 0 0 
Heartbeat_Variant_3 : 0 0 per_variant_size: 0 0 0 0 0 0 0 0 0 
Heartbeat_Variant_0_evicts 0 : 18419 1 : 7438 2 : 6972 3 : 0 
Heartbeat_Variant_1_evicts 0 : 7407 1 : 0 2 : 4255 3 : 0 
Heartbeat_Variant_2_evicts 0 : 6989 1 : 4222 2 : 0 3 : 0 
Heartbeat_Variant_3_evicts 0 : 0 1 : 0 2 : 0 3 : 0 
Heartbeat CPU 0 instructions: 20000001 cycles: 5591375 heartbeat IPC: 3.57694 cumulative IPC: 3.57694 (Simulation time: 0 hr 4 min 6 sec) 
Heartbeat_Variant_0 : 1175 0.286865 per_variant_size: 0 1175 0 0 0 0 0 0 0 
Heartbeat_Variant_1 : 1174 0.286621 per_variant_size: 0 509 665 0 0 0 0 0 0 
Heartbeat_Variant_2 : 1012 0.24707 per_variant_size: 0 263 296 250 203 0 0 0 0 
Heartbeat_Variant_3 : 0 0 per_variant_size: 0 0 0 0 0 0 0 0 0 
Heartbeat_Variant_0_evicts 0 : 18612 1 : 7572 2 : 7059 3 : 0 
Heartbeat_Variant_1_evicts 0 : 7485 1 : 0 2 : 4349 3 : 0 
Heartbeat_Variant_2_evicts 0 : 7154 1 : 4236 2 : 0 3 : 0 
Heartbeat_Variant_3_evicts 0 : 0 1 : 0 2 : 0 3 : 0 
Heartbeat CPU 0 instructions: 30000001 cycles: 8386595 heartbeat IPC: 3.57754 cumulative IPC: 3.57714 (Simulation time: 0 hr 5 min 56 sec) 
Heartbeat_Variant_0 : 1169 0.2854 per_variant_size: 0 1169 0 0 0 0 0 0 0 
Heartbeat_Variant_1 : 1182 0.288574 per_variant_size: 0 510 672 0 0 0 0 0 0 
Heartbeat_Variant_2 : 1011 0.246826 per_variant_size: 0 262 294 250 205 0 0 0 0 
Heartbeat_Variant_3 : 0 0 per_variant_size: 0 0 0 0 0 0 0 0 0 
Heartbeat_Variant_0_evicts 0 : 18280 1 : 7550 2 : 6937 3 : 0 
Heartbeat_Variant_1_evicts 0 : 7483 1 : 0 2 : 4257 3 : 0 
Heartbeat_Variant_2_evicts 0 : 7010 1 : 4183 2 : 0 3 : 0 
Heartbeat_Variant_3_evicts 0 : 0 1 : 0 2 : 0 3 : 0 
Heartbeat CPU 0 instructions: 40000000 cycles: 11181954 heartbeat IPC: 3.57736 cumulative IPC: 3.57719 (Simulation time: 0 hr 7 min 52 sec) 
Heartbeat_Variant_0 : 1176 0.287109 per_variant_size: 0 1176 0 0 0 0 0 0 0 
Heartbeat_Variant_1 : 1173 0.286377 per_variant_size: 0 503 670 0 0 0 0 0 0 
Heartbeat_Variant_2 : 1013 0.247314 per_variant_size: 0 263 292 257 201 0 0 0 0 
Heartbeat_Variant_3 : 0 0 per_variant_size: 0 0 0 0 0 0 0 0 0 
Heartbeat_Variant_0_evicts 0 : 18735 1 : 7793 2 : 7147 3 : 0 
Heartbeat_Variant_1_evicts 0 : 7699 1 : 0 2 : 4336 3 : 0 
Heartbeat_Variant_2_evicts 0 : 7234 1 : 4251 2 : 0 3 : 0 
Heartbeat_Variant_3_evicts 0 : 0 1 : 0 2 : 0 3 : 0 
Heartbeat CPU 0 instructions: 50000002 cycles: 13978087 heartbeat IPC: 3.57637 cumulative IPC: 3.57703 (Simulation time: 0 hr 9 min 54 sec) 

Warmup complete CPU 0 instructions: 50000002 cycles: 13978087 (Simulation time: 0 hr 9 min 54 sec) 

Cycle: 20000000 FTQ IN: 56657415 FTQ occupancy: 18.0853 DECODE IN: 56657408 DECODE occupancy: 46.2218 ROB IN: 56657401 ROB occupancy: 279.583 ROB OUT: 56657396
*** Reached end of trace for Core: 0 Repeating trace: ./micro_traces/srv344.trace.gz
Heartbeat_Variant_0 : 1178 0.287598 per_variant_size: 0 1178 0 0 0 0 0 0 0 
Heartbeat_Variant_1 : 1174 0.286621 per_variant_size: 0 503 671 0 0 0 0 0 0 
Heartbeat_Variant_2 : 1012 0.24707 per_variant_size: 0 262 291 255 204 0 0 0 0 
Heartbeat_Variant_3 : 0 0 per_variant_size: 0 0 0 0 0 0 0 0 0 
Heartbeat_Variant_0_evicts 0 : 18058 1 : 7329 2 : 6827 3 : 0 
Heartbeat_Variant_1_evicts 0 : 7234 1 : 0 2 : 4164 3 : 0 
Heartbeat_Variant_2_evicts 0 : 6920 1 : 4069 2 : 0 3 : 0 
Heartbeat_Variant_3_evicts 0 : 0 1 : 0 2 : 0 3 : 0 
Heartbeat CPU 0 instructions: 60000000 cycles: 22933891 heartbeat IPC: 1.11659 cumulative IPC: 1.11659 (Simulation time: 0 hr 11 min 37 sec) 
Cycle: 30000000 FTQ IN: 11387741 FTQ occupancy: 6.5452 DECODE IN: 11387668 DECODE occupancy: 13.9539 ROB IN: 11387675 ROB occupancy: 119.32 ROB OUT: 11387601
Heartbeat_Variant_0 : 1180 0.288086 per_variant_size: 0 1180 0 0 0 0 0 0 0 
Heartbeat_Variant_1 : 1173 0.286377 per_variant_size: 0 500 673 0 0 0 0 0 0 
Heartbeat_Variant_2 : 1011 0.246826 per_variant_size: 0 261 292 257 201 0 0 0 0 
Heartbeat_Variant_3 : 0 0 per_variant_size: 0 0 0 0 0 0 0 0 0 
Heartbeat_Variant_0_evicts 0 : 18392 1 : 7303 2 : 7050 3 : 0 
Heartbeat_Variant_1_evicts 0 : 7313 1 : 0 2 : 4193 3 : 0 
Heartbeat_Variant_2_evicts 0 : 7038 1 : 4204 2 : 0 3 : 0 
Heartbeat_Variant_3_evicts 0 : 0 1 : 0 2 : 0 3 : 0 
Heartbeat CPU 0 instructions: 70000003 cycles: 31712585 heartbeat IPC: 1.13912 cumulative IPC: 1.12775 (Simulation time: 0 hr 13 min 25 sec) 
Cycle: 40000000 FTQ IN: 11197452 FTQ occupancy: 6.704 DECODE IN: 11197507 DECODE occupancy: 14.259 ROB IN: 11197473 ROB occupancy: 119.285 ROB OUT: 11197516
Heartbeat_Variant_0 : 1190 0.290527 per_variant_size: 0 1190 0 0 0 0 0 0 0 
Heartbeat_Variant_1 : 1159 0.282959 per_variant_size: 0 483 676 0 0 0 0 0 0 
Heartbeat_Variant_2 : 1015 0.247803 per_variant_size: 0 258 301 251 205 0 0 0 0 
Heartbeat_Variant_3 : 0 0 per_variant_size: 0 0 0 0 0 0 0 0 0 
Heartbeat_Variant_0_evicts 0 : 18396 1 : 7356 2 : 6972 3 : 0 
Heartbeat_Variant_1_evicts 0 : 7271 1 : 0 2 : 4214 3 : 0 
Heartbeat_Variant_2_evicts 0 : 7047 1 : 4143 2 : 0 3 : 0 
Heartbeat_Variant_3_evicts 0 : 0 1 : 0 2 : 0 3 : 0 
Heartbeat CPU 0 instructions: 80000003 cycles: 40666304 heartbeat IPC: 1.11685 cumulative IPC: 1.12409 (Simulation time: 0 hr 15 min 18 sec) 
Heartbeat_Variant_0 : 1196 0.291992 per_variant_size: 0 1196 0 0 0 0 0 0 0 
Heartbeat_Variant_1 : 1154 0.281738 per_variant_size: 0 485 669 0 0 0 0 0 0 
Heartbeat_Variant_2 : 1014 0.247559 per_variant_size: 0 257 296 247 214 0 0 0 0 
Heartbeat_Variant_3 : 0 0 per_variant_size: 0 0 0 0 0 0 0 0 0 
Heartbeat_Variant_0_evicts 0 : 18654 1 : 7575 2 : 7119 3 : 0 
Heartbeat_Variant_1_evicts 0 : 7470 1 : 0 2 : 4307 3 : 0 
Heartbeat_Variant_2_evicts 0 : 7218 1 : 4207 2 : 0 3 : 0 
Heartbeat_Variant_3_evicts 0 : 0 1 : 0 2 : 0 3 : 0 
Heartbeat CPU 0 instructions: 90000001 cycles: 49525120 heartbeat IPC: 1.12882 cumulative IPC: 1.12527 (Simulation time: 0 hr 17 min 9 sec) 
Cycle: 50000000 FTQ IN: 11297757 FTQ occupancy: 6.48993 DECODE IN: 11297777 DECODE occupancy: 13.7805 ROB IN: 11297804 ROB occupancy: 116.009 ROB OUT: 11297723
Heartbeat_Variant_0 : 1189 0.290283 per_variant_size: 0 1189 0 0 0 0 0 0 0 
Heartbeat_Variant_1 : 1163 0.283936 per_variant_size: 0 502 661 0 0 0 0 0 0 
Heartbeat_Variant_2 : 1012 0.24707 per_variant_size: 0 260 295 253 204 0 0 0 0 
Heartbeat_Variant_3 : 0 0 per_variant_size: 0 0 0 0 0 0 0 0 0 
Heartbeat_Variant_0_evicts 0 : 18354 1 : 7465 2 : 6977 3 : 0 
Heartbeat_Variant_1_evicts 0 : 7366 1 : 0 2 : 4230 3 : 0 
Heartbeat_Variant_2_evicts 0 : 7083 1 : 4122 2 : 0 3 : 0 
Heartbeat_Variant_3_evicts 0 : 0 1 : 0 2 : 0 3 : 0 
Heartbeat CPU 0 instructions: 100000000 cycles: 58450947 heartbeat IPC: 1.12034 cumulative IPC: 1.12428 (Simulation time: 0 hr 18 min 52 sec) 
Finished CPU 0 instructions: 50000002 cycles: 44472861 cumulative IPC: 1.12428 (Simulation time: 0 hr 18 min 52 sec) 

ChampSim completed all CPUs

Region of Interest Statistics

CPU 0 cumulative IPC: 1.12428 instructions: 50000002 cycles: 44472861
 Fetch stage stalled: 70.9775  Sim cycles: 44472861 fetch stall cycle: 31565721
 Empty decode stage: 63.9003  Sim cycles: 44472861 fetch stall cycle: 28418280
ITLB TOTAL     ACCESS:    5769039  HIT:    5281158  MISS:     487881  HIT %:    91.5431  MISS %:    8.45689   MPKI: 9.75762
ITLB LOAD TRANSLATION INSTRUCTION	ACCESS:    5670462  HIT:    5182581  MISS:     487881  HIT %:    91.3961  MISS %:     8.6039  MPKI: 9.75762
ITLB TRANSLATION FROM L1D PREFETCHER INSTRUCTION	ACCESS:      98577  HIT:      98577  MISS:          0  HIT %:        100  MISS %:          0  MPKI: 0

ITLB AVERAGE MISS LATENCY: 9.04619 cycles
ITLB RQ	ACCESS:    7581692	FORWARD:          0	MERGED:    1385579	TO_CACHE:    6196113

DTLB TOTAL     ACCESS:    9309159  HIT:    8835804  MISS:     473355  HIT %:    94.9152  MISS %:    5.08483   MPKI: 9.4671
DTLB LOAD TRANSLATION DATA	ACCESS:    9309159  HIT:    8835804  MISS:     473355  HIT %:    94.9152  MISS %:    5.08483  MPKI: 9.4671

DTLB AVERAGE MISS LATENCY: 9.28009 cycles
DTLB RQ	ACCESS:   13579216	FORWARD:          0	MERGED:    4236861	TO_CACHE:    9342355

STLB TOTAL     ACCESS:    1218728  HIT:    1216615  MISS:       2113  HIT %:    99.8266  MISS %:   0.173377   MPKI: 0.04226
STLB LOAD TRANSLATION INSTRUCTION	ACCESS:     487881  HIT:     487609  MISS:        272  HIT %:    99.9442  MISS %:  0.0557513  MPKI: 0.00544
STLB LOAD TRANSLATION DATA	ACCESS:     473114  HIT:     471285  MISS:       1829  HIT %:    99.6134  MISS %:   0.386588  MPKI: 0.03658
STLB TRANSLATION FROM L1D PREFETCHER DATA	ACCESS:     257733  HIT:     257721  MISS:         12  HIT %:    99.9953  MISS %: 0.00465598  MPKI: 0.00024

STLB AVERAGE MISS LATENCY: 61.9678 cycles
STLB RQ	ACCESS:    1364535	FORWARD:          0	MERGED:     145772	TO_CACHE:    1218763

STLB Hit, L1D data hit: 0
STLB Hit, L2C data hit: 0
STLB Hit, LLC data hit: 0
STLB Hit, LLC data miss: 0
STLB STLB hints to L2: 0
L1D TOTAL     ACCESS:   13348343  HIT:   12192576  MISS:    1155767  HIT %:    91.3415  MISS %:    8.65851   MPKI: 23.1153
L1D LOAD DATA	ACCESS:    6815462  HIT:    6055374  MISS:     760088  HIT %:    88.8476  MISS %:    11.1524  MPKI: 15.2018
L1D RFO DATA	ACCESS:    6194046  HIT:    5903524  MISS:     290522  HIT %:    95.3097  MISS %:    4.69034  MPKI: 5.81044
L1D PREFETCH DATA	ACCESS:     338835  HIT:     233678  MISS:     105157  HIT %:    68.9651  MISS %:    31.0349  MPKI: 2.10314

L1D PREFETCH  REQUESTED:     806906  ISSUED:     806906  USEFUL:      49159  USELESS:      69038
L1D USEFUL LOAD PREFETCHES:      49159 PREFETCH ISSUED TO LOWER LEVEL:     118282  ACCURACY: 41.5608
 TIMELY PREFETCHES:      49159 LATE PREFETCHES: 13048 DROPPED PREFETCHES: 1
L1D AVERAGE MISS LATENCY: 403621 cycles
L1D RQ	ACCESS:   10891150	FORWARD:          0	MERGED:    3883821	TO_CACHE:    6847241
L1D WQ	ACCESS:    6901340	FORWARD:     160396	MERGED:     169365	TO_CACHE:    6731975
L1D PQ	ACCESS:     403607	FORWARD:          0	MERGED:          0	TO_CACHE:     403299

L1D UNIQUE REGIONS ACCESSED: 0
L1D REGIONS CONFLICTS: 0
L1D Cross Page Prefetch Requests: 5996
L1D Same Page Prefetch Requests: 816076
L1D ROI Sum of L1D PQ occupancy: 5130415
L1D PREFETCHES PUSHED FROM L2C: 0
L1I TOTAL     ACCESS:    7079060  HIT:    4340277  MISS:    2738783  HIT %:    61.3115  MISS %:    38.6885   MPKI: 54.7757
L1I LOAD INSTRUCTION	ACCESS:    6568514  HIT:    3829731  MISS:    2738783  HIT %:    58.3044  MISS %:    41.6956  MPKI: 54.7757
L1I PREFETCH INSTRUCTION	ACCESS:     510546  HIT:     510546  MISS:          0  HIT %:        100  MISS %:          0  MPKI: 0

L1I PREFETCH  REQUESTED:    1082443  ISSUED:    1082443  USEFUL:          0  USELESS:          0
L1I USEFUL LOAD PREFETCHES:          0 PREFETCH ISSUED TO LOWER LEVEL:          0  ACCURACY: -nan
 TIMELY PREFETCHES:          0 LATE PREFETCHES: 0 DROPPED PREFETCHES: 0
L1I AVERAGE MISS LATENCY: 17.0952 cycles
L1I RQ	ACCESS:    9455681	FORWARD:          0	MERGED:    2648812	TO_CACHE:    6806869
L1I PQ	ACCESS:    1082443	FORWARD:          0	MERGED:     307620	TO_CACHE:     774823

L1BTB TOTAL     ACCESS:    5677689  HIT:    2081476  MISS:    3596213  HIT %:    36.6606  MISS %:    63.3394   MPKI: 71.9243
L1BTB BRANCH_DIRECT_JUMP	ACCESS:     544284  HIT:     144587  MISS:     399697	AVERAGE STALL: 35.9543
L1BTB BRANCH_INDIRECT	ACCESS:     181794  HIT:      65712  MISS:     116082	AVERAGE STALL: 83.023
L1BTB BRANCH_CONDITIONAL	ACCESS:    2739309  HIT:    1457007  MISS:    1282302	AVERAGE STALL: 35.9742
L1BTB BRANCH_DIRECT_CALL	ACCESS:     936019  HIT:     103923  MISS:     832096	AVERAGE STALL: 36.35
L1BTB BRANCH_INDIRECT_CALL	ACCESS:     170134  HIT:      21118  MISS:     149016	AVERAGE STALL: 105.385
L1BTB BRANCH_RETURN	ACCESS:    1106149  HIT:     289129  MISS:     817020	AVERAGE STALL: 36.4872
L1BTB BRANCH_OTHER ACCESS:          0  HIT:          0  MISS:          0	AVERAGE STALL: -nan
L1BTB TOTAL ROB OCCUPANCY AT BTB MISS: 12.8661

L2BTB TOTAL     ACCESS:    3571117  HIT:    3109011  MISS:     462106  HIT %:    87.0599  MISS %:    12.9401   MPKI: 9.24212
L2BTB BRANCH_DIRECT_JUMP	ACCESS:     395525  HIT:     352238  MISS:      43287	AVERAGE STALL: 35.9543
L2BTB BRANCH_INDIRECT	ACCESS:     105885  HIT:      98695  MISS:       7190	AVERAGE STALL: 83.023
L2BTB BRANCH_CONDITIONAL	ACCESS:    1282302  HIT:    1132732  MISS:     149570	AVERAGE STALL: 35.9742
L2BTB BRANCH_DIRECT_CALL	ACCESS:     832096  HIT:     693325  MISS:     138771	AVERAGE STALL: 36.35
L2BTB BRANCH_INDIRECT_CALL	ACCESS:     139497  HIT:     110925  MISS:      28572	AVERAGE STALL: 105.385
L2BTB BRANCH_RETURN	ACCESS:     815812  HIT:     721096  MISS:      94716	AVERAGE STALL: 36.4872
L2BTB BRANCH_OTHER ACCESS:          0  HIT:          0  MISS:          0	AVERAGE STALL: -nan
L2BTB TOTAL ROB OCCUPANCY AT BTB MISS: 100.127

L2C TOTAL     ACCESS:    4510082  HIT:    4013212  MISS:     496870  HIT %:    88.9831  MISS %:    11.0169   MPKI: 9.9374
L2C LOAD INSTRUCTION	ACCESS:    2738782  HIT:    2488587  MISS:     250195  HIT %:    90.8647  MISS %:    9.13527  MPKI: 5.0039
L2C LOAD TRANSLATION INSTRUCTION	ACCESS:        315  HIT:         78  MISS:        237  HIT %:    24.7619  MISS %:    75.2381  MPKI: 0.00474
L2C LOAD DATA	ACCESS:     747014  HIT:     661733  MISS:      85281  HIT %:    88.5837  MISS %:    11.4163  MPKI: 1.70562
L2C RFO DATA	ACCESS:     290423  HIT:     232200  MISS:      58223  HIT %:    79.9523  MISS %:    20.0477  MPKI: 1.16446
L2C PREFETCH DATA	ACCESS:     207017  HIT:     121629  MISS:      85388  HIT %:    58.7531  MISS %:    41.2469  MPKI: 1.70776
L2C WRITEBACK DATA	ACCESS:     524606  HIT:     508551  MISS:      16055  HIT %:    96.9396  MISS %:    3.06039  MPKI: 0.3211
L2C LOAD TRANSLATION DATA	ACCESS:       1899  HIT:        416  MISS:       1483  HIT %:    21.9063  MISS %:    78.0937  MPKI: 0.02966
L2C TRANSLATION FROM L1D PREFETCHER DATA	ACCESS:         26  HIT:         18  MISS:          8  HIT %:    69.2308  MISS %:    30.7692  MPKI: 0.00016

L2C PREFETCH  REQUESTED:      96217  ISSUED:      96217  USEFUL:       9441  USELESS:      76480
L2C USEFUL LOAD PREFETCHES:       9441 PREFETCH ISSUED TO LOWER LEVEL:      85889  ACCURACY: 10.9921
 TIMELY PREFETCHES:       9441 LATE PREFETCHES: 501 DROPPED PREFETCHES: 0
L2C AVERAGE MISS LATENCY: 37.2146 cycles
L2C RQ	ACCESS:    3778507	FORWARD:          0	MERGED:          0	TO_CACHE:    3778459
L2C WQ	ACCESS:     524606	FORWARD:         48	MERGED:          0	TO_CACHE:     524606
L2C PQ	ACCESS:     214499	FORWARD:          0	MERGED:       3724	TO_CACHE:     210775

L2C Dense regions hint from L2: 0
PSCL5 TOTAL     ACCESS:       4228  HIT:       2114  MISS:       2114  HIT %:         50  MISS %:         50   MPKI: 0.04228
PSCL5 LOAD TRANSLATION INSTRUCTION	ACCESS:       4176  HIT:       2088  MISS:       2088  HIT %:         50  MISS %:         50  MPKI: 0.04176
PSCL5 TRANSLATION FROM L1D PREFETCHER INSTRUCTION	ACCESS:         52  HIT:         26  MISS:         26  HIT %:         50  MISS %:         50  MPKI: 0.00052


PSCL4 TOTAL     ACCESS:       3973  HIT:       1984  MISS:       1989  HIT %:    49.9371  MISS %:    50.0629   MPKI: 0.03978
PSCL4 LOAD TRANSLATION INSTRUCTION	ACCESS:       3665  HIT:       1959  MISS:       1706  HIT %:    53.4516  MISS %:    46.5484  MPKI: 0.03412
PSCL4 TRANSLATION FROM L1D PREFETCHER INSTRUCTION	ACCESS:         50  HIT:         25  MISS:         25  HIT %:         50  MISS %:         50  MPKI: 0.0005
PSCL4 LOAD TRANSLATION DATA	ACCESS:        258  HIT:          0  MISS:        258  HIT %:          0  MISS %:        100  MPKI: 0.00516


PSCL3 TOTAL     ACCESS:       3977  HIT:       1986  MISS:       1991  HIT %:    49.9371  MISS %:    50.0629   MPKI: 0.03982
PSCL3 LOAD TRANSLATION INSTRUCTION	ACCESS:       3667  HIT:       1961  MISS:       1706  HIT %:     53.477  MISS %:     46.523  MPKI: 0.03412
PSCL3 TRANSLATION FROM L1D PREFETCHER INSTRUCTION	ACCESS:         50  HIT:         25  MISS:         25  HIT %:         50  MISS %:         50  MPKI: 0.0005
PSCL3 LOAD TRANSLATION DATA	ACCESS:        260  HIT:          0  MISS:        260  HIT %:          0  MISS %:        100  MPKI: 0.0052


PSCL2 TOTAL     ACCESS:       4111  HIT:       1997  MISS:       2114  HIT %:     48.577  MISS %:     51.423   MPKI: 0.04228
PSCL2 LOAD TRANSLATION INSTRUCTION	ACCESS:       2249  HIT:       1971  MISS:        278  HIT %:     87.639  MISS %:     12.361  MPKI: 0.00556
PSCL2 TRANSLATION FROM L1D PREFETCHER INSTRUCTION	ACCESS:         26  HIT:         26  MISS:          0  HIT %:        100  MISS %:          0  MPKI: 0
PSCL2 LOAD TRANSLATION DATA	ACCESS:       1810  HIT:          0  MISS:       1810  HIT %:          0  MISS %:        100  MPKI: 0.0362
PSCL2 TRANSLATION FROM L1D PREFETCHER DATA	ACCESS:         26  HIT:          0  MISS:         26  HIT %:          0  MISS %:        100  MPKI: 0.00052


LLC TOTAL     ACCESS:     564341  HIT:     539802  MISS:      24539  HIT %:    95.6517  MISS %:    4.34826   MPKI: 0.49078
LLC LOAD INSTRUCTION	ACCESS:     250195  HIT:     249227  MISS:        968  HIT %:    99.6131  MISS %:   0.386898  MPKI: 0.01936
LLC LOAD TRANSLATION INSTRUCTION	ACCESS:        237  HIT:        207  MISS:         30  HIT %:    87.3418  MISS %:    12.6582  MPKI: 0.0006
LLC LOAD DATA	ACCESS:      84789  HIT:      81701  MISS:       3088  HIT %:     96.358  MISS %:    3.64198  MPKI: 0.06176
LLC RFO DATA	ACCESS:      58209  HIT:      47309  MISS:      10900  HIT %:    81.2744  MISS %:    18.7256  MPKI: 0.218
LLC PREFETCH DATA	ACCESS:      85889  HIT:      76683  MISS:       9206  HIT %:    89.2815  MISS %:    10.7185  MPKI: 0.18412
LLC WRITEBACK DATA	ACCESS:      83531  HIT:      83266  MISS:        265  HIT %:    99.6828  MISS %:   0.317247  MPKI: 0.0053
LLC LOAD TRANSLATION DATA	ACCESS:       1483  HIT:       1401  MISS:         82  HIT %:    94.4707  MISS %:    5.52933  MPKI: 0.00164
LLC TRANSLATION FROM L1D PREFETCHER DATA	ACCESS:          8  HIT:          8  MISS:          0  HIT %:        100  MISS %:          0  MPKI: 0

LLC AVERAGE MISS LATENCY: 165.472 cycles
LLC RQ	ACCESS:     394926	FORWARD:          0	MERGED:          0	TO_CACHE:     394921
LLC WQ	ACCESS:      83531	FORWARD:          5	MERGED:          0	TO_CACHE:      83531
LLC PQ	ACCESS:      85889	FORWARD:          0	MERGED:          0	TO_CACHE:      85889

LLC Dense regions hint to LLC: 0

RAW hits: 1724667
Loads Generated: 12615818
Loads sent to L1D: 10891150
Stores Generated: 6901322
Stores sent to L1D: 6901340
Major fault: 0 Minor fault: 2256
Allocated PAGES: 2256

stream: 
stream:times selected: 1263908
stream:pref_filled: 124967
stream:pref_useful: 28417
stream:pref_late: 9286
stream:misses: 10655
stream:misses_by_poll: 0

CS: 
CS:times selected: 199038
CS:pref_filled: 74016
CS:pref_useful: 50724
CS:pref_late: 9462
CS:misses: 24485
CS:misses_by_poll: 2

CPLX: 
CPLX:times selected: 1063733
CPLX:pref_filled: 24729
CPLX:pref_useful: 7601
CPLX:pref_late: 3611
CPLX:misses: 129143
CPLX:misses_by_poll: 1

NL_L1: 
NL:times selected: 13168
NL:pref_filled: 1051
NL:pref_useful: 275
NL:pref_late: 516
NL:misses: 2089
NL:misses_by_poll: 0

total selections: 2539847
total_filled: 105157
total_useful: 49159
total_late: 25057
total_polluted: 3
total_misses_after_warmup: 791869
conflicts: 5604862

test: 120992

DRAM Statistics
 CHANNEL 0
 RQ ROW_BUFFER_HIT:       8502  ROW_BUFFER_MISS:      15755
 DBUS_CONGESTED:          7
 WQ ROW_BUFFER_HIT:       1346  ROW_BUFFER_MISS:      10209  FULL:          0

 AVG_CONGESTED_CYCLE: 4

CPU 0 Branch Prediction Accuracy: 99.822% MPKI: 0.32584 Average ROB Occupancy at Mispredict: 138.112
Branch types
NOT_BRANCH: 40848554 81.6971%
BRANCH_DIRECT_JUMP: 544284 1.08857%
BRANCH_INDIRECT: 181794 0.363588%
BRANCH_CONDITIONAL: 6212961 12.4259%
BRANCH_DIRECT_CALL: 936019 1.87204%
BRANCH_INDIRECT_CALL: 170134 0.340268%
BRANCH_RETURN: 1106149 2.2123%
BRANCH_OTHER: 0 0%

DRAM PAGES: 1048576
Allocated PAGES: 2256
Average_ROB_Occupancy: 119.436
Average_Decode_Occupancy: 14.0297
Average_FTQ_Occupancy: 6.60224
Indirect max targets: 14 Average targets: 1.14966
Branch_type:  BRANCH_DIRECT_JUMP:  Count Percentage: 3.69274 6.211 3.82575 8.48133 2.41593 6.34667 1.90805 67.1185 
Branch_type:  BRANCH_INDIRECT:  Count Percentage: 11.7499 3.39815 2.62879 9.70296 3.33225 2.7971 1.72626 64.6646 
Branch_type:  BRANCH_CONDITIONAL:  Count Percentage: 22.3497 5.96069 2.06507 5.00982 5.80974 3.9088 2.68616 52.21 
Branch_type:  BRANCH_DIRECT_CALL:  Count Percentage: 0.832199 1.22235 0.766709 4.50146 2.37922 2.8679 4.34852 83.0816 
Branch_type:  BRANCH_INDIRECT_CALL:  Count Percentage: 9.51523 0 2.98157 4.58775 0.000883166 2.36512 3.84148 76.708 
Branch_type:  BRANCH_RETURN:  Count Percentage: 4.61022 3.87855 2.00544 4.49133 7.15218 4.0406 3.7665 70.0552 
Branch_type:  BRANCH_DIRECT_JUMP:  Total Count: 40201 67616 41649 92332 26301 69093 20772 730686 
Branch_type:  BRANCH_INDIRECT:  Total Count: 42793 12376 9574 35338 12136 10187 6287 235507 
Branch_type:  BRANCH_CONDITIONAL:  Total Count: 2776641 740534 256556 622401 721780 485615 333719 6486377 
Branch_type:  BRANCH_DIRECT_CALL:  Total Count: 15541 22827 14318 84063 44431 53557 81207 1551518 
Branch_type:  BRANCH_INDIRECT_CALL:  Total Count: 32322 0 10128 15584 3 8034 13049 260567 
Branch_type:  BRANCH_RETURN:  Total Count: 101791 85636 44279 99166 157916 89214 83162 1546777 
Number of unique branch instructions: 10002
Upper 32 bits: 
aaaa
ffff
ffff0000
Unique upper 32 bits: 3
Unique upper 36 bits: 3
Unique upper 40 bits: 5
Unique upper 44 bits: 32
Unique upper 48 bits: 154
Variant_0 : 1189 0.290283
Variant_1 : 1163 0.283936
Variant_2 : 1012 0.24707
Variant_3 : 0 0
Offset_3 4142
Offset_4 247
Offset_5 449
Offset_6 516
Offset_7 592
Offset_8 516
Offset_9 468
Offset_10 395
Offset_11 327
Offset_12 266
Offset_13 198
Offset_14 225
Offset_15 190
Offset_16 230
Offset_17 150
Offset_18 129
Offset_19 240
Offset_20 137
Offset_21 235
Offset_22 399
Offset_23 241
Offset_24 329
Offset_25 88
Offset_47 80
decode_dispatch_called: 20492232 46.0781
Dispatch_width: 0 10441375 50.9528 23.4781
Dispatch_width: 1 566265 2.76332 1.27328
Dispatch_width: 2 654917 3.19593 1.47262
Dispatch_width: 3 461476 2.25196 1.03766
Dispatch_width: 4 1557001 7.59801 3.50101
Dispatch_width: 5 355717 1.73586 0.799852
Dispatch_width: 6 6455481 31.5021 14.5156
Empty_decode_cycles: 23980629 53.9219
ROB_full_cycles: 2120618 4.76834
Starvation_cycles_per_kilo_instr: 358.968
Starvation_cycles_per_kilo_instr_3: 339.84
Starvation_cycles_per_kilo_instr_0: 323.014
Branch_type_1  (3,1)  (4,7)  (5,36)  (6,75)  (7,117)  (8,127)  (9,125)  (10,101)  (11,78)  (12,43)  (13,7)  (14,2)  (15,3)  (16,4)  (18,1)  (19,4)  (20,2)  (21,1)  (22,3)  (23,2)  (24,10)  (25,12) 
Branch_type_2  (3,1)  (5,1)  (8,3)  (9,3)  (12,1)  (13,1)  (14,1)  (16,3)  (17,2)  (20,2)  (21,2)  (23,5)  (24,1)  (47,36) 
Branch_type_3  (3,4140)  (4,240)  (5,408)  (6,425)  (7,443)  (8,326)  (9,257)  (10,165)  (11,136)  (12,49)  (13,7) 
Branch_type_4  (6,4)  (7,8)  (8,26)  (9,51)  (10,61)  (11,57)  (12,96)  (13,83)  (14,99)  (15,91)  (16,105)  (17,66)  (18,59)  (19,117)  (20,71)  (21,124)  (22,214)  (23,136)  (24,190)  (25,72) 
Branch_type_5  (8,2)  (9,1)  (10,3)  (11,5)  (12,3)  (13,13)  (14,16)  (15,11)  (16,20)  (17,13)  (18,16)  (19,12)  (20,10)  (21,13)  (22,42)  (23,26)  (24,36) 
Branch_type_6  (5,4)  (6,12)  (7,24)  (8,32)  (9,31)  (10,65)  (11,51)  (12,74)  (13,87)  (14,107)  (15,85)  (16,98)  (17,69)  (18,53)  (19,107)  (20,52)  (21,95)  (22,140)  (23,72)  (24,92)  (25,4)  (47,44) 
Unique trigger count: 
Variant_0_evicts_0 : 0
Variant_0_evicts_1 : 0
Variant_0_evicts_2 : 0
Variant_0_evicts_3 : 0
Variant_1_evicts_0 : 0
Variant_1_evicts_1 : 0
Variant_1_evicts_2 : 0
Variant_1_evicts_3 : 0
Variant_2_evicts_0 : 0
Variant_2_evicts_1 : 0
Variant_2_evicts_2 : 0
Variant_2_evicts_3 : 0
Variant_3_evicts_0 : 0
Variant_3_evicts_1 : 0
Variant_3_evicts_2 : 0
Variant_3_evicts_3 : 0
BTB PER SET UNIQUE ADDR: 4 7 6 4 3 3 6 9 10 2 6 2 8 5 3 4 6 4 8 8 4 8 6 8 8 11 2 6 6 6 9 9 6 5 7 4 4 6 7 3 7 5 5 10 9 6 5 11 11 6 5 3 12 2 2 7 5 5 8 8 4 10 4 7 5 10 7 7 5 6 6 2 6 4 6 7 6 13 7 4 8 7 7 6 6 7 7 8 8 11 10 8 9 6 7 4 11 7 4 5 7 5 9 9 6 7 7 8 7 5 6 4 4 8 5 11 3 7 6 2 7 8 4 2 6 4 4 5 10 7 10 3 10 4 8 5 5 2 6 8 7 7 6 7 2 9 4 8 10 6 5 11 6 10 4 8 7 9 7 10 9 6 9 5 10 5 3 4 12 4 4 3 7 6 3 2 6 4 9 4 6 5 9 7 6 9 5 6 6 8 5 7 6 6 6 10 9 3 9 3 4 7 7 3 8 4 5 7 6 2 3 6 9 8 6 6 3 9 6 6 6 2 6 6 6 8 12 7 2 9 13 8 4 2 6 8 9 5 3 4 4 3 9 7 14 8 2 5 5 4 9 9 7 6 5 12 4 6 9 5 7 5 7 4 9 15 6 4 7 5 7 6 4 8 10 8 6 3 3 8 7 4 10 5 9 8 6 7 7 4 5 7 4 11 6 3 5 10 5 6 6 6 4 4 7 5 5 4 11 10 5 3 8 3 6 4 9 13 7 4 6 10 5 8 5 5 5 9 2 2 7 2 6 7 10 6 6 8 7 1 7 6 2 8 6 6 3 9 9 4 4 10 9 6 8 7 7 2 7 5 6 10 6 8 9 8 3 3 4 5 9 4 7 5 7 4 11 6 6 9 10 7 7 13 6 4 8 5 5 3 9 6 8 4 7 4 5 5 2 8 6 4 6 6 6 6 7 4 4 3 4 5 9 4 2 5 9 4 3 6 2 5 5 7 10 6 4 2 4 7 2 3 14 5 8 10 6 6 6 4 4 6 8 3 6 8 4 6 5 4 6 3 4 1 9 3 4 7 10 5 5 4 6 11 6 5 12 4 5 6 2 6 8 8 6 3 9 5 2 3 5 2 3 4 3 7 8 3 6 2 9 4 4 8 2 12 4 7 5 4 11 3 3 4 3 5 5 3 3 6 8 4 5 9 2 3 2 10 5 8 6 2 7 4 10 8 4 7 9 7 4 7 4 7 5 7 3 1 6 4 4 9 9 3 8 5 8 14 11 12 5 8 7 6 2 6 8 3 6 3 10 4 8 4 5 6 9 8 9 7 7 4 9 11 6 7 7 10 3 9 12 5 1 6 4 3 2 14 6 5 7 8 2 5 4 5 7 6 5 5 8 6 9 10 7 4 5 8 6 5 8 6 6 5 7 3 7 5 5 7 7 7 9 3 5 10 6 8 4 6 8 7 7 6 6 5 5 4 5 3 10 7 4 6 2 3 6 7 8 8 8 5 10 3 5 3 10 5 6 8 12 2 6 11 7 7 7 6 5 9 7 6 6 7 12 9 6 6 8 5 8 9 6 5 9 8 7 8 7 7 3 7 3 4 4 6 11 7 6 7 3 11 5 6 7 10 4 4 5 5 8 7 7 6 5 6 10 6 1 8 4 3 5 3 4 1 4 8 2 10 7 10 6 3 7 8 7 3 7 5 4 9 5 10 4 3 5 3 7 6 8 4 5 6 3 5 4 10 10 4 4 8 6 7 7 6 14 6 5 3 9 8 0 5 6 5 5 10 4 3 7 6 4 6 11 9 9 7 2 8 3 9 5 6 6 12 11 4 6 5 13 4 10 2 8 7 7 8 5 6 3 4 5 3 3 6 1 5 5 10 6 4 10 4 6 4 5 4 7 6 7 3 7 4 10 5 4 4 7 3 5 4 5 5 4 8 8 6 7 4 8 7 7 7 5 9 7 4 8 6 7 7 5 4 12 5 5 8 9 9 5 7 6 9 7 2 3 6 7 5 3 6 7 5 9 5 7 4 4 8 8 4 4 8 5 3 8 10 3 3 12 7 4 5 8 6 5 11 6 7 9 6 4 3 2 8 5 4 7 7 8 6 8 5 8 8 5 4 5 10 5 4 10 9 5 8 10 10 3 10 7 8 4 4 7 7 10 6 8 3 10 1 13 8 3 6 9 12 7 9 5 6 10 5 3 9 10 8 8 4 2 7 2 9 11 6 8 5 4 7 12 6 5 6 5 7 4 4 8 7 8 8 7 11 5 10 7 11 4 6 3 4 6 5 5 6 8 4 6 5 8 4 8 6 9 4 9 4 3 7 10 6 12 5 
BTB PER SET COUNT: 4 1518 7 4 3 3 6 2024 7161 8 8 1883 1525 8 3 7 1247 4 37 3462 4 8 6 1058 5789 1521 3 8 1450 6 4117 342 2922 6 8 6 2896 7 17 3 27 6 6 2244 5284 7 5 5475 3031 7 5 4 12199 2 2 1518 6 5 8 135 4 3067 4 9 5 586 2185 30 5 6 1145 2 10 4 1015 11 510 6806 946 4 1053 1512 1428 708 1002 11 12 17 4035 1941 1564 461 2022 6 7 4 1022 7 6 5 9 6 13 1742 8 7 1511 4077 2526 5 2013 8 5 13 10 7629 3 7 6 2 7 29 5 2 2405 5 5 5 5364 2014 1561 4 3923 4 3500 5 5 2 6 1584 7 15 6 7 3 1955 4 8 1213 2513 5 4378 9 9181 4 15 10 2029 1376 1023 4886 9 1961 880 34 2829 3 4 4560 1012 4 3 12 143 3 2 6 507 1911 4 6 5 1667 17 6 8615 5 6 2829 9 6 14 6 2020 1510 28 1897 3 29 3 4 29 7 5 13 5 5 2719 6 2 3 8 332 4847 6 6 4 12 9 6 6 2 6 6 6 13 6272 1932 2 2904 8025 8 4 2 13 3806 3531 6 3 4 4 3 5854 8 4503 8 2 5 5 5 10 3204 11 6 7 4519 4 6 1519 5 1514 5 7 7 2552 8509 948 4 2527 5 2021 14 4 8 58 711 6 3 3 2531 7 1010 21 6 3603 1518 6 944 10 4 5 3326 1008 4073 3026 1011 9 4195 5 6 6 7 4 5 7 6 5 4 4771 53 5 3 944 3 6 8 15 3042 1550 7 7 20 6 9 45 5 6 620 2 3 3345 2 9 10 1900 9 2521 31 7 1 25 6 2 2895 1014 1019 3 9 532 4 4 981 9 1879 10 27 9 4 4944 43 6 2290 12 2989 2167 9 3 3 6 8 21 4 9 9 64 4 7098 7 7 824 3532 3016 8 7814 8 4 39 5 5 3 2493 11 4023 5 1123 7 1451 8 3 12 9 5 1511 7 699 9 2899 5 4 2207 5 5 2469 4 942 5 201 5 3 1420 2 1012 5 24 53 7 7 2 4 7 2 3 5819 6 1684 26 9 6 2022 5 4 9 11 4 8 1039 4 947 5 4 8 3 6 1 237 3 4 7 762 6 1012 4 11 52 34 5 3655 5 7 7 2 21 4707 1525 260 3 24854 5 2 3 7 2 3 507 3 10 1437 378 10 2 26 5 4 12 2 7456 4 7 5 5 42 8 3 6 3 5 7 3 4 7 20 5 5 67 2 3 2 9481 5 1017 7 1448 16 447 31 2017 4 7 25 10 4 20 4 12 5 1388 3 1 14 4 9 1519 57 5 1893 5 9 115 3046 8363 9 1046 12 8 3 10 1654 3 6 3 6175 1889 2528 4 5 7 44 16 9 1025 889 5 1517 5025 1510 2519 44 4033 3 4094 9074 472 1 1017 1451 3 3 7463 9 8 11 59 2 1885 944 6 10 11 10 6 24 8 6884 730 2898 3028 5 1512 7 5 4036 10 8 5 10 3 1902 8 6 8 8 2328 1859 4 1453 21 7 2548 6 2792 511 1453 7 11 6 15 7 4 5 3 7741 7 4 7 2 5 7 8 970 18 13 6 10124 3 7 3 52 5 1519 4031 7895 2 15 7379 9 1518 2918 1018 24 65 1897 7 9 1018 6550 3586 512 9 2543 7 2760 7384 6 1016 20764 1529 53 4976 1453 9 5 2298 5 6 4 6 8352 17 7 45 3 3038 7 25 153 2838 6 2392 5 1451 184 10 17 1008 1013 6 1482 634 1 16 4 3 6 3 1885 1 1014 1657 2 9446 1889 44 1882 4 8 13 3253 4 21 10 8 12 6 9833 4 4 514 3 7 1009 56 6 7 720 3 5 4 15 6283 1886 4 11 948 814 3772 6 6052 6 8 3 20 24 0 193 9 1451 6 3462 7 3 2523 26 4 3339 1335 111 12 12 395 1016 4 1842 12 6 339 4947 1634 4 6 5 2761 6 314 1005 2045 2900 9 13 8 16 4 4 5 443 4 8 3 7 7 4733 9 4 3549 369 1537 4 1884 4 2521 117 1626 3 475 4 7709 1010 1014 5 24 3 396 4 5 1456 4 17 3709 17 14 5 3534 1865 9 11 7 11482 7 4 18 17 21 10 6 4 7028 945 6 2021 3032 68 5 21 6 33 7 3 6 7 8 6 3 7 12 8 25 6 1521 5 4 1841 10 4 4 1681 5 3 34 3292 3 3 5295 2514 283 60 2402 7 5 4026 6 8 1136 9 7 3 2 26 5 1010 3458 2375 14 6 3836 6 42 257 5 4 7 2897 9 508 3581 1326 5 8 3466 1862 5 3540 9 988 4 945 10 7 17 256 9 3 3460 1 8230 14 4 9 1542 11207 10 3027 5 514 8164 8 3 998 46 13 10 7 2 11 2 3226 6028 8 952 5 5 7 1551 9 508 6 5 23 4 4 10 8 1514 1021 24 3601 9 1541 8 5743 4 9 3 4 9 5 6 8 1516 5 11 6 6733 5 7000 329 3170 5 1962 5 4 9 3641 8 4331 9 
To predecode: 0
Predecoding something: 0
Predecode request dropped: 0
sizeofblock_0 0
sizeofblock_1 264128
sizeofblock_2 183931
sizeofblock_3 139814
sizeofblock_4 71879
sizeofblock_5 0
sizeofblock_6 0
sizeofblock_7 0
sizeofblock_8 0
Variant_0 Correct: 0 Incorrect: 0 Accuracy: -nan
Variant_1 Correct: 0 Incorrect: 0 Accuracy: -nan
Variant_2 Correct: 0 Incorrect: 0 Accuracy: -nan
Variant_3 Correct: 0 Incorrect: 0 Accuracy: -nan
