
*** ChampSim Multicore Out-of-Order Simulator ***

Warmup Instructions: 50000000
Simulation Instructions: 50000000
Number of CPUs: 1
LLC sets: 2048
LLC ways: 16
Off-chip DRAM Size: 4096 MB Channels: 1 Width: 64-bit Data Rate: 6400 MT/s
CPU 0 runs ./micro_traces/srv344.trace.gz
.gz
ITLB has LRU replacement policy
DTLB has LRU replacement policy
STLB has LRU replacement policy
FDIP Prefetcher at L1I
L1I has LRU replacement policy
L1D has LRU replacement policy
Initialize SRRIP state for L2C
Initialize DRRIP state for LLC
Heartbeat_Variant_0 : 648 0.316406 per_variant_size: 0 648 0 0 0 0 0 0 0 
Heartbeat_Variant_1 : 1400 0.683594 per_variant_size: 0 136 1264 0 0 0 0 0 0 
Heartbeat_Variant_2 : 0 0 per_variant_size: 0 0 0 0 0 0 0 0 0 
Heartbeat_Variant_3 : 0 0 per_variant_size: 0 0 0 0 0 0 0 0 0 
Heartbeat_Variant_0_evicts 0 : 30590 1 : 58310 2 : 0 3 : 0 
Heartbeat_Variant_1_evicts 0 : 58326 1 : 0 2 : 0 3 : 0 
Heartbeat_Variant_2_evicts 0 : 0 1 : 0 2 : 0 3 : 0 
Heartbeat_Variant_3_evicts 0 : 0 1 : 0 2 : 0 3 : 0 
Heartbeat CPU 0 instructions: 10000001 cycles: 2795766 heartbeat IPC: 3.57684 cumulative IPC: 3.57684 (Simulation time: 0 hr 2 min 23 sec) 
Heartbeat_Variant_0 : 637 0.311035 per_variant_size: 0 637 0 0 0 0 0 0 0 
Heartbeat_Variant_1 : 1411 0.688965 per_variant_size: 0 133 1278 0 0 0 0 0 0 
Heartbeat_Variant_2 : 0 0 per_variant_size: 0 0 0 0 0 0 0 0 0 
Heartbeat_Variant_3 : 0 0 per_variant_size: 0 0 0 0 0 0 0 0 0 
Heartbeat_Variant_0_evicts 0 : 30701 1 : 59054 2 : 0 3 : 0 
Heartbeat_Variant_1_evicts 0 : 59065 1 : 0 2 : 0 3 : 0 
Heartbeat_Variant_2_evicts 0 : 0 1 : 0 2 : 0 3 : 0 
Heartbeat_Variant_3_evicts 0 : 0 1 : 0 2 : 0 3 : 0 
Heartbeat CPU 0 instructions: 20000001 cycles: 5591510 heartbeat IPC: 3.57687 cumulative IPC: 3.57685 (Simulation time: 0 hr 4 min 38 sec) 
Heartbeat_Variant_0 : 659 0.321777 per_variant_size: 0 659 0 0 0 0 0 0 0 
Heartbeat_Variant_1 : 1389 0.678223 per_variant_size: 0 135 1254 0 0 0 0 0 0 
Heartbeat_Variant_2 : 0 0 per_variant_size: 0 0 0 0 0 0 0 0 0 
Heartbeat_Variant_3 : 0 0 per_variant_size: 0 0 0 0 0 0 0 0 0 
Heartbeat_Variant_0_evicts 0 : 30928 1 : 59615 2 : 0 3 : 0 
Heartbeat_Variant_1_evicts 0 : 59593 1 : 0 2 : 0 3 : 0 
Heartbeat_Variant_2_evicts 0 : 0 1 : 0 2 : 0 3 : 0 
Heartbeat_Variant_3_evicts 0 : 0 1 : 0 2 : 0 3 : 0 
Heartbeat CPU 0 instructions: 30000001 cycles: 8386854 heartbeat IPC: 3.57738 cumulative IPC: 3.57703 (Simulation time: 0 hr 6 min 47 sec) 
Heartbeat_Variant_0 : 632 0.308594 per_variant_size: 0 632 0 0 0 0 0 0 0 
Heartbeat_Variant_1 : 1416 0.691406 per_variant_size: 0 140 1276 0 0 0 0 0 0 
Heartbeat_Variant_2 : 0 0 per_variant_size: 0 0 0 0 0 0 0 0 0 
Heartbeat_Variant_3 : 0 0 per_variant_size: 0 0 0 0 0 0 0 0 0 
Heartbeat_Variant_0_evicts 0 : 30891 1 : 59044 2 : 0 3 : 0 
Heartbeat_Variant_1_evicts 0 : 59071 1 : 0 2 : 0 3 : 0 
Heartbeat_Variant_2_evicts 0 : 0 1 : 0 2 : 0 3 : 0 
Heartbeat_Variant_3_evicts 0 : 0 1 : 0 2 : 0 3 : 0 
Heartbeat CPU 0 instructions: 40000000 cycles: 11182222 heartbeat IPC: 3.57735 cumulative IPC: 3.57711 (Simulation time: 0 hr 8 min 55 sec) 
Heartbeat_Variant_0 : 651 0.317871 per_variant_size: 0 651 0 0 0 0 0 0 0 
Heartbeat_Variant_1 : 1397 0.682129 per_variant_size: 0 123 1274 0 0 0 0 0 0 
Heartbeat_Variant_2 : 0 0 per_variant_size: 0 0 0 0 0 0 0 0 0 
Heartbeat_Variant_3 : 0 0 per_variant_size: 0 0 0 0 0 0 0 0 0 
Heartbeat_Variant_0_evicts 0 : 31233 1 : 60422 2 : 0 3 : 0 
Heartbeat_Variant_1_evicts 0 : 60403 1 : 0 2 : 0 3 : 0 
Heartbeat_Variant_2_evicts 0 : 0 1 : 0 2 : 0 3 : 0 
Heartbeat_Variant_3_evicts 0 : 0 1 : 0 2 : 0 3 : 0 
Heartbeat CPU 0 instructions: 50000002 cycles: 13978382 heartbeat IPC: 3.57633 cumulative IPC: 3.57695 (Simulation time: 0 hr 11 min 1 sec) 

Warmup complete CPU 0 instructions: 50000002 cycles: 13978382 (Simulation time: 0 hr 11 min 1 sec) 

Cycle: 20000000 FTQ IN: 54383504 FTQ occupancy: 17.1952 DECODE IN: 54383436 DECODE occupancy: 44.0494 ROB IN: 54383436 ROB occupancy: 261.306 ROB OUT: 54383365
*** Reached end of trace for Core: 0 Repeating trace: ./micro_traces/srv344.trace.gz
Heartbeat_Variant_0 : 623 0.304199 per_variant_size: 0 623 0 0 0 0 0 0 0 
Heartbeat_Variant_1 : 1425 0.695801 per_variant_size: 0 148 1277 0 0 0 0 0 0 
Heartbeat_Variant_2 : 0 0 per_variant_size: 0 0 0 0 0 0 0 0 0 
Heartbeat_Variant_3 : 0 0 per_variant_size: 0 0 0 0 0 0 0 0 0 
Heartbeat_Variant_0_evicts 0 : 30211 1 : 58480 2 : 0 3 : 0 
Heartbeat_Variant_1_evicts 0 : 58508 1 : 0 2 : 0 3 : 0 
Heartbeat_Variant_2_evicts 0 : 0 1 : 0 2 : 0 3 : 0 
Heartbeat_Variant_3_evicts 0 : 0 1 : 0 2 : 0 3 : 0 
Heartbeat CPU 0 instructions: 60000000 cycles: 27396796 heartbeat IPC: 0.745244 cumulative IPC: 0.745244 (Simulation time: 0 hr 12 min 51 sec) 
Cycle: 30000000 FTQ IN: 7557488 FTQ occupancy: 3.56224 DECODE IN: 7557550 DECODE occupancy: 6.6195 ROB IN: 7557550 ROB occupancy: 58.1151 ROB OUT: 7557619
Cycle: 40000000 FTQ IN: 7548180 FTQ occupancy: 3.57783 DECODE IN: 7548183 DECODE occupancy: 6.65392 ROB IN: 7548123 ROB occupancy: 57.5867 ROB OUT: 7547835
Heartbeat_Variant_0 : 632 0.308594 per_variant_size: 0 632 0 0 0 0 0 0 0 
Heartbeat_Variant_1 : 1416 0.691406 per_variant_size: 0 155 1261 0 0 0 0 0 0 
Heartbeat_Variant_2 : 0 0 per_variant_size: 0 0 0 0 0 0 0 0 0 
Heartbeat_Variant_3 : 0 0 per_variant_size: 0 0 0 0 0 0 0 0 0 
Heartbeat_Variant_0_evicts 0 : 30754 1 : 59090 2 : 0 3 : 0 
Heartbeat_Variant_1_evicts 0 : 59081 1 : 0 2 : 0 3 : 0 
Heartbeat_Variant_2_evicts 0 : 0 1 : 0 2 : 0 3 : 0 
Heartbeat_Variant_3_evicts 0 : 0 1 : 0 2 : 0 3 : 0 
Heartbeat CPU 0 instructions: 70000003 cycles: 40663862 heartbeat IPC: 0.753746 cumulative IPC: 0.749471 (Simulation time: 0 hr 14 min 35 sec) 
Cycle: 50000000 FTQ IN: 7379390 FTQ occupancy: 3.7056 DECODE IN: 7379393 DECODE occupancy: 6.95252 ROB IN: 7379453 ROB occupancy: 59.0306 ROB OUT: 7379741
Heartbeat_Variant_0 : 617 0.30127 per_variant_size: 0 617 0 0 0 0 0 0 0 
Heartbeat_Variant_1 : 1431 0.69873 per_variant_size: 0 143 1288 0 0 0 0 0 0 
Heartbeat_Variant_2 : 0 0 per_variant_size: 0 0 0 0 0 0 0 0 0 
Heartbeat_Variant_3 : 0 0 per_variant_size: 0 0 0 0 0 0 0 0 0 
Heartbeat_Variant_0_evicts 0 : 30861 1 : 59374 2 : 0 3 : 0 
Heartbeat_Variant_1_evicts 0 : 59389 1 : 0 2 : 0 3 : 0 
Heartbeat_Variant_2_evicts 0 : 0 1 : 0 2 : 0 3 : 0 
Heartbeat_Variant_3_evicts 0 : 0 1 : 0 2 : 0 3 : 0 
Heartbeat CPU 0 instructions: 80000003 cycles: 54195278 heartbeat IPC: 0.739021 cumulative IPC: 0.745955 (Simulation time: 0 hr 16 min 21 sec) 
Cycle: 60000000 FTQ IN: 7466608 FTQ occupancy: 3.5353 DECODE IN: 7466606 DECODE occupancy: 6.57952 ROB IN: 7466606 ROB occupancy: 56.9911 ROB OUT: 7466551
Heartbeat_Variant_0 : 628 0.306641 per_variant_size: 0 628 0 0 0 0 0 0 0 
Heartbeat_Variant_1 : 1420 0.693359 per_variant_size: 0 135 1285 0 0 0 0 0 0 
Heartbeat_Variant_2 : 0 0 per_variant_size: 0 0 0 0 0 0 0 0 0 
Heartbeat_Variant_3 : 0 0 per_variant_size: 0 0 0 0 0 0 0 0 0 
Heartbeat_Variant_0_evicts 0 : 31332 1 : 59812 2 : 0 3 : 0 
Heartbeat_Variant_1_evicts 0 : 59801 1 : 0 2 : 0 3 : 0 
Heartbeat_Variant_2_evicts 0 : 0 1 : 0 2 : 0 3 : 0 
Heartbeat_Variant_3_evicts 0 : 0 1 : 0 2 : 0 3 : 0 
Heartbeat CPU 0 instructions: 90000003 cycles: 67590976 heartbeat IPC: 0.746508 cumulative IPC: 0.746093 (Simulation time: 0 hr 17 min 56 sec) 
Cycle: 70000000 FTQ IN: 7378707 FTQ occupancy: 3.65222 DECODE IN: 7378706 DECODE occupancy: 6.83687 ROB IN: 7378706 ROB occupancy: 57.613 ROB OUT: 7378748
Cycle: 80000000 FTQ IN: 7505502 FTQ occupancy: 3.53659 DECODE IN: 7505491 DECODE occupancy: 6.5121 ROB IN: 7505491 ROB occupancy: 56.8437 ROB OUT: 7505491
Heartbeat_Variant_0 : 643 0.313965 per_variant_size: 0 643 0 0 0 0 0 0 0 
Heartbeat_Variant_1 : 1405 0.686035 per_variant_size: 0 154 1251 0 0 0 0 0 0 
Heartbeat_Variant_2 : 0 0 per_variant_size: 0 0 0 0 0 0 0 0 0 
Heartbeat_Variant_3 : 0 0 per_variant_size: 0 0 0 0 0 0 0 0 0 
Heartbeat_Variant_0_evicts 0 : 30641 1 : 59268 2 : 0 3 : 0 
Heartbeat_Variant_1_evicts 0 : 59253 1 : 0 2 : 0 3 : 0 
Heartbeat_Variant_2_evicts 0 : 0 1 : 0 2 : 0 3 : 0 
Heartbeat_Variant_3_evicts 0 : 0 1 : 0 2 : 0 3 : 0 
Heartbeat CPU 0 instructions: 100000000 cycles: 81054248 heartbeat IPC: 0.742761 cumulative IPC: 0.745425 (Simulation time: 0 hr 19 min 40 sec) 
Finished CPU 0 instructions: 50000002 cycles: 67075867 cumulative IPC: 0.745425 (Simulation time: 0 hr 19 min 40 sec) 

ChampSim completed all CPUs

Region of Interest Statistics

CPU 0 cumulative IPC: 0.745425 instructions: 50000002 cycles: 67075867
 Fetch stage stalled: 81.8653  Sim cycles: 67075867 fetch stall cycle: 54911886
 Empty decode stage: 67.2779  Sim cycles: 67075867 fetch stall cycle: 45127243
ITLB TOTAL     ACCESS:    5662799  HIT:    5174749  MISS:     488050  HIT %:    91.3815  MISS %:    8.61853   MPKI: 9.761
ITLB LOAD TRANSLATION INSTRUCTION	ACCESS:    5586682  HIT:    5098632  MISS:     488050  HIT %:     91.264  MISS %:    8.73595  MPKI: 9.761
ITLB TRANSLATION FROM L1D PREFETCHER INSTRUCTION	ACCESS:      76117  HIT:      76117  MISS:          0  HIT %:        100  MISS %:          0  MPKI: 0

ITLB AVERAGE MISS LATENCY: 9.03759 cycles
ITLB RQ	ACCESS:    7127308	FORWARD:          0	MERGED:    1035946	TO_CACHE:    6091362

DTLB TOTAL     ACCESS:   10028996  HIT:    9554268  MISS:     474728  HIT %:    95.2664  MISS %:    4.73355   MPKI: 9.49456
DTLB LOAD TRANSLATION DATA	ACCESS:   10028996  HIT:    9554268  MISS:     474728  HIT %:    95.2664  MISS %:    4.73355  MPKI: 9.49456

DTLB AVERAGE MISS LATENCY: 9.26222 cycles
DTLB RQ	ACCESS:   14086543	FORWARD:          0	MERGED:    4029235	TO_CACHE:   10057308

STLB TOTAL     ACCESS:    1220739  HIT:    1218627  MISS:       2112  HIT %:     99.827  MISS %:    0.17301   MPKI: 0.04224
STLB LOAD TRANSLATION INSTRUCTION	ACCESS:     488050  HIT:     487778  MISS:        272  HIT %:    99.9443  MISS %:   0.055732  MPKI: 0.00544
STLB LOAD TRANSLATION DATA	ACCESS:     474400  HIT:     472575  MISS:       1825  HIT %:    99.6153  MISS %:   0.384696  MPKI: 0.0365
STLB TRANSLATION FROM L1D PREFETCHER DATA	ACCESS:     258289  HIT:     258274  MISS:         15  HIT %:    99.9942  MISS %: 0.00580745  MPKI: 0.0003

STLB AVERAGE MISS LATENCY: 59.3688 cycles
STLB RQ	ACCESS:    1369301	FORWARD:          0	MERGED:     148534	TO_CACHE:    1220767

STLB Hit, L1D data hit: 0
STLB Hit, L2C data hit: 0
STLB Hit, LLC data hit: 0
STLB Hit, LLC data miss: 0
STLB STLB hints to L2: 0
L1D TOTAL     ACCESS:   13887236  HIT:   12731598  MISS:    1155638  HIT %:    91.6784  MISS %:    8.32158   MPKI: 23.1128
L1D LOAD DATA	ACCESS:    7293409  HIT:    6533068  MISS:     760341  HIT %:     89.575  MISS %:     10.425  MPKI: 15.2068
L1D RFO DATA	ACCESS:    6253427  HIT:    5962328  MISS:     291099  HIT %:     95.345  MISS %:    4.65503  MPKI: 5.82198
L1D PREFETCH DATA	ACCESS:     340400  HIT:     236202  MISS:     104198  HIT %:    69.3895  MISS %:    30.6105  MPKI: 2.08396

L1D PREFETCH  REQUESTED:     813181  ISSUED:     813181  USEFUL:      49303  USELESS:      69209
L1D USEFUL LOAD PREFETCHES:      49303 PREFETCH ISSUED TO LOWER LEVEL:     118563  ACCURACY: 41.5838
 TIMELY PREFETCHES:      49303 LATE PREFETCHES: 14329 DROPPED PREFETCHES: 2
L1D AVERAGE MISS LATENCY: 580817 cycles
L1D RQ	ACCESS:   11269623	FORWARD:          0	MERGED:    3790366	TO_CACHE:    7318419
L1D WQ	ACCESS:    6901340	FORWARD:     160973	MERGED:     133216	TO_CACHE:    6768124
L1D PQ	ACCESS:     406658	FORWARD:          0	MERGED:          0	TO_CACHE:     406523

L1D UNIQUE REGIONS ACCESSED: 0
L1D REGIONS CONFLICTS: 0
L1D Cross Page Prefetch Requests: 5882
L1D Same Page Prefetch Requests: 819498
L1D ROI Sum of L1D PQ occupancy: 5172195
L1D PREFETCHES PUSHED FROM L2C: 0
L1I TOTAL     ACCESS:    6989613  HIT:    4250457  MISS:    2739156  HIT %:     60.811  MISS %:     39.189   MPKI: 54.7831
L1I LOAD INSTRUCTION	ACCESS:    6668939  HIT:    3929783  MISS:    2739156  HIT %:    58.9267  MISS %:    41.0733  MPKI: 54.7831
L1I PREFETCH INSTRUCTION	ACCESS:     320674  HIT:     320674  MISS:          0  HIT %:        100  MISS %:          0  MPKI: 0

L1I PREFETCH  REQUESTED:     558339  ISSUED:     558339  USEFUL:          0  USELESS:          0
L1I USEFUL LOAD PREFETCHES:          0 PREFETCH ISSUED TO LOWER LEVEL:          0  ACCURACY: -nan
 TIMELY PREFETCHES:          0 LATE PREFETCHES: 0 DROPPED PREFETCHES: 0
L1I AVERAGE MISS LATENCY: 17.1598 cycles
L1I RQ	ACCESS:    9455722	FORWARD:          0	MERGED:    2709309	TO_CACHE:    6746413
L1I PQ	ACCESS:     558339	FORWARD:          0	MERGED:     177444	TO_CACHE:     380895

L1BTB TOTAL     ACCESS:    5677572  HIT:    2081357  MISS:    3596215  HIT %:    36.6593  MISS %:    63.3407   MPKI: 71.9243
L1BTB BRANCH_DIRECT_JUMP	ACCESS:     544282 HIT:     144585 MISS:     399697 AVERAGE STALL: 27.914 AVERAGE FETCH STALL: 19.1076 AVERAGE FETCH QUEUE STALL: 2.85947 AVERAGE DECODE STALL: 5.09799 AVERAGE EXECUTE STALL: 1.11321e+14
L1BTB BRANCH_INDIRECT	ACCESS:     181794 HIT:      65713 MISS:     116081 AVERAGE STALL: 68.0036 AVERAGE FETCH STALL: 16.6306 AVERAGE FETCH QUEUE STALL: 3.4478 AVERAGE DECODE STALL: 5.06668 AVERAGE EXECUTE STALL: 41.9146
L1BTB BRANCH_CONDITIONAL	ACCESS:    2739208 HIT:    1456888 MISS:    1282320 AVERAGE STALL: 28.6045 AVERAGE FETCH STALL: 20.0835 AVERAGE FETCH QUEUE STALL: 2.68311 AVERAGE DECODE STALL: 5.09263 AVERAGE EXECUTE STALL: 3.63981e+13
L1BTB BRANCH_DIRECT_CALL	ACCESS:     936014 HIT:     103923 MISS:     832091 AVERAGE STALL: 29.2363 AVERAGE FETCH STALL: 20.5498 AVERAGE FETCH QUEUE STALL: 2.72694 AVERAGE DECODE STALL: 5.20591 AVERAGE EXECUTE STALL: 4.01953e+13
L1BTB BRANCH_INDIRECT_CALL	ACCESS:     170133 HIT:      21118 MISS:     149015 AVERAGE STALL: 89.5538 AVERAGE FETCH STALL: 19.3748 AVERAGE FETCH QUEUE STALL: 2.38972 AVERAGE DECODE STALL: 5.25553 AVERAGE EXECUTE STALL: 61.9752
L1BTB BRANCH_RETURN	ACCESS:    1106141 HIT:     289130 MISS:     817011 AVERAGE STALL: 29.0681 AVERAGE FETCH STALL: 18.5181 AVERAGE FETCH QUEUE STALL: 2.97666 AVERAGE DECODE STALL: 5.25879 AVERAGE EXECUTE STALL: 6.28862e+13
L1BTB BRANCH_OTHER ACCESS:          0 HIT:          0 MISS:          0 AVERAGE STALL: -nan AVERAGE FETCH STALL: -nan AVERAGE FETCH QUEUE STALL: -nan AVERAGE DECODE STALL: -nan AVERAGE EXECUTE STALL: -nan
L1BTB TOTAL ROB OCCUPANCY AT BTB MISS: 20.3368

L2BTB TOTAL     ACCESS:    3571116  HIT:    2047133  MISS:    1523983  HIT %:    57.3247  MISS %:    42.6753   MPKI: 30.4797
L2BTB BRANCH_DIRECT_JUMP	ACCESS:     395526 HIT:     233962 MISS:     161564 AVERAGE STALL: 27.914 AVERAGE FETCH STALL: 19.1076 AVERAGE FETCH QUEUE STALL: 2.85947 AVERAGE DECODE STALL: 5.09799 AVERAGE EXECUTE STALL: 1.11321e+14
L2BTB BRANCH_INDIRECT	ACCESS:     105879 HIT:      82008 MISS:      23871 AVERAGE STALL: 68.0036 AVERAGE FETCH STALL: 16.6306 AVERAGE FETCH QUEUE STALL: 3.4478 AVERAGE DECODE STALL: 5.06668 AVERAGE EXECUTE STALL: 41.9146
L2BTB BRANCH_CONDITIONAL	ACCESS:    1282320 HIT:     772952 MISS:     509368 AVERAGE STALL: 28.6045 AVERAGE FETCH STALL: 20.0835 AVERAGE FETCH QUEUE STALL: 2.68311 AVERAGE DECODE STALL: 5.09263 AVERAGE EXECUTE STALL: 3.63981e+13
L2BTB BRANCH_DIRECT_CALL	ACCESS:     832091 HIT:     373086 MISS:     459005 AVERAGE STALL: 29.2363 AVERAGE FETCH STALL: 20.5498 AVERAGE FETCH QUEUE STALL: 2.72694 AVERAGE DECODE STALL: 5.20591 AVERAGE EXECUTE STALL: 4.01953e+13
L2BTB BRANCH_INDIRECT_CALL	ACCESS:     139497 HIT:      61521 MISS:      77976 AVERAGE STALL: 89.5538 AVERAGE FETCH STALL: 19.3748 AVERAGE FETCH QUEUE STALL: 2.38972 AVERAGE DECODE STALL: 5.25553 AVERAGE EXECUTE STALL: 61.9752
L2BTB BRANCH_RETURN	ACCESS:     815803 HIT:     523604 MISS:     292199 AVERAGE STALL: 29.0681 AVERAGE FETCH STALL: 18.5181 AVERAGE FETCH QUEUE STALL: 2.97666 AVERAGE DECODE STALL: 5.25879 AVERAGE EXECUTE STALL: 6.28862e+13
L2BTB BRANCH_OTHER ACCESS:          0 HIT:          0 MISS:          0 AVERAGE STALL: -nan AVERAGE FETCH STALL: -nan AVERAGE FETCH QUEUE STALL: -nan AVERAGE DECODE STALL: -nan AVERAGE EXECUTE STALL: -nan
L2BTB TOTAL ROB OCCUPANCY AT BTB MISS: 47.9896

L2C TOTAL     ACCESS:    4511329  HIT:    4001894  MISS:     509435  HIT %:    88.7077  MISS %:    11.2923   MPKI: 10.1887
L2C LOAD INSTRUCTION	ACCESS:    2739155  HIT:    2483908  MISS:     255247  HIT %:    90.6815  MISS %:    9.31846  MPKI: 5.10494
L2C LOAD TRANSLATION INSTRUCTION	ACCESS:        315  HIT:         71  MISS:        244  HIT %:    22.5397  MISS %:    77.4603  MPKI: 0.00488
L2C LOAD DATA	ACCESS:     745976  HIT:     656121  MISS:      89855  HIT %:    87.9547  MISS %:    12.0453  MPKI: 1.7971
L2C RFO DATA	ACCESS:     291055  HIT:     231258  MISS:      59797  HIT %:    79.4551  MISS %:    20.5449  MPKI: 1.19594
L2C PREFETCH DATA	ACCESS:     208410  HIT:     122439  MISS:      85971  HIT %:    58.7491  MISS %:    41.2509  MPKI: 1.71942
L2C WRITEBACK DATA	ACCESS:     524493  HIT:     507595  MISS:      16898  HIT %:    96.7782  MISS %:    3.22178  MPKI: 0.33796
L2C LOAD TRANSLATION DATA	ACCESS:       1902  HIT:        486  MISS:       1416  HIT %:    25.5521  MISS %:    74.4479  MPKI: 0.02832
L2C TRANSLATION FROM L1D PREFETCHER DATA	ACCESS:         23  HIT:         16  MISS:          7  HIT %:    69.5652  MISS %:    30.4348  MPKI: 0.00014

L2C PREFETCH  REQUESTED:      98004  ISSUED:      98004  USEFUL:       8801  USELESS:      77573
L2C USEFUL LOAD PREFETCHES:       8801 PREFETCH ISSUED TO LOWER LEVEL:      86394  ACCURACY: 10.1871
 TIMELY PREFETCHES:       8801 LATE PREFETCHES: 423 DROPPED PREFETCHES: 0
L2C AVERAGE MISS LATENCY: 37.1357 cycles
L2C RQ	ACCESS:    3778470	FORWARD:          0	MERGED:          0	TO_CACHE:    3778428
L2C WQ	ACCESS:     524493	FORWARD:         42	MERGED:          0	TO_CACHE:     524493
L2C PQ	ACCESS:     216567	FORWARD:          0	MERGED:       3668	TO_CACHE:     212899

L2C Dense regions hint from L2: 0
PSCL5 TOTAL     ACCESS:       4228  HIT:       2114  MISS:       2114  HIT %:         50  MISS %:         50   MPKI: 0.04228
PSCL5 LOAD TRANSLATION INSTRUCTION	ACCESS:       4182  HIT:       2091  MISS:       2091  HIT %:         50  MISS %:         50  MPKI: 0.04182
PSCL5 TRANSLATION FROM L1D PREFETCHER INSTRUCTION	ACCESS:         46  HIT:         23  MISS:         23  HIT %:         50  MISS %:         50  MPKI: 0.00046


PSCL4 TOTAL     ACCESS:       3971  HIT:       1983  MISS:       1988  HIT %:     49.937  MISS %:     50.063   MPKI: 0.03976
PSCL4 LOAD TRANSLATION INSTRUCTION	ACCESS:       3667  HIT:       1960  MISS:       1707  HIT %:    53.4497  MISS %:    46.5503  MPKI: 0.03414
PSCL4 TRANSLATION FROM L1D PREFETCHER INSTRUCTION	ACCESS:         46  HIT:         23  MISS:         23  HIT %:         50  MISS %:         50  MPKI: 0.00046
PSCL4 LOAD TRANSLATION DATA	ACCESS:        258  HIT:          0  MISS:        258  HIT %:          0  MISS %:        100  MPKI: 0.00516


PSCL3 TOTAL     ACCESS:       3975  HIT:       1985  MISS:       1990  HIT %:    49.9371  MISS %:    50.0629   MPKI: 0.0398
PSCL3 LOAD TRANSLATION INSTRUCTION	ACCESS:       3669  HIT:       1962  MISS:       1707  HIT %:    53.4751  MISS %:    46.5249  MPKI: 0.03414
PSCL3 TRANSLATION FROM L1D PREFETCHER INSTRUCTION	ACCESS:         46  HIT:         23  MISS:         23  HIT %:         50  MISS %:         50  MPKI: 0.00046
PSCL3 LOAD TRANSLATION DATA	ACCESS:        260  HIT:          0  MISS:        260  HIT %:          0  MISS %:        100  MPKI: 0.0052


PSCL2 TOTAL     ACCESS:       4111  HIT:       1997  MISS:       2114  HIT %:     48.577  MISS %:     51.423   MPKI: 0.04228
PSCL2 LOAD TRANSLATION INSTRUCTION	ACCESS:       2252  HIT:       1974  MISS:        278  HIT %:    87.6554  MISS %:    12.3446  MPKI: 0.00556
PSCL2 TRANSLATION FROM L1D PREFETCHER INSTRUCTION	ACCESS:         23  HIT:         23  MISS:          0  HIT %:        100  MISS %:          0  MPKI: 0
PSCL2 LOAD TRANSLATION DATA	ACCESS:       1813  HIT:          0  MISS:       1813  HIT %:          0  MISS %:        100  MPKI: 0.03626
PSCL2 TRANSLATION FROM L1D PREFETCHER DATA	ACCESS:         23  HIT:          0  MISS:         23  HIT %:          0  MISS %:        100  MPKI: 0.00046


LLC TOTAL     ACCESS:     574889  HIT:     549823  MISS:      25066  HIT %:    95.6399  MISS %:    4.36015   MPKI: 0.50132
LLC LOAD INSTRUCTION	ACCESS:     255247  HIT:     254244  MISS:       1003  HIT %:     99.607  MISS %:   0.392953  MPKI: 0.02006
LLC LOAD TRANSLATION INSTRUCTION	ACCESS:        244  HIT:        218  MISS:         26  HIT %:    89.3443  MISS %:    10.6557  MPKI: 0.00052
LLC LOAD DATA	ACCESS:      89437  HIT:      86257  MISS:       3180  HIT %:    96.4444  MISS %:    3.55558  MPKI: 0.0636
LLC RFO DATA	ACCESS:      59789  HIT:      48726  MISS:      11063  HIT %:    81.4966  MISS %:    18.5034  MPKI: 0.22126
LLC PREFETCH DATA	ACCESS:      86394  HIT:      76984  MISS:       9410  HIT %:     89.108  MISS %:     10.892  MPKI: 0.1882
LLC WRITEBACK DATA	ACCESS:      82355  HIT:      82057  MISS:        298  HIT %:    99.6382  MISS %:   0.361848  MPKI: 0.00596
LLC LOAD TRANSLATION DATA	ACCESS:       1416  HIT:       1331  MISS:         85  HIT %:    93.9972  MISS %:    6.00282  MPKI: 0.0017
LLC TRANSLATION FROM L1D PREFETCHER DATA	ACCESS:          7  HIT:          6  MISS:          1  HIT %:    85.7143  MISS %:    14.2857  MPKI: 2e-05

LLC AVERAGE MISS LATENCY: 165.09 cycles
LLC RQ	ACCESS:     406143	FORWARD:          0	MERGED:          0	TO_CACHE:     406140
LLC WQ	ACCESS:      82355	FORWARD:          3	MERGED:          0	TO_CACHE:      82355
LLC PQ	ACCESS:      86394	FORWARD:          0	MERGED:          0	TO_CACHE:      86394

LLC Dense regions hint to LLC: 0

RAW hits: 1346194
Loads Generated: 12615818
Loads sent to L1D: 11269623
Stores Generated: 6901322
Stores sent to L1D: 6901340
Major fault: 0 Minor fault: 2256
Allocated PAGES: 2256

stream: 
stream:times selected: 1261746
stream:pref_filled: 123670
stream:pref_useful: 28202
stream:pref_late: 9536
stream:misses: 10792
stream:misses_by_poll: 0

CS: 
CS:times selected: 197687
CS:pref_filled: 73535
CS:pref_useful: 49249
CS:pref_late: 10894
CS:misses: 25710
CS:misses_by_poll: 16

CPLX: 
CPLX:times selected: 1062969
CPLX:pref_filled: 24743
CPLX:pref_useful: 7528
CPLX:pref_late: 3858
CPLX:misses: 129422
CPLX:misses_by_poll: 2

NL_L1: 
NL:times selected: 13046
NL:pref_filled: 1021
NL:pref_useful: 280
NL:pref_late: 509
NL:misses: 2069
NL:misses_by_poll: 0

total selections: 2535448
total_filled: 104198
total_useful: 49303
total_late: 27297
total_polluted: 18
total_misses_after_warmup: 785353
conflicts: 5837686

test: 120731

DRAM Statistics
 CHANNEL 0
 RQ ROW_BUFFER_HIT:       8667  ROW_BUFFER_MISS:      16092
 DBUS_CONGESTED:         18
 WQ ROW_BUFFER_HIT:       1419  ROW_BUFFER_MISS:      10406  FULL:          0

 AVG_CONGESTED_CYCLE: 4

CPU 0 Branch Prediction Accuracy: 99.822% MPKI: 0.32584 Average ROB Occupancy at Mispredict: 105.145
Branch types
NOT_BRANCH: 40848420 81.6968%
BRANCH_DIRECT_JUMP: 544282 1.08856%
BRANCH_INDIRECT: 181794 0.363588%
BRANCH_CONDITIONAL: 6212933 12.4259%
BRANCH_DIRECT_CALL: 936014 1.87203%
BRANCH_INDIRECT_CALL: 170133 0.340266%
BRANCH_RETURN: 1106141 2.21228%
BRANCH_OTHER: 0 0%

DRAM PAGES: 1048576
Allocated PAGES: 2256
Average_ROB_Occupancy: 58.5108
Average_Decode_Occupancy: 6.71351
Average_FTQ_Occupancy: 3.60516
Indirect max targets: 14 Average targets: 1.14966
Branch_type:  BRANCH_DIRECT_JUMP:  Count Percentage: 3.69275 6.21101 3.82575 8.48135 2.41593 6.34668 1.90805 67.1185 
Branch_type:  BRANCH_INDIRECT:  Count Percentage: 11.7499 3.39815 2.62879 9.70296 3.33225 2.7971 1.72626 64.6646 
Branch_type:  BRANCH_CONDITIONAL:  Count Percentage: 22.3497 5.96071 2.06507 5.08066 5.80975 3.90881 2.68617 52.1392 
Branch_type:  BRANCH_DIRECT_CALL:  Count Percentage: 0.832201 1.22236 0.766711 4.63277 2.37922 2.86791 4.34853 82.9503 
Branch_type:  BRANCH_INDIRECT_CALL:  Count Percentage: 9.51526 0 2.98158 5.30961 0.000883169 2.36513 3.84149 75.9861 
Branch_type:  BRANCH_RETURN:  Count Percentage: 4.61024 4.3201 1.87451 4.71346 7.15221 4.04061 3.76651 69.5224 
Branch_type:  BRANCH_DIRECT_JUMP:  Total Count: 40201 67616 41649 92332 26301 69093 20772 730684 
Branch_type:  BRANCH_INDIRECT:  Total Count: 42793 12376 9574 35338 12136 10187 6287 235507 
Branch_type:  BRANCH_CONDITIONAL:  Total Count: 2776631 740534 256556 631201 721780 485615 333719 6477559 
Branch_type:  BRANCH_DIRECT_CALL:  Total Count: 15541 22827 14318 86515 44431 53557 81207 1549061 
Branch_type:  BRANCH_INDIRECT_CALL:  Total Count: 32322 0 10128 18036 3 8034 13049 258114 
Branch_type:  BRANCH_RETURN:  Total Count: 101791 95385 41388 104070 157916 89214 83162 1535007 
Number of unique branch instructions: 10002
Upper 32 bits: 
aaaa
ffff
ffff0000
Unique upper 32 bits: 3
Unique upper 36 bits: 3
Unique upper 40 bits: 5
Unique upper 44 bits: 32
Unique upper 48 bits: 154
Variant_0 : 643 0.313965
Variant_1 : 1405 0.686035
Variant_2 : 0 0
Variant_3 : 0 0
Offset_3 4142
Offset_4 247
Offset_5 449
Offset_6 516
Offset_7 592
Offset_8 516
Offset_9 468
Offset_10 395
Offset_11 327
Offset_12 266
Offset_13 198
Offset_14 225
Offset_15 190
Offset_16 230
Offset_17 150
Offset_18 129
Offset_19 240
Offset_20 137
Offset_21 235
Offset_22 399
Offset_23 241
Offset_24 329
Offset_25 88
Offset_47 80
decode_dispatch_called: 20255610 30.1981
Dispatch_width: 0 9864342 48.6993 14.7062
Dispatch_width: 1 645360 3.18608 0.962134
Dispatch_width: 2 919193 4.53797 1.37038
Dispatch_width: 3 637403 3.1468 0.950272
Dispatch_width: 4 1532869 7.56763 2.28528
Dispatch_width: 5 466226 2.30171 0.695073
Dispatch_width: 6 6190217 30.5605 9.22868
Empty_decode_cycles: 46820257 69.8019
ROB_full_cycles: 1304640 1.94502
Starvation_cycles_per_kilo_instr: 595.81
Starvation_cycles_per_kilo_instr_3: 575.819
Starvation_cycles_per_kilo_instr_0: 553.8
Branch_type_1  (3,1)  (4,7)  (5,36)  (6,75)  (7,117)  (8,127)  (9,125)  (10,101)  (11,78)  (12,43)  (13,7)  (14,2)  (15,3)  (16,4)  (18,1)  (19,4)  (20,2)  (21,1)  (22,3)  (23,2)  (24,10)  (25,12) 
Branch_type_2  (3,1)  (5,1)  (8,3)  (9,3)  (12,1)  (13,1)  (14,1)  (16,3)  (17,2)  (20,2)  (21,2)  (23,5)  (24,1)  (47,36) 
Branch_type_3  (3,4140)  (4,240)  (5,408)  (6,425)  (7,443)  (8,326)  (9,257)  (10,165)  (11,136)  (12,49)  (13,7) 
Branch_type_4  (6,4)  (7,8)  (8,26)  (9,51)  (10,61)  (11,57)  (12,96)  (13,83)  (14,99)  (15,91)  (16,105)  (17,66)  (18,59)  (19,117)  (20,71)  (21,124)  (22,214)  (23,136)  (24,190)  (25,72) 
Branch_type_5  (8,2)  (9,1)  (10,3)  (11,5)  (12,3)  (13,13)  (14,16)  (15,11)  (16,20)  (17,13)  (18,16)  (19,12)  (20,10)  (21,13)  (22,42)  (23,26)  (24,36) 
Branch_type_6  (5,4)  (6,12)  (7,24)  (8,32)  (9,31)  (10,65)  (11,51)  (12,74)  (13,87)  (14,107)  (15,85)  (16,98)  (17,69)  (18,53)  (19,107)  (20,52)  (21,95)  (22,140)  (23,72)  (24,92)  (25,4)  (47,44) 
Unique trigger count: 
Variant_0_evicts_0 : 0
Variant_0_evicts_1 : 0
Variant_0_evicts_2 : 0
Variant_0_evicts_3 : 0
Variant_1_evicts_0 : 0
Variant_1_evicts_1 : 0
Variant_1_evicts_2 : 0
Variant_1_evicts_3 : 0
Variant_2_evicts_0 : 0
Variant_2_evicts_1 : 0
Variant_2_evicts_2 : 0
Variant_2_evicts_3 : 0
Variant_3_evicts_0 : 0
Variant_3_evicts_1 : 0
Variant_3_evicts_2 : 0
Variant_3_evicts_3 : 0
BTB PER SET UNIQUE ADDR: 45 48 49 51 49 42 53 42 42 44 56 44 44 47 46 38 37 43 43 46 52 53 33 38 48 37 58 49 47 38 50 44 46 37 46 44 47 36 45 48 47 43 39 55 38 50 48 39 41 39 58 50 49 44 51 53 42 48 46 40 48 46 47 61 49 54 48 48 49 36 47 57 48 46 60 45 43 38 47 49 51 33 48 30 39 56 53 54 59 53 53 36 57 41 49 57 40 49 56 59 60 53 43 46 49 46 50 38 47 40 51 42 53 59 38 56 54 37 49 52 59 49 49 60 48 53 60 48 56 48 55 43 50 41 45 44 51 53 46 58 48 40 46 47 46 51 48 48 41 37 56 42 51 48 54 42 43 33 50 52 50 40 45 42 45 52 53 45 42 38 44 35 46 43 56 55 58 48 50 57 37 50 43 37 40 46 50 47 46 48 48 38 39 40 50 50 58 46 47 48 54 45 55 43 39 40 53 47 45 52 48 43 47 49 35 59 47 39 45 37 39 44 51 41 45 42 48 46 55 46 30 45 64 59 43 40 40 41 49 45 39 57 59 49 40 62 37 43 46 35 49 40 57 41 55 30 52 50 48 46 50 46 54 51 47 41 48 49 55 55 40 41 52 44 57 49 47 43 42 49 51 33 48 57 42 41 26 51 42 51 63 46 37 45 39 52 47 50 48 44 56 44 54 47 50 48 49 42 38 46 41 48 31 48 45 50 45 46 43 47 35 46 44 53 51 63 58 63 42 58 50 35 52 42 57 42 42 57 55 53 53 43 48 45 52 40 52 56 41 48 46 49 44 62 56 49 45 60 51 46 44 34 41 40 56 52 38 48 48 49 58 48 47 51 55 44 47 44 40 38 49 54 56 42 40 44 50 50 38 54 51 54 57 49 51 39 43 45 60 52 37 46 47 42 50 53 52 46 42 43 46 37 52 37 54 54 49 44 53 57 49 56 54 54 60 39 47 47 58 47 48 57 49 44 46 52 51 53 54 54 52 44 48 42 38 51 41 45 49 52 52 38 52 52 46 64 59 39 39 37 36 42 59 48 67 32 56 50 55 62 51 51 38 49 48 41 36 40 51 51 47 54 53 68 46 39 54 46 57 38 43 40 44 42 48 50 40 39 38 30 48 46 55 36 45 53 64 40 53 59 45 42 
BTB PER SET COUNT: 5261 5194 5662 7232 6107 5122 6780 5103 3969 5964 8516 5293 4812 5594 5815 3669 3953 5630 5860 5046 5552 6145 3495 4305 6767 5730 7846 7218 6184 4614 5922 5245 6103 8325 5795 5550 5519 3262 5117 6832 6046 5210 5427 6455 4683 6761 6404 4245 4850 5252 7466 6121 5505 4810 5912 6945 4352 6537 6556 3560 6902 5442 4999 7482 5982 6804 5960 6387 7782 3299 5008 6844 5682 4628 6220 6446 5348 4744 7016 7184 6971 3711 5356 4012 4847 6951 7138 7496 7693 6689 5947 4525 7707 4964 5678 7462 4248 6354 7460 7903 7233 8099 6289 6658 5114 5110 6796 4791 5349 5616 6458 6163 5998 7410 4910 7056 7142 4071 6182 7385 6386 5670 7501 11769 6959 7574 7229 5633 7029 7296 8891 9030 7182 4736 5893 7140 6016 6566 4915 7699 6393 5597 5825 5977 6395 7342 6846 6716 4895 3957 8012 5028 5859 5403 6888 4431 6125 3480 6226 7432 5648 3613 4976 9930 4958 8283 8405 6382 3851 4187 5050 3616 5821 4532 8150 7319 7352 6514 6717 6636 4909 6879 5301 4719 5848 5433 6180 6400 6281 6582 7343 4776 5209 4750 7257 6357 8014 5211 5941 4951 7386 4330 8701 5261 4176 4269 7599 5997 4820 5955 6249 4501 7396 5343 4450 7792 5202 5781 4289 4106 5235 6022 6706 4936 6658 4879 6201 5940 8239 6454 4213 5679 8351 6505 5491 5598 4749 5295 7088 5315 4576 7810 6324 6745 5001 9496 4106 6040 7017 5138 5963 4049 7173 3959 6663 3017 7773 6439 5786 6015 7123 5597 6111 6556 5908 5199 6362 5897 7565 7802 5196 4462 7012 5717 7391 5972 5730 5105 5735 6806 5713 3932 5612 8775 5519 4595 2415 6773 5738 5799 7250 5893 3897 5604 4088 7017 6133 6256 6913 6145 7109 4963 6121 5432 5538 6376 13060 3864 5222 5330 5619 7179 4317 6444 4799 6937 4909 5085 5620 5907 4316 5805 5519 10945 4890 9823 9072 9812 4361 7584 6469 4466 6394 5618 8805 5308 5240 7503 8036 5788 7740 5313 5973 5723 6909 5810 6937 6999 5142 6450 7032 5900 5149 9477 8429 5672 5903 8415 6967 5917 4936 3885 4935 4325 7728 6449 5225 6275 5642 6879 8921 6659 5806 5641 7329 4337 7631 5174 4973 4302 6859 7367 6965 5933 4999 5163 6505 7409 3908 6850 6482 6568 5414 5346 6243 5230 5426 4774 7500 7126 4054 5378 5506 4340 6157 6586 6419 5869 4670 5624 5792 4085 6098 3603 7383 5612 5524 6421 7564 7514 6045 7403 6936 11322 7525 4195 4953 6318 7916 5469 10484 7844 6379 5996 6472 5926 6376 6600 7214 7428 5796 6283 5575 5493 5768 7025 5318 5574 6677 7163 6616 4885 7339 6439 5000 7529 8417 5004 4644 4342 4313 5629 7191 5802 13161 3078 7545 6618 6969 8238 6280 6676 3861 5957 6397 7854 6078 4313 5767 6285 7481 6621 6964 9715 4650 5494 6762 5094 7583 4901 5307 4211 4887 5084 5291 6285 4797 4889 4123 3237 5415 5356 5458 3914 5527 6561 7629 4704 6998 6208 6250 6314 
To predecode: 0
Predecoding something: 0
Predecode request dropped: 0
sizeofblock_0 0
sizeofblock_1 623397
sizeofblock_2 1583586
sizeofblock_3 0
sizeofblock_4 0
sizeofblock_5 0
sizeofblock_6 0
sizeofblock_7 0
sizeofblock_8 0
Variant_0 Correct: 735887 Incorrect: 0 Accuracy: 1
Variant_1 Correct: 3524067 Incorrect: 0 Accuracy: 1
Variant_2 Correct: 0 Incorrect: 0 Accuracy: -nan
Variant_3 Correct: 0 Incorrect: 0 Accuracy: -nan
