
*** ChampSim Multicore Out-of-Order Simulator ***

Warmup Instructions: 50000000
Simulation Instructions: 50000000
Number of CPUs: 1
LLC sets: 2048
LLC ways: 16
Off-chip DRAM Size: 4096 MB Channels: 1 Width: 64-bit Data Rate: 6400 MT/s
CPU 0 runs ./micro_traces/srv388.trace.gz
.gz
ITLB has LRU replacement policy
DTLB has LRU replacement policy
STLB has LRU replacement policy
FDIP Prefetcher at L1I
L1I has LRU replacement policy
L1D has LRU replacement policy
Initialize SRRIP state for L2C
Initialize DRRIP state for LLC
Heartbeat CPU 0 instructions: 10000003 cycles: 2797452 heartbeat IPC: 3.57468 cumulative IPC: 3.57468 (Simulation time: 0 hr 1 min 41 sec) 
Heartbeat CPU 0 instructions: 20000000 cycles: 5593485 heartbeat IPC: 3.57649 cumulative IPC: 3.57559 (Simulation time: 0 hr 3 min 17 sec) 
Heartbeat CPU 0 instructions: 30000001 cycles: 8389849 heartbeat IPC: 3.57607 cumulative IPC: 3.57575 (Simulation time: 0 hr 4 min 56 sec) 
Heartbeat CPU 0 instructions: 40000003 cycles: 11186510 heartbeat IPC: 3.57569 cumulative IPC: 3.57574 (Simulation time: 0 hr 6 min 32 sec) 
Heartbeat CPU 0 instructions: 50000002 cycles: 13982492 heartbeat IPC: 3.57656 cumulative IPC: 3.5759 (Simulation time: 0 hr 8 min 11 sec) 

Warmup complete CPU 0 instructions: 50000002 cycles: 13982492 (Simulation time: 0 hr 8 min 11 sec) 

Cycle: 20000000 FTQ IN: 56286533 FTQ occupancy: 17.6092 DECODE IN: 56286514 DECODE occupancy: 44.9233 ROB IN: 56286514 ROB occupancy: 270.525 ROB OUT: 56286290
Heartbeat CPU 0 instructions: 60000003 cycles: 23615924 heartbeat IPC: 1.03805 cumulative IPC: 1.03805 (Simulation time: 0 hr 9 min 29 sec) 
Cycle: 30000000 FTQ IN: 10421459 FTQ occupancy: 5.37056 DECODE IN: 10421407 DECODE occupancy: 10.4417 ROB IN: 10421407 ROB occupancy: 92.5567 ROB OUT: 10421619
Heartbeat CPU 0 instructions: 70000000 cycles: 33135392 heartbeat IPC: 1.05048 cumulative IPC: 1.04423 (Simulation time: 0 hr 10 min 45 sec) 
Cycle: 40000000 FTQ IN: 10515856 FTQ occupancy: 5.13 DECODE IN: 10515887 DECODE occupancy: 9.92152 ROB IN: 10515887 ROB occupancy: 89.7248 ROB OUT: 10515869
Heartbeat CPU 0 instructions: 80000003 cycles: 42670535 heartbeat IPC: 1.04875 cumulative IPC: 1.04573 (Simulation time: 0 hr 11 min 59 sec) 
Cycle: 50000000 FTQ IN: 10380321 FTQ occupancy: 5.35879 DECODE IN: 10380312 DECODE occupancy: 10.3699 ROB IN: 10380312 ROB occupancy: 91.9574 ROB OUT: 10380225
Heartbeat CPU 0 instructions: 90000002 cycles: 52272019 heartbeat IPC: 1.04151 cumulative IPC: 1.04467 (Simulation time: 0 hr 13 min 16 sec) 
Cycle: 60000000 FTQ IN: 10499756 FTQ occupancy: 5.19502 DECODE IN: 10499805 DECODE occupancy: 10.1029 ROB IN: 10499805 ROB occupancy: 90.924 ROB OUT: 10499758
Heartbeat CPU 0 instructions: 100000000 cycles: 61796224 heartbeat IPC: 1.04996 cumulative IPC: 1.04572 (Simulation time: 0 hr 14 min 29 sec) 
Finished CPU 0 instructions: 50000002 cycles: 47813733 cumulative IPC: 1.04572 (Simulation time: 0 hr 14 min 29 sec) 

ChampSim completed all CPUs

Region of Interest Statistics

CPU 0 cumulative IPC: 1.04572 instructions: 50000002 cycles: 47813733
 Fetch stage stalled: 74.4186  Sim cycles: 47813733 fetch stall cycle: 35582308
 Empty decode stage: 81.0863  Sim cycles: 47813733 fetch stall cycle: 38770412
ITLB TOTAL     ACCESS:    6044847  HIT:    5547606  MISS:     497241  HIT %:    91.7741  MISS %:    8.22587   MPKI: 9.94482
ITLB LOAD TRANSLATION INSTRUCTION	ACCESS:    5963798  HIT:    5466557  MISS:     497241  HIT %:    91.6623  MISS %:    8.33766  MPKI: 9.94482
ITLB TRANSLATION FROM L1D PREFETCHER INSTRUCTION	ACCESS:      81049  HIT:      81049  MISS:          0  HIT %:        100  MISS %:          0  MPKI: 0

ITLB AVERAGE MISS LATENCY: 9.04783 cycles
ITLB RQ	ACCESS:    7679683	FORWARD:          0	MERGED:    1364658	TO_CACHE:    6315025

DTLB TOTAL     ACCESS:    9625733  HIT:    9149037  MISS:     476696  HIT %:    95.0477  MISS %:    4.95231   MPKI: 9.53392
DTLB LOAD TRANSLATION DATA	ACCESS:    9625733  HIT:    9149037  MISS:     476696  HIT %:    95.0477  MISS %:    4.95231  MPKI: 9.53392

DTLB AVERAGE MISS LATENCY: 9.30223 cycles
DTLB RQ	ACCESS:   13866581	FORWARD:          0	MERGED:    4209488	TO_CACHE:    9657093

STLB TOTAL     ACCESS:    1220388  HIT:    1218337  MISS:       2051  HIT %:    99.8319  MISS %:   0.168061   MPKI: 0.04102
STLB LOAD TRANSLATION INSTRUCTION	ACCESS:     497240  HIT:     497027  MISS:        213  HIT %:    99.9572  MISS %:  0.0428365  MPKI: 0.00426
STLB LOAD TRANSLATION DATA	ACCESS:     476523  HIT:     474711  MISS:       1812  HIT %:    99.6197  MISS %:   0.380254  MPKI: 0.03624
STLB TRANSLATION FROM L1D PREFETCHER DATA	ACCESS:     246625  HIT:     246599  MISS:         26  HIT %:    99.9895  MISS %:  0.0105423  MPKI: 0.00052

STLB AVERAGE MISS LATENCY: 69.0473 cycles
STLB RQ	ACCESS:    1342334	FORWARD:          0	MERGED:     121919	TO_CACHE:    1220415

STLB Hit, L1D data hit: 0
STLB Hit, L2C data hit: 0
STLB Hit, LLC data hit: 0
STLB Hit, LLC data miss: 0
STLB STLB hints to L2: 0
L1D TOTAL     ACCESS:   13629971  HIT:   12508859  MISS:    1121112  HIT %:    91.7747  MISS %:    8.22534   MPKI: 22.4222
L1D LOAD DATA	ACCESS:    7043045  HIT:    6302180  MISS:     740865  HIT %:    89.4809  MISS %:    10.5191  MPKI: 14.8173
L1D RFO DATA	ACCESS:    6258898  HIT:    5973090  MISS:     285808  HIT %:    95.4336  MISS %:    4.56643  MPKI: 5.71616
L1D PREFETCH DATA	ACCESS:     328028  HIT:     233589  MISS:      94439  HIT %:    71.2101  MISS %:    28.7899  MPKI: 1.88878

L1D PREFETCH  REQUESTED:     737061  ISSUED:     737061  USEFUL:      34660  USELESS:      67731
L1D USEFUL LOAD PREFETCHES:      34660 PREFETCH ISSUED TO LOWER LEVEL:     102443  ACCURACY: 33.8334
 TIMELY PREFETCHES:      34660 LATE PREFETCHES: 7958 DROPPED PREFETCHES: 5
L1D AVERAGE MISS LATENCY: 267757 cycles
L1D RQ	ACCESS:   11057190	FORWARD:          0	MERGED:    3812272	TO_CACHE:    7076265
L1D WQ	ACCESS:    6952044	FORWARD:     168918	MERGED:     161728	TO_CACHE:    6790316
L1D PQ	ACCESS:     368663	FORWARD:          0	MERGED:          0	TO_CACHE:     368398

L1D UNIQUE REGIONS ACCESSED: 0
L1D REGIONS CONFLICTS: 0
L1D Cross Page Prefetch Requests: 7059
L1D Same Page Prefetch Requests: 749628
L1D ROI Sum of L1D PQ occupancy: 4673096
L1D PREFETCHES PUSHED FROM L2C: 0
L1I TOTAL     ACCESS:    7143372  HIT:    4366055  MISS:    2777317  HIT %:    61.1204  MISS %:    38.8796   MPKI: 55.5463
L1I LOAD INSTRUCTION	ACCESS:    6780347  HIT:    4003030  MISS:    2777317  HIT %:    59.0387  MISS %:    40.9613  MPKI: 55.5463
L1I PREFETCH INSTRUCTION	ACCESS:     363025  HIT:     363025  MISS:          0  HIT %:        100  MISS %:          0  MPKI: 0

L1I PREFETCH  REQUESTED:     893191  ISSUED:     893191  USEFUL:          0  USELESS:          0
L1I USEFUL LOAD PREFETCHES:          0 PREFETCH ISSUED TO LOWER LEVEL:          0  ACCURACY: -nan
 TIMELY PREFETCHES:          0 LATE PREFETCHES: 0 DROPPED PREFETCHES: 0
L1I AVERAGE MISS LATENCY: 17.0239 cycles
L1I RQ	ACCESS:    9426935	FORWARD:          0	MERGED:    2385513	TO_CACHE:    7041422
L1I PQ	ACCESS:     893191	FORWARD:          0	MERGED:     254930	TO_CACHE:     638261

L1BTB TOTAL     ACCESS:    5671856  HIT:    2030324  MISS:    3641532  HIT %:    35.7965  MISS %:    64.2035   MPKI: 72.8306
L1BTB BRANCH_DIRECT_JUMP	ACCESS:     547657 HIT:     143394 MISS:     404263 AVERAGE STALL: 32.5067 AVERAGE FETCH STALL: 18.62 AVERAGE FETCH QUEUE STALL: 6.32886 AVERAGE DECODE STALL: 6.68745 AVERAGE EXECUTE STALL: 1.11434e+15
L1BTB BRANCH_INDIRECT	ACCESS:     182452 HIT:      65576 MISS:     116876 AVERAGE STALL: 58.5194 AVERAGE FETCH STALL: 11.4422 AVERAGE FETCH QUEUE STALL: 3.75616 AVERAGE DECODE STALL: 6.01321 AVERAGE EXECUTE STALL: 36.3433
L1BTB BRANCH_CONDITIONAL	ACCESS:    2701290 HIT:    1404858 MISS:    1296432 AVERAGE STALL: 33.7652 AVERAGE FETCH STALL: 22.4192 AVERAGE FETCH QUEUE STALL: 4.59237 AVERAGE DECODE STALL: 5.98787 AVERAGE EXECUTE STALL: 6.42968e+14
L1BTB BRANCH_DIRECT_CALL	ACCESS:     948356 HIT:     105213 MISS:     843143 AVERAGE STALL: 31.4821 AVERAGE FETCH STALL: 19.7092 AVERAGE FETCH QUEUE STALL: 5.38759 AVERAGE DECODE STALL: 5.60985 AVERAGE EXECUTE STALL: 8.89171e+14
L1BTB BRANCH_INDIRECT_CALL	ACCESS:     171877 HIT:      20947 MISS:     150930 AVERAGE STALL: 75.4716 AVERAGE FETCH STALL: 13.792 AVERAGE FETCH QUEUE STALL: 2.28102 AVERAGE DECODE STALL: 5.45402 AVERAGE EXECUTE STALL: 53.4426
L1BTB BRANCH_RETURN	ACCESS:    1120224 HIT:     290336 MISS:     829888 AVERAGE STALL: 33.7832 AVERAGE FETCH STALL: 16.4594 AVERAGE FETCH QUEUE STALL: 2.26051 AVERAGE DECODE STALL: 4.80799 AVERAGE EXECUTE STALL: 3.60866e+14
L1BTB BRANCH_OTHER ACCESS:          0 HIT:          0 MISS:          0 AVERAGE STALL: -nan AVERAGE FETCH STALL: -nan AVERAGE FETCH QUEUE STALL: -nan AVERAGE DECODE STALL: -nan AVERAGE EXECUTE STALL: -nan
L1BTB TOTAL ROB OCCUPANCY AT BTB MISS: 2.12138

L2BTB TOTAL     ACCESS:    3616218  HIT:    3489950  MISS:     126268  HIT %:    96.5083  MISS %:    3.49171   MPKI: 2.52536
L2BTB BRANCH_DIRECT_JUMP	ACCESS:     400172 HIT:     387688 MISS:      12484 AVERAGE STALL: 32.5067 AVERAGE FETCH STALL: 18.62 AVERAGE FETCH QUEUE STALL: 6.32886 AVERAGE DECODE STALL: 6.68745 AVERAGE EXECUTE STALL: 1.11434e+15
L2BTB BRANCH_INDIRECT	ACCESS:     106543 HIT:     103404 MISS:       3139 AVERAGE STALL: 58.5194 AVERAGE FETCH STALL: 11.4422 AVERAGE FETCH QUEUE STALL: 3.75616 AVERAGE DECODE STALL: 6.01321 AVERAGE EXECUTE STALL: 36.3433
L2BTB BRANCH_CONDITIONAL	ACCESS:    1296432 HIT:    1267352 MISS:      29080 AVERAGE STALL: 33.7652 AVERAGE FETCH STALL: 22.4192 AVERAGE FETCH QUEUE STALL: 4.59237 AVERAGE DECODE STALL: 5.98787 AVERAGE EXECUTE STALL: 6.42968e+14
L2BTB BRANCH_DIRECT_CALL	ACCESS:     843143 HIT:     822366 MISS:      20777 AVERAGE STALL: 31.4821 AVERAGE FETCH STALL: 19.7092 AVERAGE FETCH QUEUE STALL: 5.38759 AVERAGE DECODE STALL: 5.60985 AVERAGE EXECUTE STALL: 8.89171e+14
L2BTB BRANCH_INDIRECT_CALL	ACCESS:     141458 HIT:     130397 MISS:      11061 AVERAGE STALL: 75.4716 AVERAGE FETCH STALL: 13.792 AVERAGE FETCH QUEUE STALL: 2.28102 AVERAGE DECODE STALL: 5.45402 AVERAGE EXECUTE STALL: 53.4426
L2BTB BRANCH_RETURN	ACCESS:     828470 HIT:     778743 MISS:      49727 AVERAGE STALL: 33.7832 AVERAGE FETCH STALL: 16.4594 AVERAGE FETCH QUEUE STALL: 2.26051 AVERAGE DECODE STALL: 4.80799 AVERAGE EXECUTE STALL: 3.60866e+14
L2BTB BRANCH_OTHER ACCESS:          0 HIT:          0 MISS:          0 AVERAGE STALL: -nan AVERAGE FETCH STALL: -nan AVERAGE FETCH QUEUE STALL: -nan AVERAGE DECODE STALL: -nan AVERAGE EXECUTE STALL: -nan
L2BTB TOTAL ROB OCCUPANCY AT BTB MISS: 61.18

L2C TOTAL     ACCESS:    4509209  HIT:    4022496  MISS:     486713  HIT %:    89.2062  MISS %:    10.7938   MPKI: 9.73426
L2C LOAD INSTRUCTION	ACCESS:    2777317  HIT:    2519033  MISS:     258284  HIT %:    90.7002  MISS %:    9.29977  MPKI: 5.16568
L2C LOAD TRANSLATION INSTRUCTION	ACCESS:        249  HIT:         52  MISS:        197  HIT %:    20.8835  MISS %:    79.1165  MPKI: 0.00394
L2C LOAD DATA	ACCESS:     732887  HIT:     655420  MISS:      77467  HIT %:    89.4299  MISS %:    10.5701  MPKI: 1.54934
L2C RFO DATA	ACCESS:     285752  HIT:     226578  MISS:      59174  HIT %:    79.2918  MISS %:    20.7082  MPKI: 1.18348
L2C PREFETCH DATA	ACCESS:     187308  HIT:     113431  MISS:      73877  HIT %:    60.5585  MISS %:    39.4415  MPKI: 1.47754
L2C WRITEBACK DATA	ACCESS:     523771  HIT:     507372  MISS:      16399  HIT %:    96.8691  MISS %:    3.13095  MPKI: 0.32798
L2C LOAD TRANSLATION DATA	ACCESS:       1884  HIT:        580  MISS:       1304  HIT %:    30.7856  MISS %:    69.2144  MPKI: 0.02608
L2C TRANSLATION FROM L1D PREFETCHER DATA	ACCESS:         41  HIT:         30  MISS:         11  HIT %:    73.1707  MISS %:    26.8293  MPKI: 0.00022

L2C PREFETCH  REQUESTED:      92518  ISSUED:      92518  USEFUL:       7769  USELESS:      66470
L2C USEFUL LOAD PREFETCHES:       7769 PREFETCH ISSUED TO LOWER LEVEL:      74172  ACCURACY: 10.4743
 TIMELY PREFETCHES:       7769 LATE PREFETCHES: 295 DROPPED PREFETCHES: 0
L2C AVERAGE MISS LATENCY: 37.8458 cycles
L2C RQ	ACCESS:    3798160	FORWARD:          0	MERGED:          0	TO_CACHE:    3798131
L2C WQ	ACCESS:     523771	FORWARD:         29	MERGED:          0	TO_CACHE:     523771
L2C PQ	ACCESS:     194961	FORWARD:          0	MERGED:       3518	TO_CACHE:     191443

L2C Dense regions hint from L2: 0
PSCL5 TOTAL     ACCESS:       4112  HIT:       2056  MISS:       2056  HIT %:         50  MISS %:         50   MPKI: 0.04112
PSCL5 LOAD TRANSLATION INSTRUCTION	ACCESS:       4030  HIT:       2015  MISS:       2015  HIT %:         50  MISS %:         50  MPKI: 0.0403
PSCL5 TRANSLATION FROM L1D PREFETCHER INSTRUCTION	ACCESS:         82  HIT:         41  MISS:         41  HIT %:         50  MISS %:         50  MPKI: 0.00082


PSCL4 TOTAL     ACCESS:       3847  HIT:       1916  MISS:       1931  HIT %:     49.805  MISS %:     50.195   MPKI: 0.03862
PSCL4 LOAD TRANSLATION INSTRUCTION	ACCESS:       3223  HIT:       1881  MISS:       1342  HIT %:    58.3618  MISS %:    41.6382  MPKI: 0.02684
PSCL4 TRANSLATION FROM L1D PREFETCHER INSTRUCTION	ACCESS:         63  HIT:         35  MISS:         28  HIT %:    55.5556  MISS %:    44.4444  MPKI: 0.00056
PSCL4 LOAD TRANSLATION DATA	ACCESS:        554  HIT:          0  MISS:        554  HIT %:          0  MISS %:        100  MPKI: 0.01108
PSCL4 TRANSLATION FROM L1D PREFETCHER DATA	ACCESS:          7  HIT:          0  MISS:          7  HIT %:          0  MISS %:        100  MPKI: 0.00014


PSCL3 TOTAL     ACCESS:       3901  HIT:       1943  MISS:       1958  HIT %:    49.8077  MISS %:    50.1923   MPKI: 0.03916
PSCL3 LOAD TRANSLATION INSTRUCTION	ACCESS:       3250  HIT:       1908  MISS:       1342  HIT %:    58.7077  MISS %:    41.2923  MPKI: 0.02684
PSCL3 TRANSLATION FROM L1D PREFETCHER INSTRUCTION	ACCESS:         63  HIT:         35  MISS:         28  HIT %:    55.5556  MISS %:    44.4444  MPKI: 0.00056
PSCL3 LOAD TRANSLATION DATA	ACCESS:        581  HIT:          0  MISS:        581  HIT %:          0  MISS %:        100  MPKI: 0.01162
PSCL3 TRANSLATION FROM L1D PREFETCHER DATA	ACCESS:          7  HIT:          0  MISS:          7  HIT %:          0  MISS %:        100  MPKI: 0.00014


PSCL2 TOTAL     ACCESS:       4022  HIT:       1966  MISS:       2056  HIT %:    48.8812  MISS %:    51.1188   MPKI: 0.04112
PSCL2 LOAD TRANSLATION INSTRUCTION	ACCESS:       2137  HIT:       1925  MISS:        212  HIT %:    90.0796  MISS %:    9.92045  MPKI: 0.00424
PSCL2 TRANSLATION FROM L1D PREFETCHER INSTRUCTION	ACCESS:         41  HIT:         41  MISS:          0  HIT %:        100  MISS %:          0  MPKI: 0
PSCL2 LOAD TRANSLATION DATA	ACCESS:       1803  HIT:          0  MISS:       1803  HIT %:          0  MISS %:        100  MPKI: 0.03606
PSCL2 TRANSLATION FROM L1D PREFETCHER DATA	ACCESS:         41  HIT:          0  MISS:         41  HIT %:          0  MISS %:        100  MPKI: 0.00082


LLC TOTAL     ACCESS:     551183  HIT:     523613  MISS:      27570  HIT %:     94.998  MISS %:    5.00197   MPKI: 0.5514
LLC LOAD INSTRUCTION	ACCESS:     258284  HIT:     257376  MISS:        908  HIT %:    99.6484  MISS %:   0.351551  MPKI: 0.01816
LLC LOAD TRANSLATION INSTRUCTION	ACCESS:        197  HIT:        165  MISS:         32  HIT %:    83.7563  MISS %:    16.2437  MPKI: 0.00064
LLC LOAD DATA	ACCESS:      77174  HIT:      73813  MISS:       3361  HIT %:    95.6449  MISS %:    4.35509  MPKI: 0.06722
LLC RFO DATA	ACCESS:      59167  HIT:      46096  MISS:      13071  HIT %:    77.9083  MISS %:    22.0917  MPKI: 0.26142
LLC PREFETCH DATA	ACCESS:      74172  HIT:      64387  MISS:       9785  HIT %:    86.8077  MISS %:    13.1923  MPKI: 0.1957
LLC WRITEBACK DATA	ACCESS:      80874  HIT:      80520  MISS:        354  HIT %:    99.5623  MISS %:   0.437718  MPKI: 0.00708
LLC LOAD TRANSLATION DATA	ACCESS:       1304  HIT:       1245  MISS:         59  HIT %:    95.4755  MISS %:    4.52454  MPKI: 0.00118
LLC TRANSLATION FROM L1D PREFETCHER DATA	ACCESS:         11  HIT:         11  MISS:          0  HIT %:        100  MISS %:          0  MPKI: 0

LLC AVERAGE MISS LATENCY: 154.998 cycles
LLC RQ	ACCESS:     396142	FORWARD:          0	MERGED:          0	TO_CACHE:     396137
LLC WQ	ACCESS:      80874	FORWARD:          5	MERGED:          0	TO_CACHE:      80874
LLC PQ	ACCESS:      74172	FORWARD:          0	MERGED:          0	TO_CACHE:      74172

LLC Dense regions hint to LLC: 0

RAW hits: 1573517
Loads Generated: 12630707
Loads sent to L1D: 11057190
Stores Generated: 6952044
Stores sent to L1D: 6952044
Major fault: 0 Minor fault: 2633
Allocated PAGES: 2633

stream: 
stream:times selected: 1183946
stream:pref_filled: 120218
stream:pref_useful: 24339
stream:pref_late: 7219
stream:misses: 7946
stream:misses_by_poll: 0

CS: 
CS:times selected: 178511
CS:pref_filled: 60692
CS:pref_useful: 36945
CS:pref_late: 6830
CS:misses: 15788
CS:misses_by_poll: 4

CPLX: 
CPLX:times selected: 1004304
CPLX:pref_filled: 20039
CPLX:pref_useful: 4622
CPLX:pref_late: 3118
CPLX:misses: 93564
CPLX:misses_by_poll: 0

NL_L1: 
NL:times selected: 21002
NL:pref_filled: 699
NL:pref_useful: 356
NL:pref_late: 259
NL:misses: 1667
NL:misses_by_poll: 0

total selections: 2387763
total_filled: 94439
total_useful: 34660
total_late: 18702
total_polluted: 4
total_misses_after_warmup: 774086
conflicts: 5756236

test: 116250

DRAM Statistics
 CHANNEL 0
 RQ ROW_BUFFER_HIT:      10088  ROW_BUFFER_MISS:      17123
 DBUS_CONGESTED:         13
 WQ ROW_BUFFER_HIT:       1217  ROW_BUFFER_MISS:      11491  FULL:          0

 AVG_CONGESTED_CYCLE: 4

CPU 0 Branch Prediction Accuracy: 99.8241% MPKI: 0.32188 Average ROB Occupancy at Mispredict: 95.8489
Branch types
NOT_BRANCH: 40848889 81.6978%
BRANCH_DIRECT_JUMP: 547657 1.09531%
BRANCH_INDIRECT: 182452 0.364904%
BRANCH_CONDITIONAL: 6180179 12.3604%
BRANCH_DIRECT_CALL: 948356 1.89671%
BRANCH_INDIRECT_CALL: 171877 0.343754%
BRANCH_RETURN: 1120224 2.24045%
BRANCH_OTHER: 0 0%

DRAM PAGES: 1048576
Allocated PAGES: 2633
Average_ROB_Occupancy: 92.0303
Average_Decode_Occupancy: 10.1549
Average_FTQ_Occupancy: 5.24001
Indirect max targets: 14 Average targets: 1.17778
Branch_type:  BRANCH_DIRECT_JUMP:  Count Percentage: 2.89967 7.27595 3.94089 14.4893 1.69595 5.97388 1.22926 62.4951 
Branch_type:  BRANCH_INDIRECT:  Count Percentage: 11.7637 3.41888 12.2102 23.3787 1.33895 14.5395 1.07209 32.2778 
Branch_type:  BRANCH_CONDITIONAL:  Count Percentage: 21.0439 3.55919 2.39188 9.03418 1.07188 4.45551 0.75761 57.6859 
Branch_type:  BRANCH_DIRECT_CALL:  Count Percentage: 0.78801 1.29926 1.43335 5.40608 1.99518 2.56056 0.932479 85.5851 
Branch_type:  BRANCH_INDIRECT_CALL:  Count Percentage: 9.57302 0.568593 2.99963 4.85623 0 3.55801 0 78.4445 
Branch_type:  BRANCH_RETURN:  Count Percentage: 4.49777 1.1166 3.65909 9.02337 2.12783 5.06096 1.01073 73.5037 
Branch_type:  BRANCH_DIRECT_JUMP:  Total Count: 31781 79746 43193 158806 18588 65475 13473 684960 
Branch_type:  BRANCH_INDIRECT:  Total Count: 43024 12504 44657 85504 4897 53176 3921 118051 
Branch_type:  BRANCH_CONDITIONAL:  Total Count: 2600537 439833 295581 1116415 132460 550598 93623 7128637 
Branch_type:  BRANCH_DIRECT_CALL:  Total Count: 14880 24534 27066 102083 37675 48351 17608 1616103 
Branch_type:  BRANCH_INDIRECT_CALL:  Total Count: 32814 1949 10282 16646 0 12196 0 268889 
Branch_type:  BRANCH_RETURN:  Total Count: 100388 24922 81669 201397 47492 112958 22559 1640564 
Number of unique branch instructions: 10817
Upper 32 bits: 
aaaa
ffff
ffff0000
Unique upper 32 bits: 3
Unique upper 36 bits: 3
Unique upper 40 bits: 5
Unique upper 44 bits: 32
Unique upper 48 bits: 158
Offset_3 4469
Offset_4 258
Offset_5 484
Offset_6 542
Offset_7 640
Offset_8 583
Offset_9 523
Offset_10 427
Offset_11 355
Offset_12 327
Offset_13 240
Offset_14 247
Offset_15 194
Offset_16 233
Offset_17 169
Offset_18 149
Offset_19 257
Offset_20 143
Offset_21 235
Offset_22 415
Offset_23 241
Offset_24 351
Offset_25 117
Offset_47 94
decode_dispatch_called: 20759794 43.4181
Dispatch_width: 0 10448277 50.3294 21.852
Dispatch_width: 1 627907 3.02463 1.31324
Dispatch_width: 2 827966 3.98832 1.73165
Dispatch_width: 3 581665 2.80188 1.21652
Dispatch_width: 4 1613613 7.77278 3.37479
Dispatch_width: 5 445749 2.14717 0.932261
Dispatch_width: 6 6214617 29.9358 12.9976
Empty_decode_cycles: 27053939 56.5819
ROB_full_cycles: 1570227 3.28405
Starvation_cycles_per_kilo_instr: 400.289
Starvation_cycles_per_kilo_instr_3: 379.695
Starvation_cycles_per_kilo_instr_0: 359.32
Branch_type_1  (3,1)  (4,9)  (5,39)  (6,74)  (7,125)  (8,151)  (9,137)  (10,111)  (11,78)  (12,55)  (13,11)  (14,2)  (15,3)  (16,4)  (18,1)  (19,5)  (20,2)  (21,1)  (22,3)  (23,2)  (24,10)  (25,12) 
Branch_type_2  (3,1)  (4,1)  (5,1)  (8,4)  (9,4)  (10,1)  (12,1)  (13,1)  (14,1)  (16,3)  (17,2)  (20,2)  (21,2)  (23,5)  (24,1)  (47,43) 
Branch_type_3  (3,4467)  (4,248)  (5,440)  (6,452)  (7,485)  (8,363)  (9,287)  (10,172)  (11,141)  (12,62)  (13,10) 
Branch_type_4  (6,3)  (7,8)  (8,25)  (9,56)  (10,68)  (11,70)  (12,117)  (13,102)  (14,112)  (15,92)  (16,102)  (17,79)  (18,65)  (19,125)  (20,73)  (21,124)  (22,219)  (23,136)  (24,206)  (25,101) 
Branch_type_5  (8,3)  (9,1)  (10,4)  (11,5)  (12,3)  (13,14)  (14,16)  (15,11)  (16,22)  (17,11)  (18,23)  (19,14)  (20,11)  (21,13)  (22,43)  (23,26)  (24,38) 
Branch_type_6  (5,4)  (6,13)  (7,22)  (8,37)  (9,38)  (10,71)  (11,61)  (12,89)  (13,102)  (14,116)  (15,88)  (16,102)  (17,77)  (18,60)  (19,113)  (20,55)  (21,95)  (22,150)  (23,72)  (24,96)  (25,4)  (47,51) 
aaaaab1fc620: 2ac9e77e 2aca717c 2aca8eff 2acaf6bc 2acaf9aa 2acaf9f1 2acb1abc 2acb1b7f 2acd4e22 2acdb712 2acf5f9e 2ad0ef44 2ad3f15c 2ad414e6 2ad60e42 2ad8609c 2ad99830 2ada35cc 2ada4676 2ada6612 2adf183e 2adf30e5 2adf5602 2adf785c 2ae11572 2aeb2dcf 2aee101b 2aee1ae1 2aee9456 2b156a8c 2b156b61 2b156bea 2b167f35 2b177656 2b17feec 2b1a3e5a 
aaaaab1fc640: 2ac9ec07 2aca656e 2aca801d 2acaea11 2acaee73 2acb13ee 2acb1470 2acd462b 2ad0ef5d 2ad3f3fe 2ad86e9b 2ada1641 2ada4115 2ada6638 2adf30d4 2ae12e57 2aee1033 2b1693ab 2b16948c 2b169491 2b17d915 2b17fa85 2b17fccd 
aaaaab1fc740: 2aca1fb0 2aca45b3 2aca5aa1 2aca5c69 2aca66f9 2aca9426 2acaeecb 2acf3d2d 2acf3d64 2acf6089 2ad017ea 2ad5e7ef 2ad61064 2ad87373 2ad9bf84 2ad9c093 2ae9b606 2aea9ffa 2aee99f5 2aee9a2c 2aeece4b 
aaaaab1fcb00: 2acf2d72 2acf3734 2acf604c 2acfa5b7 2ad397b5 2ad3b800 2ae8af7d 2ae8aff0 2ae9aaba 2aea9fc6 2aeaa358 2aee910b 2aee91cf 2aee928e 2aee92e4 2aee99de 2af6fe87 2af70dfe 2b16850c 2b16c4a2 2b1765f4 2b178094 2b17d925 2b17db06 2b17ec8f 
aaaaab1fcb10: 2acf2d95 2acf3758 2acf6052 2acfa5f4 2ad397c3 2ad3b81c 2ae8af88 2ae8affe 2ae9aacf 2aeaa017 2aeaa36d 2aee9114 2aee91d8 2aee934d 2aee9353 2aee9a14 2af6fe8c 2af70e22 2b168526 2b16c542 2b176609 2b1780a3 2b17d95d 2b17db44 2b17ecac 
aaaaac68f310: 2ac9ec8c 2ac9fb44 2ac9fbd2 2aca59ab 2acac04c 2acaf6e0 2acaf6ec 2acaf6f9 2acaf700 2acaf708 2acf2d90 2ad3cfbd 2ad3cfc4 2ad3d000 2ad3f35f 2ad4955d 2ad49571 2ad4f3f2 2ad4f400 2ad5f240 2ad5f37c 2ad5f86a 2ad5f86f 2ad5f880 2ad5fc0d 2ad5fc14 2ad5fc21 2ad5fe1b 2ad873bb 2ad873e3 2ad8a6b2 2ad9086e 2ad93096 2ad9bbb2 2ada152c 2ada1554 2ada3332 2ada5522 2adf3130 2adf313c 2adf3a3f 2adf3bd9 2adf5788 2adf7a8d 2ae07f6b 2ae0857a 2ae0857e 2ae08630 2ae08634 2ae08637 2ae08642 2ae0866f 2ae086e4 2ae086ec 2ae08717 2ae0871b 2aee0170 2aee1d38 2aee75f4 2aee7662 2aee85ca 2aee85e4 2aee8eef 2aee9a0a 2af70b84 2af74e8f 2b17d843 
aaaaac690ef0: 2aca598b 2acb111b 2acb175f 2acb1772 2acbfaf4 2acbfb00 2acf374f 2acf6d43 2acfa5c8 2ad3baf1 2ad3d4ac 2ad3d4b8 2ad3f1cf 2ad486b2 2ad5a59b 2ad5fc64 2ad5fcf9 2ad6121c 2ad906e9 2ad907bf 2ad9bada 2ada16ce 2ada1ad5 2ada43df 2ada64c0 2ada72ee 2adeb71a 2adf3bcb 2adf7a38 2adf7c6a 2adf8872 2adf8880 2adf9959 2adf9abe 2ae07f78 2ae08503 2ae08754 2ae12e80 2aea3bea 2aecb509 2aee00b0 2aee2bdd 2aee5467 2aee5601 2aee8f20 2af703fd 2af7048b 2af74e74 2dfba627 
Unique trigger count: 
1 10309
2 552
3 94
4 31
5 16
6 9
7 8
8 1
9 3
10 3
11 1
12 1
13 2
14 2
16 2
19 1
21 1
23 1
25 2
36 1
49 1
67 1
BTB PER SET UNIQUE ADDR: 14 18 9 9 5 14 13 18 17 7 13 8 19 14 10 14 15 12 16 15 11 16 13 15 15 12 7 11 11 14 21 14 15 10 18 18 18 18 14 12 15 13 9 16 18 12 13 16 21 11 14 8 18 8 12 16 16 12 17 12 15 24 12 15 12 21 12 18 19 12 8 8 11 8 9 22 14 21 14 14 13 13 12 11 16 12 13 13 21 15 21 20 18 11 13 14 19 13 13 14 16 14 17 14 14 13 12 15 16 12 18 11 9 19 14 19 7 14 14 9 15 16 11 11 12 11 10 11 22 17 15 9 14 9 16 15 13 11 13 13 19 11 12 10 16 16 11 16 24 10 13 25 14 18 13 15 14 20 14 19 17 15 22 15 20 14 11 10 22 19 15 10 16 15 11 12 14 14 13 13 9 13 15 15 19 19 13 15 9 20 12 13 13 19 9 14 17 9 18 14 10 11 14 11 19 10 6 16 12 5 8 10 13 12 10 15 6 20 16 17 14 6 13 15 17 11 20 11 8 19 19 19 8 10 13 13 18 12 10 8 9 10 13 13 22 21 11 11 11 13 15 17 13 13 19 19 10 11 20 12 8 10 14 9 15 26 11 8 16 11 11 13 14 18 19 17 10 13 7 17 15 12 16 18 21 14 14 11 21 8 14 11 11 18 14 13 11 17 9 10 12 11 10 10 7 10 11 14 20 13 16 8 13 9 12 9 17 20 14 9 14 14 15 13 9 11 12 15 8 8 16 8 11 15 19 11 14 12 16 9 12 15 8 20 14 12 11 14 18 13 9 17 25 13 14 15 17 12 12 12 13 20 13 10 13 14 11 8 9 11 14 11 16 10 15 9 16 15 16 13 14 15 12 15 15 18 12 8 20 13 14 11 17 11 14 15 11 14 12 16 12 9 11 17 11 13 17 12 14 10 14 10 21 15 9 11 15 17 8 11 13 16 13 16 20 19 7 11 12 17 10 8 22 13 17 17 15 12 16 8 18 13 15 10 16 22 12 16 11 11 17 8 8 12 19 12 16 13 13 11 8 13 19 17 13 10 16 10 19 13 6 11 15 14 8 8 19 13 11 10 12 13 8 15 9 18 13 10 12 7 19 9 12 14 9 19 11 13 15 9 20 9 16 8 11 10 8 11 16 12 22 9 
BTB PER SET COUNT: 14 28 11 10 6 14 13 520 20 1477 13 426 62 14 10 17 15 12 16 1486 11 19 14 503 15 12 7 11 1479 15 1869 396 18 11 22 40 2965 2453 20 12 18 16 13 16 3820 14 13 17 5255 12 14 8 3464 8 12 18 17 12 17 127 15 6022 13 15 12 4115 14 31 4811 49 8 8 1479 8 10 5854 501 72 14 14 13 994 993 12 507 12 13 14 35 20 3955 517 21 2938 14 17 33 15 14 16 16 14 31 16 1005 14 12 16 16 780 403 14 1478 77 15 2836 16 14 500 1477 15 20 12 11 501 11 10 11 5133 21 503 9 20 10 17 17 500 11 13 13 63 12 13 11 17 19 1471 16 14782 10 13 8675 14 5367 2951 994 14 59 501 26 18 17 7817 988 516 1978 631 10 7823 514 16 983 14709 1106 11 1857 1483 502 995 987 9 16 15 17 26 22 13 49 10 53 12 13 181 1001 9 1490 999 1477 179 14 13 13 987 14 1509 756 6 2458 12 5 9 11 14 12 10 671 6 6313 17 17 997 6 13 15 18 13 816 2009 8 1515 249 4398 8 13 501 13 27 986 10 8 9 484 13 13 1752 5152 11 993 11 14 997 17 14 13 67 23 12 12 69 12 8 122 14 1478 1484 9583 993 10 16 12 12 13 17 67 83 20 411 13 8 84 17 12 222 31 6055 987 15 11 148 9 268 12 2448 1493 14 16 13 87 9 10 12 507 12 11 7 10 11 14 34 14 16 410 14 9 993 10 17 6354 17 11 14 16 39 13 11 11 14 15 260 9 989 1482 11 20 1018 12 990 13 16 9 13 15 9 1545 987 12 11 18 21 14 9 20 7813 1976 16 989 24 14 13 49 13 56 15 10 15 15 13 8 10 11 15 14 20 16 15 9 17 15 16 15 14 17 12 155 17 18 15 8 2187 13 119 59 20 15 14 18 1479 16 13 16 12 9 14 17 12 987 2953 13 14 2349 14 12 582 16 990 11 119 17 9 1945 15 510 13 17 6911 30 12 11 12 20 126 990 2689 15 27 264 18 12 19 9 413 15 16 10 23 3483 16 998 11 498 24 8 11 13 45 12 16 13 501 11 981 389 41 18 1017 11 16 10 53 13 493 12 42 504 164 8 20630 13 11 12 12 13 8 501 9 446 270 384 12 7 51 11 15 15 9 30 14 14 1969 10 8059 392 1204 8 11 12 8 11 1498 12 926 9 
