
*** ChampSim Multicore Out-of-Order Simulator ***

Warmup Instructions: 50000000
Simulation Instructions: 50000000
Number of CPUs: 1
LLC sets: 2048
LLC ways: 16
Off-chip DRAM Size: 4096 MB Channels: 1 Width: 64-bit Data Rate: 6400 MT/s
CPU 0 runs ./micro_traces/srv301.trace.gz
.gz
ITLB has LRU replacement policy
DTLB has LRU replacement policy
STLB has LRU replacement policy
FDIP Prefetcher at L1I
L1I has LRU replacement policy
L1D has LRU replacement policy
Initialize SRRIP state for L2C
Initialize DRRIP state for LLC
Heartbeat CPU 0 instructions: 10000000 cycles: 2798079 heartbeat IPC: 3.57388 cumulative IPC: 3.57388 (Simulation time: 0 hr 2 min 6 sec) 
Heartbeat CPU 0 instructions: 20000003 cycles: 5596734 heartbeat IPC: 3.57315 cumulative IPC: 3.57351 (Simulation time: 0 hr 3 min 58 sec) 
Heartbeat CPU 0 instructions: 30000001 cycles: 8393993 heartbeat IPC: 3.57493 cumulative IPC: 3.57398 (Simulation time: 0 hr 5 min 50 sec) 
Heartbeat CPU 0 instructions: 40000000 cycles: 11191390 heartbeat IPC: 3.57475 cumulative IPC: 3.57418 (Simulation time: 0 hr 7 min 39 sec) 
Heartbeat CPU 0 instructions: 50000002 cycles: 13989857 heartbeat IPC: 3.57339 cumulative IPC: 3.57402 (Simulation time: 0 hr 9 min 27 sec) 

Warmup complete CPU 0 instructions: 50000002 cycles: 13989857 (Simulation time: 0 hr 9 min 27 sec) 

Cycle: 20000000 FTQ IN: 54483898 FTQ occupancy: 17.1172 DECODE IN: 54483883 DECODE occupancy: 43.9324 ROB IN: 54483869 ROB occupancy: 260.538 ROB OUT: 54483798
Heartbeat CPU 0 instructions: 60000002 cycles: 27403971 heartbeat IPC: 0.745483 cumulative IPC: 0.745483 (Simulation time: 0 hr 11 min 0 sec) 
Cycle: 30000000 FTQ IN: 7437328 FTQ occupancy: 3.47869 DECODE IN: 7437343 DECODE occupancy: 6.54584 ROB IN: 7437352 ROB occupancy: 55.8255 ROB OUT: 7437421
Cycle: 40000000 FTQ IN: 7377106 FTQ occupancy: 3.60362 DECODE IN: 7377102 DECODE occupancy: 6.74311 ROB IN: 7377107 ROB occupancy: 56.8145 ROB OUT: 7377074
Heartbeat CPU 0 instructions: 70000000 cycles: 40945792 heartbeat IPC: 0.738453 cumulative IPC: 0.741952 (Simulation time: 0 hr 12 min 40 sec) 
Cycle: 50000000 FTQ IN: 7475205 FTQ occupancy: 3.47757 DECODE IN: 7475185 DECODE occupancy: 6.50623 ROB IN: 7475185 ROB occupancy: 55.9008 ROB OUT: 7475218
Heartbeat CPU 0 instructions: 80000000 cycles: 54324627 heartbeat IPC: 0.747449 cumulative IPC: 0.743775 (Simulation time: 0 hr 14 min 12 sec) 
Cycle: 60000000 FTQ IN: 7455370 FTQ occupancy: 3.4651 DECODE IN: 7455392 DECODE occupancy: 6.46034 ROB IN: 7455392 ROB occupancy: 55.5429 ROB OUT: 7455394
Heartbeat CPU 0 instructions: 90000000 cycles: 66140751 heartbeat IPC: 0.846301 cumulative IPC: 0.767005 (Simulation time: 0 hr 16 min 2 sec) 
Cycle: 70000000 FTQ IN: 10806033 FTQ occupancy: 10.3197 DECODE IN: 10806031 DECODE occupancy: 26.0772 ROB IN: 10806031 ROB occupancy: 172.829 ROB OUT: 10806002
Heartbeat CPU 0 instructions: 100000001 cycles: 76653054 heartbeat IPC: 0.951266 cumulative IPC: 0.797917 (Simulation time: 0 hr 17 min 44 sec) 
Finished CPU 0 instructions: 50000003 cycles: 62663198 cumulative IPC: 0.797917 (Simulation time: 0 hr 17 min 44 sec) 

ChampSim completed all CPUs

Region of Interest Statistics

CPU 0 cumulative IPC: 0.797917 instructions: 50000003 cycles: 62663198
 Fetch stage stalled: 78.317  Sim cycles: 62663198 fetch stall cycle: 49075953
 Empty decode stage: 65.469  Sim cycles: 62663198 fetch stall cycle: 41024975
ITLB TOTAL     ACCESS:    6018796  HIT:    5583875  MISS:     434921  HIT %:     92.774  MISS %:    7.22605   MPKI: 8.69842
ITLB LOAD TRANSLATION INSTRUCTION	ACCESS:    5933478  HIT:    5498557  MISS:     434921  HIT %:      92.67  MISS %:    7.32995  MPKI: 8.69842
ITLB TRANSLATION FROM L1D PREFETCHER INSTRUCTION	ACCESS:      85318  HIT:      85318  MISS:          0  HIT %:        100  MISS %:          0  MPKI: 0

ITLB AVERAGE MISS LATENCY: 9.0698 cycles
ITLB RQ	ACCESS:    7564662	FORWARD:          0	MERGED:    1188745	TO_CACHE:    6375917

DTLB TOTAL     ACCESS:   10037131  HIT:    9589683  MISS:     447448  HIT %:    95.5421  MISS %:    4.45793   MPKI: 8.94896
DTLB LOAD TRANSLATION DATA	ACCESS:   10037131  HIT:    9589683  MISS:     447448  HIT %:    95.5421  MISS %:    4.45793  MPKI: 8.94896

DTLB AVERAGE MISS LATENCY: 9.30953 cycles
DTLB RQ	ACCESS:   14098460	FORWARD:          0	MERGED:    4035221	TO_CACHE:   10063239

STLB TOTAL     ACCESS:    1091096  HIT:    1088955  MISS:       2141  HIT %:    99.8038  MISS %:   0.196225   MPKI: 0.04282
STLB LOAD TRANSLATION INSTRUCTION	ACCESS:     434921  HIT:     434447  MISS:        474  HIT %:     99.891  MISS %:   0.108985  MPKI: 0.00948
STLB LOAD TRANSLATION DATA	ACCESS:     447364  HIT:     445709  MISS:       1655  HIT %:    99.6301  MISS %:   0.369945  MPKI: 0.0331
STLB TRANSLATION FROM L1D PREFETCHER DATA	ACCESS:     208811  HIT:     208799  MISS:         12  HIT %:    99.9943  MISS %: 0.00574682  MPKI: 0.00024

STLB AVERAGE MISS LATENCY: 70.6745 cycles
STLB RQ	ACCESS:    1193637	FORWARD:          0	MERGED:     102475	TO_CACHE:    1091162

STLB Hit, L1D data hit: 0
STLB Hit, L2C data hit: 0
STLB Hit, LLC data hit: 0
STLB Hit, LLC data miss: 0
STLB STLB hints to L2: 0
L1D TOTAL     ACCESS:   13910871  HIT:   12930128  MISS:     980743  HIT %:    92.9498  MISS %:    7.05019   MPKI: 19.6149
L1D LOAD DATA	ACCESS:    7279575  HIT:    6630388  MISS:     649187  HIT %:    91.0821  MISS %:    8.91792  MPKI: 12.9837
L1D RFO DATA	ACCESS:    6354108  HIT:    6103102  MISS:     251006  HIT %:    96.0497  MISS %:    3.95029  MPKI: 5.02012
L1D PREFETCH DATA	ACCESS:     277188  HIT:     196638  MISS:      80550  HIT %:    70.9403  MISS %:    29.0597  MPKI: 1.611

L1D PREFETCH  REQUESTED:     622685  ISSUED:     622685  USEFUL:      28077  USELESS:      59291
L1D USEFUL LOAD PREFETCHES:      28077 PREFETCH ISSUED TO LOWER LEVEL:      87434  ACCURACY: 32.1122
 TIMELY PREFETCHES:      28077 LATE PREFETCHES: 6836 DROPPED PREFETCHES: 6
L1D AVERAGE MISS LATENCY: 317223 cycles
L1D RQ	ACCESS:   11214507	FORWARD:          0	MERGED:    3724476	TO_CACHE:    7302989
L1D WQ	ACCESS:    6957598	FORWARD:     187193	MERGED:     162127	TO_CACHE:    6795471
L1D PQ	ACCESS:     311418	FORWARD:          0	MERGED:          0	TO_CACHE:     311267

L1D UNIQUE REGIONS ACCESSED: 0
L1D REGIONS CONFLICTS: 0
L1D Cross Page Prefetch Requests: 5415
L1D Same Page Prefetch Requests: 690577
L1D ROI Sum of L1D PQ occupancy: 3957599
L1D PREFETCHES PUSHED FROM L2C: 0
L1I TOTAL     ACCESS:    7429995  HIT:    5003281  MISS:    2426714  HIT %:     67.339  MISS %:     32.661   MPKI: 48.5343
L1I LOAD INSTRUCTION	ACCESS:    6940011  HIT:    4513297  MISS:    2426714  HIT %:     65.033  MISS %:     34.967  MPKI: 48.5343
L1I PREFETCH INSTRUCTION	ACCESS:     489984  HIT:     489984  MISS:          0  HIT %:        100  MISS %:          0  MPKI: 0

L1I PREFETCH  REQUESTED:     746664  ISSUED:     746664  USEFUL:          0  USELESS:          0
L1I USEFUL LOAD PREFETCHES:          0 PREFETCH ISSUED TO LOWER LEVEL:          0  ACCURACY: -nan
 TIMELY PREFETCHES:          0 LATE PREFETCHES: 0 DROPPED PREFETCHES: 0
L1I AVERAGE MISS LATENCY: 17.1031 cycles
L1I RQ	ACCESS:    9616037	FORWARD:          0	MERGED:    2600492	TO_CACHE:    7015545
L1I PQ	ACCESS:     746664	FORWARD:          0	MERGED:     197547	TO_CACHE:     549117

L1BTB TOTAL     ACCESS:    5842390  HIT:    2391282  MISS:    3451108  HIT %:    40.9299  MISS %:    59.0701   MPKI: 69.0222
L1BTB BRANCH_DIRECT_JUMP	ACCESS:     550522  HIT:     175573  MISS:     374949	AVERAGE STALL: 27.7947
L1BTB BRANCH_INDIRECT	ACCESS:     180197  HIT:      63726  MISS:     116471	AVERAGE STALL: 67.6722
L1BTB BRANCH_CONDITIONAL	ACCESS:    2722860  HIT:    1508517  MISS:    1214343	AVERAGE STALL: 29.6073
L1BTB BRANCH_DIRECT_CALL	ACCESS:    1021694  HIT:     213448  MISS:     808246	AVERAGE STALL: 30.8393
L1BTB BRANCH_INDIRECT_CALL	ACCESS:     172711  HIT:      33444  MISS:     139267	AVERAGE STALL: 87.8635
L1BTB BRANCH_RETURN	ACCESS:    1194406  HIT:     396574  MISS:     797832	AVERAGE STALL: 29.4279
L1BTB BRANCH_OTHER ACCESS:          0  HIT:          0  MISS:          0	AVERAGE STALL: -nan
L1BTB TOTAL ROB OCCUPANCY AT BTB MISS: 18.5446

L2BTB TOTAL     ACCESS:    3429306  HIT:    2111098  MISS:    1318208  HIT %:    61.5605  MISS %:    38.4395   MPKI: 26.3642
L2BTB BRANCH_DIRECT_JUMP	ACCESS:     371504  HIT:     216943  MISS:     154561	AVERAGE STALL: 27.7947
L2BTB BRANCH_INDIRECT	ACCESS:     107458  HIT:      92646  MISS:      14812	AVERAGE STALL: 67.6722
L2BTB BRANCH_CONDITIONAL	ACCESS:    1214343  HIT:     746160  MISS:     468183	AVERAGE STALL: 29.6073
L2BTB BRANCH_DIRECT_CALL	ACCESS:     808246  HIT:     456302  MISS:     351944	AVERAGE STALL: 30.8393
L2BTB BRANCH_INDIRECT_CALL	ACCESS:     131167  HIT:      75279  MISS:      55888	AVERAGE STALL: 87.8635
L2BTB BRANCH_RETURN	ACCESS:     796588  HIT:     523768  MISS:     272820	AVERAGE STALL: 29.4279
L2BTB BRANCH_OTHER ACCESS:          0  HIT:          0  MISS:          0	AVERAGE STALL: -nan
L2BTB TOTAL ROB OCCUPANCY AT BTB MISS: 48.5503

L2C TOTAL     ACCESS:    3945394  HIT:    3525471  MISS:     419923  HIT %:    89.3566  MISS %:    10.6434   MPKI: 8.39846
L2C LOAD INSTRUCTION	ACCESS:    2426713  HIT:    2204165  MISS:     222548  HIT %:    90.8292  MISS %:    9.17076  MPKI: 4.45096
L2C LOAD TRANSLATION INSTRUCTION	ACCESS:        510  HIT:        202  MISS:        308  HIT %:    39.6078  MISS %:    60.3922  MPKI: 0.00616
L2C LOAD DATA	ACCESS:     642346  HIT:     573848  MISS:      68498  HIT %:    89.3363  MISS %:    10.6637  MPKI: 1.36996
L2C RFO DATA	ACCESS:     250958  HIT:     204025  MISS:      46933  HIT %:    81.2985  MISS %:    18.7015  MPKI: 0.93866
L2C PREFETCH DATA	ACCESS:     161697  HIT:      96216  MISS:      65481  HIT %:    59.5039  MISS %:    40.4961  MPKI: 1.30962
L2C WRITEBACK DATA	ACCESS:     461391  HIT:     446484  MISS:      14907  HIT %:    96.7691  MISS %:    3.23088  MPKI: 0.29814
L2C LOAD TRANSLATION DATA	ACCESS:       1739  HIT:        507  MISS:       1232  HIT %:    29.1547  MISS %:    70.8453  MPKI: 0.02464
L2C TRANSLATION FROM L1D PREFETCHER DATA	ACCESS:         40  HIT:         24  MISS:         16  HIT %:         60  MISS %:         40  MPKI: 0.00032

L2C PREFETCH  REQUESTED:      80053  ISSUED:      80053  USEFUL:       6867  USELESS:      59149
L2C USEFUL LOAD PREFETCHES:       6867 PREFETCH ISSUED TO LOWER LEVEL:      66002  ACCURACY: 10.4042
 TIMELY PREFETCHES:       6867 LATE PREFETCHES: 521 DROPPED PREFETCHES: 0
L2C AVERAGE MISS LATENCY: 38.2521 cycles
L2C RQ	ACCESS:    3322312	FORWARD:          0	MERGED:          0	TO_CACHE:    3322307
L2C WQ	ACCESS:     461391	FORWARD:          5	MERGED:          0	TO_CACHE:     461391
L2C PQ	ACCESS:     167487	FORWARD:          0	MERGED:       2876	TO_CACHE:     164611

L2C Dense regions hint from L2: 0
PSCL5 TOTAL     ACCESS:       4302  HIT:       2151  MISS:       2151  HIT %:         50  MISS %:         50   MPKI: 0.04302
PSCL5 LOAD TRANSLATION INSTRUCTION	ACCESS:       4222  HIT:       2111  MISS:       2111  HIT %:         50  MISS %:         50  MPKI: 0.04222
PSCL5 TRANSLATION FROM L1D PREFETCHER INSTRUCTION	ACCESS:         80  HIT:         40  MISS:         40  HIT %:         50  MISS %:         50  MPKI: 0.0008


PSCL4 TOTAL     ACCESS:       2958  HIT:       1475  MISS:       1483  HIT %:    49.8648  MISS %:    50.1352   MPKI: 0.02966
PSCL4 LOAD TRANSLATION INSTRUCTION	ACCESS:       1472  HIT:       1442  MISS:         30  HIT %:     97.962  MISS %:    2.03804  MPKI: 0.0006
PSCL4 TRANSLATION FROM L1D PREFETCHER INSTRUCTION	ACCESS:         33  HIT:         33  MISS:          0  HIT %:        100  MISS %:          0  MPKI: 0
PSCL4 LOAD TRANSLATION DATA	ACCESS:       1420  HIT:          0  MISS:       1420  HIT %:          0  MISS %:        100  MPKI: 0.0284
PSCL4 TRANSLATION FROM L1D PREFETCHER DATA	ACCESS:         33  HIT:          0  MISS:         33  HIT %:          0  MISS %:        100  MPKI: 0.00066


PSCL3 TOTAL     ACCESS:       3969  HIT:       1975  MISS:       1994  HIT %:    49.7606  MISS %:    50.2394   MPKI: 0.03988
PSCL3 LOAD TRANSLATION INSTRUCTION	ACCESS:       2573  HIT:       1942  MISS:        631  HIT %:    75.4761  MISS %:    24.5239  MPKI: 0.01262
PSCL3 TRANSLATION FROM L1D PREFETCHER INSTRUCTION	ACCESS:         48  HIT:         33  MISS:         15  HIT %:      68.75  MISS %:      31.25  MPKI: 0.0003
PSCL3 LOAD TRANSLATION DATA	ACCESS:       1330  HIT:          0  MISS:       1330  HIT %:          0  MISS %:        100  MPKI: 0.0266
PSCL3 TRANSLATION FROM L1D PREFETCHER DATA	ACCESS:         18  HIT:          0  MISS:         18  HIT %:          0  MISS %:        100  MPKI: 0.00036


PSCL2 TOTAL     ACCESS:       4187  HIT:       2036  MISS:       2151  HIT %:    48.6267  MISS %:    51.3733   MPKI: 0.04302
PSCL2 LOAD TRANSLATION INSTRUCTION	ACCESS:       2485  HIT:       1996  MISS:        489  HIT %:    80.3219  MISS %:    19.6781  MPKI: 0.00978
PSCL2 TRANSLATION FROM L1D PREFETCHER INSTRUCTION	ACCESS:         40  HIT:         40  MISS:          0  HIT %:        100  MISS %:          0  MPKI: 0
PSCL2 LOAD TRANSLATION DATA	ACCESS:       1622  HIT:          0  MISS:       1622  HIT %:          0  MISS %:        100  MPKI: 0.03244
PSCL2 TRANSLATION FROM L1D PREFETCHER DATA	ACCESS:         40  HIT:          0  MISS:         40  HIT %:          0  MISS %:        100  MPKI: 0.0008


LLC TOTAL     ACCESS:     471571  HIT:     446536  MISS:      25035  HIT %:    94.6911  MISS %:    5.30885   MPKI: 0.5007
LLC LOAD INSTRUCTION	ACCESS:     222548  HIT:     221393  MISS:       1155  HIT %:     99.481  MISS %:   0.518989  MPKI: 0.0231
LLC LOAD TRANSLATION INSTRUCTION	ACCESS:        308  HIT:        268  MISS:         40  HIT %:     87.013  MISS %:     12.987  MPKI: 0.0008
LLC LOAD DATA	ACCESS:      67994  HIT:      64668  MISS:       3326  HIT %:    95.1084  MISS %:    4.89161  MPKI: 0.06652
LLC RFO DATA	ACCESS:      46916  HIT:      35916  MISS:      11000  HIT %:    76.5538  MISS %:    23.4462  MPKI: 0.22
LLC PREFETCH DATA	ACCESS:      66001  HIT:      56921  MISS:       9080  HIT %:    86.2426  MISS %:    13.7574  MPKI: 0.1816
LLC WRITEBACK DATA	ACCESS:      66556  HIT:      66215  MISS:        341  HIT %:    99.4876  MISS %:   0.512351  MPKI: 0.00682
LLC LOAD TRANSLATION DATA	ACCESS:       1232  HIT:       1141  MISS:         91  HIT %:    92.6136  MISS %:    7.38636  MPKI: 0.00182
LLC TRANSLATION FROM L1D PREFETCHER DATA	ACCESS:         16  HIT:         14  MISS:          2  HIT %:       87.5  MISS %:       12.5  MPKI: 4e-05

LLC AVERAGE MISS LATENCY: 155.457 cycles
LLC RQ	ACCESS:     339014	FORWARD:          0	MERGED:          0	TO_CACHE:     339014
LLC WQ	ACCESS:      66556	FORWARD:          1	MERGED:          0	TO_CACHE:      66556
LLC PQ	ACCESS:      66002	FORWARD:          0	MERGED:          0	TO_CACHE:      66001

LLC Dense regions hint to LLC: 0

RAW hits: 1526135
Loads Generated: 12740642
Loads sent to L1D: 11214507
Stores Generated: 6957586
Stores sent to L1D: 6957598
Major fault: 0 Minor fault: 2555
Allocated PAGES: 2555

stream: 
stream:times selected: 1117212
stream:pref_filled: 113297
stream:pref_useful: 22357
stream:pref_late: 6293
stream:misses: 5908
stream:misses_by_poll: 0

CS: 
CS:times selected: 161135
CS:pref_filled: 56303
CS:pref_useful: 33111
CS:pref_late: 6242
CS:misses: 14619
CS:misses_by_poll: 0

CPLX: 
CPLX:times selected: 954921
CPLX:pref_filled: 19725
CPLX:pref_useful: 4209
CPLX:pref_late: 3001
CPLX:misses: 82468
CPLX:misses_by_poll: 3

NL_L1: 
NL:times selected: 22594
NL:pref_filled: 541
NL:pref_useful: 234
NL:pref_late: 197
NL:misses: 792
NL:misses_by_poll: 0

total selections: 2255862
total_filled: 80550
total_useful: 28077
total_late: 16931
total_polluted: 3
total_misses_after_warmup: 672600
conflicts: 5944428

test: 118292

DRAM Statistics
 CHANNEL 0
 RQ ROW_BUFFER_HIT:       8762  ROW_BUFFER_MISS:      15931
 DBUS_CONGESTED:          8
 WQ ROW_BUFFER_HIT:       1297  ROW_BUFFER_MISS:      10462  FULL:          0

 AVG_CONGESTED_CYCLE: 6

CPU 0 Branch Prediction Accuracy: 99.8142% MPKI: 0.34676 Average ROB Occupancy at Mispredict: 111.114
Branch types
NOT_BRANCH: 40668620 81.3372%
BRANCH_DIRECT_JUMP: 550522 1.10104%
BRANCH_INDIRECT: 180197 0.360394%
BRANCH_CONDITIONAL: 6211450 12.4229%
BRANCH_DIRECT_CALL: 1021694 2.04339%
BRANCH_INDIRECT_CALL: 172711 0.345422%
BRANCH_RETURN: 1194406 2.38881%
BRANCH_OTHER: 0 0%

DRAM PAGES: 1048576
Allocated PAGES: 2555
Average_ROB_Occupancy: 75.3882
Average_Decode_Occupancy: 9.65892
Average_FTQ_Occupancy: 4.58319
Indirect max targets: 14 Average targets: 1.17981
Branch_type:  BRANCH_DIRECT_JUMP:  Count Percentage: 3.51883 4.82301 3.34978 8.43137 8.25386 5.88989 4.57344 61.1598 
Branch_type:  BRANCH_INDIRECT:  Count Percentage: 11.0281 3.21185 2.31018 18.4055 12.4856 2.64284 2.97137 46.9446 
Branch_type:  BRANCH_CONDITIONAL:  Count Percentage: 20.0361 2.44915 2.24138 9.14932 3.02301 4.22902 1.15979 57.7122 
Branch_type:  BRANCH_DIRECT_CALL:  Count Percentage: 0.348109 1.64048 0.638573 3.69267 2.06227 2.53535 3.09631 85.9862 
Branch_type:  BRANCH_INDIRECT_CALL:  Count Percentage: 8.95544 0 2.80752 0.00465399 0 2.13705 3.14115 82.9542 
Branch_type:  BRANCH_RETURN:  Count Percentage: 3.57183 1.69715 0.92131 8.44241 4.76302 4.79477 2.32511 73.4844 
Branch_type:  BRANCH_DIRECT_JUMP:  Total Count: 38675 53009 36817 92668 90717 64735 50266 672199 
Branch_type:  BRANCH_INDIRECT:  Total Count: 40080 11673 8396 66892 45377 9605 10799 170613 
Branch_type:  BRANCH_CONDITIONAL:  Total Count: 2481525 303334 277601 1133168 374408 523776 143643 7147816 
Branch_type:  BRANCH_DIRECT_CALL:  Total Count: 6836 32215 12540 72515 40498 49788 60804 1688558 
Branch_type:  BRANCH_INDIRECT_CALL:  Total Count: 30788 0 9652 16 0 7347 10799 285189 
Branch_type:  BRANCH_RETURN:  Total Count: 82454 39178 21268 194889 109952 110685 53674 1696352 
Number of unique branch instructions: 10867
Upper 32 bits: 
aaaa
ffff
ffff0000
Unique upper 32 bits: 3
Unique upper 36 bits: 3
Unique upper 40 bits: 5
Unique upper 44 bits: 32
Unique upper 48 bits: 159
Offset_3 4515
Offset_4 261
Offset_5 485
Offset_6 540
Offset_7 646
Offset_8 581
Offset_9 534
Offset_10 424
Offset_11 361
Offset_12 324
Offset_13 237
Offset_14 249
Offset_15 194
Offset_16 229
Offset_17 173
Offset_18 153
Offset_19 265
Offset_20 140
Offset_21 235
Offset_22 415
Offset_23 241
Offset_24 352
Offset_25 118
Offset_47 96
Offset_64 2
decode_dispatch_called: 22200997 35.4291
Dispatch_width: 0 11313828 50.9609 18.055
Dispatch_width: 1 799793 3.60251 1.27634
Dispatch_width: 2 908000 4.08991 1.44902
Dispatch_width: 3 664933 2.99506 1.06112
Dispatch_width: 4 2630638 11.8492 4.19806
Dispatch_width: 5 436280 1.96514 0.69623
Dispatch_width: 6 5447525 24.5373 8.69334
Empty_decode_cycles: 40462201 64.5709
ROB_full_cycles: 3113013 4.96785
Starvation_cycles_per_kilo_instr: 541.027
Starvation_cycles_per_kilo_instr_3: 510.357
Starvation_cycles_per_kilo_instr_0: 486.63
Branch_type_1  (3,1)  (4,7)  (5,39)  (6,74)  (7,128)  (8,148)  (9,139)  (10,113)  (11,81)  (12,55)  (13,11)  (14,2)  (15,3)  (16,4)  (18,1)  (19,5)  (20,2)  (21,1)  (22,3)  (23,2)  (24,10)  (25,13)  (64,1) 
Branch_type_2  (3,1)  (4,1)  (5,1)  (8,4)  (9,4)  (10,1)  (12,1)  (13,1)  (14,1)  (16,3)  (17,2)  (20,2)  (21,2)  (23,5)  (24,1)  (47,44) 
Branch_type_3  (3,4513)  (4,253)  (5,441)  (6,450)  (7,488)  (8,364)  (9,295)  (10,170)  (11,140)  (12,62)  (13,10) 
Branch_type_4  (6,3)  (7,8)  (8,25)  (9,55)  (10,67)  (11,71)  (12,114)  (13,101)  (14,111)  (15,92)  (16,101)  (17,82)  (18,67)  (19,129)  (20,71)  (21,124)  (22,220)  (23,136)  (24,208)  (25,101) 
Branch_type_5  (8,3)  (9,1)  (10,4)  (11,6)  (12,3)  (13,14)  (14,17)  (15,11)  (16,22)  (17,11)  (18,23)  (19,15)  (20,11)  (21,13)  (22,43)  (23,26)  (24,37) 
Branch_type_6  (5,4)  (6,13)  (7,22)  (8,37)  (9,40)  (10,69)  (11,63)  (12,89)  (13,100)  (14,118)  (15,88)  (16,99)  (17,78)  (18,62)  (19,116)  (20,54)  (21,95)  (22,149)  (23,72)  (24,96)  (25,4)  (47,52)  (64,1) 
aaaaab1fc620: 2ac9e77e 2aca717c 2aca8eff 2acaf6bc 2acaf9aa 2acaf9f1 2acb1abc 2acb1b7f 2acd4e22 2acdb712 2acf5f9e 2ad0ef44 2ad3f15c 2ad414e6 2ad60e42 2ad8609c 2ad99830 2ada35cc 2ada4676 2ada6612 2adf183e 2adf30e5 2adf5602 2adf785c 2ae11572 2aeb2dcf 2aee101b 2aee1ae1 2aee9456 2b156a8c 2b156b61 2b156bea 2b167f35 2b177656 2b17feec 2b1a3e5a 
aaaaab1fc640: 2ac9ec07 2aca656e 2aca801d 2acaea11 2acaee73 2acb13ee 2acb1470 2acd462b 2ad0ef5d 2ad3f3fe 2ad86e9b 2ada1641 2ada4115 2ada6638 2adf30d4 2ae12e57 2aee1033 2b1693ab 2b16948c 2b169491 2b17d915 2b17fa85 2b17fccd 
aaaaab1fc740: 2aca1fb0 2aca45b3 2aca5aa1 2aca5c69 2aca66f9 2aca9426 2acaeecb 2acf3d2d 2acf3d64 2acf6089 2ad017ea 2ad5e7ef 2ad61064 2ad87373 2ad9bf84 2ad9c093 2ae9b606 2aea9ffa 2aee99f5 2aee9a2c 2aeece4b 
aaaaab1fcb00: 2acf2d72 2acf3734 2acf604c 2acfa5b7 2ad397b5 2ad3b800 2ae8af7d 2ae8aff0 2ae9aaba 2aea9fc6 2aeaa358 2aee910b 2aee91cf 2aee928e 2aee92e4 2aee99de 2af6fe87 2af70dfe 2b16850c 2b16c4a2 2b1765f4 2b178094 2b17d925 2b17db06 2b17ec8f 
aaaaab1fcb10: 2acf2d95 2acf3758 2acf6052 2acfa5f4 2ad397c3 2ad3b81c 2ae8af88 2ae8affe 2ae9aacf 2aeaa017 2aeaa36d 2aee9114 2aee91d8 2aee934d 2aee9353 2aee9a14 2af6fe8c 2af70e22 2b168526 2b16c542 2b176609 2b1780a3 2b17d95d 2b17db44 2b17ecac 
aaaaac68f310: 2ac9ec8c 2ac9fb44 2ac9fbd2 2aca59ab 2acac04c 2acaf6e0 2acaf6ec 2acaf6f9 2acaf700 2acaf708 2acf2d90 2ad3cfbd 2ad3cfc4 2ad3d000 2ad3f35f 2ad4955d 2ad49571 2ad4f3f2 2ad4f400 2ad5f240 2ad5f37c 2ad5f86a 2ad5f86f 2ad5f880 2ad5fc0d 2ad5fc14 2ad5fc21 2ad5fe1b 2ad873bb 2ad873e3 2ad8a6b2 2ad9086e 2ad93096 2ad9bbb2 2ada152c 2ada1554 2ada3332 2ada5522 2adf3130 2adf313c 2adf3a3f 2adf3bd9 2adf5788 2adf7a8d 2ae07f6b 2ae0857a 2ae0857e 2ae08630 2ae08634 2ae08637 2ae08642 2ae0866f 2ae086e4 2ae086ec 2ae08717 2ae0871b 2aee0170 2aee1d38 2aee75f4 2aee7662 2aee85ca 2aee85e4 2aee8eef 2aee9a0a 2af70b84 2af74e8f 2b17d843 
aaaaac690ef0: 2aca598b 2acb111b 2acb175f 2acb1772 2acbfaf4 2acbfb00 2acf374f 2acf6d43 2acfa5c8 2ad3baf1 2ad3d4ac 2ad3d4b8 2ad3f1cf 2ad486b2 2ad5a59b 2ad5fc64 2ad5fcf9 2ad6121c 2ad906e9 2ad907bf 2ad9bada 2ada16ce 2ada1ad5 2ada43df 2ada64c0 2ada72ee 2adeb71a 2adf3bcb 2adf7a38 2adf7c6a 2adf8872 2adf8880 2adf9959 2adf9abe 2ae07f78 2ae08503 2ae08754 2ae12e80 2aea3bea 2aecb509 2aee00b0 2aee2bdd 2aee5467 2aee5601 2aee8f20 2af703fd 2af7048b 2af74e74 2dfba627 
Unique trigger count: 
1 10355
2 564
3 91
4 33
5 14
6 10
7 9
8 2
9 3
10 3
11 1
12 1
13 1
14 3
16 2
19 1
21 1
23 1
25 2
36 1
49 1
67 1
BTB PER SET UNIQUE ADDR: 6 7 6 5 3 4 7 9 11 2 5 2 8 6 4 4 6 5 8 9 5 8 7 8 8 11 1 7 6 6 10 10 6 6 8 4 4 8 6 3 8 5 6 10 9 8 5 12 11 6 5 3 13 3 3 7 5 5 9 8 4 12 4 8 5 10 9 9 7 8 6 2 6 6 6 7 6 15 8 5 8 6 7 6 6 7 7 8 8 10 12 9 9 6 8 5 10 8 5 5 8 7 10 9 7 8 7 8 7 5 6 7 4 8 5 11 3 8 6 2 8 9 4 3 6 4 4 7 11 8 11 3 12 6 9 6 5 3 7 8 8 8 7 6 5 11 5 8 12 8 7 14 6 11 6 9 8 9 6 11 11 8 11 5 12 8 3 4 13 7 6 4 8 7 4 3 6 8 10 5 6 7 10 8 9 12 7 6 6 8 6 8 6 7 6 10 12 4 11 6 4 6 8 4 8 4 5 8 7 2 3 7 10 9 7 6 4 9 7 6 6 4 7 8 6 8 13 7 3 12 14 9 4 5 7 9 11 5 4 6 4 3 10 8 17 11 1 7 6 7 9 10 6 7 5 12 4 9 11 6 8 6 7 4 9 16 6 6 7 5 7 7 5 8 9 9 7 4 5 8 9 6 9 5 9 9 6 7 8 4 5 8 5 11 7 3 5 10 7 6 6 6 5 4 6 4 6 4 12 9 6 4 8 4 6 5 9 13 6 5 7 10 5 9 5 6 6 10 3 1 9 2 5 7 9 4 7 8 8 1 6 6 3 10 7 8 3 8 11 7 5 13 11 6 8 7 7 2 8 5 7 10 6 8 11 8 4 4 4 4 8 5 6 5 8 4 11 9 8 10 9 7 6 12 6 5 8 5 8 4 9 6 9 4 7 4 5 5 2 8 7 5 8 7 5 6 9 6 5 3 5 4 12 7 2 6 9 4 2 8 3 6 7 8 11 9 4 3 5 8 4 4 17 6 8 11 7 6 7 4 6 6 10 4 8 9 6 7 5 4 6 3 5 3 9 3 5 8 10 6 5 5 7 11 5 5 12 3 5 8 3 6 10 7 4 3 10 5 4 4 5 2 4 4 3 7 8 4 7 2 13 5 4 8 1 12 5 7 6 5 11 3 5 3 2 5 6 3 5 6 8 4 8 11 3 5 2 11 6 9 7 4 8 6 11 9 6 9 9 8 7 6 6 8 5 6 7 1 6 4 5 8 12 4 9 5 10 14 14 11 7 9 7 8 2 6 9 3 7 4 10 5 9 5 5 6 10 10 11 7 7 4 11 11 6 7 6 12 3 11 13 5 2 6 5 3 3 15 8 6 8 9 4 7 6 5 9 5 6 5 13 5 11 12 9 6 5 9 9 5 8 8 8 7 8 5 7 5 5 7 8 7 11 4 5 10 8 8 4 6 8 7 7 7 7 9 6 7 6 4 11 8 4 6 3 3 7 8 8 9 7 5 10 3 5 4 11 5 6 8 12 3 6 11 8 7 7 6 6 10 7 8 6 8 11 9 8 6 8 6 9 11 9 6 8 8 6 9 7 6 3 8 3 5 5 7 10 7 7 9 3 12 6 5 7 13 3 4 5 5 7 8 6 5 5 7 11 6 1 8 5 3 5 4 4 3 3 9 2 11 8 11 8 2 7 8 10 3 6 4 5 8 5 10 4 5 6 4 8 7 6 3 4 7 2 5 5 11 9 4 6 6 6 7 7 6 14 6 6 4 9 6 0 5 7 5 6 10 4 3 9 6 4 6 10 9 9 8 3 9 3 9 6 7 6 13 12 5 6 4 13 4 8 4 7 7 7 9 5 7 3 4 6 5 5 6 1 5 5 10 7 4 9 4 5 6 6 4 7 6 7 3 7 4 10 6 4 5 6 5 5 5 6 6 5 7 9 6 6 4 8 8 6 9 6 10 8 5 7 6 7 7 4 4 12 7 6 8 10 10 4 7 6 9 8 2 3 6 7 4 3 8 6 7 10 5 8 5 6 7 9 3 4 7 5 3 9 12 5 5 12 8 6 6 9 7 7 11 7 8 10 7 5 5 3 10 6 7 8 6 9 7 9 7 9 9 6 5 5 13 6 4 11 10 6 8 10 11 3 9 9 9 6 4 6 8 9 7 10 6 10 3 13 7 5 6 9 13 6 9 6 7 11 6 3 9 10 9 11 5 3 5 3 9 12 6 8 5 4 7 13 7 4 5 5 8 4 5 9 8 8 7 7 11 5 11 6 11 5 6 5 5 6 5 8 6 7 6 7 7 9 4 9 6 11 5 9 5 3 8 11 6 14 5 
BTB PER SET COUNT: 15 6456 6458 9 3 5 2452 6460 7843 5 1329 2 3100 1333 4 7 1799 8 1870 6136 9 2799 957 3117 7401 9223 1 726 2784 30 9168 6555 5130 6 3110 7 2764 2243 1002 4 2227 709 36 3337 10155 727 2214 7342 8406 3041 470 3 13360 3 3 3097 948 6895 6016 5226 4 8395 5 3108 23 6943 1877 1789 1335 2485 3325 2 32 11 1223 2656 651 8618 951 9 2842 5129 2452 2446 1822 3978 1786 2675 8719 4414 7216 3789 3543 4244 1783 8 6391 2664 7 888 2248 1057 3118 4878 15 6020 1775 3482 3095 1336 2213 10 5 4840 19 10028 3 1786 1423 2 3099 5644 4 6 3140 4 4 5086 10091 1776 4452 3 9933 15 8284 1773 1329 3 34 7839 6401 7510 1344 4698 8 4015 8 6454 7185 2220 1717 9982 2656 11037 179 5515 7342 7838 1960 7946 11071 2475 9676 2469 7363 3654 3 4 12913 1775 10 4 1081 161 4 6 26 1778 6502 8 436 1334 9219 301 1348 9660 3811 22 6017 6115 58 6888 1337 2656 2656 2698 9244 4 1797 10 6 433 5970 6 5141 4 1329 4250 730 2 5 3303 2119 6130 5107 5129 5 5075 1120 6899 391 5 1987 6459 6005 6017 11522 5001 5 10597 11047 6537 4 6 30 7395 3547 6 4 14 5 3 10099 2150 12867 7385 1 3753 892 15 8286 8865 6510 1781 19 7885 5 3076 3555 1331 3424 949 2630 4 5218 12237 1411 11 2224 2212 2684 2215 9 6897 3548 2687 1773 4 11 3103 3138 10 2692 784 8773 8225 2654 3559 1828 4 1770 3101 451 7400 2656 11 26 7312 2215 4195 2656 1775 9 4 2006 4 955 4 7163 4813 1185 4 2866 4 1179 9 3546 8724 2658 6 3328 4756 944 6894 35 2214 26 3329 3 1 4626 2 1077 2016 9563 4 3540 2219 2229 1 17 953 3 3798 1570 926 4 951 2975 13 5 6990 6017 4069 2715 27 8722 3 6013 1794 2217 4289 30 2896 3841 6953 4 6 4 5 2663 9 2007 709 2418 4 7977 46 1334 3778 3108 3098 2653 10725 29 9 1790 944 717 5 4076 21 3545 6 5132 6 3238 3793 2 1786 2543 9 2564 1335 771 24 4328 11 7 2207 10 4 4046 18 938 892 1610 4 3 1735 3 893 686 1817 5588 1002 10 3 6 2216 124 4 8345 1754 6347 8752 1345 5650 2658 4 17 900 2790 5 1783 2897 10 3152 23 4 2655 3 9 5 8858 3 7 1427 6910 25 894 8 1992 6912 898 22 8330 3 16 1340 3 989 6883 777 120 3 25330 944 5 4 28 2 5 446 5 2282 2409 311 1762 2 6252 9 6 6560 1 9707 16 2228 9 8 10812 15 11 4 2 1328 33 3 6 52 2298 5 277 6421 4 5 2 11533 24 2679 2222 1383 2230 416 4150 6406 11 5520 7400 5475 18 2358 11 502 13 2657 16 1 955 4 7 5963 6515 10 4935 21 1946 4225 10053 9988 1340 7398 1367 6447 2 1757 4542 4 2214 5 9762 10 6019 9 3262 890 6021 2645 7396 2690 7001 6 7835 10603 5128 2668 4444 9219 4 6807 11201 285 3 2655 1384 3 4 10039 2693 23 4417 3102 5 1827 949 1774 50 1771 16 9 6426 2212 8773 4223 5529 2666 14 7671 7402 1399 3541 1758 2216 3315 7391 9 4219 1771 28 5136 2569 2028 7344 4 1399 3990 2226 6018 10 2214 6013 9658 1776 40 7835 21 955 16 891 4 10108 3710 4 32 3 3 1342 2220 7846 35 5528 8 11979 4 888 4 9275 1329 7731 3539 14966 3 1777 11325 5965 3543 4991 905 24 3989 4144 7339 2216 2661 9551 3728 2661 2214 7052 2213 7836 10132 2353 6407 19751 3327 2231 6459 2761 2216 3 2742 4 9 7 2214 7842 2216 1343 1365 3 9168 10 2213 5283 6904 3 1383 1772 2268 5573 2230 3762 888 1819 3017 8732 3311 1 6897 10 4 4142 4 4 5 3 7669 2 9666 6460 9052 8282 2 1782 4385 3903 3 1776 4 9 5554 27 12028 4 5 2221 5 1343 3102 6898 3 4 481 2 1329 7 9174 9713 940 14 6897 5518 2016 3763 2005 11983 591 2231 4 2721 734 0 1808 64 1393 4690 3949 4 3 4593 23 4 5627 5134 6953 3075 115 396 3541 3 3868 12 1783 2355 9833 7359 7 1771 4 9249 5 6864 6 2945 3522 4702 8694 9 33 3 6 1368 501 5 33 1 44 9 6772 541 4 5525 334 1331 11 1648 4 2215 2213 3961 3 6950 4 10199 2018 4 7 2656 8 1966 9 1773 5628 5 2892 6080 1333 1332 5 8227 2942 2657 5087 2213 11532 2658 8 6452 3480 1607 6898 4 4 10209 960 722 9161 9605 7805 4 5628 2654 6578 5130 2 5 1334 61 4 3 7837 46 3639 6552 1024 3105 8 17 3133 6456 4 5 2572 1431 3 3463 6748 7 7 4997 4416 125 69 2714 2484 19 5364 175 3773 3072 1354 8 6 4 3104 12 896 7343 2567 6402 1778 7844 4688 6365 2954 2216 7 1771 3617 26 447 7599 5301 1332 3539 6721 8233 3 3105 2931 3525 9 940 1246 3099 2245 2214 5050 10 6123 3 9654 3575 6 1543 7699 10493 3402 4698 1778 1781 9169 4691 4 3257 5056 2570 3109 7 4 1329 3 7679 5326 1699 6958 20 5 2227 9168 35 448 492 1771 2221 4 7 4548 2218 6009 1790 3098 8691 8 3114 2214 5352 13 1338 7 12 1360 7 1778 38 5516 11 1773 16 7353 4 9711 1658 5968 7 2561 13 6 38 4564 2000 6207 23 
