
*** ChampSim Multicore Out-of-Order Simulator ***

Warmup Instructions: 50000000
Simulation Instructions: 50000000
Number of CPUs: 1
LLC sets: 2048
LLC ways: 16
Off-chip DRAM Size: 4096 MB Channels: 1 Width: 64-bit Data Rate: 6400 MT/s
CPU 0 runs ./micro_traces/srv38.trace.gz
.gz
ITLB has LRU replacement policy
DTLB has LRU replacement policy
STLB has LRU replacement policy
FDIP Prefetcher at L1I
L1I has LRU replacement policy
L1D has LRU replacement policy
Initialize SRRIP state for L2C
Initialize DRRIP state for LLC
Heartbeat_Variant_0 : 1364 0.333008 per_variant_size: 0 1364 0 0 0 0 0 0 0 
Heartbeat_Variant_1 : 2634 0.643066 per_variant_size: 0 468 2166 0 0 0 0 0 0 
Heartbeat_Variant_2 : 0 0 per_variant_size: 0 0 0 0 0 0 0 0 0 
Heartbeat_Variant_3 : 0 0 per_variant_size: 0 0 0 0 0 0 0 0 0 
Heartbeat_Variant_0_evicts 0 : 6067 1 : 888 2 : 0 3 : 0 
Heartbeat_Variant_1_evicts 0 : 841 1 : 0 2 : 0 3 : 0 
Heartbeat_Variant_2_evicts 0 : 0 1 : 0 2 : 0 3 : 0 
Heartbeat_Variant_3_evicts 0 : 0 1 : 0 2 : 0 3 : 0 
Heartbeat CPU 0 instructions: 10000000 cycles: 2796162 heartbeat IPC: 3.57633 cumulative IPC: 3.57633 (Simulation time: 0 hr 1 min 40 sec) 
Heartbeat_Variant_0 : 1375 0.335693 per_variant_size: 0 1375 0 0 0 0 0 0 0 
Heartbeat_Variant_1 : 2672 0.652344 per_variant_size: 0 459 2213 0 0 0 0 0 0 
Heartbeat_Variant_2 : 0 0 per_variant_size: 0 0 0 0 0 0 0 0 0 
Heartbeat_Variant_3 : 0 0 per_variant_size: 0 0 0 0 0 0 0 0 0 
Heartbeat_Variant_0_evicts 0 : 5737 1 : 411 2 : 0 3 : 0 
Heartbeat_Variant_1_evicts 0 : 410 1 : 0 2 : 0 3 : 0 
Heartbeat_Variant_2_evicts 0 : 0 1 : 0 2 : 0 3 : 0 
Heartbeat_Variant_3_evicts 0 : 0 1 : 0 2 : 0 3 : 0 
Heartbeat CPU 0 instructions: 20000002 cycles: 5589980 heartbeat IPC: 3.57933 cumulative IPC: 3.57783 (Simulation time: 0 hr 3 min 18 sec) 
Heartbeat_Variant_0 : 1379 0.33667 per_variant_size: 0 1379 0 0 0 0 0 0 0 
Heartbeat_Variant_1 : 2691 0.656982 per_variant_size: 0 445 2246 0 0 0 0 0 0 
Heartbeat_Variant_2 : 0 0 per_variant_size: 0 0 0 0 0 0 0 0 0 
Heartbeat_Variant_3 : 0 0 per_variant_size: 0 0 0 0 0 0 0 0 0 
Heartbeat_Variant_0_evicts 0 : 5681 1 : 427 2 : 0 3 : 0 
Heartbeat_Variant_1_evicts 0 : 426 1 : 0 2 : 0 3 : 0 
Heartbeat_Variant_2_evicts 0 : 0 1 : 0 2 : 0 3 : 0 
Heartbeat_Variant_3_evicts 0 : 0 1 : 0 2 : 0 3 : 0 
Heartbeat CPU 0 instructions: 30000003 cycles: 8385458 heartbeat IPC: 3.57721 cumulative IPC: 3.57762 (Simulation time: 0 hr 4 min 48 sec) 
Heartbeat_Variant_0 : 1383 0.337646 per_variant_size: 0 1383 0 0 0 0 0 0 0 
Heartbeat_Variant_1 : 2690 0.656738 per_variant_size: 0 415 2275 0 0 0 0 0 0 
Heartbeat_Variant_2 : 0 0 per_variant_size: 0 0 0 0 0 0 0 0 0 
Heartbeat_Variant_3 : 0 0 per_variant_size: 0 0 0 0 0 0 0 0 0 
Heartbeat_Variant_0_evicts 0 : 5664 1 : 301 2 : 0 3 : 0 
Heartbeat_Variant_1_evicts 0 : 297 1 : 0 2 : 0 3 : 0 
Heartbeat_Variant_2_evicts 0 : 0 1 : 0 2 : 0 3 : 0 
Heartbeat_Variant_3_evicts 0 : 0 1 : 0 2 : 0 3 : 0 
Heartbeat CPU 0 instructions: 40000000 cycles: 11180480 heartbeat IPC: 3.57779 cumulative IPC: 3.57766 (Simulation time: 0 hr 6 min 28 sec) 
Heartbeat_Variant_0 : 1378 0.336426 per_variant_size: 0 1378 0 0 0 0 0 0 0 
Heartbeat_Variant_1 : 2698 0.658691 per_variant_size: 0 415 2283 0 0 0 0 0 0 
Heartbeat_Variant_2 : 0 0 per_variant_size: 0 0 0 0 0 0 0 0 0 
Heartbeat_Variant_3 : 0 0 per_variant_size: 0 0 0 0 0 0 0 0 0 
Heartbeat_Variant_0_evicts 0 : 5842 1 : 412 2 : 0 3 : 0 
Heartbeat_Variant_1_evicts 0 : 417 1 : 0 2 : 0 3 : 0 
Heartbeat_Variant_2_evicts 0 : 0 1 : 0 2 : 0 3 : 0 
Heartbeat_Variant_3_evicts 0 : 0 1 : 0 2 : 0 3 : 0 
Heartbeat CPU 0 instructions: 50000001 cycles: 13975285 heartbeat IPC: 3.57807 cumulative IPC: 3.57774 (Simulation time: 0 hr 8 min 9 sec) 

Warmup complete CPU 0 instructions: 50000001 cycles: 13975285 (Simulation time: 0 hr 8 min 9 sec) 

*** Reached end of trace for Core: 0 Repeating trace: ./micro_traces/srv38.trace.gz
Cycle: 20000000 FTQ IN: 57657222 FTQ occupancy: 18.6613 DECODE IN: 57657113 DECODE occupancy: 47.9712 ROB IN: 57657053 ROB occupancy: 294.638 ROB OUT: 57656705
Heartbeat_Variant_0 : 1386 0.338379 per_variant_size: 0 1386 0 0 0 0 0 0 0 
Heartbeat_Variant_1 : 2694 0.657715 per_variant_size: 0 412 2282 0 0 0 0 0 0 
Heartbeat_Variant_2 : 0 0 per_variant_size: 0 0 0 0 0 0 0 0 0 
Heartbeat_Variant_3 : 0 0 per_variant_size: 0 0 0 0 0 0 0 0 0 
Heartbeat_Variant_0_evicts 0 : 5900 1 : 574 2 : 0 3 : 0 
Heartbeat_Variant_1_evicts 0 : 566 1 : 0 2 : 0 3 : 0 
Heartbeat_Variant_2_evicts 0 : 0 1 : 0 2 : 0 3 : 0 
Heartbeat_Variant_3_evicts 0 : 0 1 : 0 2 : 0 3 : 0 
Heartbeat CPU 0 instructions: 60000003 cycles: 21778467 heartbeat IPC: 1.28153 cumulative IPC: 1.28153 (Simulation time: 0 hr 9 min 43 sec) 
Heartbeat_Variant_0 : 1384 0.337891 per_variant_size: 0 1384 0 0 0 0 0 0 0 
Heartbeat_Variant_1 : 2699 0.658936 per_variant_size: 0 451 2248 0 0 0 0 0 0 
Heartbeat_Variant_2 : 0 0 per_variant_size: 0 0 0 0 0 0 0 0 0 
Heartbeat_Variant_3 : 0 0 per_variant_size: 0 0 0 0 0 0 0 0 0 
Heartbeat_Variant_0_evicts 0 : 5961 1 : 768 2 : 0 3 : 0 
Heartbeat_Variant_1_evicts 0 : 770 1 : 0 2 : 0 3 : 0 
Heartbeat_Variant_2_evicts 0 : 0 1 : 0 2 : 0 3 : 0 
Heartbeat_Variant_3_evicts 0 : 0 1 : 0 2 : 0 3 : 0 
Heartbeat CPU 0 instructions: 70000002 cycles: 29618449 heartbeat IPC: 1.27551 cumulative IPC: 1.27851 (Simulation time: 0 hr 11 min 16 sec) 
Cycle: 30000000 FTQ IN: 12844630 FTQ occupancy: 8.44625 DECODE IN: 12844708 DECODE occupancy: 19.7917 ROB IN: 12844768 ROB occupancy: 169.181 ROB OUT: 12845094
Heartbeat_Variant_0 : 1380 0.336914 per_variant_size: 0 1380 0 0 0 0 0 0 0 
Heartbeat_Variant_1 : 2705 0.6604 per_variant_size: 0 452 2253 0 0 0 0 0 0 
Heartbeat_Variant_2 : 0 0 per_variant_size: 0 0 0 0 0 0 0 0 0 
Heartbeat_Variant_3 : 0 0 per_variant_size: 0 0 0 0 0 0 0 0 0 
Heartbeat_Variant_0_evicts 0 : 5715 1 : 555 2 : 0 3 : 0 
Heartbeat_Variant_1_evicts 0 : 560 1 : 0 2 : 0 3 : 0 
Heartbeat_Variant_2_evicts 0 : 0 1 : 0 2 : 0 3 : 0 
Heartbeat_Variant_3_evicts 0 : 0 1 : 0 2 : 0 3 : 0 
Heartbeat CPU 0 instructions: 80000002 cycles: 37316958 heartbeat IPC: 1.29895 cumulative IPC: 1.28525 (Simulation time: 0 hr 12 min 49 sec) 
Cycle: 40000000 FTQ IN: 12999755 FTQ occupancy: 8.37565 DECODE IN: 12999708 DECODE occupancy: 19.8223 ROB IN: 12999648 ROB occupancy: 171.623 ROB OUT: 12999427
Heartbeat_Variant_0 : 1386 0.338379 per_variant_size: 0 1386 0 0 0 0 0 0 0 
Heartbeat_Variant_1 : 2699 0.658936 per_variant_size: 0 438 2261 0 0 0 0 0 0 
Heartbeat_Variant_2 : 0 0 per_variant_size: 0 0 0 0 0 0 0 0 0 
Heartbeat_Variant_3 : 0 0 per_variant_size: 0 0 0 0 0 0 0 0 0 
Heartbeat_Variant_0_evicts 0 : 5760 1 : 384 2 : 0 3 : 0 
Heartbeat_Variant_1_evicts 0 : 378 1 : 0 2 : 0 3 : 0 
Heartbeat_Variant_2_evicts 0 : 0 1 : 0 2 : 0 3 : 0 
Heartbeat_Variant_3_evicts 0 : 0 1 : 0 2 : 0 3 : 0 
Heartbeat CPU 0 instructions: 90000003 cycles: 45054648 heartbeat IPC: 1.29238 cumulative IPC: 1.28703 (Simulation time: 0 hr 14 min 21 sec) 
Cycle: 50000000 FTQ IN: 12978743 FTQ occupancy: 8.59296 DECODE IN: 12978798 DECODE occupancy: 20.1235 ROB IN: 12978808 ROB occupancy: 172.737 ROB OUT: 12978699
Heartbeat_Variant_0 : 1381 0.337158 per_variant_size: 0 1381 0 0 0 0 0 0 0 
Heartbeat_Variant_1 : 2704 0.660156 per_variant_size: 0 429 2275 0 0 0 0 0 0 
Heartbeat_Variant_2 : 0 0 per_variant_size: 0 0 0 0 0 0 0 0 0 
Heartbeat_Variant_3 : 0 0 per_variant_size: 0 0 0 0 0 0 0 0 0 
Heartbeat_Variant_0_evicts 0 : 5548 1 : 103 2 : 0 3 : 0 
Heartbeat_Variant_1_evicts 0 : 108 1 : 0 2 : 0 3 : 0 
Heartbeat_Variant_2_evicts 0 : 0 1 : 0 2 : 0 3 : 0 
Heartbeat_Variant_3_evicts 0 : 0 1 : 0 2 : 0 3 : 0 
Heartbeat CPU 0 instructions: 100000003 cycles: 52652536 heartbeat IPC: 1.31616 cumulative IPC: 1.29275 (Simulation time: 0 hr 15 min 51 sec) 
Finished CPU 0 instructions: 50000002 cycles: 38677251 cumulative IPC: 1.29275 (Simulation time: 0 hr 15 min 51 sec) 

ChampSim completed all CPUs

Region of Interest Statistics

CPU 0 cumulative IPC: 1.29275 instructions: 50000002 cycles: 38677251
 Fetch stage stalled: 64.973  Sim cycles: 38677251 fetch stall cycle: 25129765
 Empty decode stage: 63.4633  Sim cycles: 38677251 fetch stall cycle: 24545867
ITLB TOTAL     ACCESS:    5857513  HIT:    5366574  MISS:     490939  HIT %:    91.6186  MISS %:    8.38136   MPKI: 9.81878
ITLB LOAD TRANSLATION INSTRUCTION	ACCESS:    5744229  HIT:    5253290  MISS:     490939  HIT %:    91.4534  MISS %:    8.54665  MPKI: 9.81878
ITLB TRANSLATION FROM L1D PREFETCHER INSTRUCTION	ACCESS:     113284  HIT:     113284  MISS:          0  HIT %:        100  MISS %:          0  MPKI: 0

ITLB AVERAGE MISS LATENCY: 9.05951 cycles
ITLB RQ	ACCESS:    7958819	FORWARD:          0	MERGED:    1695989	TO_CACHE:    6262830

DTLB TOTAL     ACCESS:    9085069  HIT:    8609209  MISS:     475860  HIT %:    94.7622  MISS %:    5.23782   MPKI: 9.5172
DTLB LOAD TRANSLATION DATA	ACCESS:    9085069  HIT:    8609209  MISS:     475860  HIT %:    94.7622  MISS %:    5.23782  MPKI: 9.5172

DTLB AVERAGE MISS LATENCY: 9.31229 cycles
DTLB RQ	ACCESS:   13413715	FORWARD:          0	MERGED:    4290715	TO_CACHE:    9123000

STLB TOTAL     ACCESS:    1222503  HIT:    1219995  MISS:       2508  HIT %:    99.7948  MISS %:   0.205153   MPKI: 0.05016
STLB LOAD TRANSLATION INSTRUCTION	ACCESS:     490939  HIT:     490592  MISS:        347  HIT %:    99.9293  MISS %:  0.0706809  MPKI: 0.00694
STLB LOAD TRANSLATION DATA	ACCESS:     475773  HIT:     473661  MISS:       2112  HIT %:    99.5561  MISS %:   0.443909  MPKI: 0.04224
STLB TRANSLATION FROM L1D PREFETCHER DATA	ACCESS:     255791  HIT:     255742  MISS:         49  HIT %:    99.9808  MISS %:  0.0191563  MPKI: 0.00098

STLB AVERAGE MISS LATENCY: 60.1392 cycles
STLB RQ	ACCESS:    1369602	FORWARD:          0	MERGED:     147071	TO_CACHE:    1222531

STLB Hit, L1D data hit: 0
STLB Hit, L2C data hit: 0
STLB Hit, LLC data hit: 0
STLB Hit, LLC data miss: 0
STLB STLB hints to L2: 0
L1D TOTAL     ACCESS:   13166019  HIT:   11997198  MISS:    1168821  HIT %:    91.1224  MISS %:    8.87756   MPKI: 23.3764
L1D LOAD DATA	ACCESS:    6657925  HIT:    5890360  MISS:     767565  HIT %:    88.4714  MISS %:    11.5286  MPKI: 15.3513
L1D RFO DATA	ACCESS:    6171244  HIT:    5877547  MISS:     293697  HIT %:    95.2409  MISS %:    4.75912  MPKI: 5.87394
L1D PREFETCH DATA	ACCESS:     336850  HIT:     229291  MISS:     107559  HIT %:    68.0692  MISS %:    31.9308  MPKI: 2.15118

L1D PREFETCH  REQUESTED:     805965  ISSUED:     805965  USEFUL:      50263  USELESS:      70690
L1D USEFUL LOAD PREFETCHES:      50263 PREFETCH ISSUED TO LOWER LEVEL:     121026  ACCURACY: 41.5307
 TIMELY PREFETCHES:      50263 LATE PREFETCHES: 13422 DROPPED PREFETCHES: 2
L1D AVERAGE MISS LATENCY: 376655 cycles
L1D RQ	ACCESS:   10747618	FORWARD:          0	MERGED:    3894002	TO_CACHE:    6692686
L1D WQ	ACCESS:    6907638	FORWARD:     161289	MERGED:     186609	TO_CACHE:    6721029
L1D PQ	ACCESS:     403162	FORWARD:          0	MERGED:          0	TO_CACHE:     402803

L1D UNIQUE REGIONS ACCESSED: 0
L1D REGIONS CONFLICTS: 0
L1D Cross Page Prefetch Requests: 8224
L1D Same Page Prefetch Requests: 811970
L1D ROI Sum of L1D PQ occupancy: 5140229
L1D PREFETCHES PUSHED FROM L2C: 0
L1I TOTAL     ACCESS:    7214173  HIT:    4465662  MISS:    2748511  HIT %:    61.9012  MISS %:    38.0988   MPKI: 54.9702
L1I LOAD INSTRUCTION	ACCESS:    6575135  HIT:    3826624  MISS:    2748511  HIT %:    58.1984  MISS %:    41.8016  MPKI: 54.9702
L1I PREFETCH INSTRUCTION	ACCESS:     639038  HIT:     639038  MISS:          0  HIT %:        100  MISS %:          0  MPKI: 0

L1I PREFETCH  REQUESTED:    1519079  ISSUED:    1519079  USEFUL:          0  USELESS:          0
L1I USEFUL LOAD PREFETCHES:          0 PREFETCH ISSUED TO LOWER LEVEL:          0  ACCURACY: -nan
 TIMELY PREFETCHES:          0 LATE PREFETCHES: 0 DROPPED PREFETCHES: 0
L1I AVERAGE MISS LATENCY: 17.3597 cycles
L1I RQ	ACCESS:    9451166	FORWARD:          0	MERGED:    2591089	TO_CACHE:    6860077
L1I PQ	ACCESS:    1519079	FORWARD:          0	MERGED:     420337	TO_CACHE:    1098742

L1BTB TOTAL     ACCESS:    5680877  HIT:    2074074  MISS:    3606803  HIT %:    36.5098  MISS %:    63.4902   MPKI: 72.1361
L1BTB BRANCH_DIRECT_JUMP	ACCESS:     543190 HIT:     143754 MISS:     399436 AVERAGE STALL: 31.5915 AVERAGE FETCH STALL: 14.7789 AVERAGE FETCH QUEUE STALL: 7.06075 AVERAGE DECODE STALL: 8.83659 AVERAGE EXECUTE STALL: 2.09479e+15
L1BTB BRANCH_INDIRECT	ACCESS:     181400 HIT:      65431 MISS:     115969 AVERAGE STALL: 79.2182 AVERAGE FETCH STALL: 10.7221 AVERAGE FETCH QUEUE STALL: 8.78358 AVERAGE DECODE STALL: 7.36742 AVERAGE EXECUTE STALL: 51.3831
L1BTB BRANCH_CONDITIONAL	ACCESS:    2732102 HIT:    1447748 MISS:    1284354 AVERAGE STALL: 41.3032 AVERAGE FETCH STALL: 21.4533 AVERAGE FETCH QUEUE STALL: 10.5757 AVERAGE DECODE STALL: 8.67579 AVERAGE EXECUTE STALL: 1.7112e+15
L1BTB BRANCH_DIRECT_CALL	ACCESS:     941242 HIT:     104903 MISS:     836339 AVERAGE STALL: 53.6329 AVERAGE FETCH STALL: 31.7242 AVERAGE FETCH QUEUE STALL: 11.3712 AVERAGE DECODE STALL: 9.78601 AVERAGE EXECUTE STALL: 4.0569e+15
L1BTB BRANCH_INDIRECT_CALL	ACCESS:     170851 HIT:      21534 MISS:     149317 AVERAGE STALL: 103.78 AVERAGE FETCH STALL: 13.474 AVERAGE FETCH QUEUE STALL: 6.92131 AVERAGE DECODE STALL: 7.11347 AVERAGE EXECUTE STALL: 75.7807
L1BTB BRANCH_RETURN	ACCESS:    1112092 HIT:     290704 MISS:     821388 AVERAGE STALL: 40.0107 AVERAGE FETCH STALL: 17.2915 AVERAGE FETCH QUEUE STALL: 3.43548 AVERAGE DECODE STALL: 5.34394 AVERAGE EXECUTE STALL: 4.17074e+14
L1BTB BRANCH_OTHER ACCESS:          0 HIT:          0 MISS:          0 AVERAGE STALL: -nan AVERAGE FETCH STALL: -nan AVERAGE FETCH QUEUE STALL: -nan AVERAGE DECODE STALL: -nan AVERAGE EXECUTE STALL: -nan
L1BTB TOTAL ROB OCCUPANCY AT BTB MISS: 2.21946

L2BTB TOTAL     ACCESS:    3581836  HIT:    3505400  MISS:      76436  HIT %:     97.866  MISS %:    2.13399   MPKI: 1.52872
L2BTB BRANCH_DIRECT_JUMP	ACCESS:     395331 HIT:     390604 MISS:       4727 AVERAGE STALL: 31.5915 AVERAGE FETCH STALL: 14.7789 AVERAGE FETCH QUEUE STALL: 7.06075 AVERAGE DECODE STALL: 8.83659 AVERAGE EXECUTE STALL: 2.09479e+15
L2BTB BRANCH_INDIRECT	ACCESS:     105737 HIT:     102961 MISS:       2776 AVERAGE STALL: 79.2182 AVERAGE FETCH STALL: 10.7221 AVERAGE FETCH QUEUE STALL: 8.78358 AVERAGE DECODE STALL: 7.36742 AVERAGE EXECUTE STALL: 51.3831
L2BTB BRANCH_CONDITIONAL	ACCESS:    1284354 HIT:    1273460 MISS:      10894 AVERAGE STALL: 41.3032 AVERAGE FETCH STALL: 21.4533 AVERAGE FETCH QUEUE STALL: 10.5757 AVERAGE DECODE STALL: 8.67579 AVERAGE EXECUTE STALL: 1.7112e+15
L2BTB BRANCH_DIRECT_CALL	ACCESS:     836339 HIT:     831763 MISS:       4576 AVERAGE STALL: 53.6329 AVERAGE FETCH STALL: 31.7242 AVERAGE FETCH QUEUE STALL: 11.3712 AVERAGE DECODE STALL: 9.78601 AVERAGE EXECUTE STALL: 4.0569e+15
L2BTB BRANCH_INDIRECT_CALL	ACCESS:     139904 HIT:     129478 MISS:      10426 AVERAGE STALL: 103.78 AVERAGE FETCH STALL: 13.474 AVERAGE FETCH QUEUE STALL: 6.92131 AVERAGE DECODE STALL: 7.11347 AVERAGE EXECUTE STALL: 75.7807
L2BTB BRANCH_RETURN	ACCESS:     820171 HIT:     777134 MISS:      43037 AVERAGE STALL: 40.0107 AVERAGE FETCH STALL: 17.2915 AVERAGE FETCH QUEUE STALL: 3.43548 AVERAGE DECODE STALL: 5.34394 AVERAGE EXECUTE STALL: 4.17074e+14
L2BTB BRANCH_OTHER ACCESS:          0 HIT:          0 MISS:          0 AVERAGE STALL: -nan AVERAGE FETCH STALL: -nan AVERAGE FETCH QUEUE STALL: -nan AVERAGE DECODE STALL: -nan AVERAGE EXECUTE STALL: -nan
L2BTB TOTAL ROB OCCUPANCY AT BTB MISS: 104.73

L2C TOTAL     ACCESS:    4546106  HIT:    4020714  MISS:     525392  HIT %:     88.443  MISS %:     11.557   MPKI: 10.5078
L2C LOAD INSTRUCTION	ACCESS:    2748510  HIT:    2472490  MISS:     276020  HIT %:    89.9575  MISS %:    10.0425  MPKI: 5.5204
L2C LOAD TRANSLATION INSTRUCTION	ACCESS:        404  HIT:        103  MISS:        301  HIT %:     25.495  MISS %:     74.505  MPKI: 0.00602
L2C LOAD DATA	ACCESS:     754105  HIT:     659498  MISS:      94607  HIT %:    87.4544  MISS %:    12.5456  MPKI: 1.89214
L2C RFO DATA	ACCESS:     293631  HIT:     234283  MISS:      59348  HIT %:    79.7882  MISS %:    20.2118  MPKI: 1.18696
L2C PREFETCH DATA	ACCESS:     215206  HIT:     135222  MISS:      79984  HIT %:    62.8337  MISS %:    37.1663  MPKI: 1.59968
L2C WRITEBACK DATA	ACCESS:     531920  HIT:     518375  MISS:      13545  HIT %:    97.4536  MISS %:    2.54644  MPKI: 0.2709
L2C LOAD TRANSLATION DATA	ACCESS:       2265  HIT:        693  MISS:       1572  HIT %:     30.596  MISS %:     69.404  MPKI: 0.03144
L2C TRANSLATION FROM L1D PREFETCHER DATA	ACCESS:         65  HIT:         50  MISS:         15  HIT %:    76.9231  MISS %:    23.0769  MPKI: 0.0003

L2C PREFETCH  REQUESTED:     102958  ISSUED:     102958  USEFUL:       9631  USELESS:      71196
L2C USEFUL LOAD PREFETCHES:       9631 PREFETCH ISSUED TO LOWER LEVEL:      80847  ACCURACY: 11.9126
 TIMELY PREFETCHES:       9631 LATE PREFETCHES: 863 DROPPED PREFETCHES: 0
L2C AVERAGE MISS LATENCY: 40.2702 cycles
L2C RQ	ACCESS:    3799039	FORWARD:          0	MERGED:          0	TO_CACHE:    3798981
L2C WQ	ACCESS:     531920	FORWARD:         59	MERGED:          0	TO_CACHE:     531920
L2C PQ	ACCESS:     223984	FORWARD:          0	MERGED:       3582	TO_CACHE:     220401

L2C Dense regions hint from L2: 0
PSCL5 TOTAL     ACCESS:       5022  HIT:       2511  MISS:       2511  HIT %:         50  MISS %:         50   MPKI: 0.05022
PSCL5 LOAD TRANSLATION INSTRUCTION	ACCESS:       4892  HIT:       2446  MISS:       2446  HIT %:         50  MISS %:         50  MPKI: 0.04892
PSCL5 TRANSLATION FROM L1D PREFETCHER INSTRUCTION	ACCESS:        130  HIT:         65  MISS:         65  HIT %:         50  MISS %:         50  MPKI: 0.0013


PSCL4 TOTAL     ACCESS:       3160  HIT:       1577  MISS:       1583  HIT %:    49.9051  MISS %:    50.0949   MPKI: 0.03166
PSCL4 LOAD TRANSLATION INSTRUCTION	ACCESS:       2675  HIT:       1535  MISS:       1140  HIT %:    57.3832  MISS %:    42.6168  MPKI: 0.0228
PSCL4 TRANSLATION FROM L1D PREFETCHER INSTRUCTION	ACCESS:         84  HIT:         42  MISS:         42  HIT %:         50  MISS %:         50  MPKI: 0.00084
PSCL4 LOAD TRANSLATION DATA	ACCESS:        401  HIT:          0  MISS:        401  HIT %:          0  MISS %:        100  MPKI: 0.00802


PSCL3 TOTAL     ACCESS:       4885  HIT:       2433  MISS:       2452  HIT %:    49.8055  MISS %:    50.1945   MPKI: 0.04904
PSCL3 LOAD TRANSLATION INSTRUCTION	ACCESS:       3944  HIT:       2383  MISS:       1561  HIT %:    60.4209  MISS %:    39.5791  MPKI: 0.03122
PSCL3 TRANSLATION FROM L1D PREFETCHER INSTRUCTION	ACCESS:         93  HIT:         50  MISS:         43  HIT %:    53.7634  MISS %:    46.2366  MPKI: 0.00086
PSCL3 LOAD TRANSLATION DATA	ACCESS:        841  HIT:          0  MISS:        841  HIT %:          0  MISS %:        100  MPKI: 0.01682
PSCL3 TRANSLATION FROM L1D PREFETCHER DATA	ACCESS:          7  HIT:          0  MISS:          7  HIT %:          0  MISS %:        100  MPKI: 0.00014


PSCL2 TOTAL     ACCESS:       4824  HIT:       2313  MISS:       2511  HIT %:    47.9478  MISS %:    52.0522   MPKI: 0.05022
PSCL2 LOAD TRANSLATION INSTRUCTION	ACCESS:       2599  HIT:       2248  MISS:        351  HIT %:    86.4948  MISS %:    13.5052  MPKI: 0.00702
PSCL2 TRANSLATION FROM L1D PREFETCHER INSTRUCTION	ACCESS:         65  HIT:         65  MISS:          0  HIT %:        100  MISS %:          0  MPKI: 0
PSCL2 LOAD TRANSLATION DATA	ACCESS:       2095  HIT:          0  MISS:       2095  HIT %:          0  MISS %:        100  MPKI: 0.0419
PSCL2 TRANSLATION FROM L1D PREFETCHER DATA	ACCESS:         65  HIT:          0  MISS:         65  HIT %:          0  MISS %:        100  MPKI: 0.0013


LLC TOTAL     ACCESS:     594432  HIT:     564452  MISS:      29980  HIT %:    94.9565  MISS %:    5.04347   MPKI: 0.5996
LLC LOAD INSTRUCTION	ACCESS:     276020  HIT:     274758  MISS:       1262  HIT %:    99.5428  MISS %:   0.457213  MPKI: 0.02524
LLC LOAD TRANSLATION INSTRUCTION	ACCESS:        301  HIT:        271  MISS:         30  HIT %:    90.0332  MISS %:    9.96678  MPKI: 0.0006
LLC LOAD DATA	ACCESS:      93757  HIT:      90183  MISS:       3574  HIT %:     96.188  MISS %:    3.81198  MPKI: 0.07148
LLC RFO DATA	ACCESS:      59331  HIT:      44711  MISS:      14620  HIT %:    75.3586  MISS %:    24.6414  MPKI: 0.2924
LLC PREFETCH DATA	ACCESS:      80847  HIT:      70722  MISS:      10125  HIT %:    87.4763  MISS %:    12.5237  MPKI: 0.2025
LLC WRITEBACK DATA	ACCESS:      82589  HIT:      82315  MISS:        274  HIT %:    99.6682  MISS %:   0.331763  MPKI: 0.00548
LLC LOAD TRANSLATION DATA	ACCESS:       1572  HIT:       1477  MISS:         95  HIT %:    93.9567  MISS %:    6.04326  MPKI: 0.0019
LLC TRANSLATION FROM L1D PREFETCHER DATA	ACCESS:         15  HIT:         15  MISS:          0  HIT %:        100  MISS %:          0  MPKI: 0

LLC AVERAGE MISS LATENCY: 193.469 cycles
LLC RQ	ACCESS:     431000	FORWARD:          0	MERGED:          0	TO_CACHE:     430996
LLC WQ	ACCESS:      82589	FORWARD:          4	MERGED:          0	TO_CACHE:      82589
LLC PQ	ACCESS:      80847	FORWARD:          0	MERGED:          0	TO_CACHE:      80847

LLC Dense regions hint to LLC: 0

RAW hits: 1857517
Loads Generated: 12605135
Loads sent to L1D: 10747618
Stores Generated: 6907628
Stores sent to L1D: 6907638
Major fault: 0 Minor fault: 2405
Allocated PAGES: 2405

stream: 
stream:times selected: 1248220
stream:pref_filled: 128087
stream:pref_useful: 28500
stream:pref_late: 10012
stream:misses: 10814
stream:misses_by_poll: 0

CS: 
CS:times selected: 197637
CS:pref_filled: 73735
CS:pref_useful: 50695
CS:pref_late: 9406
CS:misses: 24412
CS:misses_by_poll: 8

CPLX: 
CPLX:times selected: 1049335
CPLX:pref_filled: 24907
CPLX:pref_useful: 7438
CPLX:pref_late: 4107
CPLX:misses: 132201
CPLX:misses_by_poll: 4

NL_L1: 
NL:times selected: 22361
NL:pref_filled: 1139
NL:pref_useful: 549
NL:pref_late: 699
NL:misses: 3259
NL:misses_by_poll: 0

total selections: 2517553
total_filled: 107559
total_useful: 50263
total_late: 26989
total_polluted: 12
total_misses_after_warmup: 802331
conflicts: 5540752

test: 119426

DRAM Statistics
 CHANNEL 0
 RQ ROW_BUFFER_HIT:      10554  ROW_BUFFER_MISS:      19149
 DBUS_CONGESTED:         21
 WQ ROW_BUFFER_HIT:       2244  ROW_BUFFER_MISS:      13516  FULL:          0

 AVG_CONGESTED_CYCLE: 4

CPU 0 Branch Prediction Accuracy: 99.8185% MPKI: 0.33254 Average ROB Occupancy at Mispredict: 158.275
Branch types
NOT_BRANCH: 40838982 81.678%
BRANCH_DIRECT_JUMP: 543190 1.08638%
BRANCH_INDIRECT: 181400 0.3628%
BRANCH_CONDITIONAL: 6212146 12.4243%
BRANCH_DIRECT_CALL: 941242 1.88248%
BRANCH_INDIRECT_CALL: 170851 0.341702%
BRANCH_RETURN: 1112092 2.22418%
BRANCH_OTHER: 0 0%

DRAM PAGES: 1048576
Allocated PAGES: 2405
Average_ROB_Occupancy: 172.62
Average_Decode_Occupancy: 19.975
Average_FTQ_Occupancy: 8.50245
Indirect max targets: 14 Average targets: 1.17572
Branch_type:  BRANCH_DIRECT_JUMP:  Count Percentage: 3.25272 6.03104 3.7296 7.6714 2.79195 5.97148 1.55593 68.9959 
Branch_type:  BRANCH_INDIRECT:  Count Percentage: 11.7615 3.47504 2.53226 0 2.53722 9.69166 19.2082 50.7942 
Branch_type:  BRANCH_CONDITIONAL:  Count Percentage: 22.6358 1.77127 1.87309 7.78005 1.66063 4.83747 2.08424 57.3575 
Branch_type:  BRANCH_DIRECT_CALL:  Count Percentage: 0.264899 1.24886 1.43212 3.74089 3.46498 2.34726 0.613627 86.8874 
Branch_type:  BRANCH_INDIRECT_CALL:  Count Percentage: 9.51994 0.566925 2.9817 4.83249 1.29763 1.71015 1.27829 77.8129 
Branch_type:  BRANCH_RETURN:  Count Percentage: 3.44186 0.569291 1.48104 8.45382 3.60332 6.37661 2.8646 73.2095 
Branch_type:  BRANCH_DIRECT_JUMP:  Total Count: 35332 65511 40512 83329 30327 64864 16901 749454 
Branch_type:  BRANCH_INDIRECT:  Total Count: 42703 12617 9194 0 9212 35188 69740 184421 
Branch_type:  BRANCH_CONDITIONAL:  Total Count: 2811833 220028 232677 966444 206285 600914 258906 7124991 
Branch_type:  BRANCH_DIRECT_CALL:  Total Count: 4977 23464 26907 70285 65101 44101 11529 1632465 
Branch_type:  BRANCH_INDIRECT_CALL:  Total Count: 32493 1935 10177 16494 4429 5837 4363 265587 
Branch_type:  BRANCH_RETURN:  Total Count: 76444 12644 32894 187760 80030 141625 63623 1625989 
Number of unique branch instructions: 10849
Upper 32 bits: 
aaaa
ffff
ffff0000
Unique upper 32 bits: 3
Unique upper 36 bits: 3
Unique upper 40 bits: 5
Unique upper 44 bits: 32
Unique upper 48 bits: 160
Variant_0 : 1381 0.337158
Variant_1 : 2704 0.660156
Variant_2 : 0 0
Variant_3 : 0 0
Offset_3 4511
Offset_4 261
Offset_5 486
Offset_6 554
Offset_7 641
Offset_8 574
Offset_9 522
Offset_10 436
Offset_11 357
Offset_12 298
Offset_13 235
Offset_14 233
Offset_15 207
Offset_16 234
Offset_17 168
Offset_18 163
Offset_19 261
Offset_20 149
Offset_21 245
Offset_22 413
Offset_23 241
Offset_24 342
Offset_25 114
Offset_47 91
decode_dispatch_called: 21742458 56.2151
Dispatch_width: 0 11216043 51.5859 28.9991
Dispatch_width: 1 669080 3.0773 1.72991
Dispatch_width: 2 703833 3.23714 1.81976
Dispatch_width: 3 471017 2.16635 1.21781
Dispatch_width: 4 2644083 12.1609 6.83627
Dispatch_width: 5 296666 1.36445 0.76703
Dispatch_width: 6 5741736 26.4079 14.8453
Empty_decode_cycles: 16934793 43.7849
ROB_full_cycles: 4041040 10.4481
Starvation_cycles_per_kilo_instr: 288.945
Starvation_cycles_per_kilo_instr_3: 259.537
Starvation_cycles_per_kilo_instr_0: 241.098
Branch_type_1  (3,1)  (4,7)  (5,38)  (6,80)  (7,126)  (8,145)  (9,137)  (10,115)  (11,84)  (12,48)  (13,10)  (14,2)  (15,3)  (16,4)  (18,1)  (19,5)  (20,2)  (21,1)  (22,3)  (23,2)  (24,10)  (25,12) 
Branch_type_2  (3,1)  (4,1)  (5,1)  (8,4)  (9,4)  (10,1)  (12,1)  (13,1)  (14,1)  (16,3)  (17,2)  (20,2)  (21,2)  (23,5)  (24,1)  (47,40) 
Branch_type_3  (3,4509)  (4,253)  (5,443)  (6,457)  (7,482)  (8,361)  (9,288)  (10,182)  (11,140)  (12,53)  (13,10) 
Branch_type_4  (6,4)  (7,8)  (8,26)  (9,57)  (10,65)  (11,68)  (12,108)  (13,101)  (14,104)  (15,100)  (16,104)  (17,77)  (18,72)  (19,126)  (20,75)  (21,130)  (22,221)  (23,136)  (24,198)  (25,98)  (47,1) 
Branch_type_5  (8,3)  (9,1)  (10,4)  (11,5)  (12,3)  (13,14)  (14,16)  (15,11)  (16,22)  (17,12)  (18,23)  (19,14)  (20,12)  (21,13)  (22,43)  (23,26)  (24,37) 
Branch_type_6  (5,4)  (6,13)  (7,25)  (8,35)  (9,35)  (10,69)  (11,60)  (12,85)  (13,99)  (14,110)  (15,93)  (16,101)  (17,77)  (18,67)  (19,116)  (20,58)  (21,99)  (22,146)  (23,72)  (24,96)  (25,4)  (47,50) 
Unique trigger count: 
Variant_0_evicts_0 : 0
Variant_0_evicts_1 : 0
Variant_0_evicts_2 : 0
Variant_0_evicts_3 : 0
Variant_1_evicts_0 : 0
Variant_1_evicts_1 : 0
Variant_1_evicts_2 : 0
Variant_1_evicts_3 : 0
Variant_2_evicts_0 : 0
Variant_2_evicts_1 : 0
Variant_2_evicts_2 : 0
Variant_2_evicts_3 : 0
Variant_3_evicts_0 : 0
Variant_3_evicts_1 : 0
Variant_3_evicts_2 : 0
Variant_3_evicts_3 : 0
BTB PER SET UNIQUE ADDR: 14 22 14 15 16 17 14 13 15 11 9 18 18 12 16 17 14 18 13 18 14 18 16 16 14 19 15 19 15 16 16 17 19 11 12 18 19 12 8 15 13 13 16 19 14 12 19 12 14 15 22 8 21 10 14 8 15 14 13 15 17 20 12 16 16 16 15 13 18 14 16 20 19 13 17 13 12 17 13 22 17 11 18 20 14 15 16 18 13 19 15 10 15 11 11 20 11 16 19 19 22 21 16 17 18 14 12 16 8 16 13 21 19 13 17 8 17 18 14 18 21 9 11 11 14 18 7 17 26 13 17 22 11 16 12 19 12 14 16 22 13 16 16 15 17 14 16 16 11 15 13 16 11 17 14 18 20 19 16 13 19 15 18 15 14 15 18 15 14 15 13 17 11 18 17 13 16 13 16 15 12 14 16 25 17 22 13 18 13 12 13 11 14 20 12 14 11 14 12 20 15 18 16 13 7 16 15 20 9 16 12 17 13 15 15 19 16 18 16 24 9 22 10 15 14 15 17 22 12 20 16 11 17 16 16 21 18 14 15 12 13 20 19 18 14 17 13 14 16 13 19 23 17 15 16 21 12 12 17 16 19 12 10 15 13 11 15 10 14 15 13 21 14 11 12 10 12 17 17 16 14 19 14 13 14 11 14 19 17 15 15 12 16 22 8 20 18 14 19 19 13 17 11 25 15 19 14 17 20 13 13 19 14 24 17 12 18 12 18 25 15 21 14 13 15 13 12 13 14 16 16 19 13 17 13 12 9 16 10 20 17 18 11 16 18 18 13 16 15 13 17 15 18 17 16 15 16 15 12 9 14 23 12 24 15 18 8 17 18 15 14 8 19 13 14 15 15 21 17 15 13 12 12 12 10 14 18 22 19 17 19 12 16 18 12 12 16 12 19 12 12 22 15 18 21 20 20 15 15 15 18 14 16 21 13 16 16 17 24 20 17 11 16 18 23 16 16 13 14 16 21 12 16 12 14 20 18 12 12 13 13 12 11 18 21 12 14 21 21 12 11 23 19 12 20 22 17 16 16 20 12 15 16 14 15 11 15 17 16 19 16 18 15 15 16 22 15 23 9 17 18 17 13 19 15 17 21 20 15 19 14 19 13 12 17 12 16 14 12 14 12 18 13 21 17 14 13 22 12 18 16 24 18 14 16 22 18 21 14 12 15 10 16 11 15 25 23 13 10 24 19 21 15 20 21 21 16 18 13 16 18 18 17 16 21 18 12 16 12 18 18 18 16 16 15 17 14 13 20 19 13 19 12 17 23 17 18 21 14 18 23 18 19 25 16 18 19 22 10 17 20 16 11 14 19 16 18 14 21 16 14 17 15 10 17 15 13 15 14 14 18 19 16 10 14 11 22 13 17 16 21 19 18 11 10 20 13 16 17 15 22 15 13 10 17 19 16 23 11 16 15 23 20 15 14 13 17 21 13 17 14 22 11 24 15 15 15 18 24 13 12 19 15 9 21 16 16 15 25 10 15 11 17 23 15 15 16 14 11 15 19 13 16 18 20 16 17 18 19 20 16 17 16 17 12 18 20 15 22 15 16 23 18 11 11 14 14 16 19 13 10 19 19 18 11 16 14 11 15 13 19 18 13 14 16 12 16 18 15 17 19 16 16 14 11 13 12 19 12 17 20 18 16 13 12 23 19 16 20 14 13 14 14 21 21 20 15 14 17 13 16 17 17 16 10 16 21 14 14 14 14 12 12 17 19 18 8 19 13 18 17 14 14 16 19 13 19 16 20 21 10 18 17 14 14 16 15 16 15 9 8 9 18 15 18 11 15 13 17 14 22 17 23 21 21 11 16 12 14 13 13 24 16 18 16 13 23 22 12 22 17 20 12 17 16 15 16 16 16 21 10 17 19 15 10 17 17 17 16 13 18 16 20 13 13 14 19 20 11 15 14 16 14 17 17 18 21 20 22 18 14 17 12 14 20 11 13 14 23 12 19 18 21 15 15 11 18 13 13 17 20 8 17 21 18 21 15 20 13 17 14 19 20 12 19 22 20 19 15 14 16 14 15 17 9 14 13 19 15 22 16 15 15 17 19 21 21 13 16 16 16 17 13 19 13 15 10 18 16 14 18 21 21 14 16 18 14 18 19 20 14 18 13 16 18 13 17 20 15 19 19 16 12 14 10 17 18 17 15 19 17 16 18 19 18 11 17 18 12 16 18 14 12 18 19 13 19 19 17 17 15 18 15 18 17 17 22 14 16 18 19 20 17 16 13 13 13 17 21 12 22 17 11 15 18 18 14 23 14 18 20 19 11 14 15 14 6 12 11 16 13 20 17 14 
BTB PER SET COUNT: 987 45 1969 26 21 31 1297 352 23 17 15 21 5241 29 28 24 114 2250 22 38 32 133 517 72 30 31 21 33 23 27 492 26 41 20 19 355 31 16 14 174 16 19 25 40 23 55 24 20 22 259 41 202 30 16 24 314 25 31 47 26 29 28 22 28 30 27 19 1062 35 30 1472 135 41 33 26 26 20 167 20 36 309 21 239 35 31 18 42 32 649 45 26 393 36 15 13 25 947 26 46 36 46 284 22 194 1924 17 27 29 1739 31 20 57 220 32 29 1406 28 26 1250 25 206 11 26 16 22 37 10 27 70 981 33 3134 23 34 32 36 987 27 27 33 24 23 29 24 22 23 237 59 19 33 19 230 993 21 19 33 853 33 25 26 37 32 36 18 1675 1548 34 26 27 953 26 21 13 34 35 25 36 23 697 486 16 19 396 46 278 572 18 28 66 21 22 13 21 34 70 58 12 1049 19 38 20 109 998 17 8 31 22 33 13 17 24 20 24 9617 33 1503 24 991 2937 51 18 37 211 25 26 30 27 45 521 34 33 14 29 32 20 5921 40 25 28 16 1308 26 33 264 29 31 474 26 71 23 31 36 19 22 30 40 82 43 22 25 31 17 17 248 25 17 23 15 402 23 21 35 22 15 349 12 22 27 26 28 30 35 444 291 26 23 24 31 22 18 29 14 23 609 12 28 659 24 25 343 21 28 13 56 23 141 26 217 43 764 605 37 21 40 1752 872 29 28 31 57 24 3118 22 26 151 18 502 24 26 23 32 46 37 23 18 20 13 834 13 45 23 836 19 22 41 31 19 40 20 24 674 20 46 30 34 22 30 26 42 11 28 46 25 43 30 2316 8 41 30 25 19 315 35 20 463 23 25 34 111 633 118 14 13 18 12 23 260 44 26 26 28 18 27 200 15 987 30 17 368 27 25 38 26 23 34 50 31 500 22 24 964 19 25 143 22 24 25 4446 40 41 31 27 28 29 47 24 240 17 30 31 68 24 27 18 27 30 44 176 19 28 27 19 23 42 32 19 653 47 38 17 15 1829 27 20 44 116 29 25 21 32 43 21 28 36 35 18 366 31 37 37 28 33 25 22 33 34 27 336 9 31 34 30 19 35 16 627 28 34 22 30 17 31 61 19 27 13 1810 760 20 20 18 28 19 44 34 20 22 36 16 26 30 622 131 836 24 34 34 28 24 20 21 20 28 14 22 53 570 943 28 2110 27 133 18 30 33 131 28 22 17 22 40 32 42 32 36 252 13 38 21 280 33 34 312 32 28 31 32 20 59 52 20 117 14 22 202 28 30 28 18 24 576 31 32 49 1483 32 21 317 17 25 31 36 18 2138 41 31 704 17 52 23 21 216 279 13 35 18 2203 721 261 15 34 40 197 15 31 21 43 317 33 20 40 37 40 18 12 37 17 29 27 49 39 25 23 16 23 28 29 68 1464 259 22 54 35 29 23 18 27 985 23 23 18 40 12 116 1533 71 141 28 43 19 13 28 17 16 261 509 22 22 303 88 24 19 24 45 5086 26 38 1585 1473 24 28 17 723 24 803 100 25 35 31 37 28 34 530 34 1437 27 34 26 115 20 22 45 35 17 228 30 18 32 37 20 13 30 33 28 17 54 29 24 21 23 130 207 418 31 281 48 461 29 20 245 30 705 99 913 16 22 16 34 985 408 53 4822 22 15 20 162 511 31 51 23 44 23 24 29 741 36 591 17 25 21 29 27 490 1485 19 22 46 737 21 21 36 21 20 244 523 40 11 39 15 26 28 22 21 21 43 23 37 649 31 35 1459 44 394 17 19 25 29 25 22 16 11 983 37 30 1308 16 29 18 30 635 163 33 44 246 152 13 38 16 23 60 29 8304 36 28 25 558 147 54 18 2150 26 995 17 21 28 24 25 29 21 340 15 27 44 28 481 140 23 31 30 146 37 780 41 22 350 16 35 34 14 25 18 809 28 47 31 28 159 41 40 20 901 29 58 26 153 13 22 20 35 74 104 54 33 26 22 11 26 25 595 37 32 10 32 125 516 131 17 42 17 201 17 775 1052 45 35 29 35 23 27 21 23 28 36 227 17 36 30 33 72 36 285 473 23 34 36 786 532 377 23 34 25 26 23 42 18 22 14 24 27 34 36 39 138 22 40 90 21 34 31 39 22 292 29 25 25 19 26 33 28 21 368 466 111 1454 12 22 22 38 21 289 378 40 30 28 30 14 1484 26 35 19 29 23 25 35 822 26 39 34 87 55 85 1474 24 243 28 684 208 256 17 34 31 372 27 133 18 20 23 1489 39 93 328 44 32 23 30 21 28 34 20 994 809 43 21 25 20 24 9 21 14 21 25 712 27 18 
To predecode: 0
Predecoding something: 0
Predecode request dropped: 0
sizeofblock_0 0
sizeofblock_1 64137
sizeofblock_2 85198
sizeofblock_3 0
sizeofblock_4 0
sizeofblock_5 0
sizeofblock_6 0
sizeofblock_7 0
sizeofblock_8 0
Variant_0 Correct: 1595263 Incorrect: 0 Accuracy: 1
Variant_1 Correct: 5684358 Incorrect: 0 Accuracy: 1
Variant_2 Correct: 0 Incorrect: 0 Accuracy: -nan
Variant_3 Correct: 0 Incorrect: 0 Accuracy: -nan
