
*** ChampSim Multicore Out-of-Order Simulator ***

Warmup Instructions: 50000000
Simulation Instructions: 50000000
Number of CPUs: 1
LLC sets: 2048
LLC ways: 16
Off-chip DRAM Size: 4096 MB Channels: 1 Width: 64-bit Data Rate: 6400 MT/s
CPU 0 runs ./micro_traces/srv38.trace.gz
.gz
ITLB has LRU replacement policy
DTLB has LRU replacement policy
STLB has LRU replacement policy
FDIP Prefetcher at L1I
L1I has LRU replacement policy
L1D has LRU replacement policy
Initialize SRRIP state for L2C
Initialize DRRIP state for LLC
Heartbeat CPU 0 instructions: 10000000 cycles: 2796185 heartbeat IPC: 3.5763 cumulative IPC: 3.5763 (Simulation time: 0 hr 1 min 40 sec) 
Heartbeat CPU 0 instructions: 20000002 cycles: 5590072 heartbeat IPC: 3.57924 cumulative IPC: 3.57777 (Simulation time: 0 hr 3 min 15 sec) 
Heartbeat CPU 0 instructions: 30000003 cycles: 8385510 heartbeat IPC: 3.57726 cumulative IPC: 3.5776 (Simulation time: 0 hr 4 min 48 sec) 
Heartbeat CPU 0 instructions: 40000000 cycles: 11180445 heartbeat IPC: 3.5779 cumulative IPC: 3.57768 (Simulation time: 0 hr 6 min 22 sec) 
Heartbeat CPU 0 instructions: 50000001 cycles: 13975294 heartbeat IPC: 3.57801 cumulative IPC: 3.57774 (Simulation time: 0 hr 7 min 56 sec) 

Warmup complete CPU 0 instructions: 50000001 cycles: 13975294 (Simulation time: 0 hr 7 min 56 sec) 

*** Reached end of trace for Core: 0 Repeating trace: ./micro_traces/srv38.trace.gz
Cycle: 20000000 FTQ IN: 56873874 FTQ occupancy: 18.4144 DECODE IN: 56873835 DECODE occupancy: 47.0463 ROB IN: 56873835 ROB occupancy: 284.087 ROB OUT: 56873662
Heartbeat CPU 0 instructions: 60000003 cycles: 22695920 heartbeat IPC: 1.14671 cumulative IPC: 1.14671 (Simulation time: 0 hr 9 min 20 sec) 
Cycle: 30000000 FTQ IN: 11497451 FTQ occupancy: 7.55387 DECODE IN: 11497438 DECODE occupancy: 16.3497 ROB IN: 11497432 ROB occupancy: 131.449 ROB OUT: 11497602
Heartbeat CPU 0 instructions: 70000002 cycles: 31399366 heartbeat IPC: 1.14897 cumulative IPC: 1.14784 (Simulation time: 0 hr 10 min 44 sec) 
Heartbeat CPU 0 instructions: 80000002 cycles: 39951496 heartbeat IPC: 1.1693 cumulative IPC: 1.1549 (Simulation time: 0 hr 12 min 11 sec) 
Cycle: 40000000 FTQ IN: 11680717 FTQ occupancy: 7.48704 DECODE IN: 11680742 DECODE occupancy: 16.4513 ROB IN: 11680741 ROB occupancy: 134.296 ROB OUT: 11680603
Heartbeat CPU 0 instructions: 90000003 cycles: 48629446 heartbeat IPC: 1.15235 cumulative IPC: 1.15426 (Simulation time: 0 hr 13 min 32 sec) 
Cycle: 50000000 FTQ IN: 11569404 FTQ occupancy: 7.62336 DECODE IN: 11569366 DECODE occupancy: 16.6151 ROB IN: 11569373 ROB occupancy: 133.071 ROB OUT: 11569508
Heartbeat CPU 0 instructions: 100000003 cycles: 57151212 heartbeat IPC: 1.17347 cumulative IPC: 1.15805 (Simulation time: 0 hr 14 min 58 sec) 
Finished CPU 0 instructions: 50000002 cycles: 43175918 cumulative IPC: 1.15805 (Simulation time: 0 hr 14 min 58 sec) 

ChampSim completed all CPUs

Region of Interest Statistics

CPU 0 cumulative IPC: 1.15805 instructions: 50000002 cycles: 43175918
 Fetch stage stalled: 68.4282  Sim cycles: 43175918 fetch stall cycle: 29544489
 Empty decode stage: 55.7775  Sim cycles: 43175918 fetch stall cycle: 24082453
ITLB TOTAL     ACCESS:    5609186  HIT:    5118712  MISS:     490474  HIT %:    91.2559  MISS %:    8.74412   MPKI: 9.80948
ITLB LOAD TRANSLATION INSTRUCTION	ACCESS:    5499293  HIT:    5008819  MISS:     490474  HIT %:    91.0811  MISS %:    8.91886  MPKI: 9.80948
ITLB TRANSLATION FROM L1D PREFETCHER INSTRUCTION	ACCESS:     109893  HIT:     109893  MISS:          0  HIT %:        100  MISS %:          0  MPKI: 0

ITLB AVERAGE MISS LATENCY: 9.07715 cycles
ITLB RQ	ACCESS:    7491960	FORWARD:          0	MERGED:    1395959	TO_CACHE:    6096001

DTLB TOTAL     ACCESS:    9210414  HIT:    8734845  MISS:     475569  HIT %:    94.8366  MISS %:    5.16338   MPKI: 9.51138
DTLB LOAD TRANSLATION DATA	ACCESS:    9210414  HIT:    8734845  MISS:     475569  HIT %:    94.8366  MISS %:    5.16338  MPKI: 9.51138

DTLB AVERAGE MISS LATENCY: 9.29455 cycles
DTLB RQ	ACCESS:   13497023	FORWARD:          0	MERGED:    4251011	TO_CACHE:    9246012

STLB TOTAL     ACCESS:    1223814  HIT:    1221305  MISS:       2509  HIT %:     99.795  MISS %:   0.205015   MPKI: 0.05018
STLB LOAD TRANSLATION INSTRUCTION	ACCESS:     490474  HIT:     490127  MISS:        347  HIT %:    99.9293  MISS %:  0.0707479  MPKI: 0.00694
STLB LOAD TRANSLATION DATA	ACCESS:     475431  HIT:     473316  MISS:       2115  HIT %:    99.5551  MISS %:    0.44486  MPKI: 0.0423
STLB TRANSLATION FROM L1D PREFETCHER DATA	ACCESS:     257909  HIT:     257862  MISS:         47  HIT %:    99.9818  MISS %:  0.0182235  MPKI: 0.00094

STLB AVERAGE MISS LATENCY: 63.1837 cycles
STLB RQ	ACCESS:    1369735	FORWARD:          0	MERGED:     145887	TO_CACHE:    1223848

STLB Hit, L1D data hit: 0
STLB Hit, L2C data hit: 0
STLB Hit, LLC data hit: 0
STLB Hit, LLC data miss: 0
STLB STLB hints to L2: 0
L1D TOTAL     ACCESS:   13264862  HIT:   12096815  MISS:    1168047  HIT %:    91.1944  MISS %:    8.80557   MPKI: 23.3609
L1D LOAD DATA	ACCESS:    6732808  HIT:    5965884  MISS:     766924  HIT %:    88.6092  MISS %:    11.3908  MPKI: 15.3385
L1D RFO DATA	ACCESS:    6194097  HIT:    5899852  MISS:     294245  HIT %:    95.2496  MISS %:    4.75041  MPKI: 5.8849
L1D PREFETCH DATA	ACCESS:     337957  HIT:     231079  MISS:     106878  HIT %:    68.3753  MISS %:    31.6247  MPKI: 2.13756

L1D PREFETCH  REQUESTED:     807654  ISSUED:     807654  USEFUL:      49984  USELESS:      70064
L1D USEFUL LOAD PREFETCHES:      49984 PREFETCH ISSUED TO LOWER LEVEL:     120110  ACCURACY: 41.6152
 TIMELY PREFETCHES:      49984 LATE PREFETCHES: 13202 DROPPED PREFETCHES: 2
L1D AVERAGE MISS LATENCY: 396089 cycles
L1D RQ	ACCESS:   10816890	FORWARD:          0	MERGED:    3889652	TO_CACHE:    6766052
L1D WQ	ACCESS:    6907638	FORWARD:     161456	MERGED:     176667	TO_CACHE:    6730971
L1D PQ	ACCESS:     403962	FORWARD:          0	MERGED:          0	TO_CACHE:     403692

L1D UNIQUE REGIONS ACCESSED: 0
L1D REGIONS CONFLICTS: 0
L1D Cross Page Prefetch Requests: 8152
L1D Same Page Prefetch Requests: 813181
L1D ROI Sum of L1D PQ occupancy: 5147225
L1D PREFETCHES PUSHED FROM L2C: 0
L1I TOTAL     ACCESS:    6913504  HIT:    4166062  MISS:    2747442  HIT %:    60.2598  MISS %:    39.7402   MPKI: 54.9488
L1I LOAD INSTRUCTION	ACCESS:    6395408  HIT:    3647966  MISS:    2747442  HIT %:    57.0404  MISS %:    42.9596  MPKI: 54.9488
L1I PREFETCH INSTRUCTION	ACCESS:     518096  HIT:     518096  MISS:          0  HIT %:        100  MISS %:          0  MPKI: 0

L1I PREFETCH  REQUESTED:    1189478  ISSUED:    1189478  USEFUL:          0  USELESS:          0
L1I USEFUL LOAD PREFETCHES:          0 PREFETCH ISSUED TO LOWER LEVEL:          0  ACCURACY: -nan
 TIMELY PREFETCHES:          0 LATE PREFETCHES: 0 DROPPED PREFETCHES: 0
L1I AVERAGE MISS LATENCY: 17.4485 cycles
L1I RQ	ACCESS:    9475530	FORWARD:          0	MERGED:    2835376	TO_CACHE:    6640154
L1I PQ	ACCESS:    1189478	FORWARD:          0	MERGED:     337672	TO_CACHE:     851806

L1BTB TOTAL     ACCESS:    5680871  HIT:    2074039  MISS:    3606832  HIT %:    36.5092  MISS %:    63.4908   MPKI: 72.1366
L1BTB BRANCH_DIRECT_JUMP	ACCESS:     543196  HIT:     143759  MISS:     399437	AVERAGE STALL: 35.6257
L1BTB BRANCH_INDIRECT	ACCESS:     181400  HIT:      65430  MISS:     115970	AVERAGE STALL: 108.575
L1BTB BRANCH_CONDITIONAL	ACCESS:    2732090  HIT:    1447716  MISS:    1284374	AVERAGE STALL: 41.105
L1BTB BRANCH_DIRECT_CALL	ACCESS:     941242  HIT:     104903  MISS:     836339	AVERAGE STALL: 40.6738
L1BTB BRANCH_INDIRECT_CALL	ACCESS:     170851  HIT:      21534  MISS:     149317	AVERAGE STALL: 116.542
L1BTB BRANCH_RETURN	ACCESS:    1112092  HIT:     290697  MISS:     821395	AVERAGE STALL: 38.2794
L1BTB BRANCH_OTHER ACCESS:          0  HIT:          0  MISS:          0	AVERAGE STALL: -nan
L1BTB TOTAL ROB OCCUPANCY AT BTB MISS: 11.8559

L2BTB1 TOTAL     ACCESS:    3581865  HIT:    3181135  MISS:     400730  HIT %:    88.8123  MISS %:    11.1877   MPKI: 8.0146
L2BTB1 BRANCH_DIRECT_JUMP	ACCESS:     395332  HIT:     359455  MISS:      35877	AVERAGE STALL: 35.6257
L2BTB1 BRANCH_INDIRECT	ACCESS:     105738  HIT:      83659  MISS:      22079	AVERAGE STALL: 108.575
L2BTB1 BRANCH_CONDITIONAL	ACCESS:    1284374  HIT:    1177848  MISS:     106526	AVERAGE STALL: 41.105
L2BTB1 BRANCH_DIRECT_CALL	ACCESS:     836339  HIT:     723029  MISS:     113310	AVERAGE STALL: 40.6738
L2BTB1 BRANCH_INDIRECT_CALL	ACCESS:     139904  HIT:     116023  MISS:      23881	AVERAGE STALL: 116.542
L2BTB1 BRANCH_RETURN	ACCESS:     820178  HIT:     721121  MISS:      99057	AVERAGE STALL: 38.2794
L2BTB1 BRANCH_OTHER ACCESS:          0  HIT:          0  MISS:          0	AVERAGE STALL: -nan
L2BTB1 TOTAL ROB OCCUPANCY AT BTB MISS: 106.711

L2C TOTAL     ACCESS:    4542468  HIT:    4025831  MISS:     516637  HIT %:    88.6265  MISS %:    11.3735   MPKI: 10.3327
L2C LOAD INSTRUCTION	ACCESS:    2747441  HIT:    2473085  MISS:     274356  HIT %:    90.0141  MISS %:    9.98587  MPKI: 5.48712
L2C LOAD TRANSLATION INSTRUCTION	ACCESS:        404  HIT:        110  MISS:        294  HIT %:    27.2277  MISS %:    72.7723  MPKI: 0.00588
L2C LOAD DATA	ACCESS:     753689  HIT:     661989  MISS:      91700  HIT %:    87.8332  MISS %:    12.1668  MPKI: 1.834
L2C RFO DATA	ACCESS:     294177  HIT:     236296  MISS:      57881  HIT %:    80.3244  MISS %:    19.6756  MPKI: 1.15762
L2C PREFETCH DATA	ACCESS:     212792  HIT:     135054  MISS:      77738  HIT %:    63.4676  MISS %:    36.5324  MPKI: 1.55476
L2C WRITEBACK DATA	ACCESS:     531634  HIT:     518543  MISS:      13091  HIT %:    97.5376  MISS %:    2.46241  MPKI: 0.26182
L2C LOAD TRANSLATION DATA	ACCESS:       2266  HIT:        705  MISS:       1561  HIT %:    31.1121  MISS %:    68.8879  MPKI: 0.03122
L2C TRANSLATION FROM L1D PREFETCHER DATA	ACCESS:         65  HIT:         49  MISS:         16  HIT %:    75.3846  MISS %:    24.6154  MPKI: 0.00032

L2C PREFETCH  REQUESTED:     101010  ISSUED:     101010  USEFUL:       9159  USELESS:      69200
L2C USEFUL LOAD PREFETCHES:       9159 PREFETCH ISSUED TO LOWER LEVEL:      78424  ACCURACY: 11.6788
 TIMELY PREFETCHES:       9159 LATE PREFETCHES: 686 DROPPED PREFETCHES: 0
L2C AVERAGE MISS LATENCY: 40.5299 cycles
L2C RQ	ACCESS:    3798113	FORWARD:          0	MERGED:          0	TO_CACHE:    3798042
L2C WQ	ACCESS:     531634	FORWARD:         71	MERGED:          0	TO_CACHE:     531634
L2C PQ	ACCESS:     221120	FORWARD:          0	MERGED:       3684	TO_CACHE:     217436

L2C Dense regions hint from L2: 0
PSCL5 TOTAL     ACCESS:       5024  HIT:       2512  MISS:       2512  HIT %:         50  MISS %:         50   MPKI: 0.05024
PSCL5 LOAD TRANSLATION INSTRUCTION	ACCESS:       4894  HIT:       2447  MISS:       2447  HIT %:         50  MISS %:         50  MPKI: 0.04894
PSCL5 TRANSLATION FROM L1D PREFETCHER INSTRUCTION	ACCESS:        130  HIT:         65  MISS:         65  HIT %:         50  MISS %:         50  MPKI: 0.0013


PSCL4 TOTAL     ACCESS:       3160  HIT:       1577  MISS:       1583  HIT %:    49.9051  MISS %:    50.0949   MPKI: 0.03166
PSCL4 LOAD TRANSLATION INSTRUCTION	ACCESS:       2673  HIT:       1534  MISS:       1139  HIT %:    57.3887  MISS %:    42.6113  MPKI: 0.02278
PSCL4 TRANSLATION FROM L1D PREFETCHER INSTRUCTION	ACCESS:         86  HIT:         43  MISS:         43  HIT %:         50  MISS %:         50  MPKI: 0.00086
PSCL4 LOAD TRANSLATION DATA	ACCESS:        401  HIT:          0  MISS:        401  HIT %:          0  MISS %:        100  MPKI: 0.00802


PSCL3 TOTAL     ACCESS:       4887  HIT:       2434  MISS:       2453  HIT %:    49.8056  MISS %:    50.1944   MPKI: 0.04906
PSCL3 LOAD TRANSLATION INSTRUCTION	ACCESS:       3949  HIT:       2385  MISS:       1564  HIT %:     60.395  MISS %:     39.605  MPKI: 0.03128
PSCL3 TRANSLATION FROM L1D PREFETCHER INSTRUCTION	ACCESS:         90  HIT:         49  MISS:         41  HIT %:    54.4444  MISS %:    45.5556  MPKI: 0.00082
PSCL3 LOAD TRANSLATION DATA	ACCESS:        840  HIT:          0  MISS:        840  HIT %:          0  MISS %:        100  MPKI: 0.0168
PSCL3 TRANSLATION FROM L1D PREFETCHER DATA	ACCESS:          8  HIT:          0  MISS:          8  HIT %:          0  MISS %:        100  MPKI: 0.00016


PSCL2 TOTAL     ACCESS:       4826  HIT:       2314  MISS:       2512  HIT %:    47.9486  MISS %:    52.0514   MPKI: 0.05024
PSCL2 LOAD TRANSLATION INSTRUCTION	ACCESS:       2600  HIT:       2249  MISS:        351  HIT %:       86.5  MISS %:       13.5  MPKI: 0.00702
PSCL2 TRANSLATION FROM L1D PREFETCHER INSTRUCTION	ACCESS:         65  HIT:         65  MISS:          0  HIT %:        100  MISS %:          0  MPKI: 0
PSCL2 LOAD TRANSLATION DATA	ACCESS:       2096  HIT:          0  MISS:       2096  HIT %:          0  MISS %:        100  MPKI: 0.04192
PSCL2 TRANSLATION FROM L1D PREFETCHER DATA	ACCESS:         65  HIT:          0  MISS:         65  HIT %:          0  MISS %:        100  MPKI: 0.0013


LLC TOTAL     ACCESS:     583403  HIT:     553186  MISS:      30217  HIT %:    94.8206  MISS %:    5.17944   MPKI: 0.60434
LLC LOAD INSTRUCTION	ACCESS:     274356  HIT:     273136  MISS:       1220  HIT %:    99.5553  MISS %:   0.444678  MPKI: 0.0244
LLC LOAD TRANSLATION INSTRUCTION	ACCESS:        294  HIT:        257  MISS:         37  HIT %:     87.415  MISS %:     12.585  MPKI: 0.00074
LLC LOAD DATA	ACCESS:      91030  HIT:      87333  MISS:       3697  HIT %:    95.9387  MISS %:     4.0613  MPKI: 0.07394
LLC RFO DATA	ACCESS:      57863  HIT:      43233  MISS:      14630  HIT %:    74.7161  MISS %:    25.2839  MPKI: 0.2926
LLC PREFETCH DATA	ACCESS:      78424  HIT:      68130  MISS:      10294  HIT %:    86.8739  MISS %:    13.1261  MPKI: 0.20588
LLC WRITEBACK DATA	ACCESS:      79859  HIT:      79610  MISS:        249  HIT %:    99.6882  MISS %:     0.3118  MPKI: 0.00498
LLC LOAD TRANSLATION DATA	ACCESS:       1561  HIT:       1471  MISS:         90  HIT %:    94.2345  MISS %:    5.76553  MPKI: 0.0018
LLC TRANSLATION FROM L1D PREFETCHER DATA	ACCESS:         16  HIT:         16  MISS:          0  HIT %:        100  MISS %:          0  MPKI: 0

LLC AVERAGE MISS LATENCY: 193.052 cycles
LLC RQ	ACCESS:     425122	FORWARD:          0	MERGED:          0	TO_CACHE:     425120
LLC WQ	ACCESS:      79859	FORWARD:          2	MERGED:          0	TO_CACHE:      79859
LLC PQ	ACCESS:      78424	FORWARD:          0	MERGED:          0	TO_CACHE:      78424

LLC Dense regions hint to LLC: 0

RAW hits: 1788245
Loads Generated: 12605135
Loads sent to L1D: 10816890
Stores Generated: 6907628
Stores sent to L1D: 6907638
Major fault: 0 Minor fault: 2405
Allocated PAGES: 2405

stream: 
stream:times selected: 1249371
stream:pref_filled: 127152
stream:pref_useful: 28382
stream:pref_late: 10195
stream:misses: 11110
stream:misses_by_poll: 0

CS: 
CS:times selected: 197093
CS:pref_filled: 73769
CS:pref_useful: 50465
CS:pref_late: 9347
CS:misses: 24247
CS:misses_by_poll: 13

CPLX: 
CPLX:times selected: 1051023
CPLX:pref_filled: 24961
CPLX:pref_useful: 7647
CPLX:pref_late: 3968
CPLX:misses: 131684
CPLX:misses_by_poll: 6

NL_L1: 
NL:times selected: 22250
NL:pref_filled: 1250
NL:pref_useful: 573
NL:pref_late: 693
NL:misses: 3328
NL:misses_by_poll: 0

total selections: 2519737
total_filled: 106878
total_useful: 49984
total_late: 26803
total_polluted: 19
total_misses_after_warmup: 800173
conflicts: 5575604

test: 118652

DRAM Statistics
 CHANNEL 0
 RQ ROW_BUFFER_HIT:      10714  ROW_BUFFER_MISS:      19239
 DBUS_CONGESTED:         14
 WQ ROW_BUFFER_HIT:       2093  ROW_BUFFER_MISS:      13790  FULL:          0

 AVG_CONGESTED_CYCLE: 4

CPU 0 Branch Prediction Accuracy: 99.8185% MPKI: 0.33254 Average ROB Occupancy at Mispredict: 152.852
Branch types
NOT_BRANCH: 40839075 81.6781%
BRANCH_DIRECT_JUMP: 543196 1.08639%
BRANCH_INDIRECT: 181400 0.3628%
BRANCH_CONDITIONAL: 6212158 12.4243%
BRANCH_DIRECT_CALL: 941242 1.88248%
BRANCH_INDIRECT_CALL: 170851 0.341702%
BRANCH_RETURN: 1112092 2.22418%
BRANCH_OTHER: 0 0%

DRAM PAGES: 1048576
Allocated PAGES: 2405
Average_ROB_Occupancy: 134.392
Average_Decode_Occupancy: 16.5579
Average_FTQ_Occupancy: 7.59132
Indirect max targets: 14 Average targets: 1.17572
Branch_type:  BRANCH_DIRECT_JUMP:  Count Percentage: 3.2527 6.70573 3.72958 7.67135 2.79193 5.97145 0.881761 68.9955 
Branch_type:  BRANCH_INDIRECT:  Count Percentage: 11.7615 3.47504 2.53226 0 2.53722 9.69166 19.2082 50.7942 
Branch_type:  BRANCH_CONDITIONAL:  Count Percentage: 17.6465 2.12509 6.92137 7.78004 1.66063 4.7785 1.73049 57.3574 
Branch_type:  BRANCH_DIRECT_CALL:  Count Percentage: 0.264899 1.24886 1.43212 3.74089 3.46498 2.34726 0.613627 86.8874 
Branch_type:  BRANCH_INDIRECT_CALL:  Count Percentage: 9.51994 0.566925 2.9817 4.83249 1.29763 1.71015 1.27829 77.8129 
Branch_type:  BRANCH_RETURN:  Count Percentage: 3.44186 0.569291 1.48104 8.45382 3.60332 6.37661 2.8646 73.2095 
Branch_type:  BRANCH_DIRECT_JUMP:  Total Count: 35332 72840 40512 83329 30327 64864 9578 749454 
Branch_type:  BRANCH_INDIRECT:  Total Count: 42703 12617 9194 0 9212 35188 69740 184421 
Branch_type:  BRANCH_CONDITIONAL:  Total Count: 2192058 263980 859779 966444 206285 593590 214963 7124991 
Branch_type:  BRANCH_DIRECT_CALL:  Total Count: 4977 23464 26907 70285 65101 44101 11529 1632465 
Branch_type:  BRANCH_INDIRECT_CALL:  Total Count: 32493 1935 10177 16494 4429 5837 4363 265587 
Branch_type:  BRANCH_RETURN:  Total Count: 76444 12644 32894 187760 80030 141625 63623 1625989 
Number of unique branch instructions: 10849
Upper 32 bits: 
aaaa
ffff
ffff0000
Unique upper 32 bits: 3
Unique upper 36 bits: 3
Unique upper 40 bits: 5
Unique upper 44 bits: 32
Unique upper 48 bits: 160
Offset_3 4511
Offset_4 261
Offset_5 486
Offset_6 554
Offset_7 641
Offset_8 574
Offset_9 522
Offset_10 436
Offset_11 357
Offset_12 298
Offset_13 235
Offset_14 233
Offset_15 207
Offset_16 234
Offset_17 168
Offset_18 163
Offset_19 261
Offset_20 149
Offset_21 245
Offset_22 413
Offset_23 241
Offset_24 342
Offset_25 114
Offset_47 91
decode_dispatch_called: 20348901 47.1302
Dispatch_width: 0 10208333 50.1665 23.6436
Dispatch_width: 1 542770 2.66732 1.25711
Dispatch_width: 2 675157 3.3179 1.56374
Dispatch_width: 3 421787 2.07278 0.976903
Dispatch_width: 4 1937165 9.51975 4.48668
Dispatch_width: 5 289237 1.42139 0.669904
Dispatch_width: 6 6274452 30.8344 14.5323
Empty_decode_cycles: 22827017 52.8698
ROB_full_cycles: 2901352 6.71984
Starvation_cycles_per_kilo_instr: 340.001
Starvation_cycles_per_kilo_instr_3: 317.737
Starvation_cycles_per_kilo_instr_0: 301.34
Branch_type_1  (3,1)  (4,7)  (5,38)  (6,80)  (7,126)  (8,145)  (9,137)  (10,115)  (11,84)  (12,48)  (13,10)  (14,2)  (15,3)  (16,4)  (18,1)  (19,5)  (20,2)  (21,1)  (22,3)  (23,2)  (24,10)  (25,12) 
Branch_type_2  (3,1)  (4,1)  (5,1)  (8,4)  (9,4)  (10,1)  (12,1)  (13,1)  (14,1)  (16,3)  (17,2)  (20,2)  (21,2)  (23,5)  (24,1)  (47,40) 
Branch_type_3  (3,4509)  (4,253)  (5,443)  (6,457)  (7,482)  (8,361)  (9,288)  (10,182)  (11,140)  (12,53)  (13,10) 
Branch_type_4  (6,4)  (7,8)  (8,26)  (9,57)  (10,65)  (11,68)  (12,108)  (13,101)  (14,104)  (15,100)  (16,104)  (17,77)  (18,72)  (19,126)  (20,75)  (21,130)  (22,221)  (23,136)  (24,198)  (25,98)  (47,1) 
Branch_type_5  (8,3)  (9,1)  (10,4)  (11,5)  (12,3)  (13,14)  (14,16)  (15,11)  (16,22)  (17,12)  (18,23)  (19,14)  (20,12)  (21,13)  (22,43)  (23,26)  (24,37) 
Branch_type_6  (5,4)  (6,13)  (7,25)  (8,35)  (9,35)  (10,69)  (11,60)  (12,85)  (13,99)  (14,110)  (15,93)  (16,101)  (17,77)  (18,67)  (19,116)  (20,58)  (21,99)  (22,146)  (23,72)  (24,96)  (25,4)  (47,50) 
Unique trigger count: 
L2BTB1 768 4
L2BTB2 768 4
L2BTB3 768 4
L2BTB4 112 4
