
*** ChampSim Multicore Out-of-Order Simulator ***

Warmup Instructions: 50000000
Simulation Instructions: 50000000
Number of CPUs: 1
LLC sets: 2048
LLC ways: 16
Off-chip DRAM Size: 4096 MB Channels: 1 Width: 64-bit Data Rate: 6400 MT/s
CPU 0 runs ./micro_traces/srv301.trace.gz
.gz
ITLB has LRU replacement policy
DTLB has LRU replacement policy
STLB has LRU replacement policy
FDIP Prefetcher at L1I
L1I has LRU replacement policy
L1D has LRU replacement policy
Initialize SRRIP state for L2C
Initialize DRRIP state for LLC
Heartbeat_Variant_0 : 1296 0.316406 per_variant_size: 0 1296 0 0 0 0 0 0 0 
Heartbeat_Variant_1 : 2491 0.608154 per_variant_size: 0 618 1873 0 0 0 0 0 0 
Heartbeat_Variant_2 : 0 0 per_variant_size: 0 0 0 0 0 0 0 0 0 
Heartbeat_Variant_3 : 0 0 per_variant_size: 0 0 0 0 0 0 0 0 0 
Heartbeat_Variant_0_evicts 0 : 5757 1 : 397 2 : 0 3 : 0 
Heartbeat_Variant_1_evicts 0 : 342 1 : 0 2 : 0 3 : 0 
Heartbeat_Variant_2_evicts 0 : 0 1 : 0 2 : 0 3 : 0 
Heartbeat_Variant_3_evicts 0 : 0 1 : 0 2 : 0 3 : 0 
Heartbeat CPU 0 instructions: 10000000 cycles: 2797945 heartbeat IPC: 3.57405 cumulative IPC: 3.57405 (Simulation time: 0 hr 1 min 46 sec) 
Heartbeat_Variant_0 : 1348 0.329102 per_variant_size: 0 1348 0 0 0 0 0 0 0 
Heartbeat_Variant_1 : 2596 0.633789 per_variant_size: 0 534 2062 0 0 0 0 0 0 
Heartbeat_Variant_2 : 0 0 per_variant_size: 0 0 0 0 0 0 0 0 0 
Heartbeat_Variant_3 : 0 0 per_variant_size: 0 0 0 0 0 0 0 0 0 
Heartbeat_Variant_0_evicts 0 : 5744 1 : 305 2 : 0 3 : 0 
Heartbeat_Variant_1_evicts 0 : 297 1 : 0 2 : 0 3 : 0 
Heartbeat_Variant_2_evicts 0 : 0 1 : 0 2 : 0 3 : 0 
Heartbeat_Variant_3_evicts 0 : 0 1 : 0 2 : 0 3 : 0 
Heartbeat CPU 0 instructions: 20000003 cycles: 5596449 heartbeat IPC: 3.57334 cumulative IPC: 3.5737 (Simulation time: 0 hr 3 min 26 sec) 
Heartbeat_Variant_0 : 1352 0.330078 per_variant_size: 0 1352 0 0 0 0 0 0 0 
Heartbeat_Variant_1 : 2598 0.634277 per_variant_size: 0 536 2062 0 0 0 0 0 0 
Heartbeat_Variant_2 : 0 0 per_variant_size: 0 0 0 0 0 0 0 0 0 
Heartbeat_Variant_3 : 0 0 per_variant_size: 0 0 0 0 0 0 0 0 0 
Heartbeat_Variant_0_evicts 0 : 5594 1 : 35 2 : 0 3 : 0 
Heartbeat_Variant_1_evicts 0 : 32 1 : 0 2 : 0 3 : 0 
Heartbeat_Variant_2_evicts 0 : 0 1 : 0 2 : 0 3 : 0 
Heartbeat_Variant_3_evicts 0 : 0 1 : 0 2 : 0 3 : 0 
Heartbeat CPU 0 instructions: 30000001 cycles: 8393569 heartbeat IPC: 3.57511 cumulative IPC: 3.57417 (Simulation time: 0 hr 5 min 1 sec) 
Heartbeat_Variant_0 : 1365 0.333252 per_variant_size: 0 1365 0 0 0 0 0 0 0 
Heartbeat_Variant_1 : 2633 0.642822 per_variant_size: 0 511 2122 0 0 0 0 0 0 
Heartbeat_Variant_2 : 0 0 per_variant_size: 0 0 0 0 0 0 0 0 0 
Heartbeat_Variant_3 : 0 0 per_variant_size: 0 0 0 0 0 0 0 0 0 
Heartbeat_Variant_0_evicts 0 : 5648 1 : 326 2 : 0 3 : 0 
Heartbeat_Variant_1_evicts 0 : 330 1 : 0 2 : 0 3 : 0 
Heartbeat_Variant_2_evicts 0 : 0 1 : 0 2 : 0 3 : 0 
Heartbeat_Variant_3_evicts 0 : 0 1 : 0 2 : 0 3 : 0 
Heartbeat CPU 0 instructions: 40000000 cycles: 11190676 heartbeat IPC: 3.57512 cumulative IPC: 3.5744 (Simulation time: 0 hr 6 min 38 sec) 
Heartbeat_Variant_0 : 1375 0.335693 per_variant_size: 0 1375 0 0 0 0 0 0 0 
Heartbeat_Variant_1 : 2655 0.648193 per_variant_size: 0 463 2192 0 0 0 0 0 0 
Heartbeat_Variant_2 : 0 0 per_variant_size: 0 0 0 0 0 0 0 0 0 
Heartbeat_Variant_3 : 0 0 per_variant_size: 0 0 0 0 0 0 0 0 0 
Heartbeat_Variant_0_evicts 0 : 5890 1 : 408 2 : 0 3 : 0 
Heartbeat_Variant_1_evicts 0 : 408 1 : 0 2 : 0 3 : 0 
Heartbeat_Variant_2_evicts 0 : 0 1 : 0 2 : 0 3 : 0 
Heartbeat_Variant_3_evicts 0 : 0 1 : 0 2 : 0 3 : 0 
Heartbeat CPU 0 instructions: 50000002 cycles: 13988952 heartbeat IPC: 3.57363 cumulative IPC: 3.57425 (Simulation time: 0 hr 8 min 17 sec) 

Warmup complete CPU 0 instructions: 50000002 cycles: 13988952 (Simulation time: 0 hr 8 min 17 sec) 

Cycle: 20000000 FTQ IN: 58367218 FTQ occupancy: 19.9133 DECODE IN: 58367144 DECODE occupancy: 52.0029 ROB IN: 58367084 ROB occupancy: 315.203 ROB OUT: 58366732
Heartbeat_Variant_0 : 1375 0.335693 per_variant_size: 0 1375 0 0 0 0 0 0 0 
Heartbeat_Variant_1 : 2656 0.648438 per_variant_size: 0 458 2198 0 0 0 0 0 0 
Heartbeat_Variant_2 : 0 0 per_variant_size: 0 0 0 0 0 0 0 0 0 
Heartbeat_Variant_3 : 0 0 per_variant_size: 0 0 0 0 0 0 0 0 0 
Heartbeat_Variant_0_evicts 0 : 5640 1 : 11 2 : 0 3 : 0 
Heartbeat_Variant_1_evicts 0 : 11 1 : 0 2 : 0 3 : 0 
Heartbeat_Variant_2_evicts 0 : 0 1 : 0 2 : 0 3 : 0 
Heartbeat_Variant_3_evicts 0 : 0 1 : 0 2 : 0 3 : 0 
Heartbeat CPU 0 instructions: 60000001 cycles: 21179231 heartbeat IPC: 1.39077 cumulative IPC: 1.39077 (Simulation time: 0 hr 10 min 5 sec) 
Heartbeat_Variant_0 : 1384 0.337891 per_variant_size: 0 1384 0 0 0 0 0 0 0 
Heartbeat_Variant_1 : 2662 0.649902 per_variant_size: 0 470 2192 0 0 0 0 0 0 
Heartbeat_Variant_2 : 0 0 per_variant_size: 0 0 0 0 0 0 0 0 0 
Heartbeat_Variant_3 : 0 0 per_variant_size: 0 0 0 0 0 0 0 0 0 
Heartbeat_Variant_0_evicts 0 : 5629 1 : 281 2 : 0 3 : 0 
Heartbeat_Variant_1_evicts 0 : 274 1 : 0 2 : 0 3 : 0 
Heartbeat_Variant_2_evicts 0 : 0 1 : 0 2 : 0 3 : 0 
Heartbeat_Variant_3_evicts 0 : 0 1 : 0 2 : 0 3 : 0 
Heartbeat CPU 0 instructions: 70000000 cycles: 28511557 heartbeat IPC: 1.36382 cumulative IPC: 1.37716 (Simulation time: 0 hr 11 min 57 sec) 
Cycle: 30000000 FTQ IN: 13682487 FTQ occupancy: 12.694 DECODE IN: 13682522 DECODE occupancy: 32.7724 ROB IN: 13682574 ROB occupancy: 234.146 ROB OUT: 13682740
Heartbeat_Variant_0 : 1385 0.338135 per_variant_size: 0 1385 0 0 0 0 0 0 0 
Heartbeat_Variant_1 : 2664 0.650391 per_variant_size: 0 470 2194 0 0 0 0 0 0 
Heartbeat_Variant_2 : 0 0 per_variant_size: 0 0 0 0 0 0 0 0 0 
Heartbeat_Variant_3 : 0 0 per_variant_size: 0 0 0 0 0 0 0 0 0 
Heartbeat_Variant_0_evicts 0 : 5550 1 : 84 2 : 0 3 : 0 
Heartbeat_Variant_1_evicts 0 : 84 1 : 0 2 : 0 3 : 0 
Heartbeat_Variant_2_evicts 0 : 0 1 : 0 2 : 0 3 : 0 
Heartbeat_Variant_3_evicts 0 : 0 1 : 0 2 : 0 3 : 0 
Heartbeat CPU 0 instructions: 80000000 cycles: 35733562 heartbeat IPC: 1.38466 cumulative IPC: 1.37965 (Simulation time: 0 hr 13 min 49 sec) 
Cycle: 40000000 FTQ IN: 13853596 FTQ occupancy: 12.7644 DECODE IN: 13853531 DECODE occupancy: 33.2534 ROB IN: 13853479 ROB occupancy: 237.181 ROB OUT: 13853313
Heartbeat_Variant_0 : 1380 0.336914 per_variant_size: 0 1380 0 0 0 0 0 0 0 
Heartbeat_Variant_1 : 2683 0.655029 per_variant_size: 0 472 2211 0 0 0 0 0 0 
Heartbeat_Variant_2 : 0 0 per_variant_size: 0 0 0 0 0 0 0 0 0 
Heartbeat_Variant_3 : 0 0 per_variant_size: 0 0 0 0 0 0 0 0 0 
Heartbeat_Variant_0_evicts 0 : 4260 1 : 183 2 : 0 3 : 0 
Heartbeat_Variant_1_evicts 0 : 192 1 : 0 2 : 0 3 : 0 
Heartbeat_Variant_2_evicts 0 : 0 1 : 0 2 : 0 3 : 0 
Heartbeat_Variant_3_evicts 0 : 0 1 : 0 2 : 0 3 : 0 
Heartbeat CPU 0 instructions: 90000000 cycles: 42821742 heartbeat IPC: 1.4108 cumulative IPC: 1.38731 (Simulation time: 0 hr 15 min 43 sec) 
Heartbeat_Variant_0 : 1385 0.338135 per_variant_size: 0 1385 0 0 0 0 0 0 0 
Heartbeat_Variant_1 : 2688 0.65625 per_variant_size: 0 478 2210 0 0 0 0 0 0 
Heartbeat_Variant_2 : 0 0 per_variant_size: 0 0 0 0 0 0 0 0 0 
Heartbeat_Variant_3 : 0 0 per_variant_size: 0 0 0 0 0 0 0 0 0 
Heartbeat_Variant_0_evicts 0 : 3588 1 : 875 2 : 0 3 : 0 
Heartbeat_Variant_1_evicts 0 : 871 1 : 0 2 : 0 3 : 0 
Heartbeat_Variant_2_evicts 0 : 0 1 : 0 2 : 0 3 : 0 
Heartbeat_Variant_3_evicts 0 : 0 1 : 0 2 : 0 3 : 0 
Heartbeat CPU 0 instructions: 100000001 cycles: 49893935 heartbeat IPC: 1.41399 cumulative IPC: 1.39256 (Simulation time: 0 hr 17 min 39 sec) 
Finished CPU 0 instructions: 50000003 cycles: 35904984 cumulative IPC: 1.39256 (Simulation time: 0 hr 17 min 39 sec) 

ChampSim completed all CPUs

Region of Interest Statistics

CPU 0 cumulative IPC: 1.39256 instructions: 50000003 cycles: 35904984
 Fetch stage stalled: 52.0467  Sim cycles: 35904984 fetch stall cycle: 18687360
 Empty decode stage: 33.6577  Sim cycles: 35904984 fetch stall cycle: 12084795
ITLB TOTAL     ACCESS:    6114983  HIT:    5680205  MISS:     434778  HIT %:      92.89  MISS %:    7.11004   MPKI: 8.69556
ITLB LOAD TRANSLATION INSTRUCTION	ACCESS:    5996250  HIT:    5561472  MISS:     434778  HIT %:    92.7492  MISS %:    7.25083  MPKI: 8.69556
ITLB TRANSLATION FROM L1D PREFETCHER INSTRUCTION	ACCESS:     118733  HIT:     118733  MISS:          0  HIT %:        100  MISS %:          0  MPKI: 0

ITLB AVERAGE MISS LATENCY: 9.07943 cycles
ITLB RQ	ACCESS:    8255767	FORWARD:          0	MERGED:    1748493	TO_CACHE:    6507274

DTLB TOTAL     ACCESS:    9049931  HIT:    8605100  MISS:     444831  HIT %:    95.0847  MISS %:     4.9153   MPKI: 8.89662
DTLB LOAD TRANSLATION DATA	ACCESS:    9049931  HIT:    8605100  MISS:     444831  HIT %:    95.0847  MISS %:     4.9153  MPKI: 8.89662

DTLB AVERAGE MISS LATENCY: 9.32962 cycles
DTLB RQ	ACCESS:   13382668	FORWARD:          0	MERGED:    4298210	TO_CACHE:    9084458

STLB TOTAL     ACCESS:    1087869  HIT:    1085726  MISS:       2143  HIT %:     99.803  MISS %:   0.196991   MPKI: 0.04286
STLB LOAD TRANSLATION INSTRUCTION	ACCESS:     434778  HIT:     434303  MISS:        475  HIT %:    99.8907  MISS %:   0.109251  MPKI: 0.0095
STLB LOAD TRANSLATION DATA	ACCESS:     444828  HIT:     443185  MISS:       1643  HIT %:    99.6306  MISS %:   0.369356  MPKI: 0.03286
STLB TRANSLATION FROM L1D PREFETCHER DATA	ACCESS:     208263  HIT:     208238  MISS:         25  HIT %:     99.988  MISS %:  0.0120041  MPKI: 0.0005

STLB AVERAGE MISS LATENCY: 71.8306 cycles
STLB RQ	ACCESS:    1187277	FORWARD:          0	MERGED:      99359	TO_CACHE:    1087918

STLB Hit, L1D data hit: 0
STLB Hit, L2C data hit: 0
STLB Hit, LLC data hit: 0
STLB Hit, LLC data miss: 0
STLB STLB hints to L2: 0
L1D TOTAL     ACCESS:   13154443  HIT:   12172674  MISS:     981769  HIT %:    92.5366  MISS %:     7.4634   MPKI: 19.6354
L1D LOAD DATA	ACCESS:    6616721  HIT:    5965462  MISS:     651259  HIT %:    90.1574  MISS %:    9.84262  MPKI: 13.0252
L1D RFO DATA	ACCESS:    6264270  HIT:    6014676  MISS:     249594  HIT %:    96.0156  MISS %:    3.98441  MPKI: 4.99188
L1D PREFETCH DATA	ACCESS:     273452  HIT:     192536  MISS:      80916  HIT %:    70.4094  MISS %:    29.5906  MPKI: 1.61832

L1D PREFETCH  REQUESTED:     615655  ISSUED:     615655  USEFUL:      28755  USELESS:      59821
L1D USEFUL LOAD PREFETCHES:      28755 PREFETCH ISSUED TO LOWER LEVEL:      88628  ACCURACY: 32.4446
 TIMELY PREFETCHES:      28755 LATE PREFETCHES: 7682 DROPPED PREFETCHES: 12
L1D AVERAGE MISS LATENCY: 245718 cycles
L1D RQ	ACCESS:   10708437	FORWARD:          0	MERGED:    3875459	TO_CACHE:    6646710
L1D WQ	ACCESS:    6957598	FORWARD:     186587	MERGED:     221640	TO_CACHE:    6735958
L1D PQ	ACCESS:     307987	FORWARD:          0	MERGED:          0	TO_CACHE:     307668

L1D UNIQUE REGIONS ACCESSED: 0
L1D REGIONS CONFLICTS: 0
L1D Cross Page Prefetch Requests: 5436
L1D Same Page Prefetch Requests: 686775
L1D ROI Sum of L1D PQ occupancy: 3918486
L1D PREFETCHES PUSHED FROM L2C: 0
L1I TOTAL     ACCESS:    7533047  HIT:    5106878  MISS:    2426169  HIT %:     67.793  MISS %:     32.207   MPKI: 48.5234
L1I LOAD INSTRUCTION	ACCESS:    6757699  HIT:    4331530  MISS:    2426169  HIT %:    64.0977  MISS %:    35.9023  MPKI: 48.5234
L1I PREFETCH INSTRUCTION	ACCESS:     775348  HIT:     775348  MISS:          0  HIT %:        100  MISS %:          0  MPKI: 0

L1I PREFETCH  REQUESTED:    1629510  ISSUED:    1629510  USEFUL:          0  USELESS:          0
L1I USEFUL LOAD PREFETCHES:          0 PREFETCH ISSUED TO LOWER LEVEL:          0  ACCURACY: -nan
 TIMELY PREFETCHES:          0 LATE PREFETCHES: 0 DROPPED PREFETCHES: 0
L1I AVERAGE MISS LATENCY: 17.0561 cycles
L1I RQ	ACCESS:    9634285	FORWARD:          0	MERGED:    2594903	TO_CACHE:    7039382
L1I PQ	ACCESS:    1629510	FORWARD:          0	MERGED:     413125	TO_CACHE:    1216385

L1BTB TOTAL     ACCESS:    5842684  HIT:    2391558  MISS:    3451126  HIT %:    40.9325  MISS %:    59.0675   MPKI: 69.0225
L1BTB BRANCH_DIRECT_JUMP	ACCESS:     550525 HIT:     175575 MISS:     374950 AVERAGE STALL: 49.6265 AVERAGE FETCH STALL: 14.4365 AVERAGE FETCH QUEUE STALL: 16.5595 AVERAGE DECODE STALL: 17.7351 AVERAGE EXECUTE STALL: 2.31889e+15
L1BTB BRANCH_INDIRECT	ACCESS:     180198 HIT:      63726 MISS:     116472 AVERAGE STALL: 101.779 AVERAGE FETCH STALL: 11.4965 AVERAGE FETCH QUEUE STALL: 14.8808 AVERAGE DECODE STALL: 11.1563 AVERAGE EXECUTE STALL: 63.2802
L1BTB BRANCH_CONDITIONAL	ACCESS:    2723132 HIT:    1508786 MISS:    1214346 AVERAGE STALL: 56.3261 AVERAGE FETCH STALL: 21.446 AVERAGE FETCH QUEUE STALL: 18.6315 AVERAGE DECODE STALL: 15.4733 AVERAGE EXECUTE STALL: 2.39786e+15
L1BTB BRANCH_DIRECT_CALL	ACCESS:    1021703 HIT:     213449 MISS:     808254 AVERAGE STALL: 62.0415 AVERAGE FETCH STALL: 32.9799 AVERAGE FETCH QUEUE STALL: 16.6898 AVERAGE DECODE STALL: 11.6414 AVERAGE EXECUTE STALL: 5.80269e+15
L1BTB BRANCH_INDIRECT_CALL	ACCESS:     172711 HIT:      33444 MISS:     139267 AVERAGE STALL: 134.825 AVERAGE FETCH STALL: 13.1266 AVERAGE FETCH QUEUE STALL: 13.9867 AVERAGE DECODE STALL: 10.2839 AVERAGE EXECUTE STALL: 96.9286
L1BTB BRANCH_RETURN	ACCESS:    1194415 HIT:     396578 MISS:     797837 AVERAGE STALL: 46.2631 AVERAGE FETCH STALL: 16.5121 AVERAGE FETCH QUEUE STALL: 4.28099 AVERAGE DECODE STALL: 5.64579 AVERAGE EXECUTE STALL: 4.8721e+14
L1BTB BRANCH_OTHER ACCESS:          0 HIT:          0 MISS:          0 AVERAGE STALL: -nan AVERAGE FETCH STALL: -nan AVERAGE FETCH QUEUE STALL: -nan AVERAGE DECODE STALL: -nan AVERAGE EXECUTE STALL: -nan
L1BTB TOTAL ROB OCCUPANCY AT BTB MISS: 2.68143

L2BTB TOTAL     ACCESS:    3429325  HIT:    3365775  MISS:      63550  HIT %:    98.1469  MISS %:    1.85313   MPKI: 1.271
L2BTB BRANCH_DIRECT_JUMP	ACCESS:     371499 HIT:     366956 MISS:       4543 AVERAGE STALL: 49.6265 AVERAGE FETCH STALL: 14.4365 AVERAGE FETCH QUEUE STALL: 16.5595 AVERAGE DECODE STALL: 17.7351 AVERAGE EXECUTE STALL: 2.31889e+15
L2BTB BRANCH_INDIRECT	ACCESS:     107465 HIT:     105053 MISS:       2412 AVERAGE STALL: 101.779 AVERAGE FETCH STALL: 11.4965 AVERAGE FETCH QUEUE STALL: 14.8808 AVERAGE DECODE STALL: 11.1563 AVERAGE EXECUTE STALL: 63.2802
L2BTB BRANCH_CONDITIONAL	ACCESS:    1214346 HIT:    1206518 MISS:       7828 AVERAGE STALL: 56.3261 AVERAGE FETCH STALL: 21.446 AVERAGE FETCH QUEUE STALL: 18.6315 AVERAGE DECODE STALL: 15.4733 AVERAGE EXECUTE STALL: 2.39786e+15
L2BTB BRANCH_DIRECT_CALL	ACCESS:     808254 HIT:     805012 MISS:       3242 AVERAGE STALL: 62.0415 AVERAGE FETCH STALL: 32.9799 AVERAGE FETCH QUEUE STALL: 16.6898 AVERAGE DECODE STALL: 11.6414 AVERAGE EXECUTE STALL: 5.80269e+15
L2BTB BRANCH_INDIRECT_CALL	ACCESS:     131168 HIT:     122301 MISS:       8867 AVERAGE STALL: 134.825 AVERAGE FETCH STALL: 13.1266 AVERAGE FETCH QUEUE STALL: 13.9867 AVERAGE DECODE STALL: 10.2839 AVERAGE EXECUTE STALL: 96.9286
L2BTB BRANCH_RETURN	ACCESS:     796593 HIT:     759935 MISS:      36658 AVERAGE STALL: 46.2631 AVERAGE FETCH STALL: 16.5121 AVERAGE FETCH QUEUE STALL: 4.28099 AVERAGE DECODE STALL: 5.64579 AVERAGE EXECUTE STALL: 4.8721e+14
L2BTB BRANCH_OTHER ACCESS:          0 HIT:          0 MISS:          0 AVERAGE STALL: -nan AVERAGE FETCH STALL: -nan AVERAGE FETCH QUEUE STALL: -nan AVERAGE DECODE STALL: -nan AVERAGE EXECUTE STALL: -nan
L2BTB TOTAL ROB OCCUPANCY AT BTB MISS: 145.617

L2C TOTAL     ACCESS:    3945557  HIT:    3546936  MISS:     398621  HIT %:     89.897  MISS %:     10.103   MPKI: 7.97242
L2C LOAD INSTRUCTION	ACCESS:    2426168  HIT:    2211500  MISS:     214668  HIT %:     91.152  MISS %:    8.84803  MPKI: 4.29336
L2C LOAD TRANSLATION INSTRUCTION	ACCESS:        511  HIT:        201  MISS:        310  HIT %:    39.3346  MISS %:    60.6654  MPKI: 0.0062
L2C LOAD DATA	ACCESS:     643544  HIT:     576734  MISS:      66810  HIT %:    89.6184  MISS %:    10.3816  MPKI: 1.3362
L2C RFO DATA	ACCESS:     249533  HIT:     209039  MISS:      40494  HIT %:    83.7721  MISS %:    16.2279  MPKI: 0.80988
L2C PREFETCH DATA	ACCESS:     162386  HIT:      98127  MISS:      64259  HIT %:    60.4282  MISS %:    39.5718  MPKI: 1.28518
L2C WRITEBACK DATA	ACCESS:     461627  HIT:     450872  MISS:      10755  HIT %:    97.6702  MISS %:     2.3298  MPKI: 0.2151
L2C LOAD TRANSLATION DATA	ACCESS:       1730  HIT:        426  MISS:       1304  HIT %:    24.6243  MISS %:    75.3757  MPKI: 0.02608
L2C TRANSLATION FROM L1D PREFETCHER DATA	ACCESS:         58  HIT:         37  MISS:         21  HIT %:    63.7931  MISS %:    36.2069  MPKI: 0.00042

L2C PREFETCH  REQUESTED:      79895  ISSUED:      79895  USEFUL:       6636  USELESS:      58016
L2C USEFUL LOAD PREFETCHES:       6636 PREFETCH ISSUED TO LOWER LEVEL:      64658  ACCURACY: 10.2632
 TIMELY PREFETCHES:       6636 LATE PREFETCHES: 399 DROPPED PREFETCHES: 0
L2C AVERAGE MISS LATENCY: 39.0831 cycles
L2C RQ	ACCESS:    3321608	FORWARD:          0	MERGED:          0	TO_CACHE:    3321544
L2C WQ	ACCESS:     461627	FORWARD:         66	MERGED:          0	TO_CACHE:     461627
L2C PQ	ACCESS:     168523	FORWARD:          0	MERGED:       2655	TO_CACHE:     165866

L2C Dense regions hint from L2: 0
PSCL5 TOTAL     ACCESS:       4322  HIT:       2161  MISS:       2161  HIT %:         50  MISS %:         50   MPKI: 0.04322
PSCL5 LOAD TRANSLATION INSTRUCTION	ACCESS:       4206  HIT:       2103  MISS:       2103  HIT %:         50  MISS %:         50  MPKI: 0.04206
PSCL5 TRANSLATION FROM L1D PREFETCHER INSTRUCTION	ACCESS:        116  HIT:         58  MISS:         58  HIT %:         50  MISS %:         50  MPKI: 0.00116


PSCL4 TOTAL     ACCESS:       2972  HIT:       1482  MISS:       1490  HIT %:    49.8654  MISS %:    50.1346   MPKI: 0.0298
PSCL4 LOAD TRANSLATION INSTRUCTION	ACCESS:       1470  HIT:       1440  MISS:         30  HIT %:    97.9592  MISS %:    2.04082  MPKI: 0.0006
PSCL4 TRANSLATION FROM L1D PREFETCHER INSTRUCTION	ACCESS:         42  HIT:         42  MISS:          0  HIT %:        100  MISS %:          0  MPKI: 0
PSCL4 LOAD TRANSLATION DATA	ACCESS:       1418  HIT:          0  MISS:       1418  HIT %:          0  MISS %:        100  MPKI: 0.02836
PSCL4 TRANSLATION FROM L1D PREFETCHER DATA	ACCESS:         42  HIT:          0  MISS:         42  HIT %:          0  MISS %:        100  MPKI: 0.00084


PSCL3 TOTAL     ACCESS:       4107  HIT:       2044  MISS:       2063  HIT %:    49.7687  MISS %:    50.2313   MPKI: 0.04126
PSCL3 LOAD TRANSLATION INSTRUCTION	ACCESS:       2624  HIT:       1994  MISS:        630  HIT %:    75.9909  MISS %:    24.0091  MPKI: 0.0126
PSCL3 TRANSLATION FROM L1D PREFETCHER INSTRUCTION	ACCESS:         69  HIT:         50  MISS:         19  HIT %:    72.4638  MISS %:    27.5362  MPKI: 0.00038
PSCL3 LOAD TRANSLATION DATA	ACCESS:       1383  HIT:          0  MISS:       1383  HIT %:          0  MISS %:        100  MPKI: 0.02766
PSCL3 TRANSLATION FROM L1D PREFETCHER DATA	ACCESS:         31  HIT:          0  MISS:         31  HIT %:          0  MISS %:        100  MPKI: 0.00062


PSCL2 TOTAL     ACCESS:       4207  HIT:       2046  MISS:       2161  HIT %:    48.6332  MISS %:    51.3668   MPKI: 0.04322
PSCL2 LOAD TRANSLATION INSTRUCTION	ACCESS:       2478  HIT:       1988  MISS:        490  HIT %:     80.226  MISS %:     19.774  MPKI: 0.0098
PSCL2 TRANSLATION FROM L1D PREFETCHER INSTRUCTION	ACCESS:         58  HIT:         58  MISS:          0  HIT %:        100  MISS %:          0  MPKI: 0
PSCL2 LOAD TRANSLATION DATA	ACCESS:       1613  HIT:          0  MISS:       1613  HIT %:          0  MISS %:        100  MPKI: 0.03226
PSCL2 TRANSLATION FROM L1D PREFETCHER DATA	ACCESS:         58  HIT:          0  MISS:         58  HIT %:          0  MISS %:        100  MPKI: 0.00116


LLC TOTAL     ACCESS:     447255  HIT:     422349  MISS:      24906  HIT %:    94.4314  MISS %:    5.56864   MPKI: 0.49812
LLC LOAD INSTRUCTION	ACCESS:     214668  HIT:     213595  MISS:       1073  HIT %:    99.5002  MISS %:   0.499842  MPKI: 0.02146
LLC LOAD TRANSLATION INSTRUCTION	ACCESS:        310  HIT:        273  MISS:         37  HIT %:    88.0645  MISS %:    11.9355  MPKI: 0.00074
LLC LOAD DATA	ACCESS:      66415  HIT:      63136  MISS:       3279  HIT %:    95.0629  MISS %:    4.93714  MPKI: 0.06558
LLC RFO DATA	ACCESS:      40484  HIT:      29521  MISS:      10963  HIT %:    72.9202  MISS %:    27.0798  MPKI: 0.21926
LLC PREFETCH DATA	ACCESS:      64658  HIT:      55524  MISS:       9134  HIT %:    85.8734  MISS %:    14.1266  MPKI: 0.18268
LLC WRITEBACK DATA	ACCESS:      59395  HIT:      59063  MISS:        332  HIT %:     99.441  MISS %:    0.55897  MPKI: 0.00664
LLC LOAD TRANSLATION DATA	ACCESS:       1304  HIT:       1216  MISS:         88  HIT %:    93.2515  MISS %:    6.74847  MPKI: 0.00176
LLC TRANSLATION FROM L1D PREFETCHER DATA	ACCESS:         21  HIT:         21  MISS:          0  HIT %:        100  MISS %:          0  MPKI: 0

LLC AVERAGE MISS LATENCY: 157.046 cycles
LLC RQ	ACCESS:     323208	FORWARD:          0	MERGED:          0	TO_CACHE:     323202
LLC WQ	ACCESS:      59395	FORWARD:          6	MERGED:          0	TO_CACHE:      59395
LLC PQ	ACCESS:      64658	FORWARD:          0	MERGED:          0	TO_CACHE:      64658

LLC Dense regions hint to LLC: 0

RAW hits: 2032204
Loads Generated: 12740642
Loads sent to L1D: 10708437
Stores Generated: 6957586
Stores sent to L1D: 6957598
Major fault: 0 Minor fault: 2555
Allocated PAGES: 2555

stream: 
stream:times selected: 1120205
stream:pref_filled: 115365
stream:pref_useful: 22869
stream:pref_late: 6810
stream:misses: 5979
stream:misses_by_poll: 0

CS: 
CS:times selected: 163308
CS:pref_filled: 55950
CS:pref_useful: 32795
CS:pref_late: 6647
CS:misses: 14858
CS:misses_by_poll: 5

CPLX: 
CPLX:times selected: 955658
CPLX:pref_filled: 18130
CPLX:pref_useful: 4038
CPLX:pref_late: 3028
CPLX:misses: 83064
CPLX:misses_by_poll: 0

NL_L1: 
NL:times selected: 22807
NL:pref_filled: 517
NL:pref_useful: 229
NL:pref_late: 190
NL:misses: 890
NL:misses_by_poll: 0

total selections: 2261978
total_filled: 80916
total_useful: 28755
total_late: 17795
total_polluted: 5
total_misses_after_warmup: 681248
conflicts: 5623210

test: 118940

DRAM Statistics
 CHANNEL 0
 RQ ROW_BUFFER_HIT:       8766  ROW_BUFFER_MISS:      15804
 DBUS_CONGESTED:         11
 WQ ROW_BUFFER_HIT:       1374  ROW_BUFFER_MISS:      10380  FULL:          0

 AVG_CONGESTED_CYCLE: 5

CPU 0 Branch Prediction Accuracy: 99.8142% MPKI: 0.34676 Average ROB Occupancy at Mispredict: 188.404
Branch types
NOT_BRANCH: 40668945 81.3379%
BRANCH_DIRECT_JUMP: 550525 1.10105%
BRANCH_INDIRECT: 180198 0.360396%
BRANCH_CONDITIONAL: 6211502 12.423%
BRANCH_DIRECT_CALL: 1021703 2.04341%
BRANCH_INDIRECT_CALL: 172711 0.345422%
BRANCH_RETURN: 1194415 2.38883%
BRANCH_OTHER: 0 0%

DRAM PAGES: 1048576
Allocated PAGES: 2555
Average_ROB_Occupancy: 245.545
Average_Decode_Occupancy: 34.7318
Average_FTQ_Occupancy: 13.2797
Indirect max targets: 14 Average targets: 1.17981
Branch_type:  BRANCH_DIRECT_JUMP:  Count Percentage: 3.51882 4.82299 3.34977 8.43135 8.25384 5.88988 4.57342 61.1599 
Branch_type:  BRANCH_INDIRECT:  Count Percentage: 11.0281 3.21184 2.31017 18.4054 12.4856 2.64283 2.97136 46.9447 
Branch_type:  BRANCH_CONDITIONAL:  Count Percentage: 23.642 2.44914 2.24137 9.14928 3.023 4.22901 1.15978 54.1064 
Branch_type:  BRANCH_DIRECT_CALL:  Count Percentage: 0.348107 1.64047 0.63857 3.69266 2.06227 2.53534 3.0963 85.9863 
Branch_type:  BRANCH_INDIRECT_CALL:  Count Percentage: 8.95544 0 2.80752 0.00465399 0 2.13705 3.14115 82.9542 
Branch_type:  BRANCH_RETURN:  Count Percentage: 6.80306 1.69715 0.921306 8.44238 4.763 4.79475 2.3251 70.2533 
Branch_type:  BRANCH_DIRECT_JUMP:  Total Count: 38675 53009 36817 92668 90717 64735 50266 672202 
Branch_type:  BRANCH_INDIRECT:  Total Count: 40080 11673 8396 66892 45377 9605 10799 170614 
Branch_type:  BRANCH_CONDITIONAL:  Total Count: 2928143 303334 277601 1133168 374408 523776 143643 6701250 
Branch_type:  BRANCH_DIRECT_CALL:  Total Count: 6836 32215 12540 72515 40498 49788 60804 1688567 
Branch_type:  BRANCH_INDIRECT_CALL:  Total Count: 30788 0 9652 16 0 7347 10799 285189 
Branch_type:  BRANCH_RETURN:  Total Count: 157046 39178 21268 194889 109952 110685 53674 1621769 
Number of unique branch instructions: 10867
Upper 32 bits: 
aaaa
ffff
ffff0000
Unique upper 32 bits: 3
Unique upper 36 bits: 3
Unique upper 40 bits: 5
Unique upper 44 bits: 32
Unique upper 48 bits: 159
Variant_0 : 1385 0.338135
Variant_1 : 2688 0.65625
Variant_2 : 0 0
Variant_3 : 0 0
Offset_3 4515
Offset_4 261
Offset_5 485
Offset_6 540
Offset_7 646
Offset_8 581
Offset_9 534
Offset_10 424
Offset_11 361
Offset_12 324
Offset_13 237
Offset_14 249
Offset_15 194
Offset_16 229
Offset_17 173
Offset_18 153
Offset_19 265
Offset_20 140
Offset_21 235
Offset_22 415
Offset_23 241
Offset_24 352
Offset_25 118
Offset_47 96
Offset_64 2
decode_dispatch_called: 25660812 71.4687
Dispatch_width: 0 13661890 53.2403 38.0501
Dispatch_width: 1 1033795 4.02869 2.87925
Dispatch_width: 2 803972 3.13307 2.23917
Dispatch_width: 3 540725 2.1072 1.50599
Dispatch_width: 4 5914687 23.0495 16.4732
Dispatch_width: 5 157117 0.612284 0.437591
Dispatch_width: 6 3548626 13.829 9.88338
Empty_decode_cycles: 10244172 28.5313
ROB_full_cycles: 9302119 25.9076
Starvation_cycles_per_kilo_instr: 230.542
Starvation_cycles_per_kilo_instr_3: 169.824
Starvation_cycles_per_kilo_instr_0: 146.039
Branch_type_1  (3,1)  (4,7)  (5,39)  (6,74)  (7,128)  (8,148)  (9,139)  (10,113)  (11,81)  (12,55)  (13,11)  (14,2)  (15,3)  (16,4)  (18,1)  (19,5)  (20,2)  (21,1)  (22,3)  (23,2)  (24,10)  (25,13)  (64,1) 
Branch_type_2  (3,1)  (4,1)  (5,1)  (8,4)  (9,4)  (10,1)  (12,1)  (13,1)  (14,1)  (16,3)  (17,2)  (20,2)  (21,2)  (23,5)  (24,1)  (47,44) 
Branch_type_3  (3,4513)  (4,253)  (5,441)  (6,450)  (7,488)  (8,364)  (9,295)  (10,170)  (11,140)  (12,62)  (13,10) 
Branch_type_4  (6,3)  (7,8)  (8,25)  (9,55)  (10,67)  (11,71)  (12,114)  (13,101)  (14,111)  (15,92)  (16,101)  (17,82)  (18,67)  (19,129)  (20,71)  (21,124)  (22,220)  (23,136)  (24,208)  (25,101) 
Branch_type_5  (8,3)  (9,1)  (10,4)  (11,6)  (12,3)  (13,14)  (14,17)  (15,11)  (16,22)  (17,11)  (18,23)  (19,15)  (20,11)  (21,13)  (22,43)  (23,26)  (24,37) 
Branch_type_6  (5,4)  (6,13)  (7,22)  (8,37)  (9,40)  (10,69)  (11,63)  (12,89)  (13,100)  (14,118)  (15,88)  (16,99)  (17,78)  (18,62)  (19,116)  (20,54)  (21,95)  (22,149)  (23,72)  (24,96)  (25,4)  (47,52)  (64,1) 
Unique trigger count: 
Variant_0_evicts_0 : 0
Variant_0_evicts_1 : 0
Variant_0_evicts_2 : 0
Variant_0_evicts_3 : 0
Variant_1_evicts_0 : 0
Variant_1_evicts_1 : 0
Variant_1_evicts_2 : 0
Variant_1_evicts_3 : 0
Variant_2_evicts_0 : 0
Variant_2_evicts_1 : 0
Variant_2_evicts_2 : 0
Variant_2_evicts_3 : 0
Variant_3_evicts_0 : 0
Variant_3_evicts_1 : 0
Variant_3_evicts_2 : 0
Variant_3_evicts_3 : 0
BTB PER SET UNIQUE ADDR: 17 19 13 11 12 13 10 10 8 14 12 14 12 16 14 10 12 12 11 10 13 14 15 14 11 18 18 11 14 16 11 11 14 13 11 12 9 12 11 9 10 11 15 12 11 10 11 14 11 14 17 14 17 19 13 9 16 12 9 22 11 14 15 14 11 14 15 10 17 11 16 11 9 10 15 10 7 10 8 18 12 11 13 16 13 11 17 13 16 18 10 11 6 14 7 16 12 11 17 12 20 17 10 10 13 11 10 13 7 8 13 19 13 12 9 9 10 11 11 11 11 10 11 11 10 12 6 14 18 11 11 15 12 13 13 12 11 17 13 18 11 14 12 13 11 12 16 9 11 8 12 15 10 12 9 12 10 18 17 12 13 11 20 13 12 9 15 10 15 10 11 15 11 15 16 13 16 12 14 13 12 11 12 20 14 15 7 12 16 12 11 13 11 19 13 10 11 12 14 14 13 13 11 10 11 8 13 17 12 12 11 17 12 15 13 15 14 15 11 14 9 18 8 14 12 14 14 13 9 18 12 8 14 13 13 12 16 13 16 8 16 13 14 14 11 14 13 11 12 15 12 17 10 10 11 11 11 15 8 16 13 11 7 14 13 9 11 14 14 13 15 16 11 7 7 10 12 19 12 13 12 16 15 12 14 13 12 13 16 14 12 11 13 15 11 15 11 13 12 16 8 15 11 22 10 16 9 10 16 10 9 18 12 20 19 10 12 14 13 17 14 12 10 13 10 17 12 13 12 7 10 17 10 15 11 16 7 11 9 23 11 14 7 14 17 15 12 15 10 15 16 10 14 15 13 10 9 12 8 12 12 13 8 15 11 16 8 13 16 14 10 7 13 10 15 16 11 20 10 16 15 8 9 10 11 10 16 15 16 15 15 10 15 13 12 10 10 15 15 11 11 13 10 13 17 15 11 14 12 13 17 9 11 15 14 12 11 16 16 17 12 16 15 14 16 10 10 12 16 13 18 14 13 11 15 14 16 12 9 11 20 6 11 14 16 8 10 18 20 9 10 21 16 12 17 13 18 14 10 16 9 11 14 12 21 11 10 14 12 12 16 13 16 14 14 16 13 19 9 11 13 14 15 17 10 19 14 22 13 15 12 12 11 13 13 14 16 12 10 14 9 14 10 20 10 12 7 13 15 14 14 14 16 10 13 14 10 17 10 12 13 14 12 9 9 18 17 8 6 15 12 14 14 14 14 14 12 12 11 12 12 14 12 13 14 19 10 15 9 9 12 17 12 13 14 14 12 12 17 13 10 14 9 14 15 14 13 17 15 15 12 9 18 17 11 15 17 19 14 13 11 14 9 12 16 11 9 14 24 16 9 13 12 13 13 10 11 10 13 10 17 7 13 11 13 16 12 12 11 10 9 14 10 10 8 13 11 13 19 12 16 15 9 10 11 13 13 15 11 13 9 17 14 13 12 13 13 15 10 17 9 13 17 16 13 15 12 12 18 9 10 15 10 15 13 9 13 16 13 9 13 7 16 17 15 17 10 13 10 14 16 15 12 14 21 12 14 14 10 15 9 15 12 16 13 12 9 14 8 16 8 19 13 10 15 14 12 15 9 18 9 11 14 12 9 14 15 10 13 11 15 14 13 15 8 10 18 9 14 13 10 16 13 10 9 9 12 10 9 10 13 16 16 13 11 18 10 19 15 13 13 10 14 13 17 15 12 14 11 12 13 12 14 11 10 12 17 14 12 10 14 11 8 18 15 18 9 14 13 12 11 17 13 12 18 8 10 13 15 16 9 15 13 8 13 13 11 12 12 8 8 10 19 13 11 15 13 9 18 14 18 13 16 21 19 10 14 12 14 12 14 13 14 17 12 13 14 23 6 17 9 15 11 12 15 12 11 14 9 18 16 14 14 11 10 18 15 11 12 15 13 15 13 12 12 14 12 19 10 15 12 13 11 13 11 14 14 13 16 17 17 15 12 15 17 10 16 9 15 13 12 22 14 14 15 8 10 11 12 14 18 7 11 11 15 17 16 18 10 12 18 14 18 14 13 16 14 13 14 7 12 14 12 13 9 15 11 15 12 11 13 15 14 9 11 18 9 13 17 14 12 16 8 17 11 10 10 16 12 11 14 15 11 15 11 20 9 11 16 13 11 15 14 16 11 16 15 15 15 17 12 14 9 14 10 16 11 14 15 14 15 13 12 14 12 14 16 15 12 14 12 14 15 13 15 16 17 12 13 18 12 17 14 13 14 12 22 12 15 10 13 15 14 13 17 13 12 11 17 13 17 16 11 12 21 14 10 19 14 13 12 17 16 9 11 12 8 9 9 9 15 17 11 12 
BTB PER SET COUNT: 77 32 1796 14 17 21 1386 10 276 18 24 16 19257 1328 19 14 1264 19 19 12 25 19 457 21 15 25 31 12 63 23 12 11 20 20 14 42 9 20 18 16 12 14 26 919 1246 109 12 24 12 21 24 423 26 23 14 337 20 21 502 36 13 21 28 24 17 21 20 380 18 15 39 896 10 10 29 18 9 16 13 27 142 17 513 24 16 28 19 26 23 25 15 707 449 24 9 27 17 956 33 17 28 27 10 14 3518 15 18 24 1404 2764 15 28 30 20 20 10 18 14 14 22 912 11 14 12 10 96 6 23 29 896 17 2628 14 21 16 22 950 28 18 26 16 19 18 27 17 97 51 11 14 10 16 267 13 20 13 17 948 34 21 21 24 191 208 18 15 1292 18 13 23 12 11 22 14 21 22 279 20 21 20 19 20 12 14 23 136 617 11 19 20 20 19 20 15 31 17 139 17 917 17 180 19 19 356 14 11 11 20 472 14 15 14 29 16 6877 34 552 25 22 715 25 16 32 319 25 26 21 16 216 422 31 18 11 23 20 16 17 25 16 375 11 23 18 21 449 13 854 1268 11 17 22 16 21 17 16 14 17 90 27 10 25 409 14 7 32 15 10 12 20 499 15 25 252 455 9 14 15 15 29 23 257 15 29 499 18 20 15 13 23 21 19 14 19 13 22 14 20 11 15 19 33 11 23 14 35 13 123 13 12 31 871 404 33 14 27 1558 896 17 21 18 35 21 2773 18 23 898 787 269 21 19 7 12 32 36 33 16 25 10 952 17 37 14 1086 7 18 34 21 19 23 11 49 493 12 21 26 19 11 12 15 113 24 15 14 11 25 12 558 8 18 26 17 12 337 18 18 853 24 15 34 12 414 904 8 9 13 13 11 294 19 28 68 20 14 26 15 17 13 16 19 26 16 23 15 14 16 24 22 17 17 22 25 298 10 11 25 17 14 20 147 21 25 14 25 24 21 25 12 1311 15 18 866 32 24 22 22 34 38 21 293 9 15 468 7 23 21 21 8 951 27 29 14 13 49 25 21 44 2166 28 17 17 25 31 351 23 21 34 15 6085 30 18 15 20 19 33 20 22 29 16 965 9 17 28 709 28 30 16 29 416 39 21 24 18 16 58 186 13 20 603 948 13 17 12 17 12 165 17 12 7 26 28 25 44 23 228 73 16 30 25 22 12 16 20 21 17 9 10 28 33 78 6 1421 20 22 20 17 24 21 17 916 18 12 13 17 16 17 24 39 18 25 15 12 13 26 932 21 19 20 23 15 28 27 16 28 13 18 20 24 23 29 21 16 242 15 32 26 1391 22 22 221 25 18 11 20 11 25 25 13 12 28 34 22 13 17 18 26 24 18 1406 1230 16 11 29 8 20 11 22 21 14 1584 13 15 11 21 17 14 9 16 16 20 98 29 21 21 9 10 14 16 19 20 162 18 12 28 210 16 14 128 17 293 13 35 10 20 22 21 1655 24 199 19 48 11 11 36 14 16 18 13 15 282 15 10 17 8 25 18 1641 37 13 21 1027 34 19 21 81 28 424 460 16 20 14 26 13 24 287 466 969 12 12 18 16 27 9 28 17 14 1985 19 12 1272 12 23 13 22 78 15 11 22 18 14 45 14 144 20 1005 26 14 14 865 12 26 535 15 771 17 979 9 9 18 14 9 966 16 797 22 92 14 1773 12 31 20 19 747 13 365 35 381 30 945 22 17 23 1191 15 65 773 13 16 26 21 16 14 21 20 10 24 66 29 10 28 18 17 48 27 18 17 30 12 20 758 20 365 1337 28 701 10 20 193 16 16 20 16 11 554 35 15 862 23 21 12 25 594 24 19 20 46 532 17 21 24 20 55 15 3925 20 40 21 33 17 2296 11 1757 17 987 15 19 581 14 16 15 12 49 21 26 24 16 12 111 22 18 898 15 29 471 22 19 14 27 19 24 11 102 994 732 606 28 98 16 767 18 25 27 27 18 19 19 73 12 21 14 24 15 14 44 28 21 19 10 10 16 2511 21 29 10 134 129 24 1649 19 26 11 20 34 18 581 3686 16 24 17 18 22 12 21 21 13 274 13 29 15 20 112 213 139 630 17 12 17 28 12 64 28 20 13 851 10 23 18 1013 14 22 15 17 21 19 1843 21 16 144 9 19 19 25 16 1093 21 27 17 611 23 24 20 26 228 18 11 229 19 18 170 20 22 647 35 23 851 16 18 16 499 20 17 24 74 83 19 17 22 24 24 24 343 101 15 29 24 26 25 23 57 634 18 12 24 67 47 1070 34 17 18 1397 23 16 28 31 18 20 35 21 15 34 20 14 1560 30 24 11 16 14 23 16 12 14 22 471 16 18 
To predecode: 0
Predecoding something: 0
Predecode request dropped: 0
sizeofblock_0 0
sizeofblock_1 50403
sizeofblock_2 85419
sizeofblock_3 0
sizeofblock_4 0
sizeofblock_5 0
sizeofblock_6 0
sizeofblock_7 0
sizeofblock_8 0
Variant_0 Correct: 1574229 Incorrect: 0 Accuracy: 1
Variant_1 Correct: 5583110 Incorrect: 0 Accuracy: 1
Variant_2 Correct: 0 Incorrect: 0 Accuracy: -nan
Variant_3 Correct: 0 Incorrect: 0 Accuracy: -nan
