
*** ChampSim Multicore Out-of-Order Simulator ***

Warmup Instructions: 50000000
Simulation Instructions: 50000000
Number of CPUs: 1
LLC sets: 2048
LLC ways: 16
Off-chip DRAM Size: 4096 MB Channels: 1 Width: 64-bit Data Rate: 6400 MT/s
CPU 0 runs ./micro_traces/srv389.trace.gz
.gz
ITLB has LRU replacement policy
DTLB has LRU replacement policy
STLB has LRU replacement policy
FDIP Prefetcher at L1I
L1I has LRU replacement policy
L1D has LRU replacement policy
Initialize SRRIP state for L2C
Initialize DRRIP state for LLC
Heartbeat_Variant_0 : 1383 0.225098 per_variant_size: 0 1383 0 0 0 0 0 0 0 
Heartbeat_Variant_1 : 2846 0.463216 per_variant_size: 0 983 1863 0 0 0 0 0 0 
Heartbeat_Variant_2 : 0 0 per_variant_size: 0 0 0 0 0 0 0 0 0 
Heartbeat_Variant_3 : 0 0 per_variant_size: 0 0 0 0 0 0 0 0 0 
Heartbeat_Variant_0_evicts 0 : 5523 1 : 35 2 : 0 3 : 0 
Heartbeat_Variant_1_evicts 0 : 33 1 : 0 2 : 0 3 : 0 
Heartbeat_Variant_2_evicts 0 : 0 1 : 0 2 : 0 3 : 0 
Heartbeat_Variant_3_evicts 0 : 0 1 : 0 2 : 0 3 : 0 
Heartbeat CPU 0 instructions: 10000003 cycles: 2794448 heartbeat IPC: 3.57853 cumulative IPC: 3.57853 (Simulation time: 0 hr 1 min 42 sec) 
Heartbeat_Variant_0 : 1413 0.22998 per_variant_size: 0 1413 0 0 0 0 0 0 0 
Heartbeat_Variant_1 : 2936 0.477865 per_variant_size: 0 995 1941 0 0 0 0 0 0 
Heartbeat_Variant_2 : 0 0 per_variant_size: 0 0 0 0 0 0 0 0 0 
Heartbeat_Variant_3 : 0 0 per_variant_size: 0 0 0 0 0 0 0 0 0 
Heartbeat_Variant_0_evicts 0 : 5472 1 : 7 2 : 0 3 : 0 
Heartbeat_Variant_1_evicts 0 : 12 1 : 0 2 : 0 3 : 0 
Heartbeat_Variant_2_evicts 0 : 0 1 : 0 2 : 0 3 : 0 
Heartbeat_Variant_3_evicts 0 : 0 1 : 0 2 : 0 3 : 0 
Heartbeat CPU 0 instructions: 20000003 cycles: 5589426 heartbeat IPC: 3.57785 cumulative IPC: 3.57819 (Simulation time: 0 hr 3 min 24 sec) 
Heartbeat_Variant_0 : 1414 0.230143 per_variant_size: 0 1414 0 0 0 0 0 0 0 
Heartbeat_Variant_1 : 2950 0.480143 per_variant_size: 0 997 1953 0 0 0 0 0 0 
Heartbeat_Variant_2 : 0 0 per_variant_size: 0 0 0 0 0 0 0 0 0 
Heartbeat_Variant_3 : 0 0 per_variant_size: 0 0 0 0 0 0 0 0 0 
Heartbeat_Variant_0_evicts 0 : 5496 1 : 1 2 : 0 3 : 0 
Heartbeat_Variant_1_evicts 0 : 2 1 : 0 2 : 0 3 : 0 
Heartbeat_Variant_2_evicts 0 : 0 1 : 0 2 : 0 3 : 0 
Heartbeat_Variant_3_evicts 0 : 0 1 : 0 2 : 0 3 : 0 
Heartbeat CPU 0 instructions: 30000000 cycles: 8384436 heartbeat IPC: 3.5778 cumulative IPC: 3.57806 (Simulation time: 0 hr 5 min 4 sec) 
Heartbeat_Variant_0 : 1436 0.233724 per_variant_size: 0 1436 0 0 0 0 0 0 0 
Heartbeat_Variant_1 : 3002 0.488607 per_variant_size: 0 984 2018 0 0 0 0 0 0 
Heartbeat_Variant_2 : 0 0 per_variant_size: 0 0 0 0 0 0 0 0 0 
Heartbeat_Variant_3 : 0 0 per_variant_size: 0 0 0 0 0 0 0 0 0 
Heartbeat_Variant_0_evicts 0 : 5489 1 : 9 2 : 0 3 : 0 
Heartbeat_Variant_1_evicts 0 : 10 1 : 0 2 : 0 3 : 0 
Heartbeat_Variant_2_evicts 0 : 0 1 : 0 2 : 0 3 : 0 
Heartbeat_Variant_3_evicts 0 : 0 1 : 0 2 : 0 3 : 0 
Heartbeat CPU 0 instructions: 40000003 cycles: 11178976 heartbeat IPC: 3.57841 cumulative IPC: 3.57815 (Simulation time: 0 hr 6 min 42 sec) 
Heartbeat_Variant_0 : 1438 0.234049 per_variant_size: 0 1438 0 0 0 0 0 0 0 
Heartbeat_Variant_1 : 3012 0.490234 per_variant_size: 0 965 2047 0 0 0 0 0 0 
Heartbeat_Variant_2 : 0 0 per_variant_size: 0 0 0 0 0 0 0 0 0 
Heartbeat_Variant_3 : 0 0 per_variant_size: 0 0 0 0 0 0 0 0 0 
Heartbeat_Variant_0_evicts 0 : 5460 1 : 1 2 : 0 3 : 0 
Heartbeat_Variant_1_evicts 0 : 2 1 : 0 2 : 0 3 : 0 
Heartbeat_Variant_2_evicts 0 : 0 1 : 0 2 : 0 3 : 0 
Heartbeat_Variant_3_evicts 0 : 0 1 : 0 2 : 0 3 : 0 
Heartbeat CPU 0 instructions: 50000000 cycles: 13973323 heartbeat IPC: 3.57865 cumulative IPC: 3.57825 (Simulation time: 0 hr 8 min 23 sec) 

Warmup complete CPU 0 instructions: 50000004 cycles: 13973324 (Simulation time: 0 hr 8 min 23 sec) 

*** Reached end of trace for Core: 0 Repeating trace: ./micro_traces/srv389.trace.gz
Cycle: 20000000 FTQ IN: 58222209 FTQ occupancy: 20.5484 DECODE IN: 58222150 DECODE occupancy: 53.2353 ROB IN: 58222090 ROB occupancy: 318.373 ROB OUT: 58221738
Heartbeat_Variant_0 : 1458 0.237305 per_variant_size: 0 1458 0 0 0 0 0 0 0 
Heartbeat_Variant_1 : 3075 0.500488 per_variant_size: 0 986 2089 0 0 0 0 0 0 
Heartbeat_Variant_2 : 0 0 per_variant_size: 0 0 0 0 0 0 0 0 0 
Heartbeat_Variant_3 : 0 0 per_variant_size: 0 0 0 0 0 0 0 0 0 
Heartbeat_Variant_0_evicts 0 : 5530 1 : 11 2 : 0 3 : 0 
Heartbeat_Variant_1_evicts 0 : 15 1 : 0 2 : 0 3 : 0 
Heartbeat_Variant_2_evicts 0 : 0 1 : 0 2 : 0 3 : 0 
Heartbeat_Variant_3_evicts 0 : 0 1 : 0 2 : 0 3 : 0 
Heartbeat CPU 0 instructions: 60000000 cycles: 21275634 heartbeat IPC: 1.36943 cumulative IPC: 1.36943 (Simulation time: 0 hr 10 min 21 sec) 
Heartbeat_Variant_0 : 1460 0.23763 per_variant_size: 0 1460 0 0 0 0 0 0 0 
Heartbeat_Variant_1 : 3075 0.500488 per_variant_size: 0 988 2087 0 0 0 0 0 0 
Heartbeat_Variant_2 : 0 0 per_variant_size: 0 0 0 0 0 0 0 0 0 
Heartbeat_Variant_3 : 0 0 per_variant_size: 0 0 0 0 0 0 0 0 0 
Heartbeat_Variant_0_evicts 0 : 5604 1 : 6 2 : 0 3 : 0 
Heartbeat_Variant_1_evicts 0 : 4 1 : 0 2 : 0 3 : 0 
Heartbeat_Variant_2_evicts 0 : 0 1 : 0 2 : 0 3 : 0 
Heartbeat_Variant_3_evicts 0 : 0 1 : 0 2 : 0 3 : 0 
Heartbeat CPU 0 instructions: 70000002 cycles: 28491335 heartbeat IPC: 1.38587 cumulative IPC: 1.3776 (Simulation time: 0 hr 12 min 18 sec) 
Cycle: 30000000 FTQ IN: 13899270 FTQ occupancy: 15.0274 DECODE IN: 13899329 DECODE occupancy: 38.1169 ROB IN: 13899389 ROB occupancy: 252.002 ROB OUT: 13899693
Heartbeat_Variant_0 : 1460 0.23763 per_variant_size: 0 1460 0 0 0 0 0 0 0 
Heartbeat_Variant_1 : 3075 0.500488 per_variant_size: 0 992 2083 0 0 0 0 0 0 
Heartbeat_Variant_2 : 0 0 per_variant_size: 0 0 0 0 0 0 0 0 0 
Heartbeat_Variant_3 : 0 0 per_variant_size: 0 0 0 0 0 0 0 0 0 
Heartbeat_Variant_0_evicts 0 : 5475 1 : 1 2 : 0 3 : 0 
Heartbeat_Variant_1_evicts 0 : 1 1 : 0 2 : 0 3 : 0 
Heartbeat_Variant_2_evicts 0 : 0 1 : 0 2 : 0 3 : 0 
Heartbeat_Variant_3_evicts 0 : 0 1 : 0 2 : 0 3 : 0 
Heartbeat CPU 0 instructions: 80000002 cycles: 35610263 heartbeat IPC: 1.40471 cumulative IPC: 1.38652 (Simulation time: 0 hr 14 min 17 sec) 
Cycle: 40000000 FTQ IN: 14055226 FTQ occupancy: 14.9732 DECODE IN: 14055088 DECODE occupancy: 38.2711 ROB IN: 14055088 ROB occupancy: 252.704 ROB OUT: 14054970
Heartbeat_Variant_0 : 1459 0.237467 per_variant_size: 0 1459 0 0 0 0 0 0 0 
Heartbeat_Variant_1 : 3076 0.500651 per_variant_size: 0 994 2082 0 0 0 0 0 0 
Heartbeat_Variant_2 : 0 0 per_variant_size: 0 0 0 0 0 0 0 0 0 
Heartbeat_Variant_3 : 0 0 per_variant_size: 0 0 0 0 0 0 0 0 0 
Heartbeat_Variant_0_evicts 0 : 5527 1 : 0 2 : 0 3 : 0 
Heartbeat_Variant_1_evicts 0 : 1 1 : 0 2 : 0 3 : 0 
Heartbeat_Variant_2_evicts 0 : 0 1 : 0 2 : 0 3 : 0 
Heartbeat_Variant_3_evicts 0 : 0 1 : 0 2 : 0 3 : 0 
Heartbeat CPU 0 instructions: 90000001 cycles: 42800791 heartbeat IPC: 1.39072 cumulative IPC: 1.38757 (Simulation time: 0 hr 16 min 19 sec) 
Heartbeat_Variant_0 : 1461 0.237793 per_variant_size: 0 1461 0 0 0 0 0 0 0 
Heartbeat_Variant_1 : 3075 0.500488 per_variant_size: 0 987 2088 0 0 0 0 0 0 
Heartbeat_Variant_2 : 0 0 per_variant_size: 0 0 0 0 0 0 0 0 0 
Heartbeat_Variant_3 : 0 0 per_variant_size: 0 0 0 0 0 0 0 0 0 
Heartbeat_Variant_0_evicts 0 : 5486 1 : 3 2 : 0 3 : 0 
Heartbeat_Variant_1_evicts 0 : 2 1 : 0 2 : 0 3 : 0 
Heartbeat_Variant_2_evicts 0 : 0 1 : 0 2 : 0 3 : 0 
Heartbeat_Variant_3_evicts 0 : 0 1 : 0 2 : 0 3 : 0 
Heartbeat CPU 0 instructions: 100000001 cycles: 49949121 heartbeat IPC: 1.39893 cumulative IPC: 1.38982 (Simulation time: 0 hr 18 min 20 sec) 
Finished CPU 0 instructions: 50000001 cycles: 35975798 cumulative IPC: 1.38982 (Simulation time: 0 hr 18 min 20 sec) 

ChampSim completed all CPUs

Region of Interest Statistics

CPU 0 cumulative IPC: 1.38982 instructions: 50000001 cycles: 35975798
 Fetch stage stalled: 45.7075  Sim cycles: 35975798 fetch stall cycle: 16443626
 Empty decode stage: 25.6369  Sim cycles: 35975798 fetch stall cycle: 9223084
ITLB TOTAL     ACCESS:    5830420  HIT:    5339738  MISS:     490682  HIT %:    91.5841  MISS %:    8.41589   MPKI: 9.81364
ITLB LOAD TRANSLATION INSTRUCTION	ACCESS:    5695584  HIT:    5204902  MISS:     490682  HIT %:    91.3849  MISS %:    8.61513  MPKI: 9.81364
ITLB TRANSLATION FROM L1D PREFETCHER INSTRUCTION	ACCESS:     134836  HIT:     134836  MISS:          0  HIT %:        100  MISS %:          0  MPKI: 0

ITLB AVERAGE MISS LATENCY: 9.05969 cycles
ITLB RQ	ACCESS:    7926231	FORWARD:          0	MERGED:    1613372	TO_CACHE:    6312859

DTLB TOTAL     ACCESS:    8922008  HIT:    8448148  MISS:     473860  HIT %:    94.6889  MISS %:    5.31114   MPKI: 9.4772
DTLB LOAD TRANSLATION DATA	ACCESS:    8922008  HIT:    8448148  MISS:     473860  HIT %:    94.6889  MISS %:    5.31114  MPKI: 9.4772

DTLB AVERAGE MISS LATENCY: 9.29543 cycles
DTLB RQ	ACCESS:   13275994	FORWARD:          0	MERGED:    4316481	TO_CACHE:    8959513

STLB TOTAL     ACCESS:    1219249  HIT:    1217051  MISS:       2198  HIT %:    99.8197  MISS %:   0.180275   MPKI: 0.04396
STLB LOAD TRANSLATION INSTRUCTION	ACCESS:     490682  HIT:     490413  MISS:        269  HIT %:    99.9452  MISS %:  0.0548217  MPKI: 0.00538
STLB LOAD TRANSLATION DATA	ACCESS:     473860  HIT:     471953  MISS:       1907  HIT %:    99.5976  MISS %:    0.40244  MPKI: 0.03814
STLB TRANSLATION FROM L1D PREFETCHER DATA	ACCESS:     254707  HIT:     254685  MISS:         22  HIT %:    99.9914  MISS %: 0.00863738  MPKI: 0.00044

STLB AVERAGE MISS LATENCY: 64.4773 cycles
STLB RQ	ACCESS:    1365178	FORWARD:          0	MERGED:     145888	TO_CACHE:    1219290

STLB Hit, L1D data hit: 0
STLB Hit, L2C data hit: 0
STLB Hit, LLC data hit: 0
STLB Hit, LLC data miss: 0
STLB STLB hints to L2: 0
L1D TOTAL     ACCESS:   13017460  HIT:   11851721  MISS:    1165739  HIT %:    91.0448  MISS %:     8.9552   MPKI: 23.3148
L1D LOAD DATA	ACCESS:    6528757  HIT:    5759841  MISS:     768916  HIT %:    88.2226  MISS %:    11.7774  MPKI: 15.3783
L1D RFO DATA	ACCESS:    6154825  HIT:    5863292  MISS:     291533  HIT %:    95.2633  MISS %:    4.73666  MPKI: 5.83066
L1D PREFETCH DATA	ACCESS:     333878  HIT:     228588  MISS:     105290  HIT %:    68.4645  MISS %:    31.5355  MPKI: 2.1058

L1D PREFETCH  REQUESTED:     801766  ISSUED:     801766  USEFUL:      50239  USELESS:      69712
L1D USEFUL LOAD PREFETCHES:      50239 PREFETCH ISSUED TO LOWER LEVEL:     120010  ACCURACY: 41.8623
 TIMELY PREFETCHES:      50239 LATE PREFETCHES: 14678 DROPPED PREFETCHES: 1
L1D AVERAGE MISS LATENCY: 393486 cycles
L1D RQ	ACCESS:   10671153	FORWARD:          0	MERGED:    3939667	TO_CACHE:    6566389
L1D WQ	ACCESS:    6906967	FORWARD:     165593	MERGED:     197362	TO_CACHE:    6709605
L1D PQ	ACCESS:     401131	FORWARD:          0	MERGED:          0	TO_CACHE:     400635

L1D UNIQUE REGIONS ACCESSED: 0
L1D REGIONS CONFLICTS: 0
L1D Cross Page Prefetch Requests: 5820
L1D Same Page Prefetch Requests: 805908
L1D ROI Sum of L1D PQ occupancy: 5101124
L1D PREFETCHES PUSHED FROM L2C: 0
L1I TOTAL     ACCESS:    7097314  HIT:    4348289  MISS:    2749025  HIT %:    61.2667  MISS %:    38.7333   MPKI: 54.9805
L1I LOAD INSTRUCTION	ACCESS:    6435148  HIT:    3686123  MISS:    2749025  HIT %:    57.2811  MISS %:    42.7189  MPKI: 54.9805
L1I PREFETCH INSTRUCTION	ACCESS:     662166  HIT:     662166  MISS:          0  HIT %:        100  MISS %:          0  MPKI: 0

L1I PREFETCH  REQUESTED:    1615422  ISSUED:    1615422  USEFUL:          0  USELESS:          0
L1I USEFUL LOAD PREFETCHES:          0 PREFETCH ISSUED TO LOWER LEVEL:          0  ACCURACY: -nan
 TIMELY PREFETCHES:          0 LATE PREFETCHES: 0 DROPPED PREFETCHES: 0
L1I AVERAGE MISS LATENCY: 17.8683 cycles
L1I RQ	ACCESS:    9572889	FORWARD:          0	MERGED:    2828956	TO_CACHE:    6743933
L1I PQ	ACCESS:    1615422	FORWARD:          0	MERGED:     433124	TO_CACHE:    1182298

L1BTB TOTAL     ACCESS:    5678626  HIT:    2070676  MISS:    3607950  HIT %:    36.4644  MISS %:    63.5356   MPKI: 72.159
L1BTB BRANCH_DIRECT_JUMP	ACCESS:     543113 HIT:     143333 MISS:     399780 AVERAGE STALL: 58.0665 AVERAGE FETCH STALL: 14.2834 AVERAGE FETCH QUEUE STALL: 20.3733 AVERAGE DECODE STALL: 22.5032 AVERAGE EXECUTE STALL: 2.31133e+15
L1BTB BRANCH_INDIRECT	ACCESS:     180923 HIT:      65105 MISS:     115818 AVERAGE STALL: 112.48 AVERAGE FETCH STALL: 10.8188 AVERAGE FETCH QUEUE STALL: 17.3239 AVERAGE DECODE STALL: 13.1903 AVERAGE EXECUTE STALL: 70.1845
L1BTB BRANCH_CONDITIONAL	ACCESS:    2730504 HIT:    1445854 MISS:    1284650 AVERAGE STALL: 90.7298 AVERAGE FETCH STALL: 24.7854 AVERAGE FETCH QUEUE STALL: 40.4808 AVERAGE DECODE STALL: 24.9116 AVERAGE EXECUTE STALL: 4.15e+15
L1BTB BRANCH_DIRECT_CALL	ACCESS:     941024 HIT:     104517 MISS:     836507 AVERAGE STALL: 51.9224 AVERAGE FETCH STALL: 19.1946 AVERAGE FETCH QUEUE STALL: 18.4483 AVERAGE DECODE STALL: 13.303 AVERAGE EXECUTE STALL: 2.27177e+16
L1BTB BRANCH_INDIRECT_CALL	ACCESS:     171032 HIT:      21622 MISS:     149410 AVERAGE STALL: 141.55 AVERAGE FETCH STALL: 13.4495 AVERAGE FETCH QUEUE STALL: 16.7004 AVERAGE DECODE STALL: 12.3347 AVERAGE EXECUTE STALL: 98.5721
L1BTB BRANCH_RETURN	ACCESS:    1112030 HIT:     290245 MISS:     821785 AVERAGE STALL: 52.0781 AVERAGE FETCH STALL: 16.5485 AVERAGE FETCH QUEUE STALL: 6.2229 AVERAGE DECODE STALL: 6.45904 AVERAGE EXECUTE STALL: 4.39816e+14
L1BTB BRANCH_OTHER ACCESS:          0 HIT:          0 MISS:          0 AVERAGE STALL: -nan AVERAGE FETCH STALL: -nan AVERAGE FETCH QUEUE STALL: -nan AVERAGE DECODE STALL: -nan AVERAGE EXECUTE STALL: -nan
L1BTB TOTAL ROB OCCUPANCY AT BTB MISS: 2.61609

L2BTB TOTAL     ACCESS:    3583011  HIT:    3520408  MISS:      62603  HIT %:    98.2528  MISS %:    1.74722   MPKI: 1.25206
L2BTB BRANCH_DIRECT_JUMP	ACCESS:     395684 HIT:     391794 MISS:       3890 AVERAGE STALL: 58.0665 AVERAGE FETCH STALL: 14.2834 AVERAGE FETCH QUEUE STALL: 20.3733 AVERAGE DECODE STALL: 22.5032 AVERAGE EXECUTE STALL: 2.31133e+15
L2BTB BRANCH_INDIRECT	ACCESS:     105623 HIT:     102970 MISS:       2653 AVERAGE STALL: 112.48 AVERAGE FETCH STALL: 10.8188 AVERAGE FETCH QUEUE STALL: 17.3239 AVERAGE DECODE STALL: 13.1903 AVERAGE EXECUTE STALL: 70.1845
L2BTB BRANCH_CONDITIONAL	ACCESS:    1284650 HIT:    1280181 MISS:       4469 AVERAGE STALL: 90.7298 AVERAGE FETCH STALL: 24.7854 AVERAGE FETCH QUEUE STALL: 40.4808 AVERAGE DECODE STALL: 24.9116 AVERAGE EXECUTE STALL: 4.15e+15
L2BTB BRANCH_DIRECT_CALL	ACCESS:     836507 HIT:     835680 MISS:        827 AVERAGE STALL: 51.9224 AVERAGE FETCH STALL: 19.1946 AVERAGE FETCH QUEUE STALL: 18.4483 AVERAGE DECODE STALL: 13.303 AVERAGE EXECUTE STALL: 2.27177e+16
L2BTB BRANCH_INDIRECT_CALL	ACCESS:     139989 HIT:     129966 MISS:      10023 AVERAGE STALL: 141.55 AVERAGE FETCH STALL: 13.4495 AVERAGE FETCH QUEUE STALL: 16.7004 AVERAGE DECODE STALL: 12.3347 AVERAGE EXECUTE STALL: 98.5721
L2BTB BRANCH_RETURN	ACCESS:     820558 HIT:     779817 MISS:      40741 AVERAGE STALL: 52.0781 AVERAGE FETCH STALL: 16.5485 AVERAGE FETCH QUEUE STALL: 6.2229 AVERAGE DECODE STALL: 6.45904 AVERAGE EXECUTE STALL: 4.39816e+14
L2BTB BRANCH_OTHER ACCESS:          0 HIT:          0 MISS:          0 AVERAGE STALL: -nan AVERAGE FETCH STALL: -nan AVERAGE FETCH QUEUE STALL: -nan AVERAGE DECODE STALL: -nan AVERAGE EXECUTE STALL: -nan
L2BTB TOTAL ROB OCCUPANCY AT BTB MISS: 150.771

L2C TOTAL     ACCESS:    4537839  HIT:    3962036  MISS:     575803  HIT %:    87.3111  MISS %:    12.6889   MPKI: 11.5161
L2C LOAD INSTRUCTION	ACCESS:    2749025  HIT:    2435677  MISS:     313348  HIT %:    88.6015  MISS %:    11.3985  MPKI: 6.26696
L2C LOAD TRANSLATION INSTRUCTION	ACCESS:        312  HIT:         87  MISS:        225  HIT %:    27.8846  MISS %:    72.1154  MPKI: 0.0045
L2C LOAD DATA	ACCESS:     754207  HIT:     664888  MISS:      89319  HIT %:    88.1572  MISS %:    11.8428  MPKI: 1.78638
L2C RFO DATA	ACCESS:     291472  HIT:     223133  MISS:      68339  HIT %:    76.5538  MISS %:    23.4462  MPKI: 1.36678
L2C PREFETCH DATA	ACCESS:     211285  HIT:     125986  MISS:      85299  HIT %:    59.6285  MISS %:    40.3715  MPKI: 1.70598
L2C WRITEBACK DATA	ACCESS:     529499  HIT:     511718  MISS:      17781  HIT %:    96.6419  MISS %:    3.35808  MPKI: 0.35562
L2C LOAD TRANSLATION DATA	ACCESS:       2009  HIT:        526  MISS:       1483  HIT %:    26.1822  MISS %:    73.8178  MPKI: 0.02966
L2C TRANSLATION FROM L1D PREFETCHER DATA	ACCESS:         30  HIT:         21  MISS:          9  HIT %:         70  MISS %:         30  MPKI: 0.00018

L2C PREFETCH  REQUESTED:      99347  ISSUED:      99347  USEFUL:      10464  USELESS:      75449
L2C USEFUL LOAD PREFETCHES:      10464 PREFETCH ISSUED TO LOWER LEVEL:      85803  ACCURACY: 12.1954
 TIMELY PREFETCHES:      10464 LATE PREFETCHES: 504 DROPPED PREFETCHES: 0
L2C AVERAGE MISS LATENCY: 37.1913 cycles
L2C RQ	ACCESS:    3797107	FORWARD:          0	MERGED:          0	TO_CACHE:    3797057
L2C WQ	ACCESS:     529499	FORWARD:         50	MERGED:          0	TO_CACHE:     529499
L2C PQ	ACCESS:     219357	FORWARD:          0	MERGED:       3400	TO_CACHE:     215957

L2C Dense regions hint from L2: 0
PSCL5 TOTAL     ACCESS:       4398  HIT:       2199  MISS:       2199  HIT %:         50  MISS %:         50   MPKI: 0.04398
PSCL5 LOAD TRANSLATION INSTRUCTION	ACCESS:       4338  HIT:       2169  MISS:       2169  HIT %:         50  MISS %:         50  MPKI: 0.04338
PSCL5 TRANSLATION FROM L1D PREFETCHER INSTRUCTION	ACCESS:         60  HIT:         30  MISS:         30  HIT %:         50  MISS %:         50  MPKI: 0.0006


PSCL4 TOTAL     ACCESS:       4077  HIT:       2036  MISS:       2041  HIT %:    49.9387  MISS %:    50.0613   MPKI: 0.04082
PSCL4 LOAD TRANSLATION INSTRUCTION	ACCESS:       2139  HIT:       2006  MISS:        133  HIT %:    93.7821  MISS %:    6.21786  MPKI: 0.00266
PSCL4 TRANSLATION FROM L1D PREFETCHER INSTRUCTION	ACCESS:         30  HIT:         30  MISS:          0  HIT %:        100  MISS %:          0  MPKI: 0
PSCL4 LOAD TRANSLATION DATA	ACCESS:       1878  HIT:          0  MISS:       1878  HIT %:          0  MISS %:        100  MPKI: 0.03756
PSCL4 TRANSLATION FROM L1D PREFETCHER DATA	ACCESS:         30  HIT:          0  MISS:         30  HIT %:          0  MISS %:        100  MPKI: 0.0006


PSCL3 TOTAL     ACCESS:       4320  HIT:       2154  MISS:       2166  HIT %:    49.8611  MISS %:    50.1389   MPKI: 0.04332
PSCL3 LOAD TRANSLATION INSTRUCTION	ACCESS:       2244  HIT:       2124  MISS:        120  HIT %:    94.6524  MISS %:    5.34759  MPKI: 0.0024
PSCL3 TRANSLATION FROM L1D PREFETCHER INSTRUCTION	ACCESS:         30  HIT:         30  MISS:          0  HIT %:        100  MISS %:          0  MPKI: 0
PSCL3 LOAD TRANSLATION DATA	ACCESS:       2016  HIT:          0  MISS:       2016  HIT %:          0  MISS %:        100  MPKI: 0.04032
PSCL3 TRANSLATION FROM L1D PREFETCHER DATA	ACCESS:         30  HIT:          0  MISS:         30  HIT %:          0  MISS %:        100  MPKI: 0.0006


PSCL2 TOTAL     ACCESS:       4259  HIT:       2060  MISS:       2199  HIT %:    48.3682  MISS %:    51.6318   MPKI: 0.04398
PSCL2 LOAD TRANSLATION INSTRUCTION	ACCESS:       2299  HIT:       2030  MISS:        269  HIT %:    88.2993  MISS %:    11.7007  MPKI: 0.00538
PSCL2 TRANSLATION FROM L1D PREFETCHER INSTRUCTION	ACCESS:         30  HIT:         30  MISS:          0  HIT %:        100  MISS %:          0  MPKI: 0
PSCL2 LOAD TRANSLATION DATA	ACCESS:       1900  HIT:          0  MISS:       1900  HIT %:          0  MISS %:        100  MPKI: 0.038
PSCL2 TRANSLATION FROM L1D PREFETCHER DATA	ACCESS:         30  HIT:          0  MISS:         30  HIT %:          0  MISS %:        100  MPKI: 0.0006


LLC TOTAL     ACCESS:     654162  HIT:     627475  MISS:      26687  HIT %:    95.9204  MISS %:    4.07957   MPKI: 0.53374
LLC LOAD INSTRUCTION	ACCESS:     313348  HIT:     312223  MISS:       1125  HIT %:     99.641  MISS %:   0.359026  MPKI: 0.0225
LLC LOAD TRANSLATION INSTRUCTION	ACCESS:        225  HIT:        194  MISS:         31  HIT %:    86.2222  MISS %:    13.7778  MPKI: 0.00062
LLC LOAD DATA	ACCESS:      88835  HIT:      85444  MISS:       3391  HIT %:    96.1828  MISS %:    3.81719  MPKI: 0.06782
LLC RFO DATA	ACCESS:      68302  HIT:      56381  MISS:      11921  HIT %:    82.5466  MISS %:    17.4534  MPKI: 0.23842
LLC PREFETCH DATA	ACCESS:      85802  HIT:      75934  MISS:       9868  HIT %:    88.4991  MISS %:    11.5009  MPKI: 0.19736
LLC WRITEBACK DATA	ACCESS:      96158  HIT:      95893  MISS:        265  HIT %:    99.7244  MISS %:   0.275588  MPKI: 0.0053
LLC LOAD TRANSLATION DATA	ACCESS:       1483  HIT:       1397  MISS:         86  HIT %:    94.2009  MISS %:    5.79906  MPKI: 0.00172
LLC TRANSLATION FROM L1D PREFETCHER DATA	ACCESS:          9  HIT:          9  MISS:          0  HIT %:        100  MISS %:          0  MPKI: 0

LLC AVERAGE MISS LATENCY: 174.782 cycles
LLC RQ	ACCESS:     472219	FORWARD:          0	MERGED:          0	TO_CACHE:     472202
LLC WQ	ACCESS:      96158	FORWARD:         18	MERGED:          0	TO_CACHE:      96158
LLC PQ	ACCESS:      85803	FORWARD:          0	MERGED:          0	TO_CACHE:      85802

LLC Dense regions hint to LLC: 0

RAW hits: 1938616
Loads Generated: 12609767
Loads sent to L1D: 10671153
Stores Generated: 6906960
Stores sent to L1D: 6906967
Major fault: 0 Minor fault: 2327
Allocated PAGES: 2327

stream: 
stream:times selected: 1238546
stream:pref_filled: 126072
stream:pref_useful: 29025
stream:pref_late: 9896
stream:misses: 10505
stream:misses_by_poll: 0

CS: 
CS:times selected: 193987
CS:pref_filled: 73077
CS:pref_useful: 49695
CS:pref_late: 10871
CS:misses: 26545
CS:misses_by_poll: 1

CPLX: 
CPLX:times selected: 1043374
CPLX:pref_filled: 25571
CPLX:pref_useful: 7888
CPLX:pref_late: 4241
CPLX:misses: 134520
CPLX:misses_by_poll: 1

NL_L1: 
NL:times selected: 12906
NL:pref_filled: 1113
NL:pref_useful: 288
NL:pref_late: 520
NL:misses: 2088
NL:misses_by_poll: 0

total selections: 2488813
total_filled: 105290
total_useful: 50239
total_late: 27977
total_polluted: 2
total_misses_after_warmup: 806552
conflicts: 5490181

test: 119796

DRAM Statistics
 CHANNEL 0
 RQ ROW_BUFFER_HIT:       9250  ROW_BUFFER_MISS:      17148
 DBUS_CONGESTED:         13
 WQ ROW_BUFFER_HIT:       1519  ROW_BUFFER_MISS:      10921  FULL:          0

 AVG_CONGESTED_CYCLE: 5

CPU 0 Branch Prediction Accuracy: 99.8183% MPKI: 0.33278 Average ROB Occupancy at Mispredict: 200.713
Branch types
NOT_BRANCH: 40841517 81.683%
BRANCH_DIRECT_JUMP: 543113 1.08623%
BRANCH_INDIRECT: 180923 0.361846%
BRANCH_CONDITIONAL: 6210181 12.4204%
BRANCH_DIRECT_CALL: 941024 1.88205%
BRANCH_INDIRECT_CALL: 171032 0.342064%
BRANCH_RETURN: 1112030 2.22406%
BRANCH_OTHER: 0 0%

DRAM PAGES: 1048576
Allocated PAGES: 2327
Average_ROB_Occupancy: 252.472
Average_Decode_Occupancy: 38.0452
Average_FTQ_Occupancy: 14.9835
Indirect max targets: 14 Average targets: 1.15203
Branch_type:  BRANCH_DIRECT_JUMP:  Count Percentage: 3.73147 6.46184 3.50168 14.4724 1.69056 6.28938 0.979254 62.8734 
Branch_type:  BRANCH_INDIRECT:  Count Percentage: 11.7645 3.39273 12.1567 23.397 1.34469 14.4954 1.08284 32.3661 
Branch_type:  BRANCH_CONDITIONAL:  Count Percentage: 22.2014 2.82195 2.45874 8.87684 1.05477 4.48219 0.577416 57.5267 
Branch_type:  BRANCH_DIRECT_CALL:  Count Percentage: 0.765578 1.29424 1.39204 5.39421 1.96913 2.65414 0.796975 85.7337 
Branch_type:  BRANCH_INDIRECT_CALL:  Count Percentage: 9.51965 0.551225 2.98403 4.81571 0 3.85274 0 78.2766 
Branch_type:  BRANCH_RETURN:  Count Percentage: 4.40138 0.720688 3.66244 9.02287 2.11177 5.29991 1.01244 73.7685 
Branch_type:  BRANCH_DIRECT_JUMP:  Total Count: 40483 70105 37990 157012 18341 68234 10624 682119 
Branch_type:  BRANCH_INDIRECT:  Total Count: 42502 12257 43919 84527 4858 52368 3912 116930 
Branch_type:  BRANCH_CONDITIONAL:  Total Count: 2755795 350281 305196 1101857 130926 556362 71673 7140624 
Branch_type:  BRANCH_DIRECT_CALL:  Total Count: 14435 24403 26247 101708 37128 50044 15027 1616512 
Branch_type:  BRANCH_INDIRECT_CALL:  Total Count: 32623 1889 10226 16503 0 13203 0 268247 
Branch_type:  BRANCH_RETURN:  Total Count: 98106 16064 81635 201118 47071 118134 22567 1644286 
Number of unique branch instructions: 10407
Upper 32 bits: 
aaaa
ffff
ffff0000
Unique upper 32 bits: 3
Unique upper 36 bits: 3
Unique upper 40 bits: 5
Unique upper 44 bits: 32
Unique upper 48 bits: 156
Variant_0 : 1461 0.237793
Variant_1 : 3075 0.500488
Variant_2 : 0 0
Variant_3 : 0 0
Offset_3 4310
Offset_4 258
Offset_5 473
Offset_6 537
Offset_7 615
Offset_8 538
Offset_9 489
Offset_10 410
Offset_11 343
Offset_12 277
Offset_13 223
Offset_14 229
Offset_15 199
Offset_16 232
Offset_17 164
Offset_18 135
Offset_19 246
Offset_20 147
Offset_21 246
Offset_22 408
Offset_23 245
Offset_24 333
Offset_25 88
Offset_47 82
Offset_64 1
decode_dispatch_called: 26388752 73.3514
Dispatch_width: 0 14196420 53.7972 39.461
Dispatch_width: 1 1046898 3.96721 2.91001
Dispatch_width: 2 851558 3.22697 2.36703
Dispatch_width: 3 507790 1.92427 1.41148
Dispatch_width: 4 6442959 24.4156 17.9091
Dispatch_width: 5 104028 0.394213 0.289161
Dispatch_width: 6 3239099 12.2745 9.00355
Empty_decode_cycles: 9587046 26.6486
ROB_full_cycles: 10270870 28.5494
Starvation_cycles_per_kilo_instr: 224.658
Starvation_cycles_per_kilo_instr_3: 159.188
Starvation_cycles_per_kilo_instr_0: 135.126
Branch_type_1  (3,1)  (4,7)  (5,36)  (6,75)  (7,118)  (8,135)  (9,129)  (10,106)  (11,79)  (12,44)  (13,4)  (14,2)  (15,3)  (16,4)  (18,1)  (19,4)  (20,2)  (21,1)  (22,3)  (23,2)  (24,10)  (25,12) 
Branch_type_2  (3,1)  (5,1)  (8,3)  (9,3)  (12,1)  (13,1)  (14,1)  (16,3)  (17,2)  (20,2)  (21,2)  (23,5)  (24,1)  (47,37) 
Branch_type_3  (3,4308)  (4,251)  (5,432)  (6,445)  (7,463)  (8,337)  (9,269)  (10,174)  (11,138)  (12,49)  (13,4)  (21,1) 
Branch_type_4  (6,4)  (7,8)  (8,30)  (9,52)  (10,61)  (11,63)  (12,102)  (13,100)  (14,100)  (15,96)  (16,105)  (17,76)  (18,62)  (19,120)  (20,74)  (21,130)  (22,219)  (23,138)  (24,194)  (25,72) 
Branch_type_5  (8,2)  (9,1)  (10,3)  (11,5)  (12,3)  (13,14)  (14,16)  (15,11)  (16,20)  (17,12)  (18,16)  (19,12)  (20,12)  (21,13)  (22,42)  (23,26)  (24,36) 
Branch_type_6  (5,4)  (6,13)  (7,26)  (8,31)  (9,35)  (10,66)  (11,58)  (12,78)  (13,100)  (14,110)  (15,89)  (16,100)  (17,74)  (18,56)  (19,110)  (20,57)  (21,99)  (22,144)  (23,74)  (24,92)  (25,4)  (47,45)  (64,1) 
Unique trigger count: 
Variant_0_evicts_0 : 0
Variant_0_evicts_1 : 0
Variant_0_evicts_2 : 0
Variant_0_evicts_3 : 0
Variant_1_evicts_0 : 0
Variant_1_evicts_1 : 0
Variant_1_evicts_2 : 0
Variant_1_evicts_3 : 0
Variant_2_evicts_0 : 0
Variant_2_evicts_1 : 0
Variant_2_evicts_2 : 0
Variant_2_evicts_3 : 0
Variant_3_evicts_0 : 0
Variant_3_evicts_1 : 0
Variant_3_evicts_2 : 0
Variant_3_evicts_3 : 0
BTB PER SET UNIQUE ADDR: 6 6 5 5 8 6 6 4 5 7 7 5 5 5 3 7 4 4 6 4 5 6 5 6 5 3 6 4 6 6 7 6 5 7 5 4 3 3 5 4 5 5 6 8 5 4 5 5 8 5 6 6 7 4 6 7 5 5 6 5 6 6 8 4 5 5 6 5 4 4 5 3 6 7 6 5 4 6 8 6 7 6 7 7 6 5 4 5 4 5 5 5 6 6 5 4 6 8 6 7 6 6 6 9 5 7 5 4 4 6 5 4 7 6 4 6 5 6 5 5 4 4 6 7 7 6 4 6 5 6 6 7 8 4 5 4 7 2 5 7 6 6 4 6 6 5 6 6 4 6 7 5 4 4 7 9 4 4 5 6 2 5 5 6 4 7 7 6 3 4 6 4 8 4 7 7 5 4 5 5 5 3 6 6 3 5 5 5 5 8 5 5 6 4 5 5 7 5 6 2 6 7 6 6 5 7 6 5 5 6 5 7 7 5 4 4 6 4 6 5 5 8 4 5 4 2 5 6 5 4 7 5 6 7 3 6 5 8 5 6 8 5 8 4 6 4 7 4 7 6 6 4 3 3 6 5 4 2 5 9 6 4 4 4 6 6 7 5 3 6 7 4 7 5 6 5 8 3 8 5 5 6 5 8 4 5 6 5 5 3 5 6 5 3 4 6 7 6 5 4 7 4 3 5 5 4 6 4 7 4 4 4 7 5 7 6 5 5 6 6 6 5 6 5 6 6 6 5 6 6 5 7 3 3 3 6 8 4 5 5 5 5 6 4 3 7 5 3 5 7 5 7 5 6 6 7 7 6 5 6 7 5 4 5 4 5 4 6 4 5 3 4 7 4 6 7 7 5 4 4 7 6 4 3 4 5 7 4 6 6 5 5 7 7 4 5 7 8 6 4 7 8 7 7 7 2 3 6 9 6 5 4 7 6 8 7 5 5 8 5 5 5 5 7 6 7 4 5 8 8 5 6 7 4 4 2 6 3 3 5 7 4 5 5 5 3 4 6 7 6 7 5 6 5 5 4 5 4 7 5 8 4 2 6 6 6 6 6 5 4 6 6 8 6 6 4 5 4 4 6 6 5 6 7 8 4 4 7 7 4 5 6 5 4 7 7 6 3 6 5 6 4 6 5 8 6 4 4 3 4 3 6 5 3 3 5 5 2 4 3 4 6 3 4 4 4 1 5 2 6 4 3 5 3 5 4 2 2 4 6 5 4 5 4 4 4 5 4 2 3 6 5 3 7 6 3 6 2 4 2 3 5 4 5 4 3 3 4 5 1 3 2 1 2 4 5 4 5 4 5 4 4 2 4 5 2 3 4 4 4 4 2 3 4 2 6 4 5 4 5 4 5 2 3 3 3 5 3 5 3 5 3 4 4 1 4 3 3 4 3 4 2 5 4 5 6 2 5 4 3 2 2 5 3 3 4 4 4 5 4 2 7 1 2 3 5 4 2 4 3 4 2 3 4 4 3 7 4 6 2 2 5 5 6 5 5 3 4 7 5 4 3 4 5 4 3 4 6 5 6 4 3 2 4 4 4 2 6 6 3 5 1 5 4 4 4 5 4 5 6 5 3 3 2 4 4 5 3 4 4 5 1 2 3 5 2 3 5 3 3 4 3 4 3 6 4 5 4 2 4 4 3 6 3 4 3 4 4 2 5 3 5 6 5 5 3 5 2 4 4 3 3 2 4 5 5 2 2 3 4 6 5 5 3 3 6 4 4 3 4 4 2 3 4 7 3 4 5 1 6 3 4 5 4 4 3 3 3 5 4 5 6 5 4 5 3 5 1 4 5 5 4 4 2 3 4 5 4 6 6 3 2 1 3 4 3 5 2 4 5 5 3 5 2 4 2 4 3 4 5 4 5 3 7 4 4 5 6 4 4 5 5 4 5 3 7 6 4 2 2 5 5 4 6 6 4 5 4 2 4 3 6 3 6 4 3 3 2 4 5 7 3 6 2 4 4 4 3 4 4 6 6 7 4 5 6 4 2 5 1 5 2 4 4 2 4 4 4 6 1 4 2 6 4 2 4 6 4 5 6 5 4 2 5 3 5 2 4 5 4 4 5 5 3 5 6 5 3 4 6 3 5 4 4 3 2 3 3 3 3 5 5 6 4 3 2 3 2 6 4 5 5 4 6 5 2 1 5 3 2 5 4 6 4 4 3 5 5 2 4 2 4 3 7 2 6 3 4 3 4 3 6 3 5 5 3 3 4 4 2 3 4 4 5 6 5 3 4 4 5 8 4 6 3 4 4 4 4 2 4 6 6 6 5 4 5 5 3 4 4 3 5 4 4 6 2 6 6 4 3 4 5 3 4 3 4 5 3 3 3 4 3 4 5 6 2 3 5 5 6 3 3 5 4 2 6 6 5 3 3 7 4 8 4 3 4 5 3 4 5 3 4 3 5 6 3 3 4 3 4 5 4 5 4 6 3 5 2 3 3 4 6 4 5 4 3 4 6 5 3 5 4 5 7 6 6 3 6 2 3 5 4 6 1 3 6 7 5 4 6 4 3 3 6 6 7 5 6 4 2 5 3 8 1 4 2 3 3 4 4 5 6 4 2 2 6 3 5 4 5 6 4 1 2 3 3 6 4 3 2 6 4 8 4 3 4 7 4 5 4 4 3 6 5 2 4 3 6 3 4 5 2 4 5 4 5 4 3 3 4 4 4 2 1 6 5 4 5 2 3 3 2 3 3 5 5 3 1 6 5 4 5 5 4 2 4 4 4 4 7 6 2 4 6 3 5 2 5 5 2 5 3 5 4 5 5 3 4 3 4 3 5 7 3 6 3 5 4 3 4 4 5 6 3 3 4 7 5 3 7 4 4 5 5 5 4 6 3 4 4 5 5 5 1 4 3 3 5 5 7 5 6 4 4 6 3 5 1 5 3 3 5 5 5 4 5 4 6 3 4 3 6 6 5 4 5 4 3 6 5 3 6 6 4 5 4 5 5 3 4 5 3 4 3 5 2 4 4 6 6 3 3 5 5 3 4 5 4 5 4 5 5 2 4 6 5 1 2 7 4 2 3 5 5 3 1 5 2 4 3 6 4 6 5 4 7 3 6 6 5 4 5 1 6 4 6 6 6 1 4 4 4 4 2 5 3 3 5 3 2 3 3 2 4 1 4 5 2 2 3 3 4 5 4 5 3 3 4 6 4 3 4 5 6 4 2 1 2 2 3 6 4 5 6 4 3 3 5 3 7 6 5 2 4 4 3 7 5 5 4 6 6 3 2 4 4 5 5 5 7 4 3 3 2 3 6 7 3 4 5 5 5 6 4 5 3 2 3 3 5 1 5 4 3 7 4 3 4 5 5 5 5 5 5 5 3 6 5 5 4 3 3 2 3 3 6 4 3 3 4 3 3 4 6 5 3 3 4 5 4 8 3 3 5 4 4 8 4 2 5 5 3 2 5 4 4 4 4 4 4 2 5 4 3 5 4 
BTB PER SET COUNT: 6 2045 1464 5 8 8 6 6 5 7 11 5 5 5 3 11 4 4 6 4 6 7 5 6 482 3 7 4 6 533 2930 6 6 7 7 4 3 5 5 5 8 7 22 2454 5 4 481 5 192 5 7 6 481 4 6 8 5 1421 6 5 994 6 8 4 5 6 6 6 6 5 5 3 10 7 6 230 4 8 9 6 8 8 7 8 6 5 4 6 475 948 283 5 6 6 5 5 7 8 6 7 7 7 6 146 5 8 5 4 4 6 5 4 8 6 4 818 5 6 13 6 5 4 2159 11 7 8 4 7 5 6 6 105 8 6 5 4 8 2 5 951 855 12 4 6 9 5 8 6 6 24 8 5 4 90 7 1999 4 6 5 8 3 5 5 6 4 7 7 6 3 4 8 4 116 5 7 7 5 4 6 5 5 3 6 6 3 5 5 5 5 9 539 6 9 4 9 5 7 942 6 2 6 7 6 10 6 8 7 7 27 6 5 8 7 5 4 4 6 4 7 7 5 8 4 538 5 2 5 6 5 4 306 5 8 7 3 14 5 18 5 6 9 5 8 4 24 4 7701 196 7 6 993 4 3 3 6 7 1463 3 7 10 6 6 10 4 6 6 8 5 3 6 36 4 11 6 6 5 1036 4 21 5 7 8 5 705 5 7 6 5 938 3 7 6 5 3 486 8 8 6 7 4 8 4 3 5 9 4 9 4 7 4 482 5 7 5 9 7 5 5 6 6 6 5 166 5 8 6 7 5 8 6 6 9 20463 3 3 6 9 4 5 5 5 5 7 6 3 8 9 3 117 11 5 10 10 8 6 7 7 1420 12 115 7 5 4 7 14614 5 5 6 4 7 3 20 7 4 20 11 217 5 4 4 9 390 4 3 4 5 7 4 6 6 5 5 7 8 4 6 1802 1402 6 4 11 8 7 293 9 2 5 12 10 6 7 4 8 6 8 7 5 29 2458 5 6 7 5 492 9 8 4 6 963 8 5 6 7 4 4 944 6 3 2840 5 8 102 5 8 559 3 4 8 7 11 7 5 6 5 12 4 5 4 9 887 1969 974 2 6 18 1465 6 6 5 4 6 6 8 10 993 4 5 4 4 6 7 5 6 1466 1448 4 6 480 7 4 1420 6 7 4 7 9 993 4 7 5 9 5 8 5 1283 12 4 4 3 4 3 8 6 1888 3 6 5 487 4 3 4 6 3 4 4 4 1 297 2 12 4 3 5 11 33 4 3 2 9 6 18 4 6 4 4 1478 5 4 2 3 7 939 946 9 6 4 14 4 4 2 948 6 5 6 4 3 1869 4 5 1 3 2 7 2 4 5 4 7 4 8 4 4 2 4 9 2 4 4 4 5 5 2 291 4 2 1465 4 5 4 5 4 5 2 3 5 3 5 3 5 3 5 3 1000 4 1 4 1462 3 4 3 500 2 6 8 5 8 2 5 10 3 2 2 5 3 3 4 6 6 5 5 3 9 1 2 6 5 4 2 6 936 4 6 3 4 4 3 7 5 6 2 2 1326 6 6 5 476 5 5 7 6 6 3 4 5 4 1463 19 6 5 8 4 3 2 4 4 4 2 7 9 3 5 1 7 4 5 4 5 4 5 7 5 3 4 2 4 4 5 3 4 4 6 1 2 3 5 473 3 5 3 3 4 6 4 3 7 4 5 6 3 4 4 3 10 3 5 3 4 5 2 1473 3 5 7 6 6 3 5 2 4 4 3 5 4 5 945 5 2 3 186 4 10 5 5 55 4 6 4 2926 3 13 5 2 4 5 8 4 5 5 1 6 3 4 6 26 4 3 3 3 237 4 9 7 8 6 6 3 6 1 5 5 6 5 4 2 3 5 5 4 6 7 3 2 1 4 4 3 5 2 5 6 6 4 7 2 6 2 4 3 4 485 4 7 3 995 4 4 5 7 4 6 15 5 947 5 5 8 997 5 2 2 7 992 4 9 10 4 5 4 2 4 3 6 3 6 475 3 3 2 5 7 8 4 125 2 5 5 4 3 4 4 8 7 8 17 5 8 947 3 5 1 5 2 6 4 2 4 4 4 7 1 4 12 9 4 3 4 8 6 6 13 6 4 2 5 3 5 2 4 7 6 4 993 5 3 5 6 1473 4 5 7 10 5 4 4 3 2 3 990 3 3 5 2923 7 4 3 3 3 4 9 4 5 7 4 6 968 2 1 5 1892 2 5 6 8 5 5 3 476 5 2 4 2 4 4 20 5 6 3 4 3 6 3 6 3 6 5 3 3 35 4 2 3 4 4 5 6 7 3 4 4 95 9 5 8 3 5 4 4 1995 2 475 6 6 6 5 4 5 6 3 5 5 3 5 5 4 7 2 6 531 4 3 13 6 3 5 6 4 6 5 4 3 4 5 4 5 6 2 956 5 5 6 4 3 10 6 2 6 6 416 4 3 7 4 9 4 3 11 6 3 4 6 3 394 3 5 7 3 7 4 3 5 5 4 7 991 7 3 17 2 3 6 4 7 5 6 4 3 13 6 6 3 5 6 5 8 293 351 3 6 2 3 292 4 9 1 3 8 7 44 7 7 5 3 3 6 6 9 5 6 4 2 5 3 10 1 4 2 4 3 4 4 5 6 4 2 2 479 4 948 4 8 6 4 1 2 3 3 6 4 3 2 8 4 12 4 3 4 7 4 5 4 5 3 7 7 2 4 4 6 8 4 1464 2 4 5 4 5 6 3 3 5 4 5 5 1 8 477 4 5 124 3 4 2 3 3 6 5 3 1 6 334 1463 5 7 4 989 4 4 6 4 8 610 2 4 7 5 5 2 5 1475 2 996 3 5 4 5 6 4 4 3 4 6 5 8 6 18 3 5 4 4 4 4 481 6 31 4 4 10 5 3 9 4 64 10 5 992 4 6 3 10 225 6 5 5 1 4 3 4 5 6 7 5 7 4 4 8 3 5 1 5 3 3 6 5 7 4 8 4 6 3 948 4 7 8 17 4 13 4 4 8 5 3 6 6 4 7 4 6 5 3 4 5 3 4 936 5 2 4 1480 12 6 3 3 5 6 3 5 1467 4 5 293 6 5 3 4 1467 5 1 2 68 5 2 3 5 5 1073 1 10 2 4 8 22 4 8 5 4 9 3 10 6 5 4 5 1 6 4 6 6 6 1 490 4 4 4 2 5 3 4 5 3 2 3 3 2 6 1 4 6 2 2 3 4 4 5 4 8 3 3 4 6 39 3 6 5 1465 30 2 1 2 2 3 8 4 5 6 4 4 3 5 3 2430 6 5 2 2969 4 3 7 6 5 6 6 12 6 2 4 6 6 480 5 8 5 3 3 2 3 6 13 3 4 5 6 5 6 4 5 3 2 6 3 5 1 7 4 3 9 4 3 10 10 5 6 5 992 5 5 3 6 8 5 4 3 3 2 3 3 6 4 3 3 4 241 990 6 6 7 3 3 4 7 4 10 3 3 21 4 4 15 6 2 7 5 3 2 2466 4 4 5 4 998 4 2 6 4 3 5 4 
To predecode: 0
Predecoding something: 0
Predecode request dropped: 0
sizeofblock_0 0
sizeofblock_1 57758
sizeofblock_2 73818
sizeofblock_3 0
sizeofblock_4 0
sizeofblock_5 0
sizeofblock_6 0
sizeofblock_7 0
sizeofblock_8 0
Variant_0 Correct: 1607195 Incorrect: 0 Accuracy: 1
Variant_1 Correct: 5719505 Incorrect: 0 Accuracy: 1
Variant_2 Correct: 0 Incorrect: 0 Accuracy: -nan
Variant_3 Correct: 0 Incorrect: 0 Accuracy: -nan
