
*** ChampSim Multicore Out-of-Order Simulator ***

Warmup Instructions: 50000000
Simulation Instructions: 50000000
Number of CPUs: 1
LLC sets: 2048
LLC ways: 16
Off-chip DRAM Size: 4096 MB Channels: 1 Width: 64-bit Data Rate: 6400 MT/s
CPU 0 runs ./micro_traces/srv383.trace.gz
.gz
ITLB has LRU replacement policy
DTLB has LRU replacement policy
STLB has LRU replacement policy
FDIP Prefetcher at L1I
L1I has LRU replacement policy
L1D has LRU replacement policy
Initialize SRRIP state for L2C
Initialize DRRIP state for LLC
Heartbeat_Variant_0 : 1296 0.316406 per_variant_size: 0 1296 0 0 0 0 0 0 0 
Heartbeat_Variant_1 : 2334 0.569824 per_variant_size: 0 302 2032 0 0 0 0 0 0 
Heartbeat_Variant_2 : 0 0 per_variant_size: 0 0 0 0 0 0 0 0 0 
Heartbeat_Variant_3 : 0 0 per_variant_size: 0 0 0 0 0 0 0 0 0 
Heartbeat_Variant_0_evicts 0 : 5497 1 : 28 2 : 0 3 : 0 
Heartbeat_Variant_1_evicts 0 : 18 1 : 0 2 : 0 3 : 0 
Heartbeat_Variant_2_evicts 0 : 0 1 : 0 2 : 0 3 : 0 
Heartbeat_Variant_3_evicts 0 : 0 1 : 0 2 : 0 3 : 0 
Heartbeat CPU 0 instructions: 10000002 cycles: 2796347 heartbeat IPC: 3.57609 cumulative IPC: 3.57609 (Simulation time: 0 hr 1 min 50 sec) 
Heartbeat_Variant_0 : 1374 0.335449 per_variant_size: 0 1374 0 0 0 0 0 0 0 
Heartbeat_Variant_1 : 2508 0.612305 per_variant_size: 0 305 2203 0 0 0 0 0 0 
Heartbeat_Variant_2 : 0 0 per_variant_size: 0 0 0 0 0 0 0 0 0 
Heartbeat_Variant_3 : 0 0 per_variant_size: 0 0 0 0 0 0 0 0 0 
Heartbeat_Variant_0_evicts 0 : 5584 1 : 62 2 : 0 3 : 0 
Heartbeat_Variant_1_evicts 0 : 62 1 : 0 2 : 0 3 : 0 
Heartbeat_Variant_2_evicts 0 : 0 1 : 0 2 : 0 3 : 0 
Heartbeat_Variant_3_evicts 0 : 0 1 : 0 2 : 0 3 : 0 
Heartbeat CPU 0 instructions: 20000000 cycles: 5593125 heartbeat IPC: 3.57554 cumulative IPC: 3.57582 (Simulation time: 0 hr 3 min 27 sec) 
Heartbeat_Variant_0 : 1374 0.335449 per_variant_size: 0 1374 0 0 0 0 0 0 0 
Heartbeat_Variant_1 : 2509 0.612549 per_variant_size: 0 294 2215 0 0 0 0 0 0 
Heartbeat_Variant_2 : 0 0 per_variant_size: 0 0 0 0 0 0 0 0 0 
Heartbeat_Variant_3 : 0 0 per_variant_size: 0 0 0 0 0 0 0 0 0 
Heartbeat_Variant_0_evicts 0 : 5680 1 : 0 2 : 0 3 : 0 
Heartbeat_Variant_1_evicts 0 : 0 1 : 0 2 : 0 3 : 0 
Heartbeat_Variant_2_evicts 0 : 0 1 : 0 2 : 0 3 : 0 
Heartbeat_Variant_3_evicts 0 : 0 1 : 0 2 : 0 3 : 0 
Heartbeat CPU 0 instructions: 30000002 cycles: 8389966 heartbeat IPC: 3.57546 cumulative IPC: 3.5757 (Simulation time: 0 hr 5 min 5 sec) 
Heartbeat_Variant_0 : 1380 0.336914 per_variant_size: 0 1380 0 0 0 0 0 0 0 
Heartbeat_Variant_1 : 2548 0.62207 per_variant_size: 0 287 2261 0 0 0 0 0 0 
Heartbeat_Variant_2 : 0 0 per_variant_size: 0 0 0 0 0 0 0 0 0 
Heartbeat_Variant_3 : 0 0 per_variant_size: 0 0 0 0 0 0 0 0 0 
Heartbeat_Variant_0_evicts 0 : 5567 1 : 17 2 : 0 3 : 0 
Heartbeat_Variant_1_evicts 0 : 18 1 : 0 2 : 0 3 : 0 
Heartbeat_Variant_2_evicts 0 : 0 1 : 0 2 : 0 3 : 0 
Heartbeat_Variant_3_evicts 0 : 0 1 : 0 2 : 0 3 : 0 
Heartbeat CPU 0 instructions: 40000002 cycles: 11186085 heartbeat IPC: 3.57639 cumulative IPC: 3.57587 (Simulation time: 0 hr 6 min 42 sec) 
Heartbeat_Variant_0 : 1389 0.339111 per_variant_size: 0 1389 0 0 0 0 0 0 0 
Heartbeat_Variant_1 : 2559 0.624756 per_variant_size: 0 286 2273 0 0 0 0 0 0 
Heartbeat_Variant_2 : 0 0 per_variant_size: 0 0 0 0 0 0 0 0 0 
Heartbeat_Variant_3 : 0 0 per_variant_size: 0 0 0 0 0 0 0 0 0 
Heartbeat_Variant_0_evicts 0 : 5537 1 : 19 2 : 0 3 : 0 
Heartbeat_Variant_1_evicts 0 : 15 1 : 0 2 : 0 3 : 0 
Heartbeat_Variant_2_evicts 0 : 0 1 : 0 2 : 0 3 : 0 
Heartbeat_Variant_3_evicts 0 : 0 1 : 0 2 : 0 3 : 0 
Heartbeat CPU 0 instructions: 50000003 cycles: 13981736 heartbeat IPC: 3.57698 cumulative IPC: 3.57609 (Simulation time: 0 hr 8 min 13 sec) 

Warmup complete CPU 0 instructions: 50000003 cycles: 13981736 (Simulation time: 0 hr 8 min 13 sec) 

Cycle: 20000000 FTQ IN: 58354945 FTQ occupancy: 19.9431 DECODE IN: 58354846 DECODE occupancy: 52.0623 ROB IN: 58354786 ROB occupancy: 314.559 ROB OUT: 58354701
Heartbeat_Variant_0 : 1387 0.338623 per_variant_size: 0 1387 0 0 0 0 0 0 0 
Heartbeat_Variant_1 : 2564 0.625977 per_variant_size: 0 303 2261 0 0 0 0 0 0 
Heartbeat_Variant_2 : 0 0 per_variant_size: 0 0 0 0 0 0 0 0 0 
Heartbeat_Variant_3 : 0 0 per_variant_size: 0 0 0 0 0 0 0 0 0 
Heartbeat_Variant_0_evicts 0 : 5600 1 : 0 2 : 0 3 : 0 
Heartbeat_Variant_1_evicts 0 : 3 1 : 0 2 : 0 3 : 0 
Heartbeat_Variant_2_evicts 0 : 0 1 : 0 2 : 0 3 : 0 
Heartbeat_Variant_3_evicts 0 : 0 1 : 0 2 : 0 3 : 0 
Heartbeat CPU 0 instructions: 60000001 cycles: 21186219 heartbeat IPC: 1.38802 cumulative IPC: 1.38802 (Simulation time: 0 hr 9 min 59 sec) 
Heartbeat_Variant_0 : 1391 0.3396 per_variant_size: 0 1391 0 0 0 0 0 0 0 
Heartbeat_Variant_1 : 2573 0.628174 per_variant_size: 0 295 2278 0 0 0 0 0 0 
Heartbeat_Variant_2 : 0 0 per_variant_size: 0 0 0 0 0 0 0 0 0 
Heartbeat_Variant_3 : 0 0 per_variant_size: 0 0 0 0 0 0 0 0 0 
Heartbeat_Variant_0_evicts 0 : 5559 1 : 17 2 : 0 3 : 0 
Heartbeat_Variant_1_evicts 0 : 20 1 : 0 2 : 0 3 : 0 
Heartbeat_Variant_2_evicts 0 : 0 1 : 0 2 : 0 3 : 0 
Heartbeat_Variant_3_evicts 0 : 0 1 : 0 2 : 0 3 : 0 
Heartbeat CPU 0 instructions: 70000002 cycles: 28504113 heartbeat IPC: 1.36651 cumulative IPC: 1.37718 (Simulation time: 0 hr 11 min 48 sec) 
Cycle: 30000000 FTQ IN: 13743030 FTQ occupancy: 13.0138 DECODE IN: 13743063 DECODE occupancy: 33.7503 ROB IN: 13743063 ROB occupancy: 235.687 ROB OUT: 13742800
Heartbeat_Variant_0 : 1391 0.3396 per_variant_size: 0 1391 0 0 0 0 0 0 0 
Heartbeat_Variant_1 : 2574 0.628418 per_variant_size: 0 298 2276 0 0 0 0 0 0 
Heartbeat_Variant_2 : 0 0 per_variant_size: 0 0 0 0 0 0 0 0 0 
Heartbeat_Variant_3 : 0 0 per_variant_size: 0 0 0 0 0 0 0 0 0 
Heartbeat_Variant_0_evicts 0 : 5611 1 : 1 2 : 0 3 : 0 
Heartbeat_Variant_1_evicts 0 : 1 1 : 0 2 : 0 3 : 0 
Heartbeat_Variant_2_evicts 0 : 0 1 : 0 2 : 0 3 : 0 
Heartbeat_Variant_3_evicts 0 : 0 1 : 0 2 : 0 3 : 0 
Heartbeat CPU 0 instructions: 80000003 cycles: 35669940 heartbeat IPC: 1.39551 cumulative IPC: 1.38324 (Simulation time: 0 hr 13 min 36 sec) 
Cycle: 40000000 FTQ IN: 13814557 FTQ occupancy: 13.1196 DECODE IN: 13814584 DECODE occupancy: 33.9397 ROB IN: 13814644 ROB occupancy: 236.041 ROB OUT: 13814753
Heartbeat_Variant_0 : 1398 0.341309 per_variant_size: 0 1398 0 0 0 0 0 0 0 
Heartbeat_Variant_1 : 2578 0.629395 per_variant_size: 0 288 2290 0 0 0 0 0 0 
Heartbeat_Variant_2 : 0 0 per_variant_size: 0 0 0 0 0 0 0 0 0 
Heartbeat_Variant_3 : 0 0 per_variant_size: 0 0 0 0 0 0 0 0 0 
Heartbeat_Variant_0_evicts 0 : 5590 1 : 14 2 : 0 3 : 0 
Heartbeat_Variant_1_evicts 0 : 12 1 : 0 2 : 0 3 : 0 
Heartbeat_Variant_2_evicts 0 : 0 1 : 0 2 : 0 3 : 0 
Heartbeat_Variant_3_evicts 0 : 0 1 : 0 2 : 0 3 : 0 
Heartbeat CPU 0 instructions: 90000002 cycles: 42972946 heartbeat IPC: 1.3693 cumulative IPC: 1.37973 (Simulation time: 0 hr 15 min 25 sec) 
Cycle: 50000000 FTQ IN: 13875547 FTQ occupancy: 13.0068 DECODE IN: 13875574 DECODE occupancy: 34.0124 ROB IN: 13875574 ROB occupancy: 236.526 ROB OUT: 13875769
Heartbeat_Variant_0 : 1403 0.342529 per_variant_size: 0 1403 0 0 0 0 0 0 0 
Heartbeat_Variant_1 : 2585 0.631104 per_variant_size: 0 292 2293 0 0 0 0 0 0 
Heartbeat_Variant_2 : 0 0 per_variant_size: 0 0 0 0 0 0 0 0 0 
Heartbeat_Variant_3 : 0 0 per_variant_size: 0 0 0 0 0 0 0 0 0 
Heartbeat_Variant_0_evicts 0 : 5690 1 : 15 2 : 0 3 : 0 
Heartbeat_Variant_1_evicts 0 : 12 1 : 0 2 : 0 3 : 0 
Heartbeat_Variant_2_evicts 0 : 0 1 : 0 2 : 0 3 : 0 
Heartbeat_Variant_3_evicts 0 : 0 1 : 0 2 : 0 3 : 0 
Heartbeat CPU 0 instructions: 100000000 cycles: 50152273 heartbeat IPC: 1.39289 cumulative IPC: 1.38234 (Simulation time: 0 hr 17 min 14 sec) 
Finished CPU 0 instructions: 50000001 cycles: 36170538 cumulative IPC: 1.38234 (Simulation time: 0 hr 17 min 14 sec) 

ChampSim completed all CPUs

Region of Interest Statistics

CPU 0 cumulative IPC: 1.38234 instructions: 50000001 cycles: 36170538
 Fetch stage stalled: 53.5887  Sim cycles: 36170538 fetch stall cycle: 19383316
 Empty decode stage: 34.9908  Sim cycles: 36170538 fetch stall cycle: 12656372
ITLB TOTAL     ACCESS:    5871082  HIT:    5378895  MISS:     492187  HIT %:    91.6168  MISS %:    8.38324   MPKI: 9.84374
ITLB LOAD TRANSLATION INSTRUCTION	ACCESS:    5747086  HIT:    5254899  MISS:     492187  HIT %:    91.4359  MISS %:    8.56411  MPKI: 9.84374
ITLB TRANSLATION FROM L1D PREFETCHER INSTRUCTION	ACCESS:     123996  HIT:     123996  MISS:          0  HIT %:        100  MISS %:          0  MPKI: 0

ITLB AVERAGE MISS LATENCY: 9.06116 cycles
ITLB RQ	ACCESS:    8008528	FORWARD:          0	MERGED:    1693661	TO_CACHE:    6314867

DTLB TOTAL     ACCESS:    8971079  HIT:    8502366  MISS:     468713  HIT %:    94.7753  MISS %:    5.22471   MPKI: 9.37426
DTLB LOAD TRANSLATION DATA	ACCESS:    8971079  HIT:    8502366  MISS:     468713  HIT %:    94.7753  MISS %:    5.22471  MPKI: 9.37426

DTLB AVERAGE MISS LATENCY: 9.33333 cycles
DTLB RQ	ACCESS:   13336349	FORWARD:          0	MERGED:    4328563	TO_CACHE:    9007786

STLB TOTAL     ACCESS:    1210927  HIT:    1208961  MISS:       1966  HIT %:    99.8376  MISS %:   0.162355   MPKI: 0.03932
STLB LOAD TRANSLATION INSTRUCTION	ACCESS:     492187  HIT:     491960  MISS:        227  HIT %:    99.9539  MISS %:  0.0461207  MPKI: 0.00454
STLB LOAD TRANSLATION DATA	ACCESS:     468712  HIT:     466996  MISS:       1716  HIT %:    99.6339  MISS %:    0.36611  MPKI: 0.03432
STLB TRANSLATION FROM L1D PREFETCHER DATA	ACCESS:     250028  HIT:     250005  MISS:         23  HIT %:    99.9908  MISS %: 0.00919897  MPKI: 0.00046

STLB AVERAGE MISS LATENCY: 79.1536 cycles
STLB RQ	ACCESS:    1331675	FORWARD:          0	MERGED:     120709	TO_CACHE:    1210966

STLB Hit, L1D data hit: 0
STLB Hit, L2C data hit: 0
STLB Hit, LLC data hit: 0
STLB Hit, LLC data miss: 0
STLB STLB hints to L2: 0
L1D TOTAL     ACCESS:   13093674  HIT:   11979728  MISS:    1113946  HIT %:    91.4925  MISS %:    8.50751   MPKI: 22.2789
L1D LOAD DATA	ACCESS:    6558700  HIT:    5824355  MISS:     734345  HIT %:    88.8035  MISS %:    11.1965  MPKI: 14.6869
L1D RFO DATA	ACCESS:    6204353  HIT:    5918900  MISS:     285453  HIT %:    95.3991  MISS %:    4.60085  MPKI: 5.70906
L1D PREFETCH DATA	ACCESS:     330621  HIT:     236473  MISS:      94148  HIT %:    71.5239  MISS %:    28.4761  MPKI: 1.88296

L1D PREFETCH  REQUESTED:     741949  ISSUED:     741949  USEFUL:      33376  USELESS:      68488
L1D USEFUL LOAD PREFETCHES:      33376 PREFETCH ISSUED TO LOWER LEVEL:     101905  ACCURACY: 32.7521
 TIMELY PREFETCHES:      33376 LATE PREFETCHES: 7703 DROPPED PREFETCHES: 5
L1D AVERAGE MISS LATENCY: 221440 cycles
L1D RQ	ACCESS:   10696736	FORWARD:          0	MERGED:    3939669	TO_CACHE:    6593480
L1D WQ	ACCESS:    6940768	FORWARD:     163986	MERGED:     197899	TO_CACHE:    6742869
L1D PQ	ACCESS:     371174	FORWARD:          0	MERGED:          0	TO_CACHE:     370775

L1D UNIQUE REGIONS ACCESSED: 0
L1D REGIONS CONFLICTS: 0
L1D Cross Page Prefetch Requests: 6945
L1D Same Page Prefetch Requests: 747287
L1D ROI Sum of L1D PQ occupancy: 4706570
L1D PREFETCHES PUSHED FROM L2C: 0
L1I TOTAL     ACCESS:    7184052  HIT:    4428506  MISS:    2755546  HIT %:    61.6436  MISS %:    38.3564   MPKI: 55.1109
L1I LOAD INSTRUCTION	ACCESS:    6511618  HIT:    3756072  MISS:    2755546  HIT %:    57.6826  MISS %:    42.3174  MPKI: 55.1109
L1I PREFETCH INSTRUCTION	ACCESS:     672434  HIT:     672434  MISS:          0  HIT %:        100  MISS %:          0  MPKI: 0

L1I PREFETCH  REQUESTED:    1601644  ISSUED:    1601644  USEFUL:          0  USELESS:          0
L1I USEFUL LOAD PREFETCHES:          0 PREFETCH ISSUED TO LOWER LEVEL:          0  ACCURACY: -nan
 TIMELY PREFETCHES:          0 LATE PREFETCHES: 0 DROPPED PREFETCHES: 0
L1I AVERAGE MISS LATENCY: 17.238 cycles
L1I RQ	ACCESS:    9503739	FORWARD:          0	MERGED:    2670352	TO_CACHE:    6833387
L1I PQ	ACCESS:    1601644	FORWARD:          0	MERGED:     426503	TO_CACHE:    1175141

L1BTB TOTAL     ACCESS:    5672745  HIT:    2052172  MISS:    3620573  HIT %:     36.176  MISS %:     63.824   MPKI: 72.4115
L1BTB BRANCH_DIRECT_JUMP	ACCESS:     548750 HIT:     145894 MISS:     402856 AVERAGE STALL: 54.2592 AVERAGE FETCH STALL: 13.4156 AVERAGE FETCH QUEUE STALL: 19.2931 AVERAGE DECODE STALL: 20.6433 AVERAGE EXECUTE STALL: 1.99338e+15
L1BTB BRANCH_INDIRECT	ACCESS:     183452 HIT:      66470 MISS:     116982 AVERAGE STALL: 104.11 AVERAGE FETCH STALL: 10.803 AVERAGE FETCH QUEUE STALL: 14.4059 AVERAGE DECODE STALL: 11.946 AVERAGE EXECUTE STALL: 65.9933
L1BTB BRANCH_CONDITIONAL	ACCESS:    2713883 HIT:    1423786 MISS:    1290097 AVERAGE STALL: 56.7845 AVERAGE FETCH STALL: 26.8123 AVERAGE FETCH QUEUE STALL: 14.0796 AVERAGE DECODE STALL: 15.1983 AVERAGE EXECUTE STALL: 3.4871e+15
L1BTB BRANCH_DIRECT_CALL	ACCESS:     942473 HIT:     105021 MISS:     837452 AVERAGE STALL: 72.4173 AVERAGE FETCH STALL: 30.0969 AVERAGE FETCH QUEUE STALL: 15.0268 AVERAGE DECODE STALL: 26.3696 AVERAGE EXECUTE STALL: 2.74914e+16
L1BTB BRANCH_INDIRECT_CALL	ACCESS:     170856 HIT:      20799 MISS:     150057 AVERAGE STALL: 131.4 AVERAGE FETCH STALL: 12.7152 AVERAGE FETCH QUEUE STALL: 12.7774 AVERAGE DECODE STALL: 10.169 AVERAGE EXECUTE STALL: 95.2516
L1BTB BRANCH_RETURN	ACCESS:    1113331 HIT:     290202 MISS:     823129 AVERAGE STALL: 46.2888 AVERAGE FETCH STALL: 16.5291 AVERAGE FETCH QUEUE STALL: 5.24035 AVERAGE DECODE STALL: 6.09284 AVERAGE EXECUTE STALL: 4.23498e+14
L1BTB BRANCH_OTHER ACCESS:          0 HIT:          0 MISS:          0 AVERAGE STALL: -nan AVERAGE FETCH STALL: -nan AVERAGE FETCH QUEUE STALL: -nan AVERAGE DECODE STALL: -nan AVERAGE EXECUTE STALL: -nan
L1BTB TOTAL ROB OCCUPANCY AT BTB MISS: 2.7334

L2BTB TOTAL     ACCESS:    3595146  HIT:    3529064  MISS:      66082  HIT %:    98.1619  MISS %:    1.83809   MPKI: 1.32164
L2BTB BRANCH_DIRECT_JUMP	ACCESS:     398655 HIT:     393600 MISS:       5055 AVERAGE STALL: 54.2592 AVERAGE FETCH STALL: 13.4156 AVERAGE FETCH QUEUE STALL: 19.2931 AVERAGE DECODE STALL: 20.6433 AVERAGE EXECUTE STALL: 1.99338e+15
L2BTB BRANCH_INDIRECT	ACCESS:     106726 HIT:     104075 MISS:       2651 AVERAGE STALL: 104.11 AVERAGE FETCH STALL: 10.803 AVERAGE FETCH QUEUE STALL: 14.4059 AVERAGE DECODE STALL: 11.946 AVERAGE EXECUTE STALL: 65.9933
L2BTB BRANCH_CONDITIONAL	ACCESS:    1290097 HIT:    1284670 MISS:       5427 AVERAGE STALL: 56.7845 AVERAGE FETCH STALL: 26.8123 AVERAGE FETCH QUEUE STALL: 14.0796 AVERAGE DECODE STALL: 15.1983 AVERAGE EXECUTE STALL: 3.4871e+15
L2BTB BRANCH_DIRECT_CALL	ACCESS:     837452 HIT:     836770 MISS:        682 AVERAGE STALL: 72.4173 AVERAGE FETCH STALL: 30.0969 AVERAGE FETCH QUEUE STALL: 15.0268 AVERAGE DECODE STALL: 26.3696 AVERAGE EXECUTE STALL: 2.74914e+16
L2BTB BRANCH_INDIRECT_CALL	ACCESS:     140482 HIT:     130385 MISS:      10097 AVERAGE STALL: 131.4 AVERAGE FETCH STALL: 12.7152 AVERAGE FETCH QUEUE STALL: 12.7774 AVERAGE DECODE STALL: 10.169 AVERAGE EXECUTE STALL: 95.2516
L2BTB BRANCH_RETURN	ACCESS:     821734 HIT:     779564 MISS:      42170 AVERAGE STALL: 46.2888 AVERAGE FETCH STALL: 16.5291 AVERAGE FETCH QUEUE STALL: 5.24035 AVERAGE DECODE STALL: 6.09284 AVERAGE EXECUTE STALL: 4.23498e+14
L2BTB BRANCH_OTHER ACCESS:          0 HIT:          0 MISS:          0 AVERAGE STALL: -nan AVERAGE FETCH STALL: -nan AVERAGE FETCH QUEUE STALL: -nan AVERAGE DECODE STALL: -nan AVERAGE EXECUTE STALL: -nan
L2BTB TOTAL ROB OCCUPANCY AT BTB MISS: 149.761

L2C TOTAL     ACCESS:    4476209  HIT:    3997958  MISS:     478251  HIT %:    89.3157  MISS %:    10.6843   MPKI: 9.56502
L2C LOAD INSTRUCTION	ACCESS:    2755546  HIT:    2493529  MISS:     262017  HIT %:    90.4913  MISS %:    9.50871  MPKI: 5.24034
L2C LOAD TRANSLATION INSTRUCTION	ACCESS:        243  HIT:         67  MISS:        176  HIT %:     27.572  MISS %:     72.428  MPKI: 0.00352
L2C LOAD DATA	ACCESS:     726620  HIT:     647021  MISS:      79599  HIT %:    89.0453  MISS %:    10.9547  MPKI: 1.59198
L2C RFO DATA	ACCESS:     285379  HIT:     237515  MISS:      47864  HIT %:    83.2279  MISS %:    16.7721  MPKI: 0.95728
L2C PREFETCH DATA	ACCESS:     186434  HIT:     113607  MISS:      72827  HIT %:    60.9368  MISS %:    39.0632  MPKI: 1.45654
L2C WRITEBACK DATA	ACCESS:     520189  HIT:     505765  MISS:      14424  HIT %:    97.2272  MISS %:    2.77284  MPKI: 0.28848
L2C LOAD TRANSLATION DATA	ACCESS:       1755  HIT:        424  MISS:       1331  HIT %:    24.1595  MISS %:    75.8405  MPKI: 0.02662
L2C TRANSLATION FROM L1D PREFETCHER DATA	ACCESS:         43  HIT:         30  MISS:         13  HIT %:    69.7674  MISS %:    30.2326  MPKI: 0.00026

L2C PREFETCH  REQUESTED:      93031  ISSUED:      93031  USEFUL:       7988  USELESS:      65420
L2C USEFUL LOAD PREFETCHES:       7988 PREFETCH ISSUED TO LOWER LEVEL:      73256  ACCURACY: 10.9042
 TIMELY PREFETCHES:       7988 LATE PREFETCHES: 429 DROPPED PREFETCHES: 0
L2C AVERAGE MISS LATENCY: 38.1614 cycles
L2C RQ	ACCESS:    3769628	FORWARD:          0	MERGED:          0	TO_CACHE:    3769586
L2C WQ	ACCESS:     520189	FORWARD:         42	MERGED:          0	TO_CACHE:     520189
L2C PQ	ACCESS:     194936	FORWARD:          0	MERGED:       3883	TO_CACHE:     191053

L2C Dense regions hint from L2: 0
PSCL5 TOTAL     ACCESS:       3946  HIT:       1973  MISS:       1973  HIT %:         50  MISS %:         50   MPKI: 0.03946
PSCL5 LOAD TRANSLATION INSTRUCTION	ACCESS:       3860  HIT:       1930  MISS:       1930  HIT %:         50  MISS %:         50  MPKI: 0.0386
PSCL5 TRANSLATION FROM L1D PREFETCHER INSTRUCTION	ACCESS:         86  HIT:         43  MISS:         43  HIT %:         50  MISS %:         50  MPKI: 0.00086


PSCL4 TOTAL     ACCESS:       3850  HIT:       1922  MISS:       1928  HIT %:    49.9221  MISS %:    50.0779   MPKI: 0.03856
PSCL4 LOAD TRANSLATION INSTRUCTION	ACCESS:       2380  HIT:       1879  MISS:        501  HIT %:    78.9496  MISS %:    21.0504  MPKI: 0.01002
PSCL4 TRANSLATION FROM L1D PREFETCHER INSTRUCTION	ACCESS:         54  HIT:         43  MISS:         11  HIT %:    79.6296  MISS %:    20.3704  MPKI: 0.00022
PSCL4 LOAD TRANSLATION DATA	ACCESS:       1384  HIT:          0  MISS:       1384  HIT %:          0  MISS %:        100  MPKI: 0.02768
PSCL4 TRANSLATION FROM L1D PREFETCHER DATA	ACCESS:         32  HIT:          0  MISS:         32  HIT %:          0  MISS %:        100  MPKI: 0.00064


PSCL3 TOTAL     ACCESS:       3912  HIT:       1953  MISS:       1959  HIT %:    49.9233  MISS %:    50.0767   MPKI: 0.03918
PSCL3 LOAD TRANSLATION INSTRUCTION	ACCESS:       2411  HIT:       1910  MISS:        501  HIT %:    79.2202  MISS %:    20.7798  MPKI: 0.01002
PSCL3 TRANSLATION FROM L1D PREFETCHER INSTRUCTION	ACCESS:         54  HIT:         43  MISS:         11  HIT %:    79.6296  MISS %:    20.3704  MPKI: 0.00022
PSCL3 LOAD TRANSLATION DATA	ACCESS:       1415  HIT:          0  MISS:       1415  HIT %:          0  MISS %:        100  MPKI: 0.0283
PSCL3 TRANSLATION FROM L1D PREFETCHER DATA	ACCESS:         32  HIT:          0  MISS:         32  HIT %:          0  MISS %:        100  MPKI: 0.00064


PSCL2 TOTAL     ACCESS:       3890  HIT:       1917  MISS:       1973  HIT %:    49.2802  MISS %:    50.7198   MPKI: 0.03946
PSCL2 LOAD TRANSLATION INSTRUCTION	ACCESS:       2103  HIT:       1874  MISS:        229  HIT %:    89.1108  MISS %:    10.8892  MPKI: 0.00458
PSCL2 TRANSLATION FROM L1D PREFETCHER INSTRUCTION	ACCESS:         43  HIT:         43  MISS:          0  HIT %:        100  MISS %:          0  MPKI: 0
PSCL2 LOAD TRANSLATION DATA	ACCESS:       1701  HIT:          0  MISS:       1701  HIT %:          0  MISS %:        100  MPKI: 0.03402
PSCL2 TRANSLATION FROM L1D PREFETCHER DATA	ACCESS:         43  HIT:          0  MISS:         43  HIT %:          0  MISS %:        100  MPKI: 0.00086


LLC TOTAL     ACCESS:     536867  HIT:     509179  MISS:      27688  HIT %:    94.8427  MISS %:    5.15733   MPKI: 0.55376
LLC LOAD INSTRUCTION	ACCESS:     262017  HIT:     261205  MISS:        812  HIT %:    99.6901  MISS %:   0.309904  MPKI: 0.01624
LLC LOAD TRANSLATION INSTRUCTION	ACCESS:        176  HIT:        147  MISS:         29  HIT %:    83.5227  MISS %:    16.4773  MPKI: 0.00058
LLC LOAD DATA	ACCESS:      79180  HIT:      75781  MISS:       3399  HIT %:    95.7072  MISS %:    4.29275  MPKI: 0.06798
LLC RFO DATA	ACCESS:      47852  HIT:      34557  MISS:      13295  HIT %:    72.2164  MISS %:    27.7836  MPKI: 0.2659
LLC PREFETCH DATA	ACCESS:      73256  HIT:      63569  MISS:       9687  HIT %:    86.7765  MISS %:    13.2235  MPKI: 0.19374
LLC WRITEBACK DATA	ACCESS:      73042  HIT:      72666  MISS:        376  HIT %:    99.4852  MISS %:   0.514772  MPKI: 0.00752
LLC LOAD TRANSLATION DATA	ACCESS:       1331  HIT:       1242  MISS:         89  HIT %:    93.3133  MISS %:     6.6867  MPKI: 0.00178
LLC TRANSLATION FROM L1D PREFETCHER DATA	ACCESS:         13  HIT:         12  MISS:          1  HIT %:    92.3077  MISS %:    7.69231  MPKI: 2e-05

LLC AVERAGE MISS LATENCY: 155.057 cycles
LLC RQ	ACCESS:     390571	FORWARD:          0	MERGED:          0	TO_CACHE:     390569
LLC WQ	ACCESS:      73042	FORWARD:          2	MERGED:          0	TO_CACHE:      73042
LLC PQ	ACCESS:      73256	FORWARD:          0	MERGED:          0	TO_CACHE:      73256

LLC Dense regions hint to LLC: 0

RAW hits: 1937579
Loads Generated: 12634315
Loads sent to L1D: 10696736
Stores Generated: 6940765
Stores sent to L1D: 6940768
Major fault: 0 Minor fault: 2515
Allocated PAGES: 2515

stream: 
stream:times selected: 1185257
stream:pref_filled: 121339
stream:pref_useful: 24167
stream:pref_late: 6933
stream:misses: 7863
stream:misses_by_poll: 0

CS: 
CS:times selected: 176898
CS:pref_filled: 58691
CS:pref_useful: 35323
CS:pref_late: 6761
CS:misses: 15711
CS:misses_by_poll: 5

CPLX: 
CPLX:times selected: 1007224
CPLX:pref_filled: 19396
CPLX:pref_useful: 4535
CPLX:pref_late: 3208
CPLX:misses: 93597
CPLX:misses_by_poll: 0

NL_L1: 
NL:times selected: 20944
NL:pref_filled: 759
NL:pref_useful: 337
NL:pref_late: 248
NL:misses: 1722
NL:misses_by_poll: 0

total selections: 2390323
total_filled: 94148
total_useful: 33376
total_late: 18541
total_polluted: 5
total_misses_after_warmup: 769125
conflicts: 5522406

test: 116369

DRAM Statistics
 CHANNEL 0
 RQ ROW_BUFFER_HIT:      10080  ROW_BUFFER_MISS:      17226
 DBUS_CONGESTED:          9
 WQ ROW_BUFFER_HIT:       1353  ROW_BUFFER_MISS:      11692  FULL:          0

 AVG_CONGESTED_CYCLE: 4

CPU 0 Branch Prediction Accuracy: 99.8254% MPKI: 0.31926 Average ROB Occupancy at Mispredict: 186.194
Branch types
NOT_BRANCH: 40855165 81.7103%
BRANCH_DIRECT_JUMP: 548750 1.0975%
BRANCH_INDIRECT: 183452 0.366904%
BRANCH_CONDITIONAL: 6185931 12.3719%
BRANCH_DIRECT_CALL: 942473 1.88495%
BRANCH_INDIRECT_CALL: 170856 0.341712%
BRANCH_RETURN: 1113331 2.22666%
BRANCH_OTHER: 0 0%

DRAM PAGES: 1048576
Allocated PAGES: 2515
Average_ROB_Occupancy: 237.13
Average_Decode_Occupancy: 33.8047
Average_FTQ_Occupancy: 13.0038
Indirect max targets: 14 Average targets: 1.14915
Branch_type:  BRANCH_DIRECT_JUMP:  Count Percentage: 4.42255 6.15839 4.20873 3.01511 2.32289 12.5295 7.18705 60.1558 
Branch_type:  BRANCH_INDIRECT:  Count Percentage: 13.7433 3.46104 2.53886 0 0 33.0694 15.4852 31.7023 
Branch_type:  BRANCH_CONDITIONAL:  Count Percentage: 25.1876 3.41753 1.45266 5.34155 1.13911 9.50299 3.34501 50.6136 
Branch_type:  BRANCH_DIRECT_CALL:  Count Percentage: 0.388724 1.77073 0.74018 2.44447 1.92933 5.32811 2.48237 84.9161 
Branch_type:  BRANCH_INDIRECT_CALL:  Count Percentage: 9.56045 0 2.99694 0 0 4.05017 0.998104 82.3943 
Branch_type:  BRANCH_RETURN:  Count Percentage: 9.17856 2.01282 0.722867 5.59159 1.2603 11.6273 3.14812 66.4585 
Branch_type:  BRANCH_DIRECT_JUMP:  Total Count: 48441 67454 46099 33025 25443 137238 78721 658897 
Branch_type:  BRANCH_INDIRECT:  Total Count: 50283 12663 9289 0 0 120992 56656 115990 
Branch_type:  BRANCH_CONDITIONAL:  Total Count: 3112869 422364 179530 660149 140780 1174451 413401 6255203 
Branch_type:  BRANCH_DIRECT_CALL:  Total Count: 7343 33449 13982 46176 36445 100648 46892 1604065 
Branch_type:  BRANCH_INDIRECT_CALL:  Total Count: 32778 0 10275 0 0 13886 3422 282489 
Branch_type:  BRANCH_RETURN:  Total Count: 204924 44939 16139 124840 28138 259595 70286 1483776 
Number of unique branch instructions: 9887
Upper 32 bits: 
aaaa
ffff
ffff0000
Unique upper 32 bits: 3
Unique upper 36 bits: 3
Unique upper 40 bits: 5
Unique upper 44 bits: 32
Unique upper 48 bits: 153
Variant_0 : 1403 0.342529
Variant_1 : 2585 0.631104
Variant_2 : 0 0
Variant_3 : 0 0
Offset_3 4079
Offset_4 244
Offset_5 449
Offset_6 500
Offset_7 579
Offset_8 515
Offset_9 465
Offset_10 377
Offset_11 318
Offset_12 283
Offset_13 203
Offset_14 228
Offset_15 189
Offset_16 219
Offset_17 144
Offset_18 126
Offset_19 235
Offset_20 139
Offset_21 235
Offset_22 389
Offset_23 241
Offset_24 331
Offset_25 88
Offset_47 82
decode_dispatch_called: 25390428 70.1964
Dispatch_width: 0 13682256 53.8875 37.8271
Dispatch_width: 1 925914 3.6467 2.55986
Dispatch_width: 2 800997 3.15472 2.2145
Dispatch_width: 3 478694 1.88533 1.32344
Dispatch_width: 4 5412069 21.3154 14.9626
Dispatch_width: 5 155253 0.611463 0.429225
Dispatch_width: 6 3935245 15.4989 10.8797
Empty_decode_cycles: 10780110 29.8036
ROB_full_cycles: 8615900 23.8202
Starvation_cycles_per_kilo_instr: 236.194
Starvation_cycles_per_kilo_instr_3: 180.521
Starvation_cycles_per_kilo_instr_0: 158.465
Branch_type_1  (3,1)  (4,7)  (5,36)  (6,69)  (7,115)  (8,127)  (9,124)  (10,98)  (11,72)  (12,51)  (13,5)  (14,2)  (15,3)  (16,4)  (18,1)  (19,4)  (20,2)  (21,1)  (22,3)  (23,2)  (24,10)  (25,12) 
Branch_type_2  (3,1)  (5,1)  (8,3)  (9,3)  (12,1)  (13,1)  (14,1)  (16,3)  (17,2)  (20,2)  (21,2)  (23,5)  (24,1)  (47,38) 
Branch_type_3  (3,4077)  (4,237)  (5,408)  (6,415)  (7,433)  (8,325)  (9,255)  (10,152)  (11,131)  (12,58)  (13,4) 
Branch_type_4  (6,4)  (7,8)  (8,26)  (9,51)  (10,60)  (11,59)  (12,95)  (13,88)  (14,101)  (15,89)  (16,98)  (17,64)  (18,57)  (19,114)  (20,72)  (21,124)  (22,207)  (23,136)  (24,193)  (25,72) 
Branch_type_5  (8,2)  (9,1)  (10,3)  (11,5)  (12,3)  (13,14)  (14,16)  (15,11)  (16,20)  (17,11)  (18,16)  (19,12)  (20,10)  (21,13)  (22,42)  (23,26)  (24,36) 
Branch_type_6  (5,4)  (6,12)  (7,23)  (8,32)  (9,31)  (10,64)  (11,51)  (12,75)  (13,91)  (14,108)  (15,86)  (16,94)  (17,67)  (18,52)  (19,105)  (20,53)  (21,95)  (22,137)  (23,72)  (24,91)  (25,4)  (47,44) 
Unique trigger count: 
Variant_0_evicts_0 : 0
Variant_0_evicts_1 : 0
Variant_0_evicts_2 : 0
Variant_0_evicts_3 : 0
Variant_1_evicts_0 : 0
Variant_1_evicts_1 : 0
Variant_1_evicts_2 : 0
Variant_1_evicts_3 : 0
Variant_2_evicts_0 : 0
Variant_2_evicts_1 : 0
Variant_2_evicts_2 : 0
Variant_2_evicts_3 : 0
Variant_3_evicts_0 : 0
Variant_3_evicts_1 : 0
Variant_3_evicts_2 : 0
Variant_3_evicts_3 : 0
BTB PER SET UNIQUE ADDR: 16 13 13 13 11 15 14 13 14 17 15 12 15 12 12 10 11 12 15 13 16 12 13 16 11 13 15 14 12 13 14 11 16 14 14 12 16 13 13 16 16 13 15 11 16 16 10 11 11 16 14 11 15 16 17 13 11 12 12 15 13 12 14 13 16 18 12 15 17 11 11 13 15 15 14 18 20 12 16 12 15 15 13 16 13 11 12 15 14 15 13 16 15 19 13 13 14 12 13 13 15 17 14 13 14 13 13 12 15 11 15 13 7 13 12 9 15 10 15 14 14 11 11 15 13 17 14 11 12 14 19 13 17 9 15 18 20 16 12 15 10 13 16 14 17 11 16 16 16 12 12 14 13 14 18 13 14 12 11 16 14 13 11 13 14 14 13 11 11 15 20 14 13 12 12 14 13 14 16 11 15 13 14 15 16 13 12 12 11 18 15 10 13 19 13 13 13 14 12 12 10 19 14 13 14 8 12 17 14 14 14 14 12 13 12 15 15 11 16 16 13 18 14 12 17 16 15 16 13 13 15 14 15 10 12 14 17 16 16 12 16 15 10 17 14 14 13 11 18 13 14 12 13 12 11 16 11 14 19 15 15 15 15 15 15 11 13 15 15 21 13 16 12 13 13 15 13 15 12 11 13 14 13 15 15 12 11 12 15 16 12 14 10 18 14 10 13 17 18 13 12 13 15 15 12 11 15 13 14 12 12 17 15 11 14 15 14 16 12 12 17 14 12 16 13 18 15 11 15 17 13 14 16 11 13 14 16 14 16 10 11 11 16 12 14 12 14 15 12 14 16 13 14 18 14 12 15 13 10 15 10 13 14 14 14 17 14 12 8 12 12 14 14 17 13 11 14 14 15 13 15 13 12 15 16 14 14 15 12 16 12 12 15 15 13 12 15 13 16 13 14 16 13 10 13 13 12 17 14 14 13 16 15 15 16 14 16 12 16 17 15 13 11 16 10 13 12 13 13 14 17 12 12 14 16 11 15 18 15 13 12 13 16 13 15 11 14 14 15 16 14 11 17 17 13 16 16 12 14 12 14 15 15 13 16 10 13 17 13 12 19 11 13 19 16 16 17 14 16 14 16 12 15 20 14 20 13 13 14 13 18 14 14 11 13 12 13 16 16 11 12 14 10 18 14 16 11 14 13 13 17 12 
BTB PER SET COUNT: 43 25 1450 991 13 16 14 13 18 18 16 12 16 992 12 10 11 17 15 207 565 14 18 509 11 15 17 14 12 15 2461 992 18 1484 446 386 18 13 14 193 694 13 1486 11 523 16 11 11 11 758 15 12 487 1979 20 13 28 12 14 15 15 13 16 14 17 18 12 15 17 11 11 14 15 16 16 215 553 13 16 12 15 15 15 17 105 11 1969 1976 2820 15 13 3441 16 48 13 13 1155 992 15 16 17 995 15 14 120 13 13 14 96 11 603 375 7 13 12 9 16 10 518 15 14 12 4410 19 14 845 15 11 1304 17 3350 13 21 11 21 997 22 20 12 121 499 13 19 14 18 11 1977 16 19 16 12 374 13 90 89 13 15 504 11 17 14 15 11 58 14 14 992 11 11 12503 20 74 993 142 12 14 17 18 16 13 15 15 14 16 16 13 12 14 11 18 16 14 502 1265 15 13 13 14 12 12 13 42 16 13 511 8 12 17 1985 211 15 740 12 14 16 16 15 11 18 799 13 543 16 12 23 280 16 20 14 13 16 15 1482 13 13 14 18 17 2951 992 16 16 10 24 18 1482 13 11 2465 15 17 382 129 12 14 17 12 18 22 1059 1482 1353 18 15 2350 11 18 15 506 21 992 18 12 1352 13 174 328 16 15 11 13 518 160 16 15 13 11 990 20 21 14 992 10 1490 2626 1478 14 999 556 1479 990 13 15 1792 13 13 8078 15 14 504 3926 19 994 11 1385 1390 14 18 12 12 12388 16 372 20 13 510 463 989 15 21 17 375 19 11 13 440 16 15 16 498 11 11 18 16 14 1969 15 17 1972 14 68 13 759 24 14 12 31 996 10 15 10 13 18 14 218 1489 23 14 986 12 15 2335 68 18 13 13 15 15 17 15 21 13 13 16 18 83 503 15 14 599 14 13 15 17 15 12 133 14 1844 502 15 19 14 11 13 21 12 18 994 15 13 18 16 15 22 16 17 13 20 21 512 13 11 2326 12 22 989 13 13 15 1486 501 12 17 16 11 17 20 15 13 12 15 16 13 16 11 1970 14 409 20 16 1005 208 17 13 16 17 12 994 990 14 212 15 16 2593 11 14 1487 15 13 2274 16 21 20 16 7878 2902 20 23 152 996 12 1485 3004 16 254 13 13 14 16 21 57 15 13 894 13 2944 17 17 11 830 14 16 21 17 161 12 15 16 14 18 14 
To predecode: 0
Predecoding something: 0
Predecode request dropped: 0
sizeofblock_0 0
sizeofblock_1 41899
sizeofblock_2 95768
sizeofblock_3 0
sizeofblock_4 0
sizeofblock_5 0
sizeofblock_6 0
sizeofblock_7 0
sizeofblock_8 0
Variant_0 Correct: 1615477 Incorrect: 0 Accuracy: 1
Variant_1 Correct: 5733878 Incorrect: 0 Accuracy: 1
Variant_2 Correct: 0 Incorrect: 0 Accuracy: -nan
Variant_3 Correct: 0 Incorrect: 0 Accuracy: -nan
