
*** ChampSim Multicore Out-of-Order Simulator ***

Warmup Instructions: 50000000
Simulation Instructions: 50000000
Number of CPUs: 1
LLC sets: 2048
LLC ways: 16
Off-chip DRAM Size: 4096 MB Channels: 1 Width: 64-bit Data Rate: 6400 MT/s
CPU 0 runs ./micro_traces/srv385.trace.gz
.gz
ITLB has LRU replacement policy
DTLB has LRU replacement policy
STLB has LRU replacement policy
FDIP Prefetcher at L1I
L1I has LRU replacement policy
L1D has LRU replacement policy
Initialize SRRIP state for L2C
Initialize DRRIP state for LLC
Heartbeat_Variant_0 : 613 0.299316 per_variant_size: 0 613 0 0 0 0 0 0 0 
Heartbeat_Variant_1 : 1435 0.700684 per_variant_size: 0 138 1297 0 0 0 0 0 0 
Heartbeat_Variant_2 : 0 0 per_variant_size: 0 0 0 0 0 0 0 0 0 
Heartbeat_Variant_3 : 0 0 per_variant_size: 0 0 0 0 0 0 0 0 0 
Heartbeat_Variant_0_evicts 0 : 30740 1 : 59326 2 : 0 3 : 0 
Heartbeat_Variant_1_evicts 0 : 59405 1 : 0 2 : 0 3 : 0 
Heartbeat_Variant_2_evicts 0 : 0 1 : 0 2 : 0 3 : 0 
Heartbeat_Variant_3_evicts 0 : 0 1 : 0 2 : 0 3 : 0 
Heartbeat CPU 0 instructions: 10000003 cycles: 2797432 heartbeat IPC: 3.57471 cumulative IPC: 3.57471 (Simulation time: 0 hr 2 min 21 sec) 
Heartbeat_Variant_0 : 663 0.32373 per_variant_size: 0 663 0 0 0 0 0 0 0 
Heartbeat_Variant_1 : 1385 0.67627 per_variant_size: 0 146 1239 0 0 0 0 0 0 
Heartbeat_Variant_2 : 0 0 per_variant_size: 0 0 0 0 0 0 0 0 0 
Heartbeat_Variant_3 : 0 0 per_variant_size: 0 0 0 0 0 0 0 0 0 
Heartbeat_Variant_0_evicts 0 : 30696 1 : 59181 2 : 0 3 : 0 
Heartbeat_Variant_1_evicts 0 : 59131 1 : 0 2 : 0 3 : 0 
Heartbeat_Variant_2_evicts 0 : 0 1 : 0 2 : 0 3 : 0 
Heartbeat_Variant_3_evicts 0 : 0 1 : 0 2 : 0 3 : 0 
Heartbeat CPU 0 instructions: 20000000 cycles: 5594532 heartbeat IPC: 3.57513 cumulative IPC: 3.57492 (Simulation time: 0 hr 4 min 41 sec) 
Heartbeat_Variant_0 : 604 0.294922 per_variant_size: 0 604 0 0 0 0 0 0 0 
Heartbeat_Variant_1 : 1444 0.705078 per_variant_size: 0 131 1313 0 0 0 0 0 0 
Heartbeat_Variant_2 : 0 0 per_variant_size: 0 0 0 0 0 0 0 0 0 
Heartbeat_Variant_3 : 0 0 per_variant_size: 0 0 0 0 0 0 0 0 0 
Heartbeat_Variant_0_evicts 0 : 31135 1 : 59564 2 : 0 3 : 0 
Heartbeat_Variant_1_evicts 0 : 59623 1 : 0 2 : 0 3 : 0 
Heartbeat_Variant_2_evicts 0 : 0 1 : 0 2 : 0 3 : 0 
Heartbeat_Variant_3_evicts 0 : 0 1 : 0 2 : 0 3 : 0 
Heartbeat CPU 0 instructions: 30000000 cycles: 8391355 heartbeat IPC: 3.57549 cumulative IPC: 3.57511 (Simulation time: 0 hr 6 min 51 sec) 
Heartbeat_Variant_0 : 612 0.298828 per_variant_size: 0 612 0 0 0 0 0 0 0 
Heartbeat_Variant_1 : 1436 0.701172 per_variant_size: 0 125 1311 0 0 0 0 0 0 
Heartbeat_Variant_2 : 0 0 per_variant_size: 0 0 0 0 0 0 0 0 0 
Heartbeat_Variant_3 : 0 0 per_variant_size: 0 0 0 0 0 0 0 0 0 
Heartbeat_Variant_0_evicts 0 : 31270 1 : 60381 2 : 0 3 : 0 
Heartbeat_Variant_1_evicts 0 : 60373 1 : 0 2 : 0 3 : 0 
Heartbeat_Variant_2_evicts 0 : 0 1 : 0 2 : 0 3 : 0 
Heartbeat_Variant_3_evicts 0 : 0 1 : 0 2 : 0 3 : 0 
Heartbeat CPU 0 instructions: 40000000 cycles: 11188221 heartbeat IPC: 3.57543 cumulative IPC: 3.57519 (Simulation time: 0 hr 8 min 50 sec) 
Heartbeat_Variant_0 : 599 0.29248 per_variant_size: 0 599 0 0 0 0 0 0 0 
Heartbeat_Variant_1 : 1449 0.70752 per_variant_size: 0 133 1316 0 0 0 0 0 0 
Heartbeat_Variant_2 : 0 0 per_variant_size: 0 0 0 0 0 0 0 0 0 
Heartbeat_Variant_3 : 0 0 per_variant_size: 0 0 0 0 0 0 0 0 0 
Heartbeat_Variant_0_evicts 0 : 30501 1 : 58713 2 : 0 3 : 0 
Heartbeat_Variant_1_evicts 0 : 58726 1 : 0 2 : 0 3 : 0 
Heartbeat_Variant_2_evicts 0 : 0 1 : 0 2 : 0 3 : 0 
Heartbeat_Variant_3_evicts 0 : 0 1 : 0 2 : 0 3 : 0 
Heartbeat CPU 0 instructions: 50000002 cycles: 13984627 heartbeat IPC: 3.57602 cumulative IPC: 3.57535 (Simulation time: 0 hr 11 min 2 sec) 

Warmup complete CPU 0 instructions: 50000002 cycles: 13984627 (Simulation time: 0 hr 11 min 2 sec) 

Cycle: 20000000 FTQ IN: 54469795 FTQ occupancy: 17.1173 DECODE IN: 54469790 DECODE occupancy: 43.9045 ROB IN: 54469790 ROB occupancy: 260.646 ROB OUT: 54469790
Heartbeat_Variant_0 : 678 0.331055 per_variant_size: 0 678 0 0 0 0 0 0 0 
Heartbeat_Variant_1 : 1370 0.668945 per_variant_size: 0 139 1231 0 0 0 0 0 0 
Heartbeat_Variant_2 : 0 0 per_variant_size: 0 0 0 0 0 0 0 0 0 
Heartbeat_Variant_3 : 0 0 per_variant_size: 0 0 0 0 0 0 0 0 0 
Heartbeat_Variant_0_evicts 0 : 30874 1 : 59966 2 : 0 3 : 0 
Heartbeat_Variant_1_evicts 0 : 59887 1 : 0 2 : 0 3 : 0 
Heartbeat_Variant_2_evicts 0 : 0 1 : 0 2 : 0 3 : 0 
Heartbeat_Variant_3_evicts 0 : 0 1 : 0 2 : 0 3 : 0 
Heartbeat CPU 0 instructions: 60000002 cycles: 27388764 heartbeat IPC: 0.746038 cumulative IPC: 0.746038 (Simulation time: 0 hr 12 min 46 sec) 
Cycle: 30000000 FTQ IN: 7502745 FTQ occupancy: 3.49263 DECODE IN: 7502738 DECODE occupancy: 6.41703 ROB IN: 7502738 ROB occupancy: 56.6742 ROB OUT: 7502664
Cycle: 40000000 FTQ IN: 7375449 FTQ occupancy: 3.6181 DECODE IN: 7375408 DECODE occupancy: 6.68739 ROB IN: 7375408 ROB occupancy: 57.6961 ROB OUT: 7375482
Heartbeat_Variant_0 : 639 0.312012 per_variant_size: 0 639 0 0 0 0 0 0 0 
Heartbeat_Variant_1 : 1409 0.687988 per_variant_size: 0 153 1256 0 0 0 0 0 0 
Heartbeat_Variant_2 : 0 0 per_variant_size: 0 0 0 0 0 0 0 0 0 
Heartbeat_Variant_3 : 0 0 per_variant_size: 0 0 0 0 0 0 0 0 0 
Heartbeat_Variant_0_evicts 0 : 30656 1 : 59105 2 : 0 3 : 0 
Heartbeat_Variant_1_evicts 0 : 59144 1 : 0 2 : 0 3 : 0 
Heartbeat_Variant_2_evicts 0 : 0 1 : 0 2 : 0 3 : 0 
Heartbeat_Variant_3_evicts 0 : 0 1 : 0 2 : 0 3 : 0 
Heartbeat CPU 0 instructions: 70000003 cycles: 40891138 heartbeat IPC: 0.740611 cumulative IPC: 0.743315 (Simulation time: 0 hr 14 min 32 sec) 
Cycle: 50000000 FTQ IN: 7414139 FTQ occupancy: 3.48995 DECODE IN: 7414143 DECODE occupancy: 6.37838 ROB IN: 7414083 ROB occupancy: 56.1079 ROB OUT: 7413735
Heartbeat_Variant_0 : 617 0.30127 per_variant_size: 0 617 0 0 0 0 0 0 0 
Heartbeat_Variant_1 : 1431 0.69873 per_variant_size: 0 138 1293 0 0 0 0 0 0 
Heartbeat_Variant_2 : 0 0 per_variant_size: 0 0 0 0 0 0 0 0 0 
Heartbeat_Variant_3 : 0 0 per_variant_size: 0 0 0 0 0 0 0 0 0 
Heartbeat_Variant_0_evicts 0 : 31066 1 : 59481 2 : 0 3 : 0 
Heartbeat_Variant_1_evicts 0 : 59503 1 : 0 2 : 0 3 : 0 
Heartbeat_Variant_2_evicts 0 : 0 1 : 0 2 : 0 3 : 0 
Heartbeat_Variant_3_evicts 0 : 0 1 : 0 2 : 0 3 : 0 
Heartbeat CPU 0 instructions: 80000001 cycles: 54301905 heartbeat IPC: 0.745669 cumulative IPC: 0.744098 (Simulation time: 0 hr 16 min 7 sec) 
Cycle: 60000000 FTQ IN: 7467417 FTQ occupancy: 3.48172 DECODE IN: 7467462 DECODE occupancy: 6.36671 ROB IN: 7467522 ROB occupancy: 56.4141 ROB OUT: 7467857
Heartbeat_Variant_0 : 597 0.291504 per_variant_size: 0 597 0 0 0 0 0 0 0 
Heartbeat_Variant_1 : 1451 0.708496 per_variant_size: 0 151 1300 0 0 0 0 0 0 
Heartbeat_Variant_2 : 0 0 per_variant_size: 0 0 0 0 0 0 0 0 0 
Heartbeat_Variant_3 : 0 0 per_variant_size: 0 0 0 0 0 0 0 0 0 
Heartbeat_Variant_0_evicts 0 : 31039 1 : 59577 2 : 0 3 : 0 
Heartbeat_Variant_1_evicts 0 : 59597 1 : 0 2 : 0 3 : 0 
Heartbeat_Variant_2_evicts 0 : 0 1 : 0 2 : 0 3 : 0 
Heartbeat_Variant_3_evicts 0 : 0 1 : 0 2 : 0 3 : 0 
Heartbeat CPU 0 instructions: 90000000 cycles: 67878721 heartbeat IPC: 0.73655 cumulative IPC: 0.742196 (Simulation time: 0 hr 17 min 50 sec) 
Cycle: 70000000 FTQ IN: 7313199 FTQ occupancy: 3.6244 DECODE IN: 7313187 DECODE occupancy: 6.71668 ROB IN: 7313181 ROB occupancy: 57.2732 ROB OUT: 7313177
Cycle: 80000000 FTQ IN: 7389094 FTQ occupancy: 3.47646 DECODE IN: 7389110 DECODE occupancy: 6.39146 ROB IN: 7389113 ROB occupancy: 56.1131 ROB OUT: 7389116
Heartbeat_Variant_0 : 626 0.305664 per_variant_size: 0 626 0 0 0 0 0 0 0 
Heartbeat_Variant_1 : 1422 0.694336 per_variant_size: 0 140 1282 0 0 0 0 0 0 
Heartbeat_Variant_2 : 0 0 per_variant_size: 0 0 0 0 0 0 0 0 0 
Heartbeat_Variant_3 : 0 0 per_variant_size: 0 0 0 0 0 0 0 0 0 
Heartbeat_Variant_0_evicts 0 : 31236 1 : 60513 2 : 0 3 : 0 
Heartbeat_Variant_1_evicts 0 : 60484 1 : 0 2 : 0 3 : 0 
Heartbeat_Variant_2_evicts 0 : 0 1 : 0 2 : 0 3 : 0 
Heartbeat_Variant_3_evicts 0 : 0 1 : 0 2 : 0 3 : 0 
Heartbeat CPU 0 instructions: 100000000 cycles: 81430525 heartbeat IPC: 0.737909 cumulative IPC: 0.741335 (Simulation time: 0 hr 19 min 25 sec) 
Finished CPU 0 instructions: 50000001 cycles: 67445901 cumulative IPC: 0.741335 (Simulation time: 0 hr 19 min 25 sec) 

ChampSim completed all CPUs

Region of Interest Statistics

CPU 0 cumulative IPC: 0.741335 instructions: 50000001 cycles: 67445901
 Fetch stage stalled: 82.1753  Sim cycles: 67445901 fetch stall cycle: 55423893
 Empty decode stage: 67.6304  Sim cycles: 67445901 fetch stall cycle: 45613923
ITLB TOTAL     ACCESS:    5659785  HIT:    5166123  MISS:     493662  HIT %:    91.2777  MISS %:    8.72227   MPKI: 9.87324
ITLB LOAD TRANSLATION INSTRUCTION	ACCESS:    5585172  HIT:    5091510  MISS:     493662  HIT %:    91.1612  MISS %:     8.8388  MPKI: 9.87324
ITLB TRANSLATION FROM L1D PREFETCHER INSTRUCTION	ACCESS:      74613  HIT:      74613  MISS:          0  HIT %:        100  MISS %:          0  MPKI: 0

ITLB AVERAGE MISS LATENCY: 9.03515 cycles
ITLB RQ	ACCESS:    7132600	FORWARD:          0	MERGED:    1038852	TO_CACHE:    6093748

DTLB TOTAL     ACCESS:   10070200  HIT:    9591608  MISS:     478592  HIT %:    95.2474  MISS %:    4.75256   MPKI: 9.57184
DTLB LOAD TRANSLATION DATA	ACCESS:   10070200  HIT:    9591608  MISS:     478592  HIT %:    95.2474  MISS %:    4.75256  MPKI: 9.57184

DTLB AVERAGE MISS LATENCY: 9.29173 cycles
DTLB RQ	ACCESS:   14141478	FORWARD:          0	MERGED:    4043800	TO_CACHE:   10097678

STLB TOTAL     ACCESS:    1222621  HIT:    1220636  MISS:       1985  HIT %:    99.8376  MISS %:   0.162356   MPKI: 0.0397
STLB LOAD TRANSLATION INSTRUCTION	ACCESS:     493662  HIT:     493415  MISS:        247  HIT %:      99.95  MISS %:  0.0500342  MPKI: 0.00494
STLB LOAD TRANSLATION DATA	ACCESS:     478251  HIT:     476529  MISS:       1722  HIT %:    99.6399  MISS %:   0.360062  MPKI: 0.03444
STLB TRANSLATION FROM L1D PREFETCHER DATA	ACCESS:     250708  HIT:     250692  MISS:         16  HIT %:    99.9936  MISS %: 0.00638193  MPKI: 0.00032

STLB AVERAGE MISS LATENCY: 69.9053 cycles
STLB RQ	ACCESS:    1346573	FORWARD:          0	MERGED:     123900	TO_CACHE:    1222673

STLB Hit, L1D data hit: 0
STLB Hit, L2C data hit: 0
STLB Hit, LLC data hit: 0
STLB Hit, LLC data miss: 0
STLB STLB hints to L2: 0
L1D TOTAL     ACCESS:   13942527  HIT:   12828816  MISS:    1113711  HIT %:    92.0121  MISS %:    7.98787   MPKI: 22.2742
L1D LOAD DATA	ACCESS:    7306757  HIT:    6572744  MISS:     734013  HIT %:    89.9543  MISS %:    10.0457  MPKI: 14.6803
L1D RFO DATA	ACCESS:    6302190  HIT:    6015571  MISS:     286619  HIT %:    95.4521  MISS %:    4.54793  MPKI: 5.73238
L1D PREFETCH DATA	ACCESS:     333580  HIT:     240501  MISS:      93079  HIT %:    72.0969  MISS %:    27.9031  MPKI: 1.86158

L1D PREFETCH  REQUESTED:     748791  ISSUED:     748791  USEFUL:      32727  USELESS:      68583
L1D USEFUL LOAD PREFETCHES:      32727 PREFETCH ISSUED TO LOWER LEVEL:     101373  ACCURACY: 32.2837
 TIMELY PREFETCHES:      32727 LATE PREFETCHES: 8250 DROPPED PREFETCHES: 5
L1D AVERAGE MISS LATENCY: 361391 cycles
L1D RQ	ACCESS:   11274590	FORWARD:          0	MERGED:    3778415	TO_CACHE:    7333521
L1D WQ	ACCESS:    6943836	FORWARD:     162807	MERGED:     135879	TO_CACHE:    6807957
L1D PQ	ACCESS:     374472	FORWARD:          0	MERGED:          0	TO_CACHE:     374319

L1D UNIQUE REGIONS ACCESSED: 0
L1D REGIONS CONFLICTS: 0
L1D Cross Page Prefetch Requests: 6943
L1D Same Page Prefetch Requests: 752707
L1D ROI Sum of L1D PQ occupancy: 4749710
L1D PREFETCHES PUSHED FROM L2C: 0
L1I TOTAL     ACCESS:    6993877  HIT:    4230500  MISS:    2763377  HIT %:    60.4886  MISS %:    39.5114   MPKI: 55.2675
L1I LOAD INSTRUCTION	ACCESS:    6679574  HIT:    3916197  MISS:    2763377  HIT %:    58.6294  MISS %:    41.3706  MPKI: 55.2675
L1I PREFETCH INSTRUCTION	ACCESS:     314303  HIT:     314303  MISS:          0  HIT %:        100  MISS %:          0  MPKI: 0

L1I PREFETCH  REQUESTED:     549625  ISSUED:     549625  USEFUL:          0  USELESS:          0
L1I USEFUL LOAD PREFETCHES:          0 PREFETCH ISSUED TO LOWER LEVEL:          0  ACCURACY: -nan
 TIMELY PREFETCHES:          0 LATE PREFETCHES: 0 DROPPED PREFETCHES: 0
L1I AVERAGE MISS LATENCY: 17.2461 cycles
L1I RQ	ACCESS:    9448286	FORWARD:          0	MERGED:    2691020	TO_CACHE:    6757266
L1I PQ	ACCESS:     549625	FORWARD:          0	MERGED:     174291	TO_CACHE:     375334

L1BTB TOTAL     ACCESS:    5671773  HIT:    2043566  MISS:    3628207  HIT %:    36.0305  MISS %:    63.9695   MPKI: 72.5641
L1BTB BRANCH_DIRECT_JUMP	ACCESS:     548745 HIT:     144631 MISS:     404114 AVERAGE STALL: 27.9821 AVERAGE FETCH STALL: 18.9712 AVERAGE FETCH QUEUE STALL: 3.00448 AVERAGE DECODE STALL: 5.15909 AVERAGE EXECUTE STALL: 1.10301e+14
L1BTB BRANCH_INDIRECT	ACCESS:     183366 HIT:      66353 MISS:     117013 AVERAGE STALL: 69.7201 AVERAGE FETCH STALL: 16.4926 AVERAGE FETCH QUEUE STALL: 3.75224 AVERAGE DECODE STALL: 5.11831 AVERAGE EXECUTE STALL: 43.413
L1BTB BRANCH_CONDITIONAL	ACCESS:    2710445 HIT:    1417515 MISS:    1292930 AVERAGE STALL: 28.4698 AVERAGE FETCH STALL: 20.0134 AVERAGE FETCH QUEUE STALL: 2.61008 AVERAGE DECODE STALL: 5.10043 AVERAGE EXECUTE STALL: 3.61319e+13
L1BTB BRANCH_DIRECT_CALL	ACCESS:     943396 HIT:     104638 MISS:     838758 AVERAGE STALL: 29.7006 AVERAGE FETCH STALL: 20.9517 AVERAGE FETCH QUEUE STALL: 2.77721 AVERAGE DECODE STALL: 5.21619 AVERAGE EXECUTE STALL: 3.99105e+13
L1BTB BRANCH_INDIRECT_CALL	ACCESS:     171214 HIT:      20834 MISS:     150380 AVERAGE STALL: 88.8891 AVERAGE FETCH STALL: 19.1122 AVERAGE FETCH QUEUE STALL: 2.722 AVERAGE DECODE STALL: 5.29034 AVERAGE EXECUTE STALL: 61.2043
L1BTB BRANCH_RETURN	ACCESS:    1114607 HIT:     289595 MISS:     825012 AVERAGE STALL: 28.8481 AVERAGE FETCH STALL: 18.3987 AVERAGE FETCH QUEUE STALL: 2.89117 AVERAGE DECODE STALL: 5.26148 AVERAGE EXECUTE STALL: 6.21058e+13
L1BTB BRANCH_OTHER ACCESS:          0 HIT:          0 MISS:          0 AVERAGE STALL: -nan AVERAGE FETCH STALL: -nan AVERAGE FETCH QUEUE STALL: -nan AVERAGE DECODE STALL: -nan AVERAGE EXECUTE STALL: -nan
L1BTB TOTAL ROB OCCUPANCY AT BTB MISS: 20.3497

L2BTB TOTAL     ACCESS:    3602750  HIT:    2066062  MISS:    1536688  HIT %:    57.3468  MISS %:    42.6532   MPKI: 30.7338
L2BTB BRANCH_DIRECT_JUMP	ACCESS:     399926 HIT:     236862 MISS:     163064 AVERAGE STALL: 27.9821 AVERAGE FETCH STALL: 18.9712 AVERAGE FETCH QUEUE STALL: 3.00448 AVERAGE DECODE STALL: 5.15909 AVERAGE EXECUTE STALL: 1.10301e+14
L2BTB BRANCH_INDIRECT	ACCESS:     106714 HIT:      82705 MISS:      24009 AVERAGE STALL: 69.7201 AVERAGE FETCH STALL: 16.4926 AVERAGE FETCH QUEUE STALL: 3.75224 AVERAGE DECODE STALL: 5.11831 AVERAGE EXECUTE STALL: 43.413
L2BTB BRANCH_CONDITIONAL	ACCESS:    1292930 HIT:     780066 MISS:     512864 AVERAGE STALL: 28.4698 AVERAGE FETCH STALL: 20.0134 AVERAGE FETCH QUEUE STALL: 2.61008 AVERAGE DECODE STALL: 5.10043 AVERAGE EXECUTE STALL: 3.61319e+13
L2BTB BRANCH_DIRECT_CALL	ACCESS:     838758 HIT:     376490 MISS:     462268 AVERAGE STALL: 29.7006 AVERAGE FETCH STALL: 20.9517 AVERAGE FETCH QUEUE STALL: 2.77721 AVERAGE DECODE STALL: 5.21619 AVERAGE EXECUTE STALL: 3.99105e+13
L2BTB BRANCH_INDIRECT_CALL	ACCESS:     140807 HIT:      61997 MISS:      78810 AVERAGE STALL: 88.8891 AVERAGE FETCH STALL: 19.1122 AVERAGE FETCH QUEUE STALL: 2.722 AVERAGE DECODE STALL: 5.29034 AVERAGE EXECUTE STALL: 61.2043
L2BTB BRANCH_RETURN	ACCESS:     823615 HIT:     527942 MISS:     295673 AVERAGE STALL: 28.8481 AVERAGE FETCH STALL: 18.3987 AVERAGE FETCH QUEUE STALL: 2.89117 AVERAGE DECODE STALL: 5.26148 AVERAGE EXECUTE STALL: 6.21058e+13
L2BTB BRANCH_OTHER ACCESS:          0 HIT:          0 MISS:          0 AVERAGE STALL: -nan AVERAGE FETCH STALL: -nan AVERAGE FETCH QUEUE STALL: -nan AVERAGE DECODE STALL: -nan AVERAGE EXECUTE STALL: -nan
L2BTB TOTAL ROB OCCUPANCY AT BTB MISS: 48.0468

L2C TOTAL     ACCESS:    4489964  HIT:    3987999  MISS:     501965  HIT %:    88.8203  MISS %:    11.1797   MPKI: 10.0393
L2C LOAD INSTRUCTION	ACCESS:    2763377  HIT:    2497510  MISS:     265867  HIT %:    90.3789  MISS %:    9.62109  MPKI: 5.31734
L2C LOAD TRANSLATION INSTRUCTION	ACCESS:        277  HIT:         93  MISS:        184  HIT %:     33.574  MISS %:     66.426  MPKI: 0.00368
L2C LOAD DATA	ACCESS:     725730  HIT:     642742  MISS:      82988  HIT %:    88.5649  MISS %:    11.4351  MPKI: 1.65976
L2C RFO DATA	ACCESS:     286570  HIT:     230231  MISS:      56339  HIT %:    80.3402  MISS %:    19.6598  MPKI: 1.12678
L2C PREFETCH DATA	ACCESS:     191818  HIT:     115700  MISS:      76118  HIT %:    60.3176  MISS %:    39.6824  MPKI: 1.52236
L2C WRITEBACK DATA	ACCESS:     520370  HIT:     501279  MISS:      19091  HIT %:    96.3313  MISS %:    3.66874  MPKI: 0.38182
L2C LOAD TRANSLATION DATA	ACCESS:       1795  HIT:        422  MISS:       1373  HIT %:    23.5097  MISS %:    76.4903  MPKI: 0.02746
L2C TRANSLATION FROM L1D PREFETCHER DATA	ACCESS:         27  HIT:         22  MISS:          5  HIT %:    81.4815  MISS %:    18.5185  MPKI: 0.0001

L2C PREFETCH  REQUESTED:      97551  ISSUED:      97551  USEFUL:       8776  USELESS:      67895
L2C USEFUL LOAD PREFETCHES:       8776 PREFETCH ISSUED TO LOWER LEVEL:      76696  ACCURACY: 11.4426
 TIMELY PREFETCHES:       8776 LATE PREFETCHES: 578 DROPPED PREFETCHES: 0
L2C AVERAGE MISS LATENCY: 37.4058 cycles
L2C RQ	ACCESS:    3777815	FORWARD:          0	MERGED:          0	TO_CACHE:    3777779
L2C WQ	ACCESS:     520370	FORWARD:         36	MERGED:          0	TO_CACHE:     520370
L2C PQ	ACCESS:     198924	FORWARD:          0	MERGED:       3129	TO_CACHE:     195795

L2C Dense regions hint from L2: 0
PSCL5 TOTAL     ACCESS:       3984  HIT:       1992  MISS:       1992  HIT %:         50  MISS %:         50   MPKI: 0.03984
PSCL5 LOAD TRANSLATION INSTRUCTION	ACCESS:       3930  HIT:       1965  MISS:       1965  HIT %:         50  MISS %:         50  MPKI: 0.0393
PSCL5 TRANSLATION FROM L1D PREFETCHER INSTRUCTION	ACCESS:         54  HIT:         27  MISS:         27  HIT %:         50  MISS %:         50  MPKI: 0.00054


PSCL4 TOTAL     ACCESS:       3767  HIT:       1879  MISS:       1888  HIT %:    49.8805  MISS %:    50.1195   MPKI: 0.03776
PSCL4 LOAD TRANSLATION INSTRUCTION	ACCESS:       2335  HIT:       1852  MISS:        483  HIT %:    79.3148  MISS %:    20.6852  MPKI: 0.00966
PSCL4 TRANSLATION FROM L1D PREFETCHER INSTRUCTION	ACCESS:         37  HIT:         27  MISS:         10  HIT %:     72.973  MISS %:     27.027  MPKI: 0.0002
PSCL4 LOAD TRANSLATION DATA	ACCESS:       1378  HIT:          0  MISS:       1378  HIT %:          0  MISS %:        100  MPKI: 0.02756
PSCL4 TRANSLATION FROM L1D PREFETCHER DATA	ACCESS:         17  HIT:          0  MISS:         17  HIT %:          0  MISS %:        100  MPKI: 0.00034


PSCL3 TOTAL     ACCESS:       3845  HIT:       1918  MISS:       1927  HIT %:     49.883  MISS %:     50.117   MPKI: 0.03854
PSCL3 LOAD TRANSLATION INSTRUCTION	ACCESS:       2374  HIT:       1891  MISS:        483  HIT %:    79.6546  MISS %:    20.3454  MPKI: 0.00966
PSCL3 TRANSLATION FROM L1D PREFETCHER INSTRUCTION	ACCESS:         37  HIT:         27  MISS:         10  HIT %:     72.973  MISS %:     27.027  MPKI: 0.0002
PSCL3 LOAD TRANSLATION DATA	ACCESS:       1417  HIT:          0  MISS:       1417  HIT %:          0  MISS %:        100  MPKI: 0.02834
PSCL3 TRANSLATION FROM L1D PREFETCHER DATA	ACCESS:         17  HIT:          0  MISS:         17  HIT %:          0  MISS %:        100  MPKI: 0.00034


PSCL2 TOTAL     ACCESS:       3895  HIT:       1903  MISS:       1992  HIT %:    48.8575  MISS %:    51.1425   MPKI: 0.03984
PSCL2 LOAD TRANSLATION INSTRUCTION	ACCESS:       2122  HIT:       1876  MISS:        246  HIT %:    88.4072  MISS %:    11.5928  MPKI: 0.00492
PSCL2 TRANSLATION FROM L1D PREFETCHER INSTRUCTION	ACCESS:         27  HIT:         27  MISS:          0  HIT %:        100  MISS %:          0  MPKI: 0
PSCL2 LOAD TRANSLATION DATA	ACCESS:       1719  HIT:          0  MISS:       1719  HIT %:          0  MISS %:        100  MPKI: 0.03438
PSCL2 TRANSLATION FROM L1D PREFETCHER DATA	ACCESS:         27  HIT:          0  MISS:         27  HIT %:          0  MISS %:        100  MPKI: 0.00054


LLC TOTAL     ACCESS:     565433  HIT:     538090  MISS:      27343  HIT %:    95.1642  MISS %:    4.83576   MPKI: 0.54686
LLC LOAD INSTRUCTION	ACCESS:     265867  HIT:     265057  MISS:        810  HIT %:    99.6953  MISS %:   0.304664  MPKI: 0.0162
LLC LOAD TRANSLATION INSTRUCTION	ACCESS:        184  HIT:        150  MISS:         34  HIT %:    81.5217  MISS %:    18.4783  MPKI: 0.00068
LLC LOAD DATA	ACCESS:      82436  HIT:      79167  MISS:       3269  HIT %:    96.0345  MISS %:     3.9655  MPKI: 0.06538
LLC RFO DATA	ACCESS:      56310  HIT:      42961  MISS:      13349  HIT %:    76.2937  MISS %:    23.7063  MPKI: 0.26698
LLC PREFETCH DATA	ACCESS:      76696  HIT:      67210  MISS:       9486  HIT %:    87.6317  MISS %:    12.3683  MPKI: 0.18972
LLC WRITEBACK DATA	ACCESS:      82562  HIT:      82244  MISS:        318  HIT %:    99.6148  MISS %:   0.385165  MPKI: 0.00636
LLC LOAD TRANSLATION DATA	ACCESS:       1373  HIT:       1296  MISS:         77  HIT %:    94.3918  MISS %:    5.60816  MPKI: 0.00154
LLC TRANSLATION FROM L1D PREFETCHER DATA	ACCESS:          5  HIT:          5  MISS:          0  HIT %:        100  MISS %:          0  MPKI: 0

LLC AVERAGE MISS LATENCY: 155.472 cycles
LLC RQ	ACCESS:     406178	FORWARD:          0	MERGED:          0	TO_CACHE:     406175
LLC WQ	ACCESS:      82562	FORWARD:          3	MERGED:          0	TO_CACHE:      82562
LLC PQ	ACCESS:      76696	FORWARD:          0	MERGED:          0	TO_CACHE:      76696

LLC Dense regions hint to LLC: 0

RAW hits: 1358212
Loads Generated: 12632803
Loads sent to L1D: 11274590
Stores Generated: 6943830
Stores sent to L1D: 6943836
Major fault: 0 Minor fault: 2545
Allocated PAGES: 2545

stream: 
stream:times selected: 1185333
stream:pref_filled: 121028
stream:pref_useful: 23420
stream:pref_late: 7030
stream:misses: 8217
stream:misses_by_poll: 0

CS: 
CS:times selected: 177822
CS:pref_filled: 60577
CS:pref_useful: 36626
CS:pref_late: 7387
CS:misses: 16218
CS:misses_by_poll: 1

CPLX: 
CPLX:times selected: 1006382
CPLX:pref_filled: 19830
CPLX:pref_useful: 4618
CPLX:pref_late: 3263
CPLX:misses: 93864
CPLX:misses_by_poll: 1

NL_L1: 
NL:times selected: 20424
NL:pref_filled: 696
NL:pref_useful: 280
NL:pref_late: 387
NL:misses: 1741
NL:misses_by_poll: 0

total selections: 2389961
total_filled: 93079
total_useful: 32727
total_late: 19217
total_polluted: 2
total_misses_after_warmup: 760776
conflicts: 5885559

test: 116250

DRAM Statistics
 CHANNEL 0
 RQ ROW_BUFFER_HIT:       9897  ROW_BUFFER_MISS:      17119
 DBUS_CONGESTED:         11
 WQ ROW_BUFFER_HIT:       1284  ROW_BUFFER_MISS:      11957  FULL:          0

 AVG_CONGESTED_CYCLE: 4

CPU 0 Branch Prediction Accuracy: 99.8223% MPKI: 0.32502 Average ROB Occupancy at Mispredict: 98.8903
Branch types
NOT_BRANCH: 40852689 81.7054%
BRANCH_DIRECT_JUMP: 548745 1.09749%
BRANCH_INDIRECT: 183366 0.366732%
BRANCH_CONDITIONAL: 6185514 12.371%
BRANCH_DIRECT_CALL: 943396 1.88679%
BRANCH_INDIRECT_CALL: 171214 0.342428%
BRANCH_RETURN: 1114607 2.22921%
BRANCH_OTHER: 0 0%

DRAM PAGES: 1048576
Allocated PAGES: 2545
Average_ROB_Occupancy: 57.408
Average_Decode_Occupancy: 6.48641
Average_FTQ_Occupancy: 3.52443
Indirect max targets: 14 Average targets: 1.14527
Branch_type:  BRANCH_DIRECT_JUMP:  Count Percentage: 2.51394 6.07074 4.03621 9.36069 1.69652 6.29143 0.26767 69.7628 
Branch_type:  BRANCH_INDIRECT:  Count Percentage: 14.4773 0.804522 2.54797 0 1.33613 9.66983 2.27151 68.8927 
Branch_type:  BRANCH_CONDITIONAL:  Count Percentage: 21.2994 2.511 1.75294 5.52862 1.27799 9.50554 3.57492 54.5496 
Branch_type:  BRANCH_DIRECT_CALL:  Count Percentage: 0.769917 1.30846 1.28201 4.55414 2.1969 2.67661 0.569341 86.6426 
Branch_type:  BRANCH_INDIRECT_CALL:  Count Percentage: 9.55435 0 2.99454 8.70743 0 2.3401 1.28496 75.1186 
Branch_type:  BRANCH_RETURN:  Count Percentage: 4.90626 0.785382 1.16408 6.19804 2.06156 9.62936 4.27705 70.9783 
Branch_type:  BRANCH_DIRECT_JUMP:  Total Count: 27556 66543 44242 102605 18596 68962 2934 764688 
Branch_type:  BRANCH_INDIRECT:  Total Count: 52995 2945 9327 0 4891 35397 8315 252186 
Branch_type:  BRANCH_CONDITIONAL:  Total Count: 2632511 310349 216656 683313 157954 1174843 441844 6742096 
Branch_type:  BRANCH_DIRECT_CALL:  Total Count: 14525 24685 24186 85917 41446 50496 10741 1634572 
Branch_type:  BRANCH_INDIRECT_CALL:  Total Count: 32761 0 10268 29857 0 8024 4406 257575 
Branch_type:  BRANCH_RETURN:  Total Count: 109422 17516 25962 138232 45978 214759 95389 1582995 
Number of unique branch instructions: 9824
Upper 32 bits: 
aaaa
ffff
ffff0000
Unique upper 32 bits: 3
Unique upper 36 bits: 3
Unique upper 40 bits: 5
Unique upper 44 bits: 32
Unique upper 48 bits: 154
Variant_0 : 626 0.305664
Variant_1 : 1422 0.694336
Variant_2 : 0 0
Variant_3 : 0 0
Offset_3 4037
Offset_4 247
Offset_5 449
Offset_6 502
Offset_7 576
Offset_8 508
Offset_9 465
Offset_10 376
Offset_11 303
Offset_12 269
Offset_13 203
Offset_14 227
Offset_15 185
Offset_16 222
Offset_17 146
Offset_18 118
Offset_19 236
Offset_20 136
Offset_21 235
Offset_22 392
Offset_23 241
Offset_24 332
Offset_25 88
Offset_47 82
decode_dispatch_called: 20169577 29.9048
Dispatch_width: 0 9783107 48.5043 14.5051
Dispatch_width: 1 638533 3.16582 0.946734
Dispatch_width: 2 929236 4.60712 1.37775
Dispatch_width: 3 634817 3.1474 0.941224
Dispatch_width: 4 1517211 7.52227 2.24952
Dispatch_width: 5 470662 2.33352 0.697836
Dispatch_width: 6 6196011 30.7196 9.18664
Empty_decode_cycles: 47276324 70.0952
ROB_full_cycles: 1223327 1.81379
Starvation_cycles_per_kilo_instr: 600.266
Starvation_cycles_per_kilo_instr_3: 580.387
Starvation_cycles_per_kilo_instr_0: 558.361
Branch_type_1  (3,1)  (4,9)  (5,37)  (6,70)  (7,114)  (8,127)  (9,122)  (10,97)  (11,67)  (12,43)  (13,5)  (14,2)  (15,3)  (16,4)  (18,1)  (19,4)  (20,2)  (21,1)  (22,3)  (23,2)  (24,10)  (25,12) 
Branch_type_2  (3,1)  (5,1)  (8,3)  (9,3)  (12,1)  (13,1)  (14,1)  (16,3)  (17,2)  (20,2)  (21,2)  (23,5)  (24,1)  (47,38) 
Branch_type_3  (3,4035)  (4,238)  (5,407)  (6,417)  (7,433)  (8,319)  (9,257)  (10,153)  (11,120)  (12,50)  (13,4) 
Branch_type_4  (6,3)  (7,8)  (8,25)  (9,51)  (10,60)  (11,59)  (12,96)  (13,88)  (14,100)  (15,87)  (16,99)  (17,65)  (18,53)  (19,115)  (20,71)  (21,124)  (22,208)  (23,136)  (24,193)  (25,72) 
Branch_type_5  (8,2)  (9,1)  (10,3)  (11,5)  (12,3)  (13,14)  (14,16)  (15,11)  (16,20)  (17,11)  (18,16)  (19,12)  (20,10)  (21,13)  (22,42)  (23,26)  (24,37) 
Branch_type_6  (5,4)  (6,12)  (7,21)  (8,32)  (9,31)  (10,63)  (11,52)  (12,76)  (13,91)  (14,108)  (15,84)  (16,96)  (17,68)  (18,48)  (19,105)  (20,51)  (21,95)  (22,139)  (23,72)  (24,91)  (25,4)  (47,44) 
Unique trigger count: 
Variant_0_evicts_0 : 0
Variant_0_evicts_1 : 0
Variant_0_evicts_2 : 0
Variant_0_evicts_3 : 0
Variant_1_evicts_0 : 0
Variant_1_evicts_1 : 0
Variant_1_evicts_2 : 0
Variant_1_evicts_3 : 0
Variant_2_evicts_0 : 0
Variant_2_evicts_1 : 0
Variant_2_evicts_2 : 0
Variant_2_evicts_3 : 0
Variant_3_evicts_0 : 0
Variant_3_evicts_1 : 0
Variant_3_evicts_2 : 0
Variant_3_evicts_3 : 0
BTB PER SET UNIQUE ADDR: 45 46 49 50 49 40 48 40 39 43 56 43 41 47 42 36 38 39 45 46 50 53 33 39 47 37 56 49 46 38 47 45 44 37 46 44 46 36 43 45 45 42 38 50 38 51 48 34 38 37 57 49 48 45 49 52 43 48 45 38 51 46 45 55 48 54 46 46 48 36 46 58 47 47 60 44 43 38 45 50 50 32 50 33 37 53 52 53 62 51 52 39 57 43 49 54 42 51 57 54 56 52 45 45 45 45 47 40 49 39 48 42 49 57 36 54 52 34 46 52 59 46 48 59 48 50 57 47 54 48 58 41 50 42 44 45 46 52 44 55 45 39 44 47 47 52 48 46 40 37 53 44 51 49 51 42 41 32 50 51 49 41 43 46 45 52 52 44 40 36 41 39 46 41 56 56 57 48 47 55 38 50 43 39 42 46 49 45 45 46 45 41 39 39 51 47 56 46 46 47 54 42 54 42 38 38 55 45 43 46 47 44 49 46 34 60 46 35 42 35 40 41 49 41 45 41 47 47 53 46 31 44 62 55 42 40 39 40 47 42 40 57 56 46 41 62 37 45 47 36 49 39 56 39 51 29 51 49 46 45 51 44 50 48 43 38 48 47 53 54 41 40 53 44 55 49 47 41 41 45 50 38 45 57 43 39 26 50 42 50 61 42 36 44 40 50 45 49 50 44 53 41 54 47 48 49 48 42 39 44 41 44 31 48 42 49 41 45 42 46 37 45 44 51 48 67 55 65 41 61 50 40 52 43 58 39 40 56 53 51 51 41 46 43 49 44 51 53 40 45 48 50 45 57 55 49 46 58 47 45 44 31 40 40 51 50 35 44 44 47 60 47 46 50 55 42 48 46 39 40 49 55 55 44 43 45 49 49 37 52 53 55 53 48 51 38 38 43 62 53 37 45 46 42 49 54 48 46 40 42 45 39 53 39 54 50 50 44 54 54 50 56 54 55 58 38 46 53 56 47 46 56 48 42 48 50 51 52 52 57 51 44 51 42 38 51 41 45 49 49 52 39 49 51 43 61 61 38 39 39 36 42 58 46 67 32 54 46 56 59 49 50 38 48 48 41 37 38 48 52 45 53 50 64 43 41 52 47 54 39 41 40 42 42 44 46 38 40 36 28 46 47 52 35 43 52 60 38 52 55 43 43 
BTB PER SET COUNT: 5266 5275 5730 7506 5982 5198 6926 5041 3861 5981 8870 5146 4975 5804 5841 3786 3920 5719 6100 4960 5715 6195 3512 4211 6569 5815 7825 7204 6153 4528 6158 5647 5996 8128 5724 5596 5402 3428 5403 6570 6377 5359 5478 6688 4801 7063 6510 4190 4999 4850 7584 6173 5656 4874 5673 7094 4188 6850 6444 3477 6763 5461 4985 7462 6382 6961 6213 6444 7686 3194 4990 6930 5470 4716 6171 6490 5460 4781 6657 7233 6920 3626 5526 3977 4791 6901 7010 7651 7687 6749 6005 4725 7888 5129 5677 7556 4242 6368 7756 7976 7347 8083 6307 6966 5060 5175 6786 4870 5336 5998 6566 6039 6205 7589 4601 7068 7316 4200 6262 7515 6437 5650 7564 11161 6928 7408 7175 5771 7104 7135 8553 9119 7333 4518 5925 7049 5816 6311 4906 7754 6628 5807 5786 5982 6295 7366 6872 6602 5014 3975 7755 5120 5806 5420 6944 4566 5958 3362 6162 7662 5760 3814 4872 10256 4892 8190 8260 6389 3633 4299 4932 3492 6024 4477 8080 7386 7096 6309 6805 6766 5082 6743 5333 4667 5933 5294 6308 6542 6268 6378 7451 4985 5113 4955 7284 6360 8174 5296 6084 4873 7549 4229 8826 5262 4251 4478 7811 6135 4869 6018 6450 4571 7336 5437 4535 8008 5365 5837 4298 4021 5334 6040 6806 4851 6539 5195 6231 5808 8179 6217 4378 5557 8448 6593 5379 5335 4698 5206 7159 5230 4472 8180 6091 6503 5030 9325 4010 5785 7312 5361 5880 4142 7142 4042 6607 3031 7947 6680 5876 6156 7192 6257 6206 6672 5785 5292 6533 5706 7570 7969 5318 4472 7133 5843 7492 5956 5747 5020 5703 6641 5575 4063 5583 8825 5474 4452 2405 6914 5571 5806 7424 6082 3873 5565 4253 7153 6201 6463 6931 6312 7183 5077 6156 5639 5659 6255 12976 3785 5328 5541 5787 7284 4565 6631 4930 7035 4871 5013 5574 6062 4348 5559 5730 11915 4878 10013 9122 10077 4222 7441 6430 4755 6269 5592 8838 5472 5164 7481 8355 5754 7767 5125 5864 5632 6873 6013 6970 7223 5261 6369 6931 5741 5097 9711 8584 5681 5932 8713 7036 5842 5087 3949 4992 4424 7712 6581 5502 6030 5403 6706 9215 6611 6038 5804 7369 4388 7519 5263 5017 4318 6855 7332 6865 6364 4976 5439 6302 7706 3951 6667 6583 6514 5581 5247 6379 5292 5300 5000 7499 7046 3917 5603 5539 4368 6030 6781 6254 5959 4679 5471 5791 4059 6251 3557 7227 5665 5580 6251 7738 7668 6120 7471 7033 10811 7526 4134 5033 6299 7865 5543 10983 7822 6333 5865 6586 5897 6511 6474 7220 7240 5887 6466 5647 5599 5983 7036 5328 5736 6926 7095 6566 4844 7387 6704 4920 7664 8560 5124 4778 4329 4422 5529 7085 5813 13397 3178 7592 6709 7025 8346 6437 6603 3848 6221 6360 8209 6036 4413 5599 6450 7607 6657 6765 9538 4722 5472 6650 5241 7522 4737 5266 4106 4875 5303 5185 6391 4778 4772 4044 3168 5605 5107 5813 3722 5723 6678 7594 4616 7232 6308 6194 6545 
To predecode: 0
Predecoding something: 0
Predecode request dropped: 0
sizeofblock_0 0
sizeofblock_1 627586
sizeofblock_2 1592519
sizeofblock_3 0
sizeofblock_4 0
sizeofblock_5 0
sizeofblock_6 0
sizeofblock_7 0
sizeofblock_8 0
Variant_0 Correct: 749131 Incorrect: 0 Accuracy: 1
Variant_1 Correct: 3571356 Incorrect: 0 Accuracy: 1
Variant_2 Correct: 0 Incorrect: 0 Accuracy: -nan
Variant_3 Correct: 0 Incorrect: 0 Accuracy: -nan
