
*** ChampSim Multicore Out-of-Order Simulator ***

Warmup Instructions: 50000000
Simulation Instructions: 50000000
Number of CPUs: 1
LLC sets: 2048
LLC ways: 16
Off-chip DRAM Size: 4096 MB Channels: 1 Width: 64-bit Data Rate: 6400 MT/s
CPU 0 runs ./micro_traces/srv344.trace.gz
.gz
ITLB has LRU replacement policy
DTLB has LRU replacement policy
STLB has LRU replacement policy
FDIP Prefetcher at L1I
L1I has LRU replacement policy
L1D has LRU replacement policy
Initialize SRRIP state for L2C
Initialize DRRIP state for LLC
Heartbeat_Variant_0 : 1068 0.347656 per_variant_size: 0 1068 0 0 0 0 0 0 0 
Heartbeat_Variant_1 : 980 0.31901 per_variant_size: 0 448 532 0 0 0 0 0 0 
Heartbeat_Variant_2 : 1015 0.330404 per_variant_size: 0 324 292 204 195 0 0 0 0 
Heartbeat_Variant_3 : 0 0 per_variant_size: 0 0 0 0 0 0 0 0 0 
Heartbeat_Variant_0_evicts 0 : 15253 1 : 9031 2 : 9350 3 : 0 
Heartbeat_Variant_1_evicts 0 : 9051 1 : 0 2 : 8406 3 : 0 
Heartbeat_Variant_2_evicts 0 : 9268 1 : 8398 2 : 0 3 : 0 
Heartbeat_Variant_3_evicts 0 : 0 1 : 0 2 : 0 3 : 0 
Heartbeat CPU 0 instructions: 10000001 cycles: 2795604 heartbeat IPC: 3.57704 cumulative IPC: 3.57704 (Simulation time: 0 hr 2 min 2 sec) 
Heartbeat_Variant_0 : 1075 0.349935 per_variant_size: 0 1075 0 0 0 0 0 0 0 
Heartbeat_Variant_1 : 944 0.307292 per_variant_size: 0 392 552 0 0 0 0 0 0 
Heartbeat_Variant_2 : 1046 0.340495 per_variant_size: 0 351 329 175 191 0 0 0 0 
Heartbeat_Variant_3 : 0 0 per_variant_size: 0 0 0 0 0 0 0 0 0 
Heartbeat_Variant_0_evicts 0 : 15496 1 : 8927 2 : 9237 3 : 0 
Heartbeat_Variant_1_evicts 0 : 8984 1 : 0 2 : 8314 3 : 0 
Heartbeat_Variant_2_evicts 0 : 9173 1 : 8408 2 : 0 3 : 0 
Heartbeat_Variant_3_evicts 0 : 0 1 : 0 2 : 0 3 : 0 
Heartbeat CPU 0 instructions: 20000001 cycles: 5591131 heartbeat IPC: 3.57714 cumulative IPC: 3.57709 (Simulation time: 0 hr 3 min 58 sec) 
Heartbeat_Variant_0 : 1065 0.34668 per_variant_size: 0 1065 0 0 0 0 0 0 0 
Heartbeat_Variant_1 : 955 0.310872 per_variant_size: 0 406 549 0 0 0 0 0 0 
Heartbeat_Variant_2 : 1046 0.340495 per_variant_size: 0 372 267 198 209 0 0 0 0 
Heartbeat_Variant_3 : 0 0 per_variant_size: 0 0 0 0 0 0 0 0 0 
Heartbeat_Variant_0_evicts 0 : 15889 1 : 9365 2 : 9444 3 : 0 
Heartbeat_Variant_1_evicts 0 : 9407 1 : 0 2 : 8476 3 : 0 
Heartbeat_Variant_2_evicts 0 : 9412 1 : 8508 2 : 0 3 : 0 
Heartbeat_Variant_3_evicts 0 : 0 1 : 0 2 : 0 3 : 0 
Heartbeat CPU 0 instructions: 30000001 cycles: 8386312 heartbeat IPC: 3.57759 cumulative IPC: 3.57726 (Simulation time: 0 hr 5 min 59 sec) 
Heartbeat_Variant_0 : 1093 0.355794 per_variant_size: 0 1093 0 0 0 0 0 0 0 
Heartbeat_Variant_1 : 967 0.314779 per_variant_size: 0 410 557 0 0 0 0 0 0 
Heartbeat_Variant_2 : 1007 0.327799 per_variant_size: 0 320 279 200 208 0 0 0 0 
Heartbeat_Variant_3 : 0 0 per_variant_size: 0 0 0 0 0 0 0 0 0 
Heartbeat_Variant_0_evicts 0 : 15564 1 : 9251 2 : 9256 3 : 0 
Heartbeat_Variant_1_evicts 0 : 9285 1 : 0 2 : 8404 3 : 0 
Heartbeat_Variant_2_evicts 0 : 9194 1 : 8426 2 : 0 3 : 0 
Heartbeat_Variant_3_evicts 0 : 0 1 : 0 2 : 0 3 : 0 
Heartbeat CPU 0 instructions: 40000000 cycles: 11181605 heartbeat IPC: 3.57744 cumulative IPC: 3.5773 (Simulation time: 0 hr 7 min 54 sec) 
Heartbeat_Variant_0 : 1077 0.350586 per_variant_size: 0 1077 0 0 0 0 0 0 0 
Heartbeat_Variant_1 : 947 0.308268 per_variant_size: 0 401 546 0 0 0 0 0 0 
Heartbeat_Variant_2 : 1043 0.339518 per_variant_size: 0 378 264 207 194 0 0 0 0 
Heartbeat_Variant_3 : 0 0 per_variant_size: 0 0 0 0 0 0 0 0 0 
Heartbeat_Variant_0_evicts 0 : 15757 1 : 9506 2 : 9575 3 : 0 
Heartbeat_Variant_1_evicts 0 : 9469 1 : 0 2 : 8605 3 : 0 
Heartbeat_Variant_2_evicts 0 : 9628 1 : 8588 2 : 0 3 : 0 
Heartbeat_Variant_3_evicts 0 : 0 1 : 0 2 : 0 3 : 0 
Heartbeat CPU 0 instructions: 50000002 cycles: 13977570 heartbeat IPC: 3.57658 cumulative IPC: 3.57716 (Simulation time: 0 hr 9 min 49 sec) 

Warmup complete CPU 0 instructions: 50000002 cycles: 13977570 (Simulation time: 0 hr 9 min 49 sec) 

Cycle: 20000000 FTQ IN: 56394986 FTQ occupancy: 17.9809 DECODE IN: 56394977 DECODE occupancy: 45.9707 ROB IN: 56394977 ROB occupancy: 277.383 ROB OUT: 56394970
*** Reached end of trace for Core: 0 Repeating trace: ./micro_traces/srv344.trace.gz
Heartbeat_Variant_0 : 1069 0.347982 per_variant_size: 0 1069 0 0 0 0 0 0 0 
Heartbeat_Variant_1 : 957 0.311523 per_variant_size: 0 407 550 0 0 0 0 0 0 
Heartbeat_Variant_2 : 1042 0.339193 per_variant_size: 0 366 251 222 203 0 0 0 0 
Heartbeat_Variant_3 : 0 0 per_variant_size: 0 0 0 0 0 0 0 0 0 
Heartbeat_Variant_0_evicts 0 : 15077 1 : 8975 2 : 9100 3 : 0 
Heartbeat_Variant_1_evicts 0 : 8928 1 : 0 2 : 8161 3 : 0 
Heartbeat_Variant_2_evicts 0 : 9155 1 : 8104 2 : 0 3 : 0 
Heartbeat_Variant_3_evicts 0 : 0 1 : 0 2 : 0 3 : 0 
Heartbeat CPU 0 instructions: 60000000 cycles: 23256230 heartbeat IPC: 1.07774 cumulative IPC: 1.07774 (Simulation time: 0 hr 11 min 35 sec) 
Cycle: 30000000 FTQ IN: 11015657 FTQ occupancy: 6.29156 DECODE IN: 11015627 DECODE occupancy: 13.2835 ROB IN: 11015627 ROB occupancy: 112.666 ROB OUT: 11015505
Heartbeat_Variant_0 : 1066 0.347005 per_variant_size: 0 1066 0 0 0 0 0 0 0 
Heartbeat_Variant_1 : 984 0.320312 per_variant_size: 0 418 566 0 0 0 0 0 0 
Heartbeat_Variant_2 : 1018 0.33138 per_variant_size: 0 330 281 204 203 0 0 0 0 
Heartbeat_Variant_3 : 0 0 per_variant_size: 0 0 0 0 0 0 0 0 0 
Heartbeat_Variant_0_evicts 0 : 15540 1 : 9220 2 : 9175 3 : 0 
Heartbeat_Variant_1_evicts 0 : 9288 1 : 0 2 : 8193 3 : 0 
Heartbeat_Variant_2_evicts 0 : 9110 1 : 8234 2 : 0 3 : 0 
Heartbeat_Variant_3_evicts 0 : 0 1 : 0 2 : 0 3 : 0 
Heartbeat CPU 0 instructions: 70000003 cycles: 32352740 heartbeat IPC: 1.09932 cumulative IPC: 1.08843 (Simulation time: 0 hr 13 min 17 sec) 
Cycle: 40000000 FTQ IN: 10816336 FTQ occupancy: 6.35036 DECODE IN: 10816326 DECODE occupancy: 13.292 ROB IN: 10816321 ROB occupancy: 111.519 ROB OUT: 10816330
Heartbeat_Variant_0 : 1075 0.349935 per_variant_size: 0 1075 0 0 0 0 0 0 0 
Heartbeat_Variant_1 : 979 0.318685 per_variant_size: 0 399 580 0 0 0 0 0 0 
Heartbeat_Variant_2 : 1015 0.330404 per_variant_size: 0 321 276 210 208 0 0 0 0 
Heartbeat_Variant_3 : 0 0 per_variant_size: 0 0 0 0 0 0 0 0 0 
Heartbeat_Variant_0_evicts 0 : 15457 1 : 9061 2 : 9433 3 : 0 
Heartbeat_Variant_1_evicts 0 : 8970 1 : 0 2 : 8421 3 : 0 
Heartbeat_Variant_2_evicts 0 : 9515 1 : 8335 2 : 0 3 : 0 
Heartbeat_Variant_3_evicts 0 : 0 1 : 0 2 : 0 3 : 0 
Heartbeat CPU 0 instructions: 80000003 cycles: 41660778 heartbeat IPC: 1.07434 cumulative IPC: 1.08369 (Simulation time: 0 hr 15 min 15 sec) 
Cycle: 50000000 FTQ IN: 10835073 FTQ occupancy: 6.06163 DECODE IN: 10835093 DECODE occupancy: 12.59 ROB IN: 10835038 ROB occupancy: 107.334 ROB OUT: 10835081
Heartbeat_Variant_0 : 1080 0.351562 per_variant_size: 0 1080 0 0 0 0 0 0 0 
Heartbeat_Variant_1 : 963 0.313477 per_variant_size: 0 399 564 0 0 0 0 0 0 
Heartbeat_Variant_2 : 1026 0.333984 per_variant_size: 0 332 286 213 195 0 0 0 0 
Heartbeat_Variant_3 : 0 0 per_variant_size: 0 0 0 0 0 0 0 0 0 
Heartbeat_Variant_0_evicts 0 : 15721 1 : 9458 2 : 9526 3 : 0 
Heartbeat_Variant_1_evicts 0 : 9465 1 : 0 2 : 8544 3 : 0 
Heartbeat_Variant_2_evicts 0 : 9514 1 : 8567 2 : 0 3 : 0 
Heartbeat_Variant_3_evicts 0 : 0 1 : 0 2 : 0 3 : 0 
Heartbeat CPU 0 instructions: 90000003 cycles: 50855904 heartbeat IPC: 1.08753 cumulative IPC: 1.08465 (Simulation time: 0 hr 16 min 57 sec) 
Cycle: 60000000 FTQ IN: 10838394 FTQ occupancy: 6.35131 DECODE IN: 10838408 DECODE occupancy: 13.3982 ROB IN: 10838468 ROB occupancy: 111.745 ROB OUT: 10838545
Heartbeat_Variant_0 : 1092 0.355469 per_variant_size: 0 1092 0 0 0 0 0 0 0 
Heartbeat_Variant_1 : 947 0.308268 per_variant_size: 0 400 547 0 0 0 0 0 0 
Heartbeat_Variant_2 : 1030 0.335286 per_variant_size: 0 336 258 234 202 0 0 0 0 
Heartbeat_Variant_3 : 0 0 per_variant_size: 0 0 0 0 0 0 0 0 0 
Heartbeat_Variant_0_evicts 0 : 15190 1 : 9075 2 : 9070 3 : 0 
Heartbeat_Variant_1_evicts 0 : 9003 1 : 0 2 : 8393 3 : 0 
Heartbeat_Variant_2_evicts 0 : 9130 1 : 8337 2 : 0 3 : 0 
Heartbeat_Variant_3_evicts 0 : 0 1 : 0 2 : 0 3 : 0 
Heartbeat CPU 0 instructions: 100000000 cycles: 60091466 heartbeat IPC: 1.08277 cumulative IPC: 1.08427 (Simulation time: 0 hr 18 min 44 sec) 
Finished CPU 0 instructions: 50000002 cycles: 46113897 cumulative IPC: 1.08427 (Simulation time: 0 hr 18 min 44 sec) 

ChampSim completed all CPUs

Region of Interest Statistics

CPU 0 cumulative IPC: 1.08427 instructions: 50000002 cycles: 46113897
 Fetch stage stalled: 72.3738  Sim cycles: 46113897 fetch stall cycle: 33374372
 Empty decode stage: 64.5448  Sim cycles: 46113897 fetch stall cycle: 29764127
ITLB TOTAL     ACCESS:    5743218  HIT:    5255182  MISS:     488036  HIT %:    91.5024  MISS %:    8.49761   MPKI: 9.76072
ITLB LOAD TRANSLATION INSTRUCTION	ACCESS:    5639520  HIT:    5151484  MISS:     488036  HIT %:    91.3461  MISS %:    8.65386  MPKI: 9.76072
ITLB TRANSLATION FROM L1D PREFETCHER INSTRUCTION	ACCESS:     103698  HIT:     103698  MISS:          0  HIT %:        100  MISS %:          0  MPKI: 0

ITLB AVERAGE MISS LATENCY: 9.04438 cycles
ITLB RQ	ACCESS:    7527989	FORWARD:          0	MERGED:    1353867	TO_CACHE:    6174122

DTLB TOTAL     ACCESS:    9367211  HIT:    8893486  MISS:     473725  HIT %:    94.9427  MISS %:    5.05727   MPKI: 9.4745
DTLB LOAD TRANSLATION DATA	ACCESS:    9367211  HIT:    8893486  MISS:     473725  HIT %:    94.9427  MISS %:    5.05727  MPKI: 9.4745

DTLB AVERAGE MISS LATENCY: 9.27257 cycles
DTLB RQ	ACCESS:   13625120	FORWARD:          0	MERGED:    4224490	TO_CACHE:    9400630

STLB TOTAL     ACCESS:    1220282  HIT:    1218168  MISS:       2114  HIT %:    99.8268  MISS %:   0.173239   MPKI: 0.04228
STLB LOAD TRANSLATION INSTRUCTION	ACCESS:     488036  HIT:     487764  MISS:        272  HIT %:    99.9443  MISS %:  0.0557336  MPKI: 0.00544
STLB LOAD TRANSLATION DATA	ACCESS:     473425  HIT:     471598  MISS:       1827  HIT %:    99.6141  MISS %:   0.385911  MPKI: 0.03654
STLB TRANSLATION FROM L1D PREFETCHER DATA	ACCESS:     258821  HIT:     258806  MISS:         15  HIT %:    99.9942  MISS %: 0.00579551  MPKI: 0.0003

STLB AVERAGE MISS LATENCY: 60.5681 cycles
STLB RQ	ACCESS:    1365538	FORWARD:          0	MERGED:     145224	TO_CACHE:    1220314

STLB Hit, L1D data hit: 0
STLB Hit, L2C data hit: 0
STLB Hit, LLC data hit: 0
STLB Hit, LLC data miss: 0
STLB STLB hints to L2: 0
L1D TOTAL     ACCESS:   13396812  HIT:   12240188  MISS:    1156624  HIT %:    91.3664  MISS %:    8.63358   MPKI: 23.1325
L1D LOAD DATA	ACCESS:    6859642  HIT:    6099520  MISS:     760122  HIT %:    88.9189  MISS %:    11.0811  MPKI: 15.2024
L1D RFO DATA	ACCESS:    6197646  HIT:    5906778  MISS:     290868  HIT %:    95.3068  MISS %:     4.6932  MPKI: 5.81736
L1D PREFETCH DATA	ACCESS:     339524  HIT:     233890  MISS:     105634  HIT %:    68.8876  MISS %:    31.1124  MPKI: 2.11268

L1D PREFETCH  REQUESTED:     807808  ISSUED:     807808  USEFUL:      48873  USELESS:      69520
L1D USEFUL LOAD PREFETCHES:      48873 PREFETCH ISSUED TO LOWER LEVEL:     118455  ACCURACY: 41.2587
 TIMELY PREFETCHES:      48873 LATE PREFETCHES: 12774 DROPPED PREFETCHES: 3
L1D AVERAGE MISS LATENCY: 401006 cycles
L1D RQ	ACCESS:   10926403	FORWARD:          0	MERGED:    3872412	TO_CACHE:    6891526
L1D WQ	ACCESS:    6901340	FORWARD:     162721	MERGED:     167746	TO_CACHE:    6733594
L1D PQ	ACCESS:     404032	FORWARD:          0	MERGED:          0	TO_CACHE:     403776

L1D UNIQUE REGIONS ACCESSED: 0
L1D REGIONS CONFLICTS: 0
L1D Cross Page Prefetch Requests: 6003
L1D Same Page Prefetch Requests: 816791
L1D ROI Sum of L1D PQ occupancy: 5130233
L1D PREFETCHES PUSHED FROM L2C: 0
L1I TOTAL     ACCESS:    7034064  HIT:    4295660  MISS:    2738404  HIT %:    61.0694  MISS %:    38.9306   MPKI: 54.7681
L1I LOAD INSTRUCTION	ACCESS:    6546348  HIT:    3807944  MISS:    2738404  HIT %:     58.169  MISS %:     41.831  MPKI: 54.7681
L1I PREFETCH INSTRUCTION	ACCESS:     487716  HIT:     487716  MISS:          0  HIT %:        100  MISS %:          0  MPKI: 0

L1I PREFETCH  REQUESTED:    1059493  ISSUED:    1059493  USEFUL:          0  USELESS:          0
L1I USEFUL LOAD PREFETCHES:          0 PREFETCH ISSUED TO LOWER LEVEL:          0  ACCURACY: -nan
 TIMELY PREFETCHES:          0 LATE PREFETCHES: 0 DROPPED PREFETCHES: 0
L1I AVERAGE MISS LATENCY: 17.2089 cycles
L1I RQ	ACCESS:    9443220	FORWARD:          0	MERGED:    2667255	TO_CACHE:    6775965
L1I PQ	ACCESS:    1059493	FORWARD:          0	MERGED:     307469	TO_CACHE:     752024

L1BTB TOTAL     ACCESS:    5677656  HIT:    2081441  MISS:    3596215  HIT %:    36.6602  MISS %:    63.3398   MPKI: 71.9243
L1BTB BRANCH_DIRECT_JUMP	ACCESS:     544283  HIT:     144580  MISS:     399703	AVERAGE STALL: 34.1522
L1BTB BRANCH_INDIRECT	ACCESS:     181794  HIT:      65711  MISS:     116083	AVERAGE STALL: 82.2209
L1BTB BRANCH_CONDITIONAL	ACCESS:    2739288  HIT:    1456982  MISS:    1282306	AVERAGE STALL: 34.9917
L1BTB BRANCH_DIRECT_CALL	ACCESS:     936015  HIT:     103923  MISS:     832092	AVERAGE STALL: 36.2764
L1BTB BRANCH_INDIRECT_CALL	ACCESS:     170134  HIT:      21120  MISS:     149014	AVERAGE STALL: 106.407
L1BTB BRANCH_RETURN	ACCESS:    1106142  HIT:     289125  MISS:     817017	AVERAGE STALL: 36.2403
L1BTB BRANCH_OTHER ACCESS:          0  HIT:          0  MISS:          0	AVERAGE STALL: -nan
L1BTB TOTAL ROB OCCUPANCY AT BTB MISS: 13.0315

L2BTB TOTAL     ACCESS:    3571115  HIT:    3053729  MISS:     517386  HIT %:    85.5119  MISS %:    14.4881   MPKI: 10.3477
L2BTB BRANCH_DIRECT_JUMP	ACCESS:     395528  HIT:     340326  MISS:      55202	AVERAGE STALL: 34.1522
L2BTB BRANCH_INDIRECT	ACCESS:     105882  HIT:      97272  MISS:       8610	AVERAGE STALL: 82.2209
L2BTB BRANCH_CONDITIONAL	ACCESS:    1282306  HIT:    1123785  MISS:     158521	AVERAGE STALL: 34.9917
L2BTB BRANCH_DIRECT_CALL	ACCESS:     832092  HIT:     677850  MISS:     154242	AVERAGE STALL: 36.2764
L2BTB BRANCH_INDIRECT_CALL	ACCESS:     139498  HIT:     107088  MISS:      32410	AVERAGE STALL: 106.407
L2BTB BRANCH_RETURN	ACCESS:     815809  HIT:     707408  MISS:     108401	AVERAGE STALL: 36.2403
L2BTB BRANCH_OTHER ACCESS:          0  HIT:          0  MISS:          0	AVERAGE STALL: -nan
L2BTB TOTAL ROB OCCUPANCY AT BTB MISS: 90.5783

L2C TOTAL     ACCESS:    4511101  HIT:    4017419  MISS:     493682  HIT %:    89.0563  MISS %:    10.9437   MPKI: 9.87364
L2C LOAD INSTRUCTION	ACCESS:    2738403  HIT:    2477861  MISS:     260542  HIT %:    90.4856  MISS %:    9.51438  MPKI: 5.21084
L2C LOAD TRANSLATION INSTRUCTION	ACCESS:        315  HIT:         79  MISS:        236  HIT %:    25.0794  MISS %:    74.9206  MPKI: 0.00472
L2C LOAD DATA	ACCESS:     747318  HIT:     666751  MISS:      80567  HIT %:    89.2192  MISS %:    10.7808  MPKI: 1.61134
L2C RFO DATA	ACCESS:     290800  HIT:     233785  MISS:      57015  HIT %:    80.3937  MISS %:    19.6063  MPKI: 1.1403
L2C PREFETCH DATA	ACCESS:     207584  HIT:     128609  MISS:      78975  HIT %:    61.9552  MISS %:    38.0448  MPKI: 1.5795
L2C WRITEBACK DATA	ACCESS:     524752  HIT:     509834  MISS:      14918  HIT %:    97.1571  MISS %:    2.84287  MPKI: 0.29836
L2C LOAD TRANSLATION DATA	ACCESS:       1905  HIT:        483  MISS:       1422  HIT %:    25.3543  MISS %:    74.6457  MPKI: 0.02844
L2C TRANSLATION FROM L1D PREFETCHER DATA	ACCESS:         24  HIT:         17  MISS:          7  HIT %:    70.8333  MISS %:    29.1667  MPKI: 0.00014

L2C PREFETCH  REQUESTED:      96219  ISSUED:      96219  USEFUL:       8935  USELESS:      70422
L2C USEFUL LOAD PREFETCHES:       8935 PREFETCH ISSUED TO LOWER LEVEL:      79371  ACCURACY: 11.2573
 TIMELY PREFETCHES:       8935 LATE PREFETCHES: 396 DROPPED PREFETCHES: 0
L2C AVERAGE MISS LATENCY: 37.3877 cycles
L2C RQ	ACCESS:    3778816	FORWARD:          0	MERGED:          0	TO_CACHE:    3778766
L2C WQ	ACCESS:     524752	FORWARD:         50	MERGED:          0	TO_CACHE:     524752
L2C PQ	ACCESS:     214674	FORWARD:          0	MERGED:       3396	TO_CACHE:     211278

L2C Dense regions hint from L2: 0
PSCL5 TOTAL     ACCESS:       4234  HIT:       2117  MISS:       2117  HIT %:         50  MISS %:         50   MPKI: 0.04234
PSCL5 LOAD TRANSLATION INSTRUCTION	ACCESS:       4188  HIT:       2094  MISS:       2094  HIT %:         50  MISS %:         50  MPKI: 0.04188
PSCL5 TRANSLATION FROM L1D PREFETCHER INSTRUCTION	ACCESS:         46  HIT:         23  MISS:         23  HIT %:         50  MISS %:         50  MPKI: 0.00046


PSCL4 TOTAL     ACCESS:       3977  HIT:       1986  MISS:       1991  HIT %:    49.9371  MISS %:    50.0629   MPKI: 0.03982
PSCL4 LOAD TRANSLATION INSTRUCTION	ACCESS:       3673  HIT:       1963  MISS:       1710  HIT %:    53.4441  MISS %:    46.5559  MPKI: 0.0342
PSCL4 TRANSLATION FROM L1D PREFETCHER INSTRUCTION	ACCESS:         45  HIT:         23  MISS:         22  HIT %:    51.1111  MISS %:    48.8889  MPKI: 0.00044
PSCL4 LOAD TRANSLATION DATA	ACCESS:        258  HIT:          0  MISS:        258  HIT %:          0  MISS %:        100  MPKI: 0.00516
PSCL4 TRANSLATION FROM L1D PREFETCHER DATA	ACCESS:          1  HIT:          0  MISS:          1  HIT %:          0  MISS %:        100  MPKI: 2e-05


PSCL3 TOTAL     ACCESS:       3981  HIT:       1988  MISS:       1993  HIT %:    49.9372  MISS %:    50.0628   MPKI: 0.03986
PSCL3 LOAD TRANSLATION INSTRUCTION	ACCESS:       3675  HIT:       1965  MISS:       1710  HIT %:    53.4694  MISS %:    46.5306  MPKI: 0.0342
PSCL3 TRANSLATION FROM L1D PREFETCHER INSTRUCTION	ACCESS:         45  HIT:         23  MISS:         22  HIT %:    51.1111  MISS %:    48.8889  MPKI: 0.00044
PSCL3 LOAD TRANSLATION DATA	ACCESS:        260  HIT:          0  MISS:        260  HIT %:          0  MISS %:        100  MPKI: 0.0052
PSCL3 TRANSLATION FROM L1D PREFETCHER DATA	ACCESS:          1  HIT:          0  MISS:          1  HIT %:          0  MISS %:        100  MPKI: 2e-05


PSCL2 TOTAL     ACCESS:       4115  HIT:       1999  MISS:       2116  HIT %:    48.5784  MISS %:    51.4216   MPKI: 0.04232
PSCL2 LOAD TRANSLATION INSTRUCTION	ACCESS:       2255  HIT:       1977  MISS:        278  HIT %:    87.6718  MISS %:    12.3282  MPKI: 0.00556
PSCL2 TRANSLATION FROM L1D PREFETCHER INSTRUCTION	ACCESS:         22  HIT:         22  MISS:          0  HIT %:        100  MISS %:          0  MPKI: 0
PSCL2 LOAD TRANSLATION DATA	ACCESS:       1816  HIT:          0  MISS:       1816  HIT %:          0  MISS %:        100  MPKI: 0.03632
PSCL2 TRANSLATION FROM L1D PREFETCHER DATA	ACCESS:         22  HIT:          0  MISS:         22  HIT %:          0  MISS %:        100  MPKI: 0.00044


LLC TOTAL     ACCESS:     560445  HIT:     535673  MISS:      24772  HIT %:    95.5799  MISS %:    4.42006   MPKI: 0.49544
LLC LOAD INSTRUCTION	ACCESS:     260542  HIT:     259576  MISS:        966  HIT %:    99.6292  MISS %:   0.370766  MPKI: 0.01932
LLC LOAD TRANSLATION INSTRUCTION	ACCESS:        236  HIT:        199  MISS:         37  HIT %:     84.322  MISS %:     15.678  MPKI: 0.00074
LLC LOAD DATA	ACCESS:      80207  HIT:      77110  MISS:       3097  HIT %:    96.1387  MISS %:    3.86126  MPKI: 0.06194
LLC RFO DATA	ACCESS:      56974  HIT:      45935  MISS:      11039  HIT %:    80.6245  MISS %:    19.3755  MPKI: 0.22078
LLC PREFETCH DATA	ACCESS:      79371  HIT:      70080  MISS:       9291  HIT %:    88.2942  MISS %:    11.7058  MPKI: 0.18582
LLC WRITEBACK DATA	ACCESS:      81686  HIT:      81430  MISS:        256  HIT %:    99.6866  MISS %:   0.313395  MPKI: 0.00512
LLC LOAD TRANSLATION DATA	ACCESS:       1422  HIT:       1336  MISS:         86  HIT %:    93.9522  MISS %:    6.04782  MPKI: 0.00172
LLC TRANSLATION FROM L1D PREFETCHER DATA	ACCESS:          7  HIT:          7  MISS:          0  HIT %:        100  MISS %:          0  MPKI: 0

LLC AVERAGE MISS LATENCY: 165.136 cycles
LLC RQ	ACCESS:     399393	FORWARD:          0	MERGED:          0	TO_CACHE:     399388
LLC WQ	ACCESS:      81686	FORWARD:          5	MERGED:          0	TO_CACHE:      81686
LLC PQ	ACCESS:      79371	FORWARD:          0	MERGED:          0	TO_CACHE:      79371

LLC Dense regions hint to LLC: 0

RAW hits: 1689414
Loads Generated: 12615818
Loads sent to L1D: 10926403
Stores Generated: 6901322
Stores sent to L1D: 6901340
Major fault: 0 Minor fault: 2256
Allocated PAGES: 2256

stream: 
stream:times selected: 1264783
stream:pref_filled: 125153
stream:pref_useful: 28536
stream:pref_late: 8870
stream:misses: 10644
stream:misses_by_poll: 0

CS: 
CS:times selected: 198231
CS:pref_filled: 74059
CS:pref_useful: 50490
CS:pref_late: 9303
CS:misses: 24221
CS:misses_by_poll: 8

CPLX: 
CPLX:times selected: 1065415
CPLX:pref_filled: 25107
CPLX:pref_useful: 7720
CPLX:pref_late: 4009
CPLX:misses: 129020
CPLX:misses_by_poll: 1

NL_L1: 
NL:times selected: 13169
NL:pref_filled: 1096
NL:pref_useful: 289
NL:pref_late: 491
NL:misses: 2096
NL:misses_by_poll: 0

total selections: 2541598
total_filled: 105634
total_useful: 48873
total_late: 24840
total_polluted: 9
total_misses_after_warmup: 792008
conflicts: 5623807

test: 121053

DRAM Statistics
 CHANNEL 0
 RQ ROW_BUFFER_HIT:       8558  ROW_BUFFER_MISS:      15939
 DBUS_CONGESTED:         11
 WQ ROW_BUFFER_HIT:       1356  ROW_BUFFER_MISS:      10440  FULL:          0

 AVG_CONGESTED_CYCLE: 5

CPU 0 Branch Prediction Accuracy: 99.822% MPKI: 0.32584 Average ROB Occupancy at Mispredict: 127.171
Branch types
NOT_BRANCH: 40848435 81.6969%
BRANCH_DIRECT_JUMP: 544283 1.08857%
BRANCH_INDIRECT: 181794 0.363588%
BRANCH_CONDITIONAL: 6212934 12.4259%
BRANCH_DIRECT_CALL: 936015 1.87203%
BRANCH_INDIRECT_CALL: 170134 0.340268%
BRANCH_RETURN: 1106142 2.21228%
BRANCH_OTHER: 0 0%

DRAM PAGES: 1048576
Allocated PAGES: 2256
Average_ROB_Occupancy: 112.049
Average_Decode_Occupancy: 13.1665
Average_FTQ_Occupancy: 6.27326
Indirect max targets: 14 Average targets: 1.14966
Branch_type:  BRANCH_DIRECT_JUMP:  Count Percentage: 3.69274 6.211 3.82575 8.48134 2.41593 6.34667 1.90805 67.1185 
Branch_type:  BRANCH_INDIRECT:  Count Percentage: 11.7499 3.39815 2.62879 9.70296 3.33225 2.7971 1.72626 64.6646 
Branch_type:  BRANCH_CONDITIONAL:  Count Percentage: 22.3497 5.96071 2.06507 5.06093 5.80975 3.90881 2.68617 52.1589 
Branch_type:  BRANCH_DIRECT_CALL:  Count Percentage: 0.832201 1.22236 0.766711 4.50147 2.37922 2.86791 4.34853 83.0816 
Branch_type:  BRANCH_INDIRECT_CALL:  Count Percentage: 9.51523 0 2.98157 4.58775 0.000883166 2.36512 3.84148 76.708 
Branch_type:  BRANCH_RETURN:  Count Percentage: 4.61024 3.87856 1.87451 4.71346 7.15221 4.04061 3.76651 69.9639 
Branch_type:  BRANCH_DIRECT_JUMP:  Total Count: 40201 67616 41649 92332 26301 69093 20772 730685 
Branch_type:  BRANCH_INDIRECT:  Total Count: 42793 12376 9574 35338 12136 10187 6287 235507 
Branch_type:  BRANCH_CONDITIONAL:  Total Count: 2776631 740534 256556 628749 721780 485615 333719 6480012 
Branch_type:  BRANCH_DIRECT_CALL:  Total Count: 15541 22827 14318 84063 44431 53557 81207 1551514 
Branch_type:  BRANCH_INDIRECT_CALL:  Total Count: 32322 0 10128 15584 3 8034 13049 260567 
Branch_type:  BRANCH_RETURN:  Total Count: 101791 85636 41388 104070 157916 89214 83162 1544757 
Number of unique branch instructions: 10002
Upper 32 bits: 
aaaa
ffff
ffff0000
Unique upper 32 bits: 3
Unique upper 36 bits: 3
Unique upper 40 bits: 5
Unique upper 44 bits: 32
Unique upper 48 bits: 154
Variant_0 : 1092 0.355469
Variant_1 : 947 0.308268
Variant_2 : 1030 0.335286
Variant_3 : 0 0
Offset_3 4142
Offset_4 247
Offset_5 449
Offset_6 516
Offset_7 592
Offset_8 516
Offset_9 468
Offset_10 395
Offset_11 327
Offset_12 266
Offset_13 198
Offset_14 225
Offset_15 190
Offset_16 230
Offset_17 150
Offset_18 129
Offset_19 240
Offset_20 137
Offset_21 235
Offset_22 399
Offset_23 241
Offset_24 329
Offset_25 88
Offset_47 80
decode_dispatch_called: 20419332 44.2802
Dispatch_width: 0 10358613 50.7294 22.4631
Dispatch_width: 1 553093 2.70867 1.19941
Dispatch_width: 2 691672 3.38734 1.49992
Dispatch_width: 3 476921 2.33563 1.03422
Dispatch_width: 4 1520277 7.44528 3.29679
Dispatch_width: 5 360973 1.7678 0.782786
Dispatch_width: 6 6457783 31.6258 14.004
Empty_decode_cycles: 25694565 55.7198
ROB_full_cycles: 1965001 4.26119
Starvation_cycles_per_kilo_instr: 376.911
Starvation_cycles_per_kilo_instr_3: 358.099
Starvation_cycles_per_kilo_instr_0: 340.882
Branch_type_1  (3,1)  (4,7)  (5,36)  (6,75)  (7,117)  (8,127)  (9,125)  (10,101)  (11,78)  (12,43)  (13,7)  (14,2)  (15,3)  (16,4)  (18,1)  (19,4)  (20,2)  (21,1)  (22,3)  (23,2)  (24,10)  (25,12) 
Branch_type_2  (3,1)  (5,1)  (8,3)  (9,3)  (12,1)  (13,1)  (14,1)  (16,3)  (17,2)  (20,2)  (21,2)  (23,5)  (24,1)  (47,36) 
Branch_type_3  (3,4140)  (4,240)  (5,408)  (6,425)  (7,443)  (8,326)  (9,257)  (10,165)  (11,136)  (12,49)  (13,7) 
Branch_type_4  (6,4)  (7,8)  (8,26)  (9,51)  (10,61)  (11,57)  (12,96)  (13,83)  (14,99)  (15,91)  (16,105)  (17,66)  (18,59)  (19,117)  (20,71)  (21,124)  (22,214)  (23,136)  (24,190)  (25,72) 
Branch_type_5  (8,2)  (9,1)  (10,3)  (11,5)  (12,3)  (13,13)  (14,16)  (15,11)  (16,20)  (17,13)  (18,16)  (19,12)  (20,10)  (21,13)  (22,42)  (23,26)  (24,36) 
Branch_type_6  (5,4)  (6,12)  (7,24)  (8,32)  (9,31)  (10,65)  (11,51)  (12,74)  (13,87)  (14,107)  (15,85)  (16,98)  (17,69)  (18,53)  (19,107)  (20,52)  (21,95)  (22,140)  (23,72)  (24,92)  (25,4)  (47,44) 
Unique trigger count: 
Variant_0_evicts_0 : 0
Variant_0_evicts_1 : 0
Variant_0_evicts_2 : 0
Variant_0_evicts_3 : 0
Variant_1_evicts_0 : 0
Variant_1_evicts_1 : 0
Variant_1_evicts_2 : 0
Variant_1_evicts_3 : 0
Variant_2_evicts_0 : 0
Variant_2_evicts_1 : 0
Variant_2_evicts_2 : 0
Variant_2_evicts_3 : 0
Variant_3_evicts_0 : 0
Variant_3_evicts_1 : 0
Variant_3_evicts_2 : 0
Variant_3_evicts_3 : 0
BTB PER SET UNIQUE ADDR: 44 51 42 54 45 41 36 40 45 46 45 55 40 45 43 38 41 45 41 49 42 32 37 39 49 52 47 54 44 41 46 48 59 40 48 51 55 44 34 43 41 40 43 65 45 42 46 41 60 53 41 43 47 59 38 36 45 40 33 45 45 56 47 51 47 47 42 44 51 48 46 39 51 42 38 42 39 49 38 65 47 39 43 47 45 43 58 49 48 68 43 38 46 44 31 52 49 39 48 47 68 49 40 52 46 40 48 35 32 40 40 54 51 34 41 43 52 49 50 47 48 40 45 34 42 44 31 51 59 44 40 47 43 50 42 52 29 57 41 59 43 59 38 45 44 45 49 44 50 45 46 51 38 46 34 52 46 47 40 56 43 37 55 58 46 46 44 49 45 40 45 52 38 50 48 42 45 43 46 54 41 47 43 51 50 53 35 49 52 39 50 41 42 50 45 46 48 41 51 48 47 49 42 44 47 45 50 41 53 48 48 59 39 47 50 47 41 53 49 54 41 49 44 46 43 45 51 45 38 52 48 33 50 59 43 49 55 47 39 50 42 49 57 50 43 37 39 43 34 41 38 40 41 50 47 43 19 16 18 21 26 18 9 25 21 13 19 20 17 21 20 23 17 15 15 15 23 27 20 23 17 24 14 18 24 17 18 34 33 25 25 16 24 25 17 28 23 27 26 23 19 19 17 36 22 31 25 21 33 25 23 27 19 32 24 13 28 19 22 33 18 24 18 23 29 29 23 19 22 14 21 29 15 19 21 25 18 18 17 37 23 24 16 24 27 27 18 22 22 21 24 21 26 21 22 28 23 27 17 17 20 30 20 29 23 26 11 23 28 22 23 17 21 25 19 30 26 29 20 25 23 23 17 15 19 22 28 29 24 25 29 14 26 29 18 16 19 19 29 24 21 23 23 22 26 25 27 25 22 22 25 17 19 28 22 21 19 29 37 30 19 27 23 25 27 20 26 18 25 21 29 21 19 23 29 26 25 19 22 23 27 19 19 29 31 20 16 24 29 25 27 38 24 19 28 34 26 29 18 30 17 22 21 30 33 19 20 23 28 24 24 25 27 23 23 34 26 32 16 26 35 27 20 25 16 26 32 28 26 23 19 25 19 16 15 19 24 28 22 22 21 30 19 31 21 20 19 32 27 25 23 31 24 23 21 28 23 30 18 18 15 21 21 15 24 32 35 15 15 33 29 25 24 21 26 31 21 25 25 22 25 19 26 27 28 32 16 25 16 22 24 31 22 23 19 24 22 24 34 23 20 31 23 20 22 30 22 27 22 27 26 26 28 34 23 29 27 28 21 23 26 25 14 25 28 24 19 23 34 28 18 20 24 17 27 18 14 21 21 20 20 22 22 14 23 23 34 21 22 23 31 26 23 16 11 28 19 29 21 27 28 26 16 18 20 30 21 30 18 24 17 28 29 22 21 21 27 29 22 29 23 26 26 29 26 26 22 25 34 18 18 25 19 20 32 24 21 24 25 22 23 12 28 31 22 26 18 19 20 21 27 19 19 26 31 20 23 25 27 31 22 29 20 26 26 24 21 22 25 27 25 24 22 15 16 22 19 27 20 28 16 27 26 32 13 27 21 17 18 15 23 23 19 21 18 19 32 25 19 28 24 22 20 21 20 22 23 22 20 20 25 21 23 19 21 22 25 29 35 20 20 20 22 24 31 30 22 22 23 20 23 20 24 22 18 21 32 26 21 18 24 15 16 25 23 29 13 25 
BTB PER SET COUNT: 2129 2158 3490 2545 2347 1842 1693 1662 2019 2253 1547 2932 18247 3280 2130 1520 2201 2329 2037 2306 2080 1317 1888 2020 1906 2622 2347 3000 2094 2059 2117 2780 2937 1752 2218 2551 2592 2093 1538 2442 1639 1706 1716 4069 2340 1834 2217 2744 3137 2738 2285 2660 2222 2942 1579 1734 2110 1731 1557 2080 2180 3307 2299 2427 2300 2228 1404 2551 2484 2078 2380 2278 2664 1939 1551 1737 1785 2907 1601 2768 2150 2918 2425 2331 1575 2670 2417 2165 2923 3286 2236 1853 2633 2299 1443 2156 2465 1626 2167 3832 3772 2409 1759 2376 3675 1555 2072 1339 1692 1841 2544 3085 2983 1320 2057 1969 2283 2755 3909 2245 2299 1635 2230 1746 2325 2520 1171 2379 3398 1939 1871 2567 2177 2137 1974 2709 1599 2320 1665 2871 1944 2734 1837 1541 2182 2145 2741 2178 2664 2476 1754 2286 1859 2447 1012 2767 2118 2378 1412 2947 1894 1801 2596 2820 2733 2366 1625 3085 2118 1817 2663 2378 1486 3005 2516 1802 1806 1708 2198 2848 1663 2325 2475 3193 2279 4280 1034 2177 2506 1883 2053 1855 2018 2867 2208 1933 2360 1886 2667 2117 2096 2350 2111 2644 1792 2031 3291 2298 2558 2306 2882 2888 1664 4180 2116 3305 1722 3092 3381 2861 1776 2099 2281 2854 2036 2182 2447 2298 1787 2772 1946 1682 2481 3290 1798 3321 2285 2291 2063 2206 2317 2605 3339 2809 2219 1781 1723 2007 1305 1601 1548 1737 1543 2483 2297 2275 551 687 653 702 1079 570 115 1088 572 363 839 663 1251 694 725 792 433 349 526 323 892 1003 720 974 249 982 737 700 682 639 216 1540 1077 931 760 540 586 1358 418 1109 1386 1035 635 1185 585 607 318 1530 517 1313 964 717 1507 1374 1084 1049 532 1381 2509 781 1076 885 708 1254 546 2142 335 681 1114 1569 1067 562 614 378 845 1052 523 458 660 998 439 1368 334 1514 759 1673 464 1059 1168 675 448 894 626 865 865 548 874 627 508 723 645 1196 464 615 582 1158 520 988 599 1908 245 854 932 780 834 581 917 1502 904 1104 784 905 707 1190 894 635 712 362 507 542 2909 1073 652 1261 1289 272 806 1572 436 543 528 851 1390 1338 636 768 920 645 1085 920 1029 762 705 961 1062 327 502 1410 582 866 676 2322 1759 1069 598 959 809 913 844 665 1438 575 836 955 1178 752 568 675 1371 1113 831 965 542 755 1553 656 480 1154 1742 736 774 985 1062 1032 1567 2568 871 516 1116 1927 1016 1016 547 1245 491 661 593 1243 1356 788 6127 679 960 1045 904 1129 699 935 806 1454 917 1562 515 1076 1586 1367 565 810 542 1112 1554 1159 1932 757 882 1293 4828 514 369 880 1227 2108 839 625 671 1170 661 1308 730 429 605 1433 967 758 888 2285 1538 1434 712 1232 534 1073 566 864 394 843 746 605 885 1449 1977 900 659 1995 1582 998 1020 661 1102 1353 897 1682 966 1012 1071 667 863 977 865 1417 256 767 582 1102 857 1363 1181 969 580 557 880 662 1231 990 426 1370 720 822 1258 1115 857 1184 992 1207 1415 973 896 1222 2129 922 1160 1362 967 896 1041 1038 367 2435 884 1176 1040 794 1558 1133 1064 609 827 429 1111 469 1189 1370 846 492 440 916 785 309 983 787 1167 3166 452 772 1387 1506 1354 327 200 1014 350 960 1080 1165 1199 825 371 798 570 995 657 1290 1887 630 405 1472 1426 721 793 896 975 1557 557 1519 822 948 977 842 1581 971 1087 1113 1591 411 348 861 453 568 2390 997 766 686 1207 1278 730 279 1487 1143 3400 900 606 1391 1737 835 781 591 696 816 1476 930 703 882 1065 1265 873 1022 804 621 1421 699 649 716 1239 1004 574 784 734 395 2529 737 863 2059 761 803 1331 969 1215 1051 246 1072 743 620 344 395 753 1061 858 670 768 594 1386 727 648 1260 1043 1051 641 1080 1885 676 636 919 1362 1125 1057 6551 777 520 582 793 1102 1158 1460 491 1133 386 901 870 1110 1007 1558 469 896 765 1918 647 1265 2388 1480 727 1199 1185 568 537 972 431 311 883 1778 1309 436 1357 
To predecode: 0
Predecoding something: 0
Predecode request dropped: 0
sizeofblock_0 0
sizeofblock_1 377824
sizeofblock_2 243900
sizeofblock_3 89880
sizeofblock_4 48732
sizeofblock_5 0
sizeofblock_6 0
sizeofblock_7 0
sizeofblock_8 0
Variant_0 Correct: 1310217 Incorrect: 0 Accuracy: 1
Variant_1 Correct: 1779281 Incorrect: 0 Accuracy: 1
Variant_2 Correct: 3251523 Incorrect: 0 Accuracy: 1
Variant_3 Correct: 0 Incorrect: 0 Accuracy: -nan
