
*** ChampSim Multicore Out-of-Order Simulator ***

Warmup Instructions: 50000000
Simulation Instructions: 50000000
Number of CPUs: 1
LLC sets: 2048
LLC ways: 16
Off-chip DRAM Size: 4096 MB Channels: 1 Width: 64-bit Data Rate: 6400 MT/s
CPU 0 runs ./micro_traces/srv392.trace.gz
.gz
ITLB has LRU replacement policy
DTLB has LRU replacement policy
STLB has LRU replacement policy
FDIP Prefetcher at L1I
L1I has LRU replacement policy
L1D has LRU replacement policy
Initialize SRRIP state for L2C
Initialize DRRIP state for LLC
Heartbeat_Variant_0 : 1334 0.217122 per_variant_size: 0 1334 0 0 0 0 0 0 0 
Heartbeat_Variant_1 : 1315 0.21403 per_variant_size: 0 797 518 0 0 0 0 0 0 
Heartbeat_Variant_2 : 1462 0.237956 per_variant_size: 0 731 387 194 150 0 0 0 0 
Heartbeat_Variant_3 : 0 0 per_variant_size: 0 0 0 0 0 0 0 0 0 
Heartbeat_Variant_0_evicts 0 : 5453 1 : 18 2 : 23 3 : 0 
Heartbeat_Variant_1_evicts 0 : 19 1 : 0 2 : 211 3 : 0 
Heartbeat_Variant_2_evicts 0 : 5 1 : 211 2 : 0 3 : 0 
Heartbeat_Variant_3_evicts 0 : 0 1 : 0 2 : 0 3 : 0 
Heartbeat CPU 0 instructions: 10000000 cycles: 2797202 heartbeat IPC: 3.575 cumulative IPC: 3.575 (Simulation time: 0 hr 2 min 9 sec) 
Heartbeat_Variant_0 : 1334 0.217122 per_variant_size: 0 1334 0 0 0 0 0 0 0 
Heartbeat_Variant_1 : 1317 0.214355 per_variant_size: 0 797 520 0 0 0 0 0 0 
Heartbeat_Variant_2 : 1462 0.237956 per_variant_size: 0 730 388 192 152 0 0 0 0 
Heartbeat_Variant_3 : 0 0 per_variant_size: 0 0 0 0 0 0 0 0 0 
Heartbeat_Variant_0_evicts 0 : 5550 1 : 0 2 : 0 3 : 0 
Heartbeat_Variant_1_evicts 0 : 0 1 : 0 2 : 195 3 : 0 
Heartbeat_Variant_2_evicts 0 : 0 1 : 195 2 : 0 3 : 0 
Heartbeat_Variant_3_evicts 0 : 0 1 : 0 2 : 0 3 : 0 
Heartbeat CPU 0 instructions: 20000002 cycles: 5593906 heartbeat IPC: 3.57564 cumulative IPC: 3.57532 (Simulation time: 0 hr 4 min 6 sec) 
Heartbeat_Variant_0 : 1403 0.228353 per_variant_size: 0 1403 0 0 0 0 0 0 0 
Heartbeat_Variant_1 : 1378 0.224284 per_variant_size: 0 810 568 0 0 0 0 0 0 
Heartbeat_Variant_2 : 1511 0.245931 per_variant_size: 0 718 416 201 176 0 0 0 0 
Heartbeat_Variant_3 : 0 0 per_variant_size: 0 0 0 0 0 0 0 0 0 
Heartbeat_Variant_0_evicts 0 : 5687 1 : 5 2 : 9 3 : 0 
Heartbeat_Variant_1_evicts 0 : 6 1 : 0 2 : 199 3 : 0 
Heartbeat_Variant_2_evicts 0 : 5 1 : 207 2 : 0 3 : 0 
Heartbeat_Variant_3_evicts 0 : 0 1 : 0 2 : 0 3 : 0 
Heartbeat CPU 0 instructions: 30000003 cycles: 8388363 heartbeat IPC: 3.57851 cumulative IPC: 3.57638 (Simulation time: 0 hr 6 min 10 sec) 
Heartbeat_Variant_0 : 1402 0.22819 per_variant_size: 0 1402 0 0 0 0 0 0 0 
Heartbeat_Variant_1 : 1383 0.225098 per_variant_size: 0 811 572 0 0 0 0 0 0 
Heartbeat_Variant_2 : 1517 0.246908 per_variant_size: 0 720 417 205 175 0 0 0 0 
Heartbeat_Variant_3 : 0 0 per_variant_size: 0 0 0 0 0 0 0 0 0 
Heartbeat_Variant_0_evicts 0 : 5563 1 : 0 2 : 0 3 : 0 
Heartbeat_Variant_1_evicts 0 : 0 1 : 0 2 : 196 3 : 0 
Heartbeat_Variant_2_evicts 0 : 1 1 : 195 2 : 0 3 : 0 
Heartbeat_Variant_3_evicts 0 : 0 1 : 0 2 : 0 3 : 0 
Heartbeat CPU 0 instructions: 40000003 cycles: 11184605 heartbeat IPC: 3.57623 cumulative IPC: 3.57634 (Simulation time: 0 hr 8 min 3 sec) 
Heartbeat_Variant_0 : 1406 0.228841 per_variant_size: 0 1406 0 0 0 0 0 0 0 
Heartbeat_Variant_1 : 1395 0.227051 per_variant_size: 0 817 578 0 0 0 0 0 0 
Heartbeat_Variant_2 : 1519 0.247233 per_variant_size: 0 717 419 208 175 0 0 0 0 
Heartbeat_Variant_3 : 0 0 per_variant_size: 0 0 0 0 0 0 0 0 0 
Heartbeat_Variant_0_evicts 0 : 5549 1 : 1 2 : 3 3 : 0 
Heartbeat_Variant_1_evicts 0 : 1 1 : 0 2 : 197 3 : 0 
Heartbeat_Variant_2_evicts 0 : 1 1 : 198 2 : 0 3 : 0 
Heartbeat_Variant_3_evicts 0 : 0 1 : 0 2 : 0 3 : 0 
Heartbeat CPU 0 instructions: 50000002 cycles: 13981843 heartbeat IPC: 3.57495 cumulative IPC: 3.57607 (Simulation time: 0 hr 9 min 58 sec) 

Warmup complete CPU 0 instructions: 50000002 cycles: 13981843 (Simulation time: 0 hr 9 min 58 sec) 

Cycle: 20000000 FTQ IN: 58389508 FTQ occupancy: 19.9948 DECODE IN: 58389443 DECODE occupancy: 52.2395 ROB IN: 58389443 ROB occupancy: 316.03 ROB OUT: 58389426
Heartbeat_Variant_0 : 1407 0.229004 per_variant_size: 0 1407 0 0 0 0 0 0 0 
Heartbeat_Variant_1 : 1403 0.228353 per_variant_size: 0 819 584 0 0 0 0 0 0 
Heartbeat_Variant_2 : 1523 0.247884 per_variant_size: 0 715 423 208 177 0 0 0 0 
Heartbeat_Variant_3 : 0 0 per_variant_size: 0 0 0 0 0 0 0 0 0 
Heartbeat_Variant_0_evicts 0 : 5602 1 : 0 2 : 0 3 : 0 
Heartbeat_Variant_1_evicts 0 : 0 1 : 0 2 : 196 3 : 0 
Heartbeat_Variant_2_evicts 0 : 1 1 : 197 2 : 0 3 : 0 
Heartbeat_Variant_3_evicts 0 : 0 1 : 0 2 : 0 3 : 0 
Heartbeat CPU 0 instructions: 60000003 cycles: 21156915 heartbeat IPC: 1.39371 cumulative IPC: 1.39371 (Simulation time: 0 hr 12 min 16 sec) 
Heartbeat_Variant_0 : 1407 0.229004 per_variant_size: 0 1407 0 0 0 0 0 0 0 
Heartbeat_Variant_1 : 1404 0.228516 per_variant_size: 0 822 582 0 0 0 0 0 0 
Heartbeat_Variant_2 : 1522 0.247721 per_variant_size: 0 714 423 207 178 0 0 0 0 
Heartbeat_Variant_3 : 0 0 per_variant_size: 0 0 0 0 0 0 0 0 0 
Heartbeat_Variant_0_evicts 0 : 5578 1 : 0 2 : 0 3 : 0 
Heartbeat_Variant_1_evicts 0 : 0 1 : 0 2 : 196 3 : 0 
Heartbeat_Variant_2_evicts 0 : 0 1 : 195 2 : 0 3 : 0 
Heartbeat_Variant_3_evicts 0 : 0 1 : 0 2 : 0 3 : 0 
Heartbeat CPU 0 instructions: 70000003 cycles: 28386521 heartbeat IPC: 1.3832 cumulative IPC: 1.38844 (Simulation time: 0 hr 14 min 39 sec) 
Cycle: 30000000 FTQ IN: 13838728 FTQ occupancy: 13.1601 DECODE IN: 13838739 DECODE occupancy: 34.137 ROB IN: 13838707 ROB occupancy: 239.55 ROB OUT: 13838435
Heartbeat_Variant_0 : 1407 0.229004 per_variant_size: 0 1407 0 0 0 0 0 0 0 
Heartbeat_Variant_1 : 1408 0.229167 per_variant_size: 0 827 581 0 0 0 0 0 0 
Heartbeat_Variant_2 : 1523 0.247884 per_variant_size: 0 715 423 212 173 0 0 0 0 
Heartbeat_Variant_3 : 0 0 per_variant_size: 0 0 0 0 0 0 0 0 0 
Heartbeat_Variant_0_evicts 0 : 5587 1 : 0 2 : 0 3 : 0 
Heartbeat_Variant_1_evicts 0 : 0 1 : 0 2 : 195 3 : 0 
Heartbeat_Variant_2_evicts 0 : 0 1 : 195 2 : 0 3 : 0 
Heartbeat_Variant_3_evicts 0 : 0 1 : 0 2 : 0 3 : 0 
Heartbeat CPU 0 instructions: 80000001 cycles: 35553247 heartbeat IPC: 1.39534 cumulative IPC: 1.39073 (Simulation time: 0 hr 16 min 47 sec) 
Cycle: 40000000 FTQ IN: 13978817 FTQ occupancy: 13.1307 DECODE IN: 13978790 DECODE occupancy: 34.4567 ROB IN: 13978762 ROB occupancy: 240.789 ROB OUT: 13978699
Heartbeat_Variant_0 : 1407 0.229004 per_variant_size: 0 1407 0 0 0 0 0 0 0 
Heartbeat_Variant_1 : 1408 0.229167 per_variant_size: 0 824 584 0 0 0 0 0 0 
Heartbeat_Variant_2 : 1523 0.247884 per_variant_size: 0 715 423 208 177 0 0 0 0 
Heartbeat_Variant_3 : 0 0 per_variant_size: 0 0 0 0 0 0 0 0 0 
Heartbeat_Variant_0_evicts 0 : 5454 1 : 0 2 : 0 3 : 0 
Heartbeat_Variant_1_evicts 0 : 0 1 : 0 2 : 193 3 : 0 
Heartbeat_Variant_2_evicts 0 : 0 1 : 193 2 : 0 3 : 0 
Heartbeat_Variant_3_evicts 0 : 0 1 : 0 2 : 0 3 : 0 
Heartbeat CPU 0 instructions: 90000000 cycles: 42797393 heartbeat IPC: 1.38042 cumulative IPC: 1.38814 (Simulation time: 0 hr 19 min 6 sec) 
Heartbeat_Variant_0 : 1407 0.229004 per_variant_size: 0 1407 0 0 0 0 0 0 0 
Heartbeat_Variant_1 : 1408 0.229167 per_variant_size: 0 825 583 0 0 0 0 0 0 
Heartbeat_Variant_2 : 1523 0.247884 per_variant_size: 0 712 424 211 176 0 0 0 0 
Heartbeat_Variant_3 : 0 0 per_variant_size: 0 0 0 0 0 0 0 0 0 
Heartbeat_Variant_0_evicts 0 : 5566 1 : 0 2 : 0 3 : 0 
Heartbeat_Variant_1_evicts 0 : 0 1 : 0 2 : 193 3 : 0 
Heartbeat_Variant_2_evicts 0 : 0 1 : 193 2 : 0 3 : 0 
Heartbeat_Variant_3_evicts 0 : 0 1 : 0 2 : 0 3 : 0 
Heartbeat CPU 0 instructions: 100000001 cycles: 49985831 heartbeat IPC: 1.39112 cumulative IPC: 1.38874 (Simulation time: 0 hr 21 min 12 sec) 
Finished CPU 0 instructions: 50000003 cycles: 36004001 cumulative IPC: 1.38873 (Simulation time: 0 hr 21 min 12 sec) 

ChampSim completed all CPUs

Region of Interest Statistics

CPU 0 cumulative IPC: 1.38873 instructions: 50000003 cycles: 36004001
 Fetch stage stalled: 53.2589  Sim cycles: 36004001 fetch stall cycle: 19175342
 Empty decode stage: 34.5028  Sim cycles: 36004001 fetch stall cycle: 12422394
ITLB TOTAL     ACCESS:    5870677  HIT:    5374535  MISS:     496142  HIT %:    91.5488  MISS %:    8.45119   MPKI: 9.92284
ITLB LOAD TRANSLATION INSTRUCTION	ACCESS:    5746773  HIT:    5250631  MISS:     496142  HIT %:    91.3666  MISS %:     8.6334  MPKI: 9.92284
ITLB TRANSLATION FROM L1D PREFETCHER INSTRUCTION	ACCESS:     123904  HIT:     123904  MISS:          0  HIT %:        100  MISS %:          0  MPKI: 0

ITLB AVERAGE MISS LATENCY: 9.04662 cycles
ITLB RQ	ACCESS:    8016004	FORWARD:          0	MERGED:    1701848	TO_CACHE:    6314156

DTLB TOTAL     ACCESS:    8958883  HIT:    8484578  MISS:     474305  HIT %:    94.7058  MISS %:    5.29424   MPKI: 9.4861
DTLB LOAD TRANSLATION DATA	ACCESS:    8958883  HIT:    8484578  MISS:     474305  HIT %:    94.7058  MISS %:    5.29424  MPKI: 9.4861

DTLB AVERAGE MISS LATENCY: 9.32499 cycles
DTLB RQ	ACCESS:   13332021	FORWARD:          0	MERGED:    4335838	TO_CACHE:    8996183

STLB TOTAL     ACCESS:    1215496  HIT:    1213464  MISS:       2032  HIT %:    99.8328  MISS %:   0.167175   MPKI: 0.04064
STLB LOAD TRANSLATION INSTRUCTION	ACCESS:     496142  HIT:     495898  MISS:        244  HIT %:    99.9508  MISS %:  0.0491795  MPKI: 0.00488
STLB LOAD TRANSLATION DATA	ACCESS:     474305  HIT:     472548  MISS:       1757  HIT %:    99.6296  MISS %:   0.370437  MPKI: 0.03514
STLB TRANSLATION FROM L1D PREFETCHER DATA	ACCESS:     245049  HIT:     245018  MISS:         31  HIT %:    99.9873  MISS %:  0.0126505  MPKI: 0.00062

STLB AVERAGE MISS LATENCY: 71.7712 cycles
STLB RQ	ACCESS:    1335823	FORWARD:          0	MERGED:     120293	TO_CACHE:    1215530

STLB Hit, L1D data hit: 0
STLB Hit, L2C data hit: 0
STLB Hit, LLC data hit: 0
STLB Hit, LLC data miss: 0
STLB STLB hints to L2: 0
L1D TOTAL     ACCESS:   13080151  HIT:   11959454  MISS:    1120697  HIT %:    91.4321  MISS %:    8.56792   MPKI: 22.4139
L1D LOAD DATA	ACCESS:    6543236  HIT:    5803475  MISS:     739761  HIT %:    88.6943  MISS %:    11.3057  MPKI: 14.7952
L1D RFO DATA	ACCESS:    6211556  HIT:    5925784  MISS:     285772  HIT %:    95.3993  MISS %:    4.60065  MPKI: 5.71544
L1D PREFETCH DATA	ACCESS:     325359  HIT:     230195  MISS:      95164  HIT %:    70.7511  MISS %:    29.2489  MPKI: 1.90328

L1D PREFETCH  REQUESTED:     731142  ISSUED:     731142  USEFUL:      33647  USELESS:      68610
L1D USEFUL LOAD PREFETCHES:      33647 PREFETCH ISSUED TO LOWER LEVEL:     102296  ACCURACY: 32.8918
 TIMELY PREFETCHES:      33647 LATE PREFETCHES: 7101 DROPPED PREFETCHES: 4
L1D AVERAGE MISS LATENCY: 204776 cycles
L1D RQ	ACCESS:   10676537	FORWARD:          0	MERGED:    3934010	TO_CACHE:    6577677
L1D WQ	ACCESS:    6949781	FORWARD:     165240	MERGED:     195437	TO_CACHE:    6754344
L1D PQ	ACCESS:     365766	FORWARD:          0	MERGED:          0	TO_CACHE:     365376

L1D UNIQUE REGIONS ACCESSED: 0
L1D REGIONS CONFLICTS: 0
L1D Cross Page Prefetch Requests: 6894
L1D Same Page Prefetch Requests: 742639
L1D ROI Sum of L1D PQ occupancy: 4638443
L1D PREFETCHES PUSHED FROM L2C: 0
L1I TOTAL     ACCESS:    7173686  HIT:    4402688  MISS:    2770998  HIT %:    61.3727  MISS %:    38.6273   MPKI: 55.42
L1I LOAD INSTRUCTION	ACCESS:    6502829  HIT:    3731831  MISS:    2770998  HIT %:    57.3878  MISS %:    42.6122  MPKI: 55.42
L1I PREFETCH INSTRUCTION	ACCESS:     670857  HIT:     670857  MISS:          0  HIT %:        100  MISS %:          0  MPKI: 0

L1I PREFETCH  REQUESTED:    1621300  ISSUED:    1621300  USEFUL:          0  USELESS:          0
L1I USEFUL LOAD PREFETCHES:          0 PREFETCH ISSUED TO LOWER LEVEL:          0  ACCURACY: -nan
 TIMELY PREFETCHES:          0 LATE PREFETCHES: 0 DROPPED PREFETCHES: 0
L1I AVERAGE MISS LATENCY: 17.2442 cycles
L1I RQ	ACCESS:    9510601	FORWARD:          0	MERGED:    2678793	TO_CACHE:    6831808
L1I PQ	ACCESS:    1621300	FORWARD:          0	MERGED:     437104	TO_CACHE:    1184196

L1BTB TOTAL     ACCESS:    5671590  HIT:    2032467  MISS:    3639123  HIT %:    35.8359  MISS %:    64.1641   MPKI: 72.7825
L1BTB BRANCH_DIRECT_JUMP	ACCESS:     547869  HIT:     144016  MISS:     403853	AVERAGE STALL: 49.6047
L1BTB BRANCH_INDIRECT	ACCESS:     182376  HIT:      65594  MISS:     116782	AVERAGE STALL: 102.416
L1BTB BRANCH_CONDITIONAL	ACCESS:    2696939  HIT:    1401540  MISS:    1295399	AVERAGE STALL: 53.2059
L1BTB BRANCH_DIRECT_CALL	ACCESS:     949410  HIT:     107171  MISS:     842239	AVERAGE STALL: 76.3499
L1BTB BRANCH_INDIRECT_CALL	ACCESS:     172792  HIT:      21990  MISS:     150802	AVERAGE STALL: 133.567
L1BTB BRANCH_RETURN	ACCESS:    1122204  HIT:     292156  MISS:     830048	AVERAGE STALL: 50.0714
L1BTB BRANCH_OTHER ACCESS:          0  HIT:          0  MISS:          0	AVERAGE STALL: -nan
L1BTB TOTAL ROB OCCUPANCY AT BTB MISS: 2.39332

L2BTB TOTAL     ACCESS:    3613865  HIT:    3553131  MISS:      60734  HIT %:    98.3194  MISS %:    1.68058   MPKI: 1.21468
L2BTB BRANCH_DIRECT_JUMP	ACCESS:     399756  HIT:     396585  MISS:       3171	AVERAGE STALL: 49.6047
L2BTB BRANCH_INDIRECT	ACCESS:     106495  HIT:     103844  MISS:       2651	AVERAGE STALL: 102.416
L2BTB BRANCH_CONDITIONAL	ACCESS:    1295399  HIT:    1293165  MISS:       2234	AVERAGE STALL: 53.2059
L2BTB BRANCH_DIRECT_CALL	ACCESS:     842239  HIT:     841835  MISS:        404	AVERAGE STALL: 76.3499
L2BTB BRANCH_INDIRECT_CALL	ACCESS:     141348  HIT:     131410  MISS:       9938	AVERAGE STALL: 133.567
L2BTB BRANCH_RETURN	ACCESS:     828628  HIT:     786292  MISS:      42336	AVERAGE STALL: 50.0714
L2BTB BRANCH_OTHER ACCESS:          0  HIT:          0  MISS:          0	AVERAGE STALL: -nan
L2BTB TOTAL ROB OCCUPANCY AT BTB MISS: 143.405

L2C TOTAL     ACCESS:    4499092  HIT:    4025192  MISS:     473900  HIT %:    89.4668  MISS %:    10.5332   MPKI: 9.478
L2C LOAD INSTRUCTION	ACCESS:    2770999  HIT:    2506048  MISS:     264951  HIT %:    90.4384  MISS %:    9.56157  MPKI: 5.29902
L2C LOAD TRANSLATION INSTRUCTION	ACCESS:        273  HIT:         82  MISS:        191  HIT %:    30.0366  MISS %:    69.9634  MPKI: 0.00382
L2C LOAD DATA	ACCESS:     732632  HIT:     658399  MISS:      74233  HIT %:    89.8676  MISS %:    10.1324  MPKI: 1.48466
L2C RFO DATA	ACCESS:     285711  HIT:     237495  MISS:      48216  HIT %:    83.1242  MISS %:    16.8758  MPKI: 0.96432
L2C PREFETCH DATA	ACCESS:     185094  HIT:     113981  MISS:      71113  HIT %:    61.5801  MISS %:    38.4199  MPKI: 1.42226
L2C WRITEBACK DATA	ACCESS:     522527  HIT:     508672  MISS:      13855  HIT %:    97.3485  MISS %:    2.65154  MPKI: 0.2771
L2C LOAD TRANSLATION DATA	ACCESS:       1808  HIT:        481  MISS:       1327  HIT %:     26.604  MISS %:     73.396  MPKI: 0.02654
L2C TRANSLATION FROM L1D PREFETCHER DATA	ACCESS:         48  HIT:         34  MISS:         14  HIT %:    70.8333  MISS %:    29.1667  MPKI: 0.00028

L2C PREFETCH  REQUESTED:      91808  ISSUED:      91808  USEFUL:       8643  USELESS:      63151
L2C USEFUL LOAD PREFETCHES:       8643 PREFETCH ISSUED TO LOWER LEVEL:      71738  ACCURACY: 12.048
 TIMELY PREFETCHES:       8643 LATE PREFETCHES: 625 DROPPED PREFETCHES: 0
L2C AVERAGE MISS LATENCY: 38.1045 cycles
L2C RQ	ACCESS:    3791531	FORWARD:          0	MERGED:          0	TO_CACHE:    3791473
L2C WQ	ACCESS:     522527	FORWARD:         59	MERGED:          0	TO_CACHE:     522527
L2C PQ	ACCESS:     194104	FORWARD:          0	MERGED:       3619	TO_CACHE:     190484

L2C Dense regions hint from L2: 0
PSCL5 TOTAL     ACCESS:       4080  HIT:       2040  MISS:       2040  HIT %:         50  MISS %:         50   MPKI: 0.0408
PSCL5 LOAD TRANSLATION INSTRUCTION	ACCESS:       3986  HIT:       1993  MISS:       1993  HIT %:         50  MISS %:         50  MPKI: 0.03986
PSCL5 TRANSLATION FROM L1D PREFETCHER INSTRUCTION	ACCESS:         94  HIT:         47  MISS:         47  HIT %:         50  MISS %:         50  MPKI: 0.00094


PSCL4 TOTAL     ACCESS:       3986  HIT:       1991  MISS:       1995  HIT %:    49.9498  MISS %:    50.0502   MPKI: 0.0399
PSCL4 LOAD TRANSLATION INSTRUCTION	ACCESS:       3345  HIT:       1944  MISS:       1401  HIT %:    58.1166  MISS %:    41.8834  MPKI: 0.02802
PSCL4 TRANSLATION FROM L1D PREFETCHER INSTRUCTION	ACCESS:         76  HIT:         47  MISS:         29  HIT %:    61.8421  MISS %:    38.1579  MPKI: 0.00058
PSCL4 LOAD TRANSLATION DATA	ACCESS:        547  HIT:          0  MISS:        547  HIT %:          0  MISS %:        100  MPKI: 0.01094
PSCL4 TRANSLATION FROM L1D PREFETCHER DATA	ACCESS:         18  HIT:          0  MISS:         18  HIT %:          0  MISS %:        100  MPKI: 0.00036


PSCL3 TOTAL     ACCESS:       4030  HIT:       2013  MISS:       2017  HIT %:    49.9504  MISS %:    50.0496   MPKI: 0.04034
PSCL3 LOAD TRANSLATION INSTRUCTION	ACCESS:       3367  HIT:       1966  MISS:       1401  HIT %:    58.3903  MISS %:    41.6097  MPKI: 0.02802
PSCL3 TRANSLATION FROM L1D PREFETCHER INSTRUCTION	ACCESS:         76  HIT:         47  MISS:         29  HIT %:    61.8421  MISS %:    38.1579  MPKI: 0.00058
PSCL3 LOAD TRANSLATION DATA	ACCESS:        569  HIT:          0  MISS:        569  HIT %:          0  MISS %:        100  MPKI: 0.01138
PSCL3 TRANSLATION FROM L1D PREFETCHER DATA	ACCESS:         18  HIT:          0  MISS:         18  HIT %:          0  MISS %:        100  MPKI: 0.00036


PSCL2 TOTAL     ACCESS:       3999  HIT:       1959  MISS:       2040  HIT %:    48.9872  MISS %:    51.0128   MPKI: 0.0408
PSCL2 LOAD TRANSLATION INSTRUCTION	ACCESS:       2156  HIT:       1913  MISS:        243  HIT %:    88.7291  MISS %:    11.2709  MPKI: 0.00486
PSCL2 TRANSLATION FROM L1D PREFETCHER INSTRUCTION	ACCESS:         46  HIT:         46  MISS:          0  HIT %:        100  MISS %:          0  MPKI: 0
PSCL2 LOAD TRANSLATION DATA	ACCESS:       1751  HIT:          0  MISS:       1751  HIT %:          0  MISS %:        100  MPKI: 0.03502
PSCL2 TRANSLATION FROM L1D PREFETCHER DATA	ACCESS:         46  HIT:          0  MISS:         46  HIT %:          0  MISS %:        100  MPKI: 0.00092


LLC TOTAL     ACCESS:     531511  HIT:     504254  MISS:      27257  HIT %:    94.8718  MISS %:    5.12821   MPKI: 0.54514
LLC LOAD INSTRUCTION	ACCESS:     264952  HIT:     264178  MISS:        774  HIT %:    99.7079  MISS %:   0.292128  MPKI: 0.01548
LLC LOAD TRANSLATION INSTRUCTION	ACCESS:        191  HIT:        169  MISS:         22  HIT %:    88.4817  MISS %:    11.5183  MPKI: 0.00044
LLC LOAD DATA	ACCESS:      73628  HIT:      70265  MISS:       3363  HIT %:    95.4324  MISS %:    4.56756  MPKI: 0.06726
LLC RFO DATA	ACCESS:      48189  HIT:      35336  MISS:      12853  HIT %:    73.3279  MISS %:    26.6721  MPKI: 0.25706
LLC PREFETCH DATA	ACCESS:      71738  HIT:      61888  MISS:       9850  HIT %:    86.2695  MISS %:    13.7305  MPKI: 0.197
LLC WRITEBACK DATA	ACCESS:      71472  HIT:      71161  MISS:        311  HIT %:    99.5649  MISS %:   0.435135  MPKI: 0.00622
LLC LOAD TRANSLATION DATA	ACCESS:       1327  HIT:       1243  MISS:         84  HIT %:    93.6699  MISS %:    6.33007  MPKI: 0.00168
LLC TRANSLATION FROM L1D PREFETCHER DATA	ACCESS:         14  HIT:         14  MISS:          0  HIT %:        100  MISS %:          0  MPKI: 0

LLC AVERAGE MISS LATENCY: 154.85 cycles
LLC RQ	ACCESS:     388308	FORWARD:          0	MERGED:          0	TO_CACHE:     388301
LLC WQ	ACCESS:      71474	FORWARD:          7	MERGED:          0	TO_CACHE:      71474
LLC PQ	ACCESS:      71738	FORWARD:          0	MERGED:          0	TO_CACHE:      71738

LLC Dense regions hint to LLC: 0

RAW hits: 1952332
Loads Generated: 12628869
Loads sent to L1D: 10676537
Stores Generated: 6949757
Stores sent to L1D: 6949781
Major fault: 0 Minor fault: 2587
Allocated PAGES: 2587

stream: 
stream:times selected: 1175690
stream:pref_filled: 121219
stream:pref_useful: 24044
stream:pref_late: 6748
stream:misses: 8026
stream:misses_by_poll: 0

CS: 
CS:times selected: 176854
CS:pref_filled: 60923
CS:pref_useful: 37559
CS:pref_late: 6500
CS:misses: 15662
CS:misses_by_poll: 8

CPLX: 
CPLX:times selected: 997664
CPLX:pref_filled: 19745
CPLX:pref_useful: 4545
CPLX:pref_late: 3352
CPLX:misses: 94158
CPLX:misses_by_poll: 0

NL_L1: 
NL:times selected: 20672
NL:pref_filled: 677
NL:pref_useful: 295
NL:pref_late: 350
NL:misses: 1813
NL:misses_by_poll: 0

total selections: 2370880
total_filled: 95164
total_useful: 33647
total_late: 18169
total_polluted: 8
total_misses_after_warmup: 774202
conflicts: 5523810

test: 115629

DRAM Statistics
 CHANNEL 0
 RQ ROW_BUFFER_HIT:       9974  ROW_BUFFER_MISS:      16970
 DBUS_CONGESTED:         12
 WQ ROW_BUFFER_HIT:       1301  ROW_BUFFER_MISS:      11659  FULL:          0

 AVG_CONGESTED_CYCLE: 5

CPU 0 Branch Prediction Accuracy: 99.8269% MPKI: 0.31696 Average ROB Occupancy at Mispredict: 185.972
Branch types
NOT_BRANCH: 40846402 81.6928%
BRANCH_DIRECT_JUMP: 547869 1.09574%
BRANCH_INDIRECT: 182376 0.364752%
BRANCH_CONDITIONAL: 6178982 12.358%
BRANCH_DIRECT_CALL: 949410 1.89882%
BRANCH_INDIRECT_CALL: 172792 0.345584%
BRANCH_RETURN: 1122204 2.24441%
BRANCH_OTHER: 0 0%

DRAM PAGES: 1048576
Allocated PAGES: 2587
Average_ROB_Occupancy: 241.084
Average_Decode_Occupancy: 34.2796
Average_FTQ_Occupancy: 13.1405
Indirect max targets: 14 Average targets: 1.14527
Branch_type:  BRANCH_DIRECT_JUMP:  Count Percentage: 3.38073 5.42582 4.18493 7.86647 1.69073 5.96347 1.1486 70.3393 
Branch_type:  BRANCH_INDIRECT:  Count Percentage: 11.7572 3.41318 2.49149 9.67814 3.35227 4.01822 2.01871 63.2708 
Branch_type:  BRANCH_CONDITIONAL:  Count Percentage: 21.3705 5.35117 2.31055 4.30727 2.1385 4.44314 0.647674 59.4311 
Branch_type:  BRANCH_DIRECT_CALL:  Count Percentage: 0.256492 1.30821 1.41073 3.45064 2.85587 2.34099 0.608595 87.7685 
Branch_type:  BRANCH_INDIRECT_CALL:  Count Percentage: 9.51905 0.554184 2.98472 4.81703 1.5067 2.97342 0.991043 76.6539 
Branch_type:  BRANCH_RETURN:  Count Percentage: 3.72484 3.62119 1.61679 5.90196 4.43224 4.8696 1.02589 74.8075 
Branch_type:  BRANCH_DIRECT_JUMP:  Total Count: 36998 59379 45799 86089 18503 65263 12570 769778 
Branch_type:  BRANCH_INDIRECT:  Total Count: 42848 12439 9080 35271 12217 14644 7357 230584 
Branch_type:  BRANCH_CONDITIONAL:  Total Count: 2638941 660789 285318 531883 264073 548661 79978 7338852 
Branch_type:  BRANCH_DIRECT_CALL:  Total Count: 4861 24793 26736 65396 54124 44366 11534 1663375 
Branch_type:  BRANCH_INDIRECT_CALL:  Total Count: 32859 1913 10303 16628 5201 10264 3421 264603 
Branch_type:  BRANCH_RETURN:  Total Count: 83480 81157 36235 132273 99334 109136 22992 1676562 
Number of unique branch instructions: 9858
Upper 32 bits: 
aaaa
ffff
ffff0000
Unique upper 32 bits: 3
Unique upper 36 bits: 3
Unique upper 40 bits: 5
Unique upper 44 bits: 32
Unique upper 48 bits: 154
Variant_0 : 1407 0.229004
Variant_1 : 1408 0.229167
Variant_2 : 1523 0.247884
Variant_3 : 0 0
Offset_3 4068
Offset_4 241
Offset_5 453
Offset_6 505
Offset_7 585
Offset_8 497
Offset_9 466
Offset_10 380
Offset_11 312
Offset_12 270
Offset_13 203
Offset_14 226
Offset_15 192
Offset_16 222
Offset_17 145
Offset_18 120
Offset_19 239
Offset_20 137
Offset_21 235
Offset_22 394
Offset_23 242
Offset_24 328
Offset_25 88
Offset_47 80
Offset_64 1
decode_dispatch_called: 25527481 70.9018
Dispatch_width: 0 13677636 53.58 37.9892
Dispatch_width: 1 970322 3.80109 2.69504
Dispatch_width: 2 834459 3.26887 2.31768
Dispatch_width: 3 505559 1.98045 1.40417
Dispatch_width: 4 5619555 22.0137 15.6081
Dispatch_width: 5 153834 0.602621 0.427269
Dispatch_width: 6 3766116 14.7532 10.4603
Empty_decode_cycles: 10476520 29.0982
ROB_full_cycles: 8967721 24.9076
Starvation_cycles_per_kilo_instr: 232.702
Starvation_cycles_per_kilo_instr_3: 174.968
Starvation_cycles_per_kilo_instr_0: 151.864
Branch_type_1  (3,1)  (4,9)  (5,37)  (6,70)  (7,116)  (8,124)  (9,124)  (10,96)  (11,69)  (12,43)  (13,8)  (14,2)  (15,3)  (16,4)  (18,1)  (19,4)  (20,2)  (21,1)  (22,3)  (23,2)  (24,10)  (25,12) 
Branch_type_2  (3,1)  (5,1)  (8,3)  (9,3)  (12,1)  (13,1)  (14,1)  (16,3)  (17,2)  (20,2)  (21,2)  (23,5)  (24,1)  (47,36) 
Branch_type_3  (3,4066)  (4,232)  (5,411)  (6,420)  (7,438)  (8,308)  (9,253)  (10,156)  (11,126)  (12,50)  (13,7)  (64,1) 
Branch_type_4  (6,3)  (7,8)  (8,25)  (9,54)  (10,61)  (11,60)  (12,97)  (13,85)  (14,101)  (15,91)  (16,100)  (17,63)  (18,54)  (19,117)  (20,72)  (21,124)  (22,209)  (23,136)  (24,188)  (25,72) 
Branch_type_5  (8,2)  (9,1)  (10,3)  (11,5)  (12,3)  (13,14)  (14,16)  (15,11)  (16,20)  (17,13)  (18,16)  (19,12)  (20,10)  (21,13)  (22,42)  (23,26)  (24,37) 
Branch_type_6  (5,4)  (6,12)  (7,23)  (8,35)  (9,31)  (10,64)  (11,52)  (12,76)  (13,88)  (14,106)  (15,87)  (16,95)  (17,67)  (18,49)  (19,106)  (20,51)  (21,95)  (22,140)  (23,73)  (24,92)  (25,4)  (47,44) 
Unique trigger count: 
Variant_0_evicts_0 : 0
Variant_0_evicts_1 : 0
Variant_0_evicts_2 : 0
Variant_0_evicts_3 : 0
Variant_1_evicts_0 : 0
Variant_1_evicts_1 : 0
Variant_1_evicts_2 : 0
Variant_1_evicts_3 : 0
Variant_2_evicts_0 : 0
Variant_2_evicts_1 : 0
Variant_2_evicts_2 : 0
Variant_2_evicts_3 : 0
Variant_3_evicts_0 : 0
Variant_3_evicts_1 : 0
Variant_3_evicts_2 : 0
Variant_3_evicts_3 : 0
BTB PER SET UNIQUE ADDR: 6 4 5 8 4 6 8 4 5 6 6 7 2 7 9 6 4 5 5 6 4 3 4 6 5 8 6 7 3 7 6 8 3 5 8 7 7 3 4 4 7 5 5 5 3 5 6 6 7 6 5 7 3 6 7 3 6 3 7 3 5 5 4 5 7 4 5 7 8 6 3 9 3 5 5 8 9 5 7 9 8 8 8 5 4 6 3 8 5 6 5 4 6 5 6 4 8 4 8 5 3 5 5 7 4 5 6 5 8 8 6 3 2 4 8 6 5 5 6 6 7 5 7 5 6 8 5 4 6 4 5 6 4 3 3 7 4 4 7 7 2 8 3 4 6 7 8 5 4 5 6 8 4 6 6 6 5 4 7 7 4 5 8 7 5 4 5 5 7 6 8 4 6 5 5 6 5 9 4 3 4 5 6 8 6 3 4 5 5 6 6 3 6 3 5 5 4 5 4 6 7 6 4 7 5 6 6 7 6 6 5 9 5 8 4 4 5 2 6 5 3 5 6 4 6 7 7 5 7 6 2 7 5 4 6 9 7 8 5 10 5 7 8 7 7 8 4 7 7 5 4 6 5 3 6 7 8 5 5 5 9 6 6 3 3 5 7 8 7 4 8 6 4 7 8 6 4 3 8 3 8 7 2 8 4 9 8 6 6 4 4 6 5 5 5 8 6 5 7 8 6 7 4 7 6 4 4 6 7 4 3 5 5 5 8 5 6 8 6 5 6 6 5 4 9 6 5 6 3 5 5 8 6 2 3 3 2 6 8 4 4 6 7 7 5 7 7 5 5 6 5 8 3 5 6 6 4 10 5 5 6 7 4 7 3 5 3 5 5 7 8 6 9 6 5 6 5 4 4 7 5 5 6 4 5 5 4 5 6 8 4 8 5 6 5 4 6 6 4 3 7 5 7 5 4 6 9 6 11 8 4 2 3 4 7 4 7 7 4 8 7 5 6 6 7 4 6 8 7 4 9 3 2 3 3 3 9 2 5 6 7 4 3 8 4 3 6 4 4 4 7 4 5 4 7 8 6 4 7 7 3 6 3 9 7 5 6 6 4 6 6 4 5 5 5 9 4 5 4 4 6 5 5 7 5 5 5 7 6 8 11 5 3 7 4 9 7 6 4 7 6 4 6 8 8 6 4 9 4 4 3 7 4 3 2 3 6 2 4 4 3 3 3 3 4 4 2 4 3 4 4 4 5 3 4 5 5 5 3 5 3 5 5 5 4 3 3 9 2 3 3 4 1 4 2 7 5 1 6 2 1 2 4 5 2 2 3 4 2 2 2 3 1 3 2 5 4 4 4 5 3 4 3 3 3 4 3 3 4 4 7 4 3 3 2 4 5 4 3 4 4 2 2 2 3 3 5 3 3 2 2 4 3 4 2 6 4 4 3 4 3 2 3 3 3 5 1 4 3 5 2 6 5 3 3 1 3 3 4 4 3 4 1 2 3 4 3 5 2 4 2 3 3 4 3 5 4 0 2 3 3 3 3 3 3 1 2 3 6 3 4 3 3 3 4 1 3 4 3 6 4 5 3 4 5 3 3 6 8 2 6 3 4 2 1 5 3 3 4 7 4 2 3 2 4 4 3 3 4 3 5 2 2 2 4 4 2 3 3 3 5 5 2 3 5 5 4 4 2 3 3 4 5 2 2 3 6 2 3 4 5 4 3 5 2 2 6 2 4 2 4 4 6 4 4 5 2 2 3 3 3 2 3 4 3 4 6 9 2 6 3 3 1 2 2 4 3 5 1 5 2 3 4 5 8 7 3 5 5 7 3 3 4 6 5 2 8 3 4 2 6 3 2 1 6 3 5 4 3 1 3 3 0 3 1 4 3 3 3 3 5 3 4 2 5 2 4 2 5 2 6 4 3 3 5 2 7 3 2 3 1 5 3 3 3 3 5 3 4 3 5 2 4 4 5 1 6 5 1 4 3 8 3 6 6 3 6 4 4 5 5 1 6 3 2 3 2 3 4 3 3 4 4 6 1 3 7 5 2 0 5 3 2 2 5 2 1 4 3 5 4 4 4 3 4 3 5 4 4 4 4 3 4 3 5 2 3 2 4 3 2 6 3 7 3 1 5 4 2 5 1 3 3 2 3 3 4 2 2 5 5 5 1 6 3 2 4 3 4 3 4 4 5 5 7 5 4 3 5 2 3 3 4 3 6 2 6 3 2 5 5 3 2 4 1 3 1 2 5 4 3 3 3 4 4 1 4 3 5 4 4 3 5 3 6 3 2 5 2 4 6 2 4 2 3 5 3 4 2 2 3 4 5 3 3 3 2 3 4 5 2 2 4 5 6 4 4 4 5 3 2 4 4 4 3 5 5 3 3 3 4 4 3 5 8 2 5 5 2 4 3 3 5 3 5 5 5 5 2 2 2 5 4 3 2 3 6 4 3 2 3 6 4 5 5 3 3 4 3 3 5 1 1 5 3 4 5 2 2 5 3 6 6 8 5 2 4 4 1 3 5 4 5 6 4 3 2 5 2 2 3 6 3 3 7 3 7 3 5 4 3 3 2 5 2 6 4 5 3 2 5 3 3 1 3 4 6 2 4 1 5 3 2 2 4 5 3 4 4 3 5 3 3 3 5 1 4 5 3 3 3 3 4 1 2 2 4 4 5 5 8 6 5 3 3 5 4 3 3 3 6 2 7 4 3 5 5 2 4 5 4 5 2 0 2 4 5 3 4 2 2 3 3 4 2 1 4 2 4 2 3 4 3 2 3 4 5 4 5 6 6 1 3 5 5 7 5 4 4 2 4 2 4 2 5 5 3 3 4 1 6 3 5 4 4 4 3 2 2 5 3 4 4 2 3 3 4 3 2 4 2 2 8 4 2 3 5 5 2 5 8 3 6 4 2 3 5 4 4 2 2 3 8 5 3 3 2 4 3 3 6 5 5 3 3 3 4 5 3 3 2 1 3 7 3 3 3 3 3 4 4 7 5 2 2 4 6 2 2 4 4 5 3 4 6 2 3 4 5 3 3 4 4 5 5 4 5 5 4 8 3 3 5 3 3 6 4 2 5 2 3 3 3 4 4 1 5 2 5 3 6 2 4 3 4 2 0 4 1 6 3 4 2 5 4 5 4 5 3 5 1 3 3 3 3 2 4 5 4 4 3 3 5 4 1 5 3 2 2 5 4 4 2 2 2 3 6 3 2 8 3 4 3 5 4 2 4 2 2 4 4 4 5 4 5 5 4 4 2 4 6 2 3 6 7 5 4 5 5 2 5 4 5 2 5 5 3 3 4 3 2 2 4 2 2 4 4 1 5 5 5 2 4 7 4 4 2 3 4 3 5 2 3 1 4 5 4 2 5 9 3 4 3 4 4 5 4 3 2 6 4 4 1 3 6 6 5 2 2 4 4 2 6 6 4 6 4 4 5 1 2 6 3 4 2 3 4 5 2 5 3 2 2 5 3 2 5 4 5 3 3 3 3 1 4 3 
BTB PER SET COUNT: 6 1477 1479 1638 4 6 10 4 5 487 53 7 2 7 49 6 4 7 5 7 4 3 4 109 482 920 7 370 5 7 6 8 3 5 8 8 9 3 4 4 8 2946 6 5 3 5 484 6 7 6 6 8 3 8 7 3 487 3 7 3 5 5 6 9 7 4 93 10 9 7 3 10 3 6 5 8 9 5 1006 11 10 8 961 5 4 6 3 8 482 1991 5 12 612 5 7 4 8 5 12 5 5 5 5 7 5 5 6 5 8 2948 6 4 3 4 10 6 5 6 6 1944 11 6 715 9 6 9 5 4 430 6 998 6 4 3 3 8 4 4 7 7 2 8 3 4 8 7 10 6 4 19 9 924 4 6 6 999 7 4 7 14 4 5 10 9 5 4 5 5 7 974 11 4 7 5 5 6 5 9 4 3 4 5 6 8 7 3 4 5 5 487 6 3 6 959 6 523 4 5 4 6 9 1479 5 8 5 6 6 7 32 6 7 10 5 350 4 4 5 2 370 6 3 5 8 4 6 8 8 5 9 7 271 7 5 14723 962 10 7 15 5 10 6 7 8 484 9 8 7770 158 1478 6 4 6 6 7 7 11 10 6 6 5 9 6 6 3 3 6 12 8 1478 4 23 7 4 7 10 6 4 3 8 4 8 7 2 12 5 9 8 6 6 4 5 7 5 5 15 8 6 630 7 8 7 9 4 8 10 4 4 6 8 7 3 5 5 5 8 7 7 8 6 5 6 6 5 6 1992 7 6 8 3 5 5 8 8 2 4 3 2 6 8 7 4 6 8 8 5 8 9 5 6 7 5 10 3 5 7 6 4 10 12 149 8 9 1475 8 3 6 72 6 5 9 8 6 1958 6 5 6 5 4 4 7 5 350 6 4 6 5 4 5 6 8 4 9 5 6 5 4 1361 6 365 3 9 8 7 7 9 6 9 46 13 8 4 2 3 4 8 4 7 43 5 8 7 5 7 6 7 415 6 9 7 4 9 960 2 3 3 3 9 3 5 6 9 4 3 8 413 3 1478 4 4 5 8 404 5 4 369 8 6 4 7 82 959 490 960 9 220 5 8 11 4 6 2353 523 5 6 6 13 4 5 4 4 6 5 5 1477 82 5 961 485 61 8 1006 5 3 7 4 9 8 6 4 7 144 4 8 8 8 6 4 13 4 4 3 1207 4 5 2 3 6 2 4 4 3 3 3 3 5 4 2 6 3 4 4 4 6 8 29 8 6 89 5 5 6 5 5 5 4 1480 3 9 2 4 3 4 957 4 2 7 5 1 6 3 957 2 4 6 2 2 4 4 958 3 2 3 1 3 2 5 4 4 4 5 6 4 3 5 6 4 3 3 4 1049 7 4 4 959 2 4 1476 5 3 4 5 2 958 2 4 3 957 3 3 2 2 4 3 5 2 6 7 4 3 4 3 2 4 4 4 6 1 4 3 5 954 6 5 4 3 1 3 3 4 4 4 4 1 3 3 4 3 7 3 4 2 4 3 4 3 5 4 0 2 3 3 1474 3 3 3 1 2 3 6 3 4 3 3 2946 4 1 3 5 3 6 997 373 3 4 6 3 3 1478 8 2 6 3 5 2 1 6 3 3 4 9 4 2 3 2 4 5 3 3 4 3 6 2 2 2 5 481 2 3 3 4 7 5 2 3 5 5 4 4 3 12 3 4 6 2 2 3 6 2 3 4 5 4 4 5 2 2 7 2 5 2 4 5 7 5 4 5 2 2 3 3 4 2 3 46 3 5 7 3430 2 6 9 3 1 2 2 4 3 5 1 6 2 3 4 6 8 7 3 5 289 7 4 3 4 6 5 2 9 3 4 2 11 3 2 1 6 3 5 4 3 2 4 3 0 3 1 5 3 3 3 3 5 3 6 2 5 2 5 2 158 479 12 5 3 3 5 2 7 3 2 4 1 998 3 3 3 3 1000 3 8 3 5 2 4 6 1920 1 6 5 1 6 3 9 3 6 483 3 7 4 5 5 6 1 135 3 3 3 3 3 4 3 3 4 4 7 1 3 8 6 2 0 1477 3 2 2872 7 2 1 9 3 6 4 6 4 955 5 3 5 6 5 4 4 3 4 3 5 523 6 2 4 3 1431 6 3 8 3 1 55 4 2 5 2 5 4 2 3 3 4 2 2 5 5 6 1 6 3 2 4 3 4 3 4 6 5 5 967 6 4 3 5 2 3 3 5 4 7 2 485 3 2 5 5 3 7 12 3 3 1 2 8 4 3 5 3 5 5 2 4 1027 5 4 5 3 5 3 6 3 2 1476 2 5 6 3 5 1916 3 6 3 4 1473 2 3 4 7 3 3 4 2 4 5 5 2 2 4 5 7 4 4 4 10 3 3 4 4 4 3 7 5 3 3 4 4 481 3 5 9 2 486 9 2 4 3 3 5 3 7 5 5 1476 2 4 2 5 4 3 3 3 6 4 4 2 3 436 4 5 5 3 3 4 3 6 7 1 1 998 32 4 6 2 2 5 3 8 9 11 6 4 5 4 1 3 7 7 6 2470 365 3 3 6 2 2 3 7 3 3 7 3 8 153 6 4 3 3 3 5 2 6 4 5 3 2 5 3 3 1 3 4 9 2 5 1 5 20611 2 2 4 9 3 4 4 5 5 3 3 3 5 1 4 6 3 3 3 3 4 1 2 2 4 4 5 5 486 6 5 958 3 5 5 3 4 3 1478 2 8 4 247 7 998 2 4 7 4 6 2 0 1999 482 6 3 4 2 2 5 3 6 2 1 4 2 4 2 3 4 3 2 3 4 5 4 5 6 354 1 4 5 5 7 5 6 4 2 5 2 4 2 5 6 1423 3 4 1 7 11 5 6 5 4 1474 2 2 5 3 482 4 2 3 3 4 3 2 5 2 2 8 4 995 3 5 5 2 5 8 3 9 4 2 3 10 4 4 2 2 3 8 1000 3 3 2 4 3 3 10 5 6 3 3 3 4 5 3 3 4 1 3 12 3 3 4 4 3 4 4 11 6 2 2 5 8 2 2 8 4 5 3 5 6 2 3 1478 8 3 3 4 4 5 7 4 6 5 4 8 3 3 6 3 3 6 4 2 5 2 3 3 3 4 4 1 5 2 5 5 15 2 4 3 6 2 0 4 1 6 3 4 2 8 9 6 4 5 3 486 1 3 3 3 3 2 4 7 4 960 3 3 6 4 1 5 3 2 2 5 4 7 2 2 2 3 6 3 2 92 3 4 3 5 4 2 4 2 2 4 4 4 5 6 7 7 7 4 3 2460 6 2 3 2986 9 5 4 22 5 2 6 9 8 2 6 6 3 4 4 3 2 2 4 2 2 4 4 1 6 5 5 2 4 8 4 1478 2 3 5 3 6 2 3 1 4 6 4 2 8 9 3 4 996 4 4 5 4 6 2 6 5 4 1 3 12 6 6 2 2 4 241 2 6 6 4 999 4 4 5 1 2 6 3 4 2 3 5 6 2 998 3 2 2 1480 3 2 5 4 999 3 3 3 3 1 4 3 
To predecode: 0
Predecoding something: 0
Predecode request dropped: 0
sizeofblock_0 0
sizeofblock_1 34334
sizeofblock_2 42813
sizeofblock_3 32604
sizeofblock_4 18494
sizeofblock_5 0
sizeofblock_6 0
sizeofblock_7 0
sizeofblock_8 0
Variant_0 Correct: 1618421 Incorrect: 0 Accuracy: 1
Variant_1 Correct: 2095468 Incorrect: 0 Accuracy: 1
Variant_2 Correct: 3659786 Incorrect: 603 Accuracy: 0.999835
Variant_3 Correct: 0 Incorrect: 0 Accuracy: -nan
