
*** ChampSim Multicore Out-of-Order Simulator ***

Warmup Instructions: 50000000
Simulation Instructions: 50000000
Number of CPUs: 1
LLC sets: 2048
LLC ways: 16
Off-chip DRAM Size: 4096 MB Channels: 1 Width: 64-bit Data Rate: 6400 MT/s
CPU 0 runs ./micro_traces/srv38.trace.gz
.gz
ITLB has LRU replacement policy
DTLB has LRU replacement policy
STLB has LRU replacement policy
CPU 0 L1I next line prefetcher
L1I has LRU replacement policy
L1D has LRU replacement policy
Initialize SRRIP state for L2C
Initialize DRRIP state for LLC
Heartbeat CPU 0 instructions: 10000000 cycles: 2796793 heartbeat IPC: 3.57552 cumulative IPC: 3.57552 (Simulation time: 0 hr 1 min 41 sec) 
Heartbeat CPU 0 instructions: 20000002 cycles: 5591055 heartbeat IPC: 3.57876 cumulative IPC: 3.57714 (Simulation time: 0 hr 3 min 16 sec) 
Heartbeat CPU 0 instructions: 30000003 cycles: 8387072 heartbeat IPC: 3.57652 cumulative IPC: 3.57693 (Simulation time: 0 hr 4 min 52 sec) 
Heartbeat CPU 0 instructions: 40000000 cycles: 11182671 heartbeat IPC: 3.57705 cumulative IPC: 3.57696 (Simulation time: 0 hr 6 min 30 sec) 
Heartbeat CPU 0 instructions: 50000001 cycles: 13978091 heartbeat IPC: 3.57728 cumulative IPC: 3.57703 (Simulation time: 0 hr 8 min 7 sec) 

Warmup complete CPU 0 instructions: 50000001 cycles: 13978091 (Simulation time: 0 hr 8 min 7 sec) 

*** Reached end of trace for Core: 0 Repeating trace: ./micro_traces/srv38.trace.gz
Cycle: 20000000 FTQ IN: 57487312 FTQ occupancy: 17.9862 DECODE IN: 57487294 DECODE occupancy: 47.3388 ROB IN: 57487248 ROB occupancy: 297.288 ROB OUT: 57486900
Heartbeat CPU 0 instructions: 60000003 cycles: 21983618 heartbeat IPC: 1.24914 cumulative IPC: 1.24914 (Simulation time: 0 hr 9 min 34 sec) 
Heartbeat CPU 0 instructions: 70000002 cycles: 29970361 heartbeat IPC: 1.25207 cumulative IPC: 1.2506 (Simulation time: 0 hr 11 min 0 sec) 
Cycle: 30000000 FTQ IN: 12552887 FTQ occupancy: 6.16933 DECODE IN: 12552905 DECODE occupancy: 17.343 ROB IN: 12552951 ROB occupancy: 175.519 ROB OUT: 12553195
Heartbeat CPU 0 instructions: 80000002 cycles: 37843709 heartbeat IPC: 1.27011 cumulative IPC: 1.25704 (Simulation time: 0 hr 12 min 23 sec) 
Cycle: 40000000 FTQ IN: 12678480 FTQ occupancy: 6.13812 DECODE IN: 12678476 DECODE occupancy: 17.6971 ROB IN: 12678476 ROB occupancy: 178.395 ROB OUT: 12678560
Heartbeat CPU 0 instructions: 90000003 cycles: 45802564 heartbeat IPC: 1.25646 cumulative IPC: 1.25689 (Simulation time: 0 hr 13 min 48 sec) 
Cycle: 50000000 FTQ IN: 12625226 FTQ occupancy: 6.3117 DECODE IN: 12625230 DECODE occupancy: 17.9547 ROB IN: 12625230 ROB occupancy: 177.794 ROB OUT: 12625189
Heartbeat CPU 0 instructions: 100000003 cycles: 53641859 heartbeat IPC: 1.27562 cumulative IPC: 1.2606 (Simulation time: 0 hr 15 min 9 sec) 
Finished CPU 0 instructions: 50000002 cycles: 39663768 cumulative IPC: 1.2606 (Simulation time: 0 hr 15 min 9 sec) 

ChampSim completed all CPUs

Region of Interest Statistics

CPU 0 cumulative IPC: 1.2606 instructions: 50000002 cycles: 39663768
 Fetch stage stalled: 66.0409  Sim cycles: 39663768 fetch stall cycle: 26194291
 Empty decode stage: 48.6612  Sim cycles: 39663768 fetch stall cycle: 19300851
ITLB TOTAL     ACCESS:    7557363  HIT:    6949993  MISS:     607370  HIT %:    91.9632  MISS %:     8.0368   MPKI: 12.1474
ITLB LOAD TRANSLATION INSTRUCTION	ACCESS:    5819817  HIT:    5692215  MISS:     127602  HIT %:    97.8075  MISS %:    2.19254  MPKI: 2.55204
ITLB TRANSLATION FROM L1D PREFETCHER INSTRUCTION	ACCESS:    1737546  HIT:    1257778  MISS:     479768  HIT %:    72.3882  MISS %:    27.6118  MPKI: 9.59536

ITLB AVERAGE MISS LATENCY: 170427 cycles
ITLB RQ	ACCESS:   11464834	FORWARD:          0	MERGED:    3755256	TO_CACHE:    7709578

DTLB TOTAL     ACCESS:    9066771  HIT:    8591179  MISS:     475592  HIT %:    94.7546  MISS %:    5.24544   MPKI: 9.51184
DTLB LOAD TRANSLATION DATA	ACCESS:    9066771  HIT:    8591179  MISS:     475592  HIT %:    94.7546  MISS %:    5.24544  MPKI: 9.51184

DTLB AVERAGE MISS LATENCY: 9.33241 cycles
DTLB RQ	ACCESS:   13392869	FORWARD:          0	MERGED:    4289473	TO_CACHE:    9103396

STLB TOTAL     ACCESS:    1338819  HIT:    1336339  MISS:       2480  HIT %:    99.8148  MISS %:   0.185238   MPKI: 0.0496
STLB LOAD TRANSLATION INSTRUCTION	ACCESS:     124508  HIT:     124274  MISS:        234  HIT %:    99.8121  MISS %:    0.18794  MPKI: 0.00468
STLB TRANSLATION FROM L1D PREFETCHER INSTRUCTION	ACCESS:     482862  HIT:     482777  MISS:         85  HIT %:    99.9824  MISS %:  0.0176034  MPKI: 0.0017
STLB LOAD TRANSLATION DATA	ACCESS:     475591  HIT:     473455  MISS:       2136  HIT %:    99.5509  MISS %:   0.449125  MPKI: 0.04272
STLB TRANSLATION FROM L1D PREFETCHER DATA	ACCESS:     255858  HIT:     255833  MISS:         25  HIT %:    99.9902  MISS %: 0.00977104  MPKI: 0.0005

STLB AVERAGE MISS LATENCY: 66.5427 cycles
STLB RQ	ACCESS:    1488515	FORWARD:          0	MERGED:     146241	TO_CACHE:    1342274

STLB Hit, L1D data hit: 0
STLB Hit, L2C data hit: 0
STLB Hit, LLC data hit: 0
STLB Hit, LLC data miss: 0
STLB STLB hints to L2: 0
L1D TOTAL     ACCESS:   13133425  HIT:   11964754  MISS:    1168671  HIT %:    91.1016  MISS %:    8.89845   MPKI: 23.3734
L1D LOAD DATA	ACCESS:    6633245  HIT:    5864579  MISS:     768666  HIT %:    88.4119  MISS %:    11.5881  MPKI: 15.3733
L1D RFO DATA	ACCESS:    6166768  HIT:    5873155  MISS:     293613  HIT %:    95.2388  MISS %:    4.76121  MPKI: 5.87226
L1D PREFETCH DATA	ACCESS:     333412  HIT:     227020  MISS:     106392  HIT %:    68.0899  MISS %:    31.9101  MPKI: 2.12784

L1D PREFETCH  REQUESTED:     804738  ISSUED:     804738  USEFUL:      50197  USELESS:      70722
L1D USEFUL LOAD PREFETCHES:      50197 PREFETCH ISSUED TO LOWER LEVEL:     121012  ACCURACY: 41.481
 TIMELY PREFETCHES:      50197 LATE PREFETCHES: 14556 DROPPED PREFETCHES: 1
L1D AVERAGE MISS LATENCY: 414671 cycles
L1D RQ	ACCESS:   10739560	FORWARD:          0	MERGED:    3902794	TO_CACHE:    6672868
L1D WQ	ACCESS:    6907638	FORWARD:     164372	MERGED:     187637	TO_CACHE:    6720001
L1D PQ	ACCESS:     402606	FORWARD:          0	MERGED:          0	TO_CACHE:     402132

L1D UNIQUE REGIONS ACCESSED: 0
L1D REGIONS CONFLICTS: 0
L1D Cross Page Prefetch Requests: 5833
L1D Same Page Prefetch Requests: 813037
L1D ROI Sum of L1D PQ occupancy: 5145496
L1D PREFETCHES PUSHED FROM L2C: 0
L1I TOTAL     ACCESS:   11075512  HIT:    7450483  MISS:    3625029  HIT %:    67.2699  MISS %:    32.7301   MPKI: 72.5006
L1I LOAD INSTRUCTION	ACCESS:    6556754  HIT:    5992890  MISS:     563864  HIT %:    91.4003  MISS %:    8.59974  MPKI: 11.2773
L1I PREFETCH INSTRUCTION	ACCESS:    4518758  HIT:    1457593  MISS:    3061165  HIT %:    32.2565  MISS %:    67.7435  MPKI: 61.2233

L1I PREFETCH  REQUESTED:    5203936  ISSUED:    5202453  USEFUL:    2364728  USELESS:     787473
L1I USEFUL LOAD PREFETCHES:    2364728 PREFETCH ISSUED TO LOWER LEVEL:    3152166  ACCURACY: 75.0191
 TIMELY PREFETCHES:    2364728 LATE PREFETCHES: 91002 DROPPED PREFETCHES: 9949
L1I AVERAGE MISS LATENCY: 835132 cycles
L1I RQ	ACCESS:    9452445	FORWARD:          0	MERGED:    2850929	TO_CACHE:    6601516
L1I PQ	ACCESS:    5202453	FORWARD:          0	MERGED:     339135	TO_CACHE:    4863318

L1BTB TOTAL     ACCESS:    5680880  HIT:    2074069  MISS:    3606811  HIT %:    36.5096  MISS %:    63.4904   MPKI: 72.1362
L1BTB BRANCH_DIRECT_JUMP	ACCESS:     543196  HIT:     143760  MISS:     399436	AVERAGE STALL: 24.2222
L1BTB BRANCH_INDIRECT	ACCESS:     181400  HIT:      65433  MISS:     115967	AVERAGE STALL: 112.893
L1BTB BRANCH_CONDITIONAL	ACCESS:    2732099  HIT:    1447736  MISS:    1284363	AVERAGE STALL: 27.9029
L1BTB BRANCH_DIRECT_CALL	ACCESS:     941242  HIT:     104903  MISS:     836339	AVERAGE STALL: 29.0846
L1BTB BRANCH_INDIRECT_CALL	ACCESS:     170851  HIT:      21534  MISS:     149317	AVERAGE STALL: 124.748
L1BTB BRANCH_RETURN	ACCESS:    1112092  HIT:     290703  MISS:     821389	AVERAGE STALL: 30.2069
L1BTB BRANCH_OTHER ACCESS:          0  HIT:          0  MISS:          0	AVERAGE STALL: -nan
L1BTB TOTAL ROB OCCUPANCY AT BTB MISS: 16.9205

L2BTB1 TOTAL     ACCESS:    3581852  HIT:    3181135  MISS:     400717  HIT %:    88.8126  MISS %:    11.1874   MPKI: 8.01434
L2BTB1 BRANCH_DIRECT_JUMP	ACCESS:     395331  HIT:     359455  MISS:      35876	AVERAGE STALL: 24.2222
L2BTB1 BRANCH_INDIRECT	ACCESS:     105742  HIT:      83659  MISS:      22083	AVERAGE STALL: 112.893
L2BTB1 BRANCH_CONDITIONAL	ACCESS:    1284363  HIT:    1177847  MISS:     106516	AVERAGE STALL: 27.9029
L2BTB1 BRANCH_DIRECT_CALL	ACCESS:     836339  HIT:     723029  MISS:     113310	AVERAGE STALL: 29.0846
L2BTB1 BRANCH_INDIRECT_CALL	ACCESS:     139905  HIT:     116023  MISS:      23882	AVERAGE STALL: 124.748
L2BTB1 BRANCH_RETURN	ACCESS:     820172  HIT:     721122  MISS:      99050	AVERAGE STALL: 30.2069
L2BTB1 BRANCH_OTHER ACCESS:          0  HIT:          0  MISS:          0	AVERAGE STALL: -nan
L2BTB1 TOTAL ROB OCCUPANCY AT BTB MISS: 152.3

L2C TOTAL     ACCESS:    6668765  HIT:    5627567  MISS:    1041198  HIT %:    84.3869  MISS %:    15.6131   MPKI: 20.824
L2C LOAD INSTRUCTION	ACCESS:     472862  HIT:     373207  MISS:      99655  HIT %:    78.9251  MISS %:    21.0749  MPKI: 1.9931
L2C PREFETCH INSTRUCTION	ACCESS:    3152166  HIT:    2779440  MISS:     372726  HIT %:    88.1756  MISS %:    11.8244  MPKI: 7.45452
L2C LOAD TRANSLATION INSTRUCTION	ACCESS:        271  HIT:         80  MISS:        191  HIT %:    29.5203  MISS %:    70.4797  MPKI: 0.00382
L2C TRANSLATION FROM L1D PREFETCHER INSTRUCTION	ACCESS:       4897  HIT:       4795  MISS:        102  HIT %:    97.9171  MISS %:    2.08291  MPKI: 0.00204
L2C LOAD DATA	ACCESS:     754046  HIT:     584586  MISS:     169460  HIT %:    77.5266  MISS %:    22.4734  MPKI: 3.3892
L2C RFO DATA	ACCESS:     293519  HIT:     203534  MISS:      89985  HIT %:    69.3427  MISS %:    30.6573  MPKI: 1.7997
L2C PREFETCH DATA	ACCESS:    1456994  HIT:    1184248  MISS:     272746  HIT %:    81.2802  MISS %:    18.7198  MPKI: 5.45492
L2C WRITEBACK DATA	ACCESS:     531675  HIT:     497074  MISS:      34601  HIT %:    93.4921  MISS %:    6.50792  MPKI: 0.69202
L2C LOAD TRANSLATION DATA	ACCESS:       2300  HIT:        576  MISS:       1724  HIT %:    25.0435  MISS %:    74.9565  MPKI: 0.03448
L2C TRANSLATION FROM L1D PREFETCHER DATA	ACCESS:         35  HIT:         27  MISS:          8  HIT %:    77.1429  MISS %:    22.8571  MPKI: 0.00016

L2C PREFETCH  REQUESTED:    3277144  ISSUED:    3277144  USEFUL:      35239  USELESS:     613502
L2C USEFUL LOAD PREFETCHES:      35239 PREFETCH ISSUED TO LOWER LEVEL:     647953  ACCURACY: 5.43851
 TIMELY PREFETCHES:      35239 LATE PREFETCHES: 2481 DROPPED PREFETCHES: 0
L2C AVERAGE MISS LATENCY: 35.1078 cycles
L2C RQ	ACCESS:    1528024	FORWARD:          0	MERGED:          0	TO_CACHE:    1527930
L2C WQ	ACCESS:     531675	FORWARD:         94	MERGED:          0	TO_CACHE:     531675
L2C PQ	ACCESS:    6550322	FORWARD:          0	MERGED:    1920098	TO_CACHE:    4630224

L2C Dense regions hint from L2: 0
PSCL5 TOTAL     ACCESS:      11804  HIT:       5902  MISS:       5902  HIT %:         50  MISS %:         50   MPKI: 0.11804
PSCL5 LOAD TRANSLATION INSTRUCTION	ACCESS:       4720  HIT:       2360  MISS:       2360  HIT %:         50  MISS %:         50  MPKI: 0.0472
PSCL5 TRANSLATION FROM L1D PREFETCHER INSTRUCTION	ACCESS:       7084  HIT:       3542  MISS:       3542  HIT %:         50  MISS %:         50  MPKI: 0.07084


PSCL4 TOTAL     ACCESS:       5618  HIT:       2805  MISS:       2813  HIT %:    49.9288  MISS %:    50.0712   MPKI: 0.05626
PSCL4 LOAD TRANSLATION INSTRUCTION	ACCESS:       1549  HIT:       1347  MISS:        202  HIT %:    86.9593  MISS %:    13.0407  MPKI: 0.00404
PSCL4 TRANSLATION FROM L1D PREFETCHER INSTRUCTION	ACCESS:       1492  HIT:       1458  MISS:         34  HIT %:    97.7212  MISS %:    2.27882  MPKI: 0.00068
PSCL4 LOAD TRANSLATION DATA	ACCESS:       1153  HIT:          0  MISS:       1153  HIT %:          0  MISS %:        100  MPKI: 0.02306
PSCL4 TRANSLATION FROM L1D PREFETCHER DATA	ACCESS:       1424  HIT:          0  MISS:       1424  HIT %:          0  MISS %:        100  MPKI: 0.02848


PSCL3 TOTAL     ACCESS:      11678  HIT:       5829  MISS:       5849  HIT %:    49.9144  MISS %:    50.0856   MPKI: 0.11698
PSCL3 LOAD TRANSLATION INSTRUCTION	ACCESS:       2990  HIT:       2307  MISS:        683  HIT %:    77.1572  MISS %:    22.8428  MPKI: 0.01366
PSCL3 TRANSLATION FROM L1D PREFETCHER INSTRUCTION	ACCESS:       4556  HIT:       3522  MISS:       1034  HIT %:    77.3047  MISS %:    22.6953  MPKI: 0.02068
PSCL3 LOAD TRANSLATION DATA	ACCESS:       1644  HIT:          0  MISS:       1644  HIT %:          0  MISS %:        100  MPKI: 0.03288
PSCL3 TRANSLATION FROM L1D PREFETCHER DATA	ACCESS:       2488  HIT:          0  MISS:       2488  HIT %:          0  MISS %:        100  MPKI: 0.04976


PSCL2 TOTAL     ACCESS:       8882  HIT:       4341  MISS:       4541  HIT %:    48.8741  MISS %:    51.1259   MPKI: 0.09082
PSCL2 LOAD TRANSLATION INSTRUCTION	ACCESS:       2431  HIT:       2177  MISS:        254  HIT %:    89.5516  MISS %:    10.4484  MPKI: 0.00508
PSCL2 TRANSLATION FROM L1D PREFETCHER INSTRUCTION	ACCESS:       4293  HIT:       2164  MISS:       2129  HIT %:    50.4076  MISS %:    49.5924  MPKI: 0.04258
PSCL2 LOAD TRANSLATION DATA	ACCESS:       2123  HIT:          0  MISS:       2123  HIT %:          0  MISS %:        100  MPKI: 0.04246
PSCL2 TRANSLATION FROM L1D PREFETCHER DATA	ACCESS:         35  HIT:          0  MISS:         35  HIT %:          0  MISS %:        100  MPKI: 0.0007


LLC TOTAL     ACCESS:    1138718  HIT:    1106264  MISS:      32454  HIT %:      97.15  MISS %:    2.85005   MPKI: 0.64908
LLC LOAD INSTRUCTION	ACCESS:      98820  HIT:      98314  MISS:        506  HIT %:     99.488  MISS %:   0.512042  MPKI: 0.01012
LLC PREFETCH INSTRUCTION	ACCESS:     370282  HIT:     369493  MISS:        789  HIT %:    99.7869  MISS %:   0.213081  MPKI: 0.01578
LLC LOAD TRANSLATION INSTRUCTION	ACCESS:        191  HIT:        153  MISS:         38  HIT %:    80.1047  MISS %:    19.8953  MPKI: 0.00076
LLC TRANSLATION FROM L1D PREFETCHER INSTRUCTION	ACCESS:        102  HIT:         91  MISS:         11  HIT %:    89.2157  MISS %:    10.7843  MPKI: 0.00022
LLC LOAD DATA	ACCESS:     167839  HIT:     163835  MISS:       4004  HIT %:    97.6144  MISS %:    2.38562  MPKI: 0.08008
LLC RFO DATA	ACCESS:      89943  HIT:      74365  MISS:      15578  HIT %:    82.6801  MISS %:    17.3199  MPKI: 0.31156
LLC PREFETCH DATA	ACCESS:     277671  HIT:     266469  MISS:      11202  HIT %:    95.9657  MISS %:    4.03427  MPKI: 0.22404
LLC WRITEBACK DATA	ACCESS:     132138  HIT:     131922  MISS:        216  HIT %:    99.8365  MISS %:   0.163465  MPKI: 0.00432
LLC LOAD TRANSLATION DATA	ACCESS:       1724  HIT:       1614  MISS:        110  HIT %:    93.6195  MISS %:    6.38051  MPKI: 0.0022
LLC TRANSLATION FROM L1D PREFETCHER DATA	ACCESS:          8  HIT:          8  MISS:          0  HIT %:        100  MISS %:          0  MPKI: 0

LLC AVERAGE MISS LATENCY: 196.129 cycles
LLC RQ	ACCESS:     358644	FORWARD:          0	MERGED:          0	TO_CACHE:     358627
LLC WQ	ACCESS:     132138	FORWARD:         17	MERGED:          0	TO_CACHE:     132138
LLC PQ	ACCESS:     647953	FORWARD:          0	MERGED:          0	TO_CACHE:     647953

LLC Dense regions hint to LLC: 0

RAW hits: 1865575
Loads Generated: 12605135
Loads sent to L1D: 10739560
Stores Generated: 6907628
Stores sent to L1D: 6907638
Major fault: 0 Minor fault: 2405
Allocated PAGES: 2405
I-Shadow cache 408 bytes
Touched + WorthPF tables 12288 bytes 
MMA filter 174 bytes 
FNL filter 272 bytes 
TOTAL PREFETCHER STORAGE SIZE: 31318 bytes
CPU 0 L1I next line prefetcher final stats

stream: 
stream:times selected: 1249074
stream:pref_filled: 124216
stream:pref_useful: 26491
stream:pref_late: 10946
stream:misses: 11254
stream:misses_by_poll: 0

CS: 
CS:times selected: 197104
CS:pref_filled: 68171
CS:pref_useful: 44958
CS:pref_late: 15494
CS:misses: 31125
CS:misses_by_poll: 4

CPLX: 
CPLX:times selected: 1050650
CPLX:pref_filled: 24810
CPLX:pref_useful: 7031
CPLX:pref_late: 4686
CPLX:misses: 134350
CPLX:misses_by_poll: 6

NL_L1: 
NL:times selected: 14023
NL:pref_filled: 660
NL:pref_useful: 241
NL:pref_late: 638
NL:misses: 2038
NL:misses_by_poll: 0

total selections: 2510851
total_filled: 106392
total_useful: 50197
total_late: 34505
total_polluted: 10
total_misses_after_warmup: 808294
conflicts: 5534249

test: 119569

DRAM Statistics
 CHANNEL 0
 RQ ROW_BUFFER_HIT:      11105  ROW_BUFFER_MISS:      21116
 DBUS_CONGESTED:         19
 WQ ROW_BUFFER_HIT:       2186  ROW_BUFFER_MISS:      14740  FULL:          0

 AVG_CONGESTED_CYCLE: 4

CPU 0 Branch Prediction Accuracy: 99.8185% MPKI: 0.33254 Average ROB Occupancy at Mispredict: 177.638
Branch types
NOT_BRANCH: 40839075 81.6781%
BRANCH_DIRECT_JUMP: 543196 1.08639%
BRANCH_INDIRECT: 181400 0.3628%
BRANCH_CONDITIONAL: 6212158 12.4243%
BRANCH_DIRECT_CALL: 941242 1.88248%
BRANCH_INDIRECT_CALL: 170851 0.341702%
BRANCH_RETURN: 1112092 2.22418%
BRANCH_OTHER: 0 0%

DRAM PAGES: 1048576
Allocated PAGES: 2405
Average_ROB_Occupancy: 178.761
Average_Decode_Occupancy: 17.7203
Average_FTQ_Occupancy: 6.23473
Indirect max targets: 14 Average targets: 1.17572
Branch_type:  BRANCH_DIRECT_JUMP:  Count Percentage: 3.2527 6.70573 3.72958 7.67135 2.79193 5.97145 0.881761 68.9955 
Branch_type:  BRANCH_INDIRECT:  Count Percentage: 11.7615 3.47504 2.53226 0 2.53722 9.69166 19.2082 50.7942 
Branch_type:  BRANCH_CONDITIONAL:  Count Percentage: 17.6465 2.12509 6.92137 7.78004 1.66063 4.7785 1.73049 57.3574 
Branch_type:  BRANCH_DIRECT_CALL:  Count Percentage: 0.264899 1.24886 1.43212 3.74089 3.46498 2.34726 0.613627 86.8874 
Branch_type:  BRANCH_INDIRECT_CALL:  Count Percentage: 9.51994 0.566925 2.9817 4.83249 1.29763 1.71015 1.27829 77.8129 
Branch_type:  BRANCH_RETURN:  Count Percentage: 3.44186 0.569291 1.48104 8.45382 3.60332 6.37661 2.8646 73.2095 
Branch_type:  BRANCH_DIRECT_JUMP:  Total Count: 35332 72840 40512 83329 30327 64864 9578 749454 
Branch_type:  BRANCH_INDIRECT:  Total Count: 42703 12617 9194 0 9212 35188 69740 184421 
Branch_type:  BRANCH_CONDITIONAL:  Total Count: 2192058 263980 859779 966444 206285 593590 214963 7124991 
Branch_type:  BRANCH_DIRECT_CALL:  Total Count: 4977 23464 26907 70285 65101 44101 11529 1632465 
Branch_type:  BRANCH_INDIRECT_CALL:  Total Count: 32493 1935 10177 16494 4429 5837 4363 265587 
Branch_type:  BRANCH_RETURN:  Total Count: 76444 12644 32894 187760 80030 141625 63623 1625989 
Number of unique branch instructions: 10849
Upper 32 bits: 
aaaa
ffff
ffff0000
Unique upper 32 bits: 3
Unique upper 36 bits: 3
Unique upper 40 bits: 5
Unique upper 44 bits: 32
Unique upper 48 bits: 160
Offset_3 4511
Offset_4 261
Offset_5 486
Offset_6 554
Offset_7 641
Offset_8 574
Offset_9 522
Offset_10 436
Offset_11 357
Offset_12 298
Offset_13 235
Offset_14 233
Offset_15 207
Offset_16 234
Offset_17 168
Offset_18 163
Offset_19 261
Offset_20 149
Offset_21 245
Offset_22 413
Offset_23 241
Offset_24 342
Offset_25 114
Offset_47 91
decode_dispatch_called: 22018083 55.5118
Dispatch_width: 0 11066757 50.2621 27.9014
Dispatch_width: 1 750012 3.40635 1.89092
Dispatch_width: 2 907191 4.12021 2.2872
Dispatch_width: 3 611168 2.77575 1.54087
Dispatch_width: 4 3054804 13.8741 7.70175
Dispatch_width: 5 386018 1.75319 0.973226
Dispatch_width: 6 5242133 23.8083 13.2164
Empty_decode_cycles: 17645685 44.4882
ROB_full_cycles: 4716197 11.8904
Starvation_cycles_per_kilo_instr: 297.054
Starvation_cycles_per_kilo_instr_3: 262.646
Starvation_cycles_per_kilo_instr_0: 239.962
Branch_type_1  (3,1)  (4,7)  (5,38)  (6,80)  (7,126)  (8,145)  (9,137)  (10,115)  (11,84)  (12,48)  (13,10)  (14,2)  (15,3)  (16,4)  (18,1)  (19,5)  (20,2)  (21,1)  (22,3)  (23,2)  (24,10)  (25,12) 
Branch_type_2  (3,1)  (4,1)  (5,1)  (8,4)  (9,4)  (10,1)  (12,1)  (13,1)  (14,1)  (16,3)  (17,2)  (20,2)  (21,2)  (23,5)  (24,1)  (47,40) 
Branch_type_3  (3,4509)  (4,253)  (5,443)  (6,457)  (7,482)  (8,361)  (9,288)  (10,182)  (11,140)  (12,53)  (13,10) 
Branch_type_4  (6,4)  (7,8)  (8,26)  (9,57)  (10,65)  (11,68)  (12,108)  (13,101)  (14,104)  (15,100)  (16,104)  (17,77)  (18,72)  (19,126)  (20,75)  (21,130)  (22,221)  (23,136)  (24,198)  (25,98)  (47,1) 
Branch_type_5  (8,3)  (9,1)  (10,4)  (11,5)  (12,3)  (13,14)  (14,16)  (15,11)  (16,22)  (17,12)  (18,23)  (19,14)  (20,12)  (21,13)  (22,43)  (23,26)  (24,37) 
Branch_type_6  (5,4)  (6,13)  (7,25)  (8,35)  (9,35)  (10,69)  (11,60)  (12,85)  (13,99)  (14,110)  (15,93)  (16,101)  (17,77)  (18,67)  (19,116)  (20,58)  (21,99)  (22,146)  (23,72)  (24,96)  (25,4)  (47,50) 
Unique trigger count: 
L2BTB1 768 4
L2BTB2 768 4
L2BTB3 768 4
L2BTB4 112 4
