
*** ChampSim Multicore Out-of-Order Simulator ***

Warmup Instructions: 50000000
Simulation Instructions: 50000000
Number of CPUs: 1
LLC sets: 2048
LLC ways: 16
Off-chip DRAM Size: 4096 MB Channels: 1 Width: 64-bit Data Rate: 6400 MT/s
CPU 0 runs ./micro_traces/srv344.trace.gz
.gz
ITLB has LRU replacement policy
DTLB has LRU replacement policy
STLB has LRU replacement policy
FDIP Prefetcher at L1I
L1I has LRU replacement policy
L1D has LRU replacement policy
Initialize SRRIP state for L2C
Initialize DRRIP state for LLC
Heartbeat_Variant_0 : 1297 0.2111 per_variant_size: 0 1297 0 0 0 0 0 0 0 
Heartbeat_Variant_1 : 2666 0.433919 per_variant_size: 0 989 1677 0 0 0 0 0 0 
Heartbeat_Variant_2 : 0 0 per_variant_size: 0 0 0 0 0 0 0 0 0 
Heartbeat_Variant_3 : 0 0 per_variant_size: 0 0 0 0 0 0 0 0 0 
Heartbeat_Variant_0_evicts 0 : 5533 1 : 29 2 : 0 3 : 0 
Heartbeat_Variant_1_evicts 0 : 20 1 : 0 2 : 0 3 : 0 
Heartbeat_Variant_2_evicts 0 : 0 1 : 0 2 : 0 3 : 0 
Heartbeat_Variant_3_evicts 0 : 0 1 : 0 2 : 0 3 : 0 
Heartbeat CPU 0 instructions: 10000001 cycles: 2795569 heartbeat IPC: 3.57709 cumulative IPC: 3.57709 (Simulation time: 0 hr 1 min 39 sec) 
Heartbeat_Variant_0 : 1335 0.217285 per_variant_size: 0 1335 0 0 0 0 0 0 0 
Heartbeat_Variant_1 : 2754 0.448242 per_variant_size: 0 980 1774 0 0 0 0 0 0 
Heartbeat_Variant_2 : 0 0 per_variant_size: 0 0 0 0 0 0 0 0 0 
Heartbeat_Variant_3 : 0 0 per_variant_size: 0 0 0 0 0 0 0 0 0 
Heartbeat_Variant_0_evicts 0 : 5555 1 : 7 2 : 0 3 : 0 
Heartbeat_Variant_1_evicts 0 : 7 1 : 0 2 : 0 3 : 0 
Heartbeat_Variant_2_evicts 0 : 0 1 : 0 2 : 0 3 : 0 
Heartbeat_Variant_3_evicts 0 : 0 1 : 0 2 : 0 3 : 0 
Heartbeat CPU 0 instructions: 20000001 cycles: 5591253 heartbeat IPC: 3.57694 cumulative IPC: 3.57702 (Simulation time: 0 hr 3 min 18 sec) 
Heartbeat_Variant_0 : 1424 0.231771 per_variant_size: 0 1424 0 0 0 0 0 0 0 
Heartbeat_Variant_1 : 2953 0.480632 per_variant_size: 0 961 1992 0 0 0 0 0 0 
Heartbeat_Variant_2 : 0 0 per_variant_size: 0 0 0 0 0 0 0 0 0 
Heartbeat_Variant_3 : 0 0 per_variant_size: 0 0 0 0 0 0 0 0 0 
Heartbeat_Variant_0_evicts 0 : 5619 1 : 11 2 : 0 3 : 0 
Heartbeat_Variant_1_evicts 0 : 11 1 : 0 2 : 0 3 : 0 
Heartbeat_Variant_2_evicts 0 : 0 1 : 0 2 : 0 3 : 0 
Heartbeat_Variant_3_evicts 0 : 0 1 : 0 2 : 0 3 : 0 
Heartbeat CPU 0 instructions: 30000001 cycles: 8386451 heartbeat IPC: 3.57756 cumulative IPC: 3.5772 (Simulation time: 0 hr 4 min 57 sec) 
Heartbeat_Variant_0 : 1425 0.231934 per_variant_size: 0 1425 0 0 0 0 0 0 0 
Heartbeat_Variant_1 : 2960 0.481771 per_variant_size: 0 965 1995 0 0 0 0 0 0 
Heartbeat_Variant_2 : 0 0 per_variant_size: 0 0 0 0 0 0 0 0 0 
Heartbeat_Variant_3 : 0 0 per_variant_size: 0 0 0 0 0 0 0 0 0 
Heartbeat_Variant_0_evicts 0 : 5542 1 : 2 2 : 0 3 : 0 
Heartbeat_Variant_1_evicts 0 : 1 1 : 0 2 : 0 3 : 0 
Heartbeat_Variant_2_evicts 0 : 0 1 : 0 2 : 0 3 : 0 
Heartbeat_Variant_3_evicts 0 : 0 1 : 0 2 : 0 3 : 0 
Heartbeat CPU 0 instructions: 40000000 cycles: 11181683 heartbeat IPC: 3.57752 cumulative IPC: 3.57728 (Simulation time: 0 hr 6 min 38 sec) 
Heartbeat_Variant_0 : 1425 0.231934 per_variant_size: 0 1425 0 0 0 0 0 0 0 
Heartbeat_Variant_1 : 2960 0.481771 per_variant_size: 0 969 1991 0 0 0 0 0 0 
Heartbeat_Variant_2 : 0 0 per_variant_size: 0 0 0 0 0 0 0 0 0 
Heartbeat_Variant_3 : 0 0 per_variant_size: 0 0 0 0 0 0 0 0 0 
Heartbeat_Variant_0_evicts 0 : 5754 1 : 0 2 : 0 3 : 0 
Heartbeat_Variant_1_evicts 0 : 0 1 : 0 2 : 0 3 : 0 
Heartbeat_Variant_2_evicts 0 : 0 1 : 0 2 : 0 3 : 0 
Heartbeat_Variant_3_evicts 0 : 0 1 : 0 2 : 0 3 : 0 
Heartbeat CPU 0 instructions: 50000002 cycles: 13977766 heartbeat IPC: 3.57643 cumulative IPC: 3.57711 (Simulation time: 0 hr 8 min 19 sec) 

Warmup complete CPU 0 instructions: 50000002 cycles: 13977766 (Simulation time: 0 hr 8 min 19 sec) 

*** Reached end of trace for Core: 0 Repeating trace: ./micro_traces/srv344.trace.gz
Cycle: 20000000 FTQ IN: 58277289 FTQ occupancy: 20.6071 DECODE IN: 58277129 DECODE occupancy: 53.5864 ROB IN: 58277069 ROB occupancy: 319.451 ROB OUT: 58277011
Heartbeat_Variant_0 : 1425 0.231934 per_variant_size: 0 1425 0 0 0 0 0 0 0 
Heartbeat_Variant_1 : 2968 0.483073 per_variant_size: 0 985 1983 0 0 0 0 0 0 
Heartbeat_Variant_2 : 0 0 per_variant_size: 0 0 0 0 0 0 0 0 0 
Heartbeat_Variant_3 : 0 0 per_variant_size: 0 0 0 0 0 0 0 0 0 
Heartbeat_Variant_0_evicts 0 : 5474 1 : 1 2 : 0 3 : 0 
Heartbeat_Variant_1_evicts 0 : 1 1 : 0 2 : 0 3 : 0 
Heartbeat_Variant_2_evicts 0 : 0 1 : 0 2 : 0 3 : 0 
Heartbeat_Variant_3_evicts 0 : 0 1 : 0 2 : 0 3 : 0 
Heartbeat CPU 0 instructions: 60000000 cycles: 21221637 heartbeat IPC: 1.38048 cumulative IPC: 1.38048 (Simulation time: 0 hr 10 min 19 sec) 
Heartbeat_Variant_0 : 1425 0.231934 per_variant_size: 0 1425 0 0 0 0 0 0 0 
Heartbeat_Variant_1 : 2968 0.483073 per_variant_size: 0 990 1978 0 0 0 0 0 0 
Heartbeat_Variant_2 : 0 0 per_variant_size: 0 0 0 0 0 0 0 0 0 
Heartbeat_Variant_3 : 0 0 per_variant_size: 0 0 0 0 0 0 0 0 0 
Heartbeat_Variant_0_evicts 0 : 5573 1 : 0 2 : 0 3 : 0 
Heartbeat_Variant_1_evicts 0 : 0 1 : 0 2 : 0 3 : 0 
Heartbeat_Variant_2_evicts 0 : 0 1 : 0 2 : 0 3 : 0 
Heartbeat_Variant_3_evicts 0 : 0 1 : 0 2 : 0 3 : 0 
Heartbeat CPU 0 instructions: 70000003 cycles: 28316288 heartbeat IPC: 1.40951 cumulative IPC: 1.39484 (Simulation time: 0 hr 12 min 17 sec) 
Cycle: 30000000 FTQ IN: 13966085 FTQ occupancy: 15.1953 DECODE IN: 13966105 DECODE occupancy: 39.089 ROB IN: 13966105 ROB occupancy: 253.272 ROB OUT: 13965811
Heartbeat_Variant_0 : 1425 0.231934 per_variant_size: 0 1425 0 0 0 0 0 0 0 
Heartbeat_Variant_1 : 2969 0.483236 per_variant_size: 0 986 1983 0 0 0 0 0 0 
Heartbeat_Variant_2 : 0 0 per_variant_size: 0 0 0 0 0 0 0 0 0 
Heartbeat_Variant_3 : 0 0 per_variant_size: 0 0 0 0 0 0 0 0 0 
Heartbeat_Variant_0_evicts 0 : 5579 1 : 0 2 : 0 3 : 0 
Heartbeat_Variant_1_evicts 0 : 1 1 : 0 2 : 0 3 : 0 
Heartbeat_Variant_2_evicts 0 : 0 1 : 0 2 : 0 3 : 0 
Heartbeat_Variant_3_evicts 0 : 0 1 : 0 2 : 0 3 : 0 
Heartbeat CPU 0 instructions: 80000003 cycles: 35538926 heartbeat IPC: 1.38454 cumulative IPC: 1.39139 (Simulation time: 0 hr 14 min 17 sec) 
Cycle: 40000000 FTQ IN: 14021410 FTQ occupancy: 14.9606 DECODE IN: 14021550 DECODE occupancy: 38.6379 ROB IN: 14021555 ROB occupancy: 251.365 ROB OUT: 14021556
Heartbeat_Variant_0 : 1425 0.231934 per_variant_size: 0 1425 0 0 0 0 0 0 0 
Heartbeat_Variant_1 : 2970 0.483398 per_variant_size: 0 990 1980 0 0 0 0 0 0 
Heartbeat_Variant_2 : 0 0 per_variant_size: 0 0 0 0 0 0 0 0 0 
Heartbeat_Variant_3 : 0 0 per_variant_size: 0 0 0 0 0 0 0 0 0 
Heartbeat_Variant_0_evicts 0 : 5660 1 : 0 2 : 0 3 : 0 
Heartbeat_Variant_1_evicts 0 : 0 1 : 0 2 : 0 3 : 0 
Heartbeat_Variant_2_evicts 0 : 0 1 : 0 2 : 0 3 : 0 
Heartbeat_Variant_3_evicts 0 : 0 1 : 0 2 : 0 3 : 0 
Heartbeat CPU 0 instructions: 90000001 cycles: 42641991 heartbeat IPC: 1.40784 cumulative IPC: 1.39547 (Simulation time: 0 hr 16 min 15 sec) 
Heartbeat_Variant_0 : 1425 0.231934 per_variant_size: 0 1425 0 0 0 0 0 0 0 
Heartbeat_Variant_1 : 2970 0.483398 per_variant_size: 0 993 1977 0 0 0 0 0 0 
Heartbeat_Variant_2 : 0 0 per_variant_size: 0 0 0 0 0 0 0 0 0 
Heartbeat_Variant_3 : 0 0 per_variant_size: 0 0 0 0 0 0 0 0 0 
Heartbeat_Variant_0_evicts 0 : 5553 1 : 0 2 : 0 3 : 0 
Heartbeat_Variant_1_evicts 0 : 0 1 : 0 2 : 0 3 : 0 
Heartbeat_Variant_2_evicts 0 : 0 1 : 0 2 : 0 3 : 0 
Heartbeat_Variant_3_evicts 0 : 0 1 : 0 2 : 0 3 : 0 
Heartbeat CPU 0 instructions: 100000000 cycles: 49816824 heartbeat IPC: 1.39376 cumulative IPC: 1.39513 (Simulation time: 0 hr 18 min 17 sec) 
Finished CPU 0 instructions: 50000002 cycles: 35839059 cumulative IPC: 1.39513 (Simulation time: 0 hr 18 min 17 sec) 

ChampSim completed all CPUs

Region of Interest Statistics

CPU 0 cumulative IPC: 1.39513 instructions: 50000002 cycles: 35839059
 Fetch stage stalled: 45.5506  Sim cycles: 35839059 fetch stall cycle: 16324920
 Empty decode stage: 24.3018  Sim cycles: 35839059 fetch stall cycle: 8709519
ITLB TOTAL     ACCESS:    5832894  HIT:    5344919  MISS:     487975  HIT %:    91.6341  MISS %:    8.36592   MPKI: 9.7595
ITLB LOAD TRANSLATION INSTRUCTION	ACCESS:    5694383  HIT:    5206408  MISS:     487975  HIT %:    91.4306  MISS %:    8.56941  MPKI: 9.7595
ITLB TRANSLATION FROM L1D PREFETCHER INSTRUCTION	ACCESS:     138511  HIT:     138511  MISS:          0  HIT %:        100  MISS %:          0  MPKI: 0

ITLB AVERAGE MISS LATENCY: 9.0677 cycles
ITLB RQ	ACCESS:    7912930	FORWARD:          0	MERGED:    1604479	TO_CACHE:    6308451

DTLB TOTAL     ACCESS:    8917819  HIT:    8445729  MISS:     472090  HIT %:    94.7062  MISS %:    5.29378   MPKI: 9.4418
DTLB LOAD TRANSLATION DATA	ACCESS:    8917819  HIT:    8445729  MISS:     472090  HIT %:    94.7062  MISS %:    5.29378  MPKI: 9.4418

DTLB AVERAGE MISS LATENCY: 9.29181 cycles
DTLB RQ	ACCESS:   13276636	FORWARD:          0	MERGED:    4321151	TO_CACHE:    8955485

STLB TOTAL     ACCESS:    1217625  HIT:    1215513  MISS:       2112  HIT %:    99.8265  MISS %:   0.173452   MPKI: 0.04224
STLB LOAD TRANSLATION INSTRUCTION	ACCESS:     487975  HIT:     487703  MISS:        272  HIT %:    99.9443  MISS %:  0.0557406  MPKI: 0.00544
STLB LOAD TRANSLATION DATA	ACCESS:     472090  HIT:     470268  MISS:       1822  HIT %:    99.6141  MISS %:   0.385943  MPKI: 0.03644
STLB TRANSLATION FROM L1D PREFETCHER DATA	ACCESS:     257560  HIT:     257542  MISS:         18  HIT %:     99.993  MISS %: 0.00698866  MPKI: 0.00036

STLB AVERAGE MISS LATENCY: 67.742 cycles
STLB RQ	ACCESS:    1364304	FORWARD:          0	MERGED:     146653	TO_CACHE:    1217651

STLB Hit, L1D data hit: 0
STLB Hit, L2C data hit: 0
STLB Hit, LLC data hit: 0
STLB Hit, LLC data miss: 0
STLB STLB hints to L2: 0
L1D TOTAL     ACCESS:   13028365  HIT:   11871050  MISS:    1157315  HIT %:     91.117  MISS %:    8.88304   MPKI: 23.1463
L1D LOAD DATA	ACCESS:    6535995  HIT:    5774590  MISS:     761405  HIT %:    88.3506  MISS %:    11.6494  MPKI: 15.2281
L1D RFO DATA	ACCESS:    6152723  HIT:    5863152  MISS:     289571  HIT %:    95.2936  MISS %:    4.70639  MPKI: 5.79142
L1D PREFETCH DATA	ACCESS:     339647  HIT:     233308  MISS:     106339  HIT %:    68.6913  MISS %:    31.3087  MPKI: 2.12678

L1D PREFETCH  REQUESTED:     808836  ISSUED:     808836  USEFUL:      49314  USELESS:      70277
L1D USEFUL LOAD PREFETCHES:      49314 PREFETCH ISSUED TO LOWER LEVEL:     119658  ACCURACY: 41.2125
 TIMELY PREFETCHES:      49314 LATE PREFETCHES: 13265 DROPPED PREFETCHES: 1
L1D AVERAGE MISS LATENCY: 361665 cycles
L1D RQ	ACCESS:   10678882	FORWARD:          0	MERGED:    3944107	TO_CACHE:    6570528
L1D WQ	ACCESS:    6901340	FORWARD:     164607	MERGED:     195232	TO_CACHE:    6706108
L1D PQ	ACCESS:     404598	FORWARD:          0	MERGED:          0	TO_CACHE:     404238

L1D UNIQUE REGIONS ACCESSED: 0
L1D REGIONS CONFLICTS: 0
L1D Cross Page Prefetch Requests: 5998
L1D Same Page Prefetch Requests: 816838
L1D ROI Sum of L1D PQ occupancy: 5150610
L1D PREFETCHES PUSHED FROM L2C: 0
L1I TOTAL     ACCESS:    7110166  HIT:    4371647  MISS:    2738519  HIT %:    61.4845  MISS %:    38.5155   MPKI: 54.7704
L1I LOAD INSTRUCTION	ACCESS:    6442329  HIT:    3703810  MISS:    2738519  HIT %:    57.4918  MISS %:    42.5082  MPKI: 54.7704
L1I PREFETCH INSTRUCTION	ACCESS:     667837  HIT:     667837  MISS:          0  HIT %:        100  MISS %:          0  MPKI: 0

L1I PREFETCH  REQUESTED:    1617831  ISSUED:    1617831  USEFUL:          0  USELESS:          0
L1I USEFUL LOAD PREFETCHES:          0 PREFETCH ISSUED TO LOWER LEVEL:          0  ACCURACY: -nan
 TIMELY PREFETCHES:          0 LATE PREFETCHES: 0 DROPPED PREFETCHES: 0
L1I AVERAGE MISS LATENCY: 17.1241 cycles
L1I RQ	ACCESS:    9574703	FORWARD:          0	MERGED:    2840763	TO_CACHE:    6733940
L1I PQ	ACCESS:    1617831	FORWARD:          0	MERGED:     438841	TO_CACHE:    1178990

L1BTB TOTAL     ACCESS:    5677708  HIT:    2081487  MISS:    3596221  HIT %:    36.6607  MISS %:    63.3393   MPKI: 71.9244
L1BTB BRANCH_DIRECT_JUMP	ACCESS:     544284 HIT:     144580 MISS:     399704 AVERAGE STALL: 53.5657 AVERAGE FETCH STALL: 13.2245 AVERAGE FETCH QUEUE STALL: 18.2707 AVERAGE DECODE STALL: 21.1403 AVERAGE EXECUTE STALL: 2.59047e+15
L1BTB BRANCH_INDIRECT	ACCESS:     181795 HIT:      65710 MISS:     116085 AVERAGE STALL: 113.942 AVERAGE FETCH STALL: 10.7507 AVERAGE FETCH QUEUE STALL: 20.6183 AVERAGE DECODE STALL: 13.4905 AVERAGE EXECUTE STALL: 68.1212
L1BTB BRANCH_CONDITIONAL	ACCESS:    2739323 HIT:    1457024 MISS:    1282299 AVERAGE STALL: 72.8717 AVERAGE FETCH STALL: 19.2909 AVERAGE FETCH QUEUE STALL: 32.8974 AVERAGE DECODE STALL: 19.9346 AVERAGE EXECUTE STALL: 3.12339e+15
L1BTB BRANCH_DIRECT_CALL	ACCESS:     936021 HIT:     103924 MISS:     832097 AVERAGE STALL: 101.586 AVERAGE FETCH STALL: 25.5029 AVERAGE FETCH QUEUE STALL: 44.4361 AVERAGE DECODE STALL: 30.8326 AVERAGE EXECUTE STALL: 1.52075e+16
L1BTB BRANCH_INDIRECT_CALL	ACCESS:     170134 HIT:      21120 MISS:     149014 AVERAGE STALL: 138.908 AVERAGE FETCH STALL: 12.1319 AVERAGE FETCH QUEUE STALL: 18.012 AVERAGE DECODE STALL: 12.1016 AVERAGE EXECUTE STALL: 96.1759
L1BTB BRANCH_RETURN	ACCESS:    1106151 HIT:     289129 MISS:     817022 AVERAGE STALL: 50.9379 AVERAGE FETCH STALL: 16.8962 AVERAGE FETCH QUEUE STALL: 5.89909 AVERAGE DECODE STALL: 6.43883 AVERAGE EXECUTE STALL: 4.42474e+14
L1BTB BRANCH_OTHER ACCESS:          0 HIT:          0 MISS:          0 AVERAGE STALL: -nan AVERAGE FETCH STALL: -nan AVERAGE FETCH QUEUE STALL: -nan AVERAGE DECODE STALL: -nan AVERAGE EXECUTE STALL: -nan
L1BTB TOTAL ROB OCCUPANCY AT BTB MISS: 2.72892

L2BTB TOTAL     ACCESS:    3571147  HIT:    3507922  MISS:      63225  HIT %:    98.2296  MISS %:    1.77044   MPKI: 1.2645
L2BTB BRANCH_DIRECT_JUMP	ACCESS:     395527 HIT:     392579 MISS:       2948 AVERAGE STALL: 53.5657 AVERAGE FETCH STALL: 13.2245 AVERAGE FETCH QUEUE STALL: 18.2707 AVERAGE DECODE STALL: 21.1403 AVERAGE EXECUTE STALL: 2.59047e+15
L2BTB BRANCH_INDIRECT	ACCESS:     105910 HIT:     103283 MISS:       2627 AVERAGE STALL: 113.942 AVERAGE FETCH STALL: 10.7507 AVERAGE FETCH QUEUE STALL: 20.6183 AVERAGE DECODE STALL: 13.4905 AVERAGE EXECUTE STALL: 68.1212
L2BTB BRANCH_CONDITIONAL	ACCESS:    1282299 HIT:    1276382 MISS:       5917 AVERAGE STALL: 72.8717 AVERAGE FETCH STALL: 19.2909 AVERAGE FETCH QUEUE STALL: 32.8974 AVERAGE DECODE STALL: 19.9346 AVERAGE EXECUTE STALL: 3.12339e+15
L2BTB BRANCH_DIRECT_CALL	ACCESS:     832097 HIT:     830882 MISS:       1215 AVERAGE STALL: 101.586 AVERAGE FETCH STALL: 25.5029 AVERAGE FETCH QUEUE STALL: 44.4361 AVERAGE DECODE STALL: 30.8326 AVERAGE EXECUTE STALL: 1.52075e+16
L2BTB BRANCH_INDIRECT_CALL	ACCESS:     139500 HIT:     129477 MISS:      10023 AVERAGE STALL: 138.908 AVERAGE FETCH STALL: 12.1319 AVERAGE FETCH QUEUE STALL: 18.012 AVERAGE DECODE STALL: 12.1016 AVERAGE EXECUTE STALL: 96.1759
L2BTB BRANCH_RETURN	ACCESS:     815814 HIT:     775319 MISS:      40495 AVERAGE STALL: 50.9379 AVERAGE FETCH STALL: 16.8962 AVERAGE FETCH QUEUE STALL: 5.89909 AVERAGE DECODE STALL: 6.43883 AVERAGE EXECUTE STALL: 4.42474e+14
L2BTB BRANCH_OTHER ACCESS:          0 HIT:          0 MISS:          0 AVERAGE STALL: -nan AVERAGE FETCH STALL: -nan AVERAGE FETCH QUEUE STALL: -nan AVERAGE DECODE STALL: -nan AVERAGE EXECUTE STALL: -nan
L2BTB TOTAL ROB OCCUPANCY AT BTB MISS: 155.22

L2C TOTAL     ACCESS:    4512881  HIT:    4022220  MISS:     490661  HIT %:    89.1275  MISS %:    10.8725   MPKI: 9.81322
L2C LOAD INSTRUCTION	ACCESS:    2738519  HIT:    2492774  MISS:     245745  HIT %:    91.0264  MISS %:    8.97365  MPKI: 4.9149
L2C LOAD TRANSLATION INSTRUCTION	ACCESS:        314  HIT:         75  MISS:        239  HIT %:    23.8854  MISS %:    76.1146  MPKI: 0.00478
L2C LOAD DATA	ACCESS:     748103  HIT:     663758  MISS:      84345  HIT %:    88.7255  MISS %:    11.2745  MPKI: 1.6869
L2C RFO DATA	ACCESS:     289506  HIT:     229853  MISS:      59653  HIT %:    79.3949  MISS %:    20.6051  MPKI: 1.19306
L2C PREFETCH DATA	ACCESS:     209629  HIT:     126301  MISS:      83328  HIT %:    60.2498  MISS %:    39.7502  MPKI: 1.66656
L2C WRITEBACK DATA	ACCESS:     524886  HIT:     509038  MISS:      15848  HIT %:    96.9807  MISS %:    3.01932  MPKI: 0.31696
L2C LOAD TRANSLATION DATA	ACCESS:       1900  HIT:        403  MISS:       1497  HIT %:    21.2105  MISS %:    78.7895  MPKI: 0.02994
L2C TRANSLATION FROM L1D PREFETCHER DATA	ACCESS:         24  HIT:         18  MISS:          6  HIT %:         75  MISS %:         25  MPKI: 0.00012

L2C PREFETCH  REQUESTED:      97161  ISSUED:      97161  USEFUL:       9163  USELESS:      74669
L2C USEFUL LOAD PREFETCHES:       9163 PREFETCH ISSUED TO LOWER LEVEL:      83787  ACCURACY: 10.9361
 TIMELY PREFETCHES:       9163 LATE PREFETCHES: 459 DROPPED PREFETCHES: 0
L2C AVERAGE MISS LATENCY: 37.5726 cycles
L2C RQ	ACCESS:    3778417	FORWARD:          0	MERGED:          0	TO_CACHE:    3778369
L2C WQ	ACCESS:     524886	FORWARD:         48	MERGED:          0	TO_CACHE:     524886
L2C PQ	ACCESS:     216819	FORWARD:          0	MERGED:       3483	TO_CACHE:     213336

L2C Dense regions hint from L2: 0
PSCL5 TOTAL     ACCESS:       4226  HIT:       2113  MISS:       2113  HIT %:         50  MISS %:         50   MPKI: 0.04226
PSCL5 LOAD TRANSLATION INSTRUCTION	ACCESS:       4178  HIT:       2089  MISS:       2089  HIT %:         50  MISS %:         50  MPKI: 0.04178
PSCL5 TRANSLATION FROM L1D PREFETCHER INSTRUCTION	ACCESS:         48  HIT:         24  MISS:         24  HIT %:         50  MISS %:         50  MPKI: 0.00048


PSCL4 TOTAL     ACCESS:       3967  HIT:       1981  MISS:       1986  HIT %:     49.937  MISS %:     50.063   MPKI: 0.03972
PSCL4 LOAD TRANSLATION INSTRUCTION	ACCESS:       3662  HIT:       1957  MISS:       1705  HIT %:    53.4407  MISS %:    46.5593  MPKI: 0.0341
PSCL4 TRANSLATION FROM L1D PREFETCHER INSTRUCTION	ACCESS:         48  HIT:         24  MISS:         24  HIT %:         50  MISS %:         50  MPKI: 0.00048
PSCL4 LOAD TRANSLATION DATA	ACCESS:        257  HIT:          0  MISS:        257  HIT %:          0  MISS %:        100  MPKI: 0.00514


PSCL3 TOTAL     ACCESS:       3973  HIT:       1984  MISS:       1989  HIT %:    49.9371  MISS %:    50.0629   MPKI: 0.03978
PSCL3 LOAD TRANSLATION INSTRUCTION	ACCESS:       3665  HIT:       1960  MISS:       1705  HIT %:    53.4789  MISS %:    46.5211  MPKI: 0.0341
PSCL3 TRANSLATION FROM L1D PREFETCHER INSTRUCTION	ACCESS:         48  HIT:         24  MISS:         24  HIT %:         50  MISS %:         50  MPKI: 0.00048
PSCL3 LOAD TRANSLATION DATA	ACCESS:        260  HIT:          0  MISS:        260  HIT %:          0  MISS %:        100  MPKI: 0.0052


PSCL2 TOTAL     ACCESS:       4110  HIT:       1997  MISS:       2113  HIT %:    48.5888  MISS %:    51.4112   MPKI: 0.04226
PSCL2 LOAD TRANSLATION INSTRUCTION	ACCESS:       2251  HIT:       1973  MISS:        278  HIT %:    87.6499  MISS %:    12.3501  MPKI: 0.00556
PSCL2 TRANSLATION FROM L1D PREFETCHER INSTRUCTION	ACCESS:         24  HIT:         24  MISS:          0  HIT %:        100  MISS %:          0  MPKI: 0
PSCL2 LOAD TRANSLATION DATA	ACCESS:       1811  HIT:          0  MISS:       1811  HIT %:          0  MISS %:        100  MPKI: 0.03622
PSCL2 TRANSLATION FROM L1D PREFETCHER DATA	ACCESS:         24  HIT:          0  MISS:         24  HIT %:          0  MISS %:        100  MPKI: 0.00048


LLC TOTAL     ACCESS:     558656  HIT:     533778  MISS:      24878  HIT %:    95.5468  MISS %:    4.45319   MPKI: 0.49756
LLC LOAD INSTRUCTION	ACCESS:     245744  HIT:     244820  MISS:        924  HIT %:     99.624  MISS %:   0.376001  MPKI: 0.01848
LLC LOAD TRANSLATION INSTRUCTION	ACCESS:        239  HIT:        196  MISS:         43  HIT %:    82.0084  MISS %:    17.9916  MPKI: 0.00086
LLC LOAD DATA	ACCESS:      83896  HIT:      80708  MISS:       3188  HIT %:    96.2001  MISS %:    3.79994  MPKI: 0.06376
LLC RFO DATA	ACCESS:      59639  HIT:      48632  MISS:      11007  HIT %:     81.544  MISS %:     18.456  MPKI: 0.22014
LLC PREFETCH DATA	ACCESS:      83786  HIT:      74409  MISS:       9377  HIT %:    88.8084  MISS %:    11.1916  MPKI: 0.18754
LLC WRITEBACK DATA	ACCESS:      83849  HIT:      83597  MISS:        252  HIT %:    99.6995  MISS %:    0.30054  MPKI: 0.00504
LLC LOAD TRANSLATION DATA	ACCESS:       1497  HIT:       1410  MISS:         87  HIT %:    94.1884  MISS %:    5.81162  MPKI: 0.00174
LLC TRANSLATION FROM L1D PREFETCHER DATA	ACCESS:          6  HIT:          6  MISS:          0  HIT %:        100  MISS %:          0  MPKI: 0

LLC AVERAGE MISS LATENCY: 168.274 cycles
LLC RQ	ACCESS:     391026	FORWARD:          0	MERGED:          0	TO_CACHE:     391021
LLC WQ	ACCESS:      83849	FORWARD:          6	MERGED:          0	TO_CACHE:      83849
LLC PQ	ACCESS:      83787	FORWARD:          0	MERGED:          0	TO_CACHE:      83786

LLC Dense regions hint to LLC: 0

RAW hits: 1936935
Loads Generated: 12615818
Loads sent to L1D: 10678882
Stores Generated: 6901322
Stores sent to L1D: 6901340
Major fault: 0 Minor fault: 2256
Allocated PAGES: 2256

stream: 
stream:times selected: 1264072
stream:pref_filled: 126154
stream:pref_useful: 28794
stream:pref_late: 8998
stream:misses: 10725
stream:misses_by_poll: 0

CS: 
CS:times selected: 197920
CS:pref_filled: 73844
CS:pref_useful: 50298
CS:pref_late: 9586
CS:misses: 24610
CS:misses_by_poll: 12

CPLX: 
CPLX:times selected: 1064962
CPLX:pref_filled: 25175
CPLX:pref_useful: 7714
CPLX:pref_late: 3793
CPLX:misses: 129057
CPLX:misses_by_poll: 1

NL_L1: 
NL:times selected: 13169
NL:pref_filled: 1064
NL:pref_useful: 288
NL:pref_late: 511
NL:misses: 2073
NL:misses_by_poll: 0

total selections: 2540123
total_filled: 106339
total_useful: 49314
total_late: 25094
total_polluted: 13
total_misses_after_warmup: 795940
conflicts: 5471678

test: 121560

DRAM Statistics
 CHANNEL 0
 RQ ROW_BUFFER_HIT:       8551  ROW_BUFFER_MISS:      16068
 DBUS_CONGESTED:         10
 WQ ROW_BUFFER_HIT:       1398  ROW_BUFFER_MISS:      10289  FULL:          0

 AVG_CONGESTED_CYCLE: 4

CPU 0 Branch Prediction Accuracy: 99.822% MPKI: 0.32584 Average ROB Occupancy at Mispredict: 201.648
Branch types
NOT_BRANCH: 40848598 81.6972%
BRANCH_DIRECT_JUMP: 544284 1.08857%
BRANCH_INDIRECT: 181795 0.36359%
BRANCH_CONDITIONAL: 6212971 12.4259%
BRANCH_DIRECT_CALL: 936021 1.87204%
BRANCH_INDIRECT_CALL: 170134 0.340268%
BRANCH_RETURN: 1106151 2.2123%
BRANCH_OTHER: 0 0%

DRAM PAGES: 1048576
Allocated PAGES: 2256
Average_ROB_Occupancy: 253.288
Average_Decode_Occupancy: 38.7645
Average_FTQ_Occupancy: 15.0582
Indirect max targets: 14 Average targets: 1.14966
Branch_type:  BRANCH_DIRECT_JUMP:  Count Percentage: 3.69274 6.211 3.82575 8.48133 2.41593 6.34667 1.90805 67.1185 
Branch_type:  BRANCH_INDIRECT:  Count Percentage: 11.7499 3.39814 2.62878 9.70294 3.33224 2.7971 1.72625 64.6646 
Branch_type:  BRANCH_CONDITIONAL:  Count Percentage: 22.3497 5.96069 2.06506 5.00981 5.80973 3.9088 2.68616 52.2101 
Branch_type:  BRANCH_DIRECT_CALL:  Count Percentage: 0.832198 1.22235 0.766708 4.50145 2.37922 2.8679 4.34852 83.0817 
Branch_type:  BRANCH_INDIRECT_CALL:  Count Percentage: 9.51523 0 2.98157 4.58775 0.000883166 2.36512 3.84148 76.708 
Branch_type:  BRANCH_RETURN:  Count Percentage: 4.61022 3.87854 2.00544 4.49133 7.15218 4.04059 3.76649 70.0552 
Branch_type:  BRANCH_DIRECT_JUMP:  Total Count: 40201 67616 41649 92332 26301 69093 20772 730686 
Branch_type:  BRANCH_INDIRECT:  Total Count: 42793 12376 9574 35338 12136 10187 6287 235508 
Branch_type:  BRANCH_CONDITIONAL:  Total Count: 2776641 740534 256556 622401 721780 485615 333719 6486387 
Branch_type:  BRANCH_DIRECT_CALL:  Total Count: 15541 22827 14318 84063 44431 53557 81207 1551520 
Branch_type:  BRANCH_INDIRECT_CALL:  Total Count: 32322 0 10128 15584 3 8034 13049 260567 
Branch_type:  BRANCH_RETURN:  Total Count: 101791 85636 44279 99166 157916 89214 83162 1546779 
Number of unique branch instructions: 10002
Upper 32 bits: 
aaaa
ffff
ffff0000
Unique upper 32 bits: 3
Unique upper 36 bits: 3
Unique upper 40 bits: 5
Unique upper 44 bits: 32
Unique upper 48 bits: 154
Variant_0 : 1425 0.231934
Variant_1 : 2970 0.483398
Variant_2 : 0 0
Variant_3 : 0 0
Offset_3 4142
Offset_4 247
Offset_5 449
Offset_6 516
Offset_7 592
Offset_8 516
Offset_9 468
Offset_10 395
Offset_11 327
Offset_12 266
Offset_13 198
Offset_14 225
Offset_15 190
Offset_16 230
Offset_17 150
Offset_18 129
Offset_19 240
Offset_20 137
Offset_21 235
Offset_22 399
Offset_23 241
Offset_24 329
Offset_25 88
Offset_47 80
decode_dispatch_called: 26561682 74.1138
Dispatch_width: 0 14323923 53.927 39.9674
Dispatch_width: 1 1048824 3.94864 2.92648
Dispatch_width: 2 864901 3.2562 2.41329
Dispatch_width: 3 501441 1.88784 1.39915
Dispatch_width: 4 6557238 24.6868 18.2963
Dispatch_width: 5 104029 0.391651 0.290267
Dispatch_width: 6 3161326 11.9018 8.8209
Empty_decode_cycles: 9277377 25.8862
ROB_full_cycles: 10303371 28.749
Starvation_cycles_per_kilo_instr: 223.744
Starvation_cycles_per_kilo_instr_3: 157.131
Starvation_cycles_per_kilo_instr_0: 132.979
Branch_type_1  (3,1)  (4,7)  (5,36)  (6,75)  (7,117)  (8,127)  (9,125)  (10,101)  (11,78)  (12,43)  (13,7)  (14,2)  (15,3)  (16,4)  (18,1)  (19,4)  (20,2)  (21,1)  (22,3)  (23,2)  (24,10)  (25,12) 
Branch_type_2  (3,1)  (5,1)  (8,3)  (9,3)  (12,1)  (13,1)  (14,1)  (16,3)  (17,2)  (20,2)  (21,2)  (23,5)  (24,1)  (47,36) 
Branch_type_3  (3,4140)  (4,240)  (5,408)  (6,425)  (7,443)  (8,326)  (9,257)  (10,165)  (11,136)  (12,49)  (13,7) 
Branch_type_4  (6,4)  (7,8)  (8,26)  (9,51)  (10,61)  (11,57)  (12,96)  (13,83)  (14,99)  (15,91)  (16,105)  (17,66)  (18,59)  (19,117)  (20,71)  (21,124)  (22,214)  (23,136)  (24,190)  (25,72) 
Branch_type_5  (8,2)  (9,1)  (10,3)  (11,5)  (12,3)  (13,13)  (14,16)  (15,11)  (16,20)  (17,13)  (18,16)  (19,12)  (20,10)  (21,13)  (22,42)  (23,26)  (24,36) 
Branch_type_6  (5,4)  (6,12)  (7,24)  (8,32)  (9,31)  (10,65)  (11,51)  (12,74)  (13,87)  (14,107)  (15,85)  (16,98)  (17,69)  (18,53)  (19,107)  (20,52)  (21,95)  (22,140)  (23,72)  (24,92)  (25,4)  (47,44) 
Unique trigger count: 
Variant_0_evicts_0 : 0
Variant_0_evicts_1 : 0
Variant_0_evicts_2 : 0
Variant_0_evicts_3 : 0
Variant_1_evicts_0 : 0
Variant_1_evicts_1 : 0
Variant_1_evicts_2 : 0
Variant_1_evicts_3 : 0
Variant_2_evicts_0 : 0
Variant_2_evicts_1 : 0
Variant_2_evicts_2 : 0
Variant_2_evicts_3 : 0
Variant_3_evicts_0 : 0
Variant_3_evicts_1 : 0
Variant_3_evicts_2 : 0
Variant_3_evicts_3 : 0
BTB PER SET UNIQUE ADDR: 8 3 5 5 6 5 6 4 4 8 6 5 3 5 4 6 5 5 4 5 5 4 4 5 5 6 3 6 4 6 8 7 6 7 4 5 7 3 5 4 6 4 5 5 4 4 5 6 7 4 6 5 5 4 6 4 5 3 7 6 5 4 2 7 6 5 6 4 6 4 4 4 4 3 5 6 5 4 4 5 7 6 6 5 4 5 1 5 5 5 3 4 5 5 2 5 7 6 4 5 4 5 5 7 6 7 5 4 5 6 4 2 5 6 5 6 5 5 5 7 7 6 5 6 8 7 6 3 6 4 7 5 6 4 6 6 5 3 4 5 5 6 4 4 6 4 6 4 6 6 7 6 7 7 6 5 6 6 3 5 8 3 5 5 5 5 3 4 7 8 7 6 7 5 5 5 4 7 4 3 6 3 6 7 5 5 6 6 6 5 5 5 4 5 5 5 4 4 3 5 3 4 4 5 5 7 5 5 4 4 6 7 5 7 4 5 6 5 6 8 4 6 5 5 6 4 4 4 7 5 8 7 4 6 6 5 4 7 5 5 5 6 6 6 5 6 8 5 6 5 5 6 7 4 4 6 6 4 6 7 4 7 4 5 6 6 6 5 5 7 5 4 5 7 6 5 6 2 5 5 4 5 1 6 4 9 5 6 6 5 3 5 5 5 6 5 6 5 8 5 5 3 6 7 7 6 7 5 5 4 7 3 5 4 3 5 5 4 5 4 7 5 8 6 7 5 2 5 5 5 3 4 8 2 3 4 4 4 6 4 5 6 4 8 4 6 5 4 5 5 7 3 4 6 5 7 4 6 6 6 8 6 6 3 4 6 5 4 5 6 7 6 5 5 4 5 6 6 4 7 6 4 3 5 6 4 4 5 6 6 4 6 5 5 5 5 5 4 6 5 4 6 5 6 6 5 5 4 7 7 6 5 4 6 5 4 4 7 6 5 7 5 4 4 7 6 5 6 7 4 5 4 6 5 4 3 6 4 5 7 6 5 2 5 3 6 4 4 6 7 6 3 3 5 6 5 4 4 4 6 5 6 4 5 4 5 5 6 5 5 5 5 7 5 3 7 5 5 3 4 7 5 5 5 4 7 4 6 7 6 6 4 4 6 6 7 8 6 5 5 8 4 6 7 6 4 4 5 5 6 3 6 5 4 1 3 5 2 4 4 4 5 4 3 6 3 3 6 4 5 4 5 3 3 5 2 4 6 5 5 5 4 7 5 3 6 3 7 3 5 2 6 3 6 4 5 4 0 5 3 2 3 3 7 2 3 6 4 3 2 4 4 2 4 3 5 3 2 3 5 2 6 5 3 3 3 2 4 5 4 4 3 5 3 2 4 4 5 4 4 4 4 1 3 2 3 4 1 3 3 4 4 2 5 2 4 5 4 3 4 4 4 6 4 3 4 2 7 6 6 2 4 5 2 4 1 4 5 6 3 3 6 2 1 2 5 3 5 4 3 3 2 5 4 3 5 4 2 3 3 4 3 4 5 5 1 4 3 8 2 4 4 4 7 4 2 3 5 3 5 3 4 3 4 4 5 3 6 5 4 4 3 5 2 2 5 3 2 4 6 4 3 5 3 5 6 4 3 5 4 3 2 3 3 5 3 4 4 1 3 3 4 2 4 4 4 4 4 2 4 5 6 5 3 5 3 4 3 3 4 3 4 4 6 2 2 7 2 4 2 4 5 4 4 5 5 2 3 2 5 6 6 4 4 3 6 3 5 4 3 5 2 3 6 5 4 3 5 2 4 4 4 3 4 4 5 3 4 6 3 4 6 4 4 3 2 4 2 3 1 5 4 4 2 5 4 6 5 4 4 5 2 0 4 2 3 5 4 5 5 5 4 6 5 5 2 4 3 4 5 5 5 1 4 5 4 5 4 2 5 1 6 3 5 4 5 6 5 2 3 4 5 3 5 5 4 6 3 3 6 3 3 3 5 6 3 3 5 4 5 5 5 6 2 3 4 3 3 4 5 4 4 4 4 4 4 6 4 4 2 5 4 2 2 4 3 2 4 4 4 3 1 6 2 3 2 2 5 5 5 4 3 2 5 5 3 3 2 4 4 3 3 5 4 3 4 4 1 5 3 3 5 4 5 3 4 4 5 3 3 3 3 4 3 2 3 3 2 6 1 4 3 5 4 5 4 4 0 4 2 4 5 6 4 5 2 6 2 2 5 4 2 3 7 4 5 2 3 5 5 3 3 3 4 4 4 3 3 3 1 6 3 5 5 4 6 4 6 4 4 8 3 6 2 5 5 3 3 2 1 4 6 5 3 3 6 1 3 3 3 3 4 5 4 6 2 5 6 4 1 4 3 5 2 3 7 3 5 3 5 7 4 4 5 6 4 5 4 4 4 4 4 3 5 4 4 3 4 3 5 5 3 5 3 2 5 5 4 5 4 1 5 3 1 3 4 4 5 3 3 6 4 6 3 2 3 5 1 3 2 3 5 3 6 5 3 4 4 2 2 3 3 5 7 2 5 3 5 4 2 2 4 4 3 5 5 6 5 3 7 4 4 2 4 4 7 3 6 2 2 4 2 5 2 3 3 6 4 5 3 5 4 2 3 2 5 3 5 4 3 4 5 2 2 4 2 6 4 2 2 4 2 4 3 4 3 6 6 4 5 6 2 3 4 2 2 6 3 1 4 3 2 5 5 5 5 5 2 4 3 6 4 4 3 3 3 3 3 5 2 4 2 2 3 4 4 3 1 5 4 5 4 4 4 5 7 6 2 6 5 4 1 5 4 4 4 4 3 4 1 5 3 4 4 4 5 2 4 3 4 4 5 6 3 5 2 6 4 1 5 3 4 4 2 5 3 4 3 3 5 4 5 3 6 3 4 5 5 3 5 5 5 3 4 4 3 3 4 4 4 5 4 5 4 7 4 5 3 4 3 4 4 6 3 4 4 4 5 3 5 3 3 4 5 4 6 4 3 5 5 5 7 5 2 3 5 2 5 3 1 5 5 4 3 4 2 5 3 4 4 1 4 3 7 4 5 4 4 3 4 5 5 2 4 7 5 4 3 5 2 3 3 3 5 2 2 4 1 6 3 3 6 5 4 3 2 3 5 8 5 4 5 2 6 4 6 3 5 3 6 3 1 4 4 5 2 2 4 3 2 0 7 2 4 0 5 3 4 4 3 3 4 4 4 3 3 5 3 4 5 3 5 5 3 5 2 3 3 3 4 3 4 4 7 4 6 4 7 3 5 5 1 5 6 4 4 3 5 6 2 4 2 6 2 5 3 4 5 5 5 4 4 4 3 1 2 6 2 6 4 3 3 6 4 4 3 3 3 3 5 5 3 5 1 6 2 3 2 7 4 5 5 3 6 6 3 4 5 6 3 4 3 3 4 2 3 3 4 4 3 4 3 3 5 4 3 2 4 4 3 4 4 4 2 5 5 7 5 3 4 3 2 2 2 4 3 5 4 4 4 4 5 3 2 5 3 
BTB PER SET COUNT: 8 1453 398 1449 6 5 7 5 4 3191 59 5 3 5 4 7 5 7 4 5 6 5 4 5 509 8 4 6 11 6 8 510 6 1129 4 5 9 3 5 5 7 4 5 5 1451 4 509 6 8 4 6 5 5 4 6 4 1016 3 7 1456 206 8 2 8 6 5 8 4 6 4 4 4 4 1011 5 273 6 4 944 5 8 6 1515 7 4 6 1 6 1011 17 3 10 6 5 2 5 9 7 4 5 5 6 5 8 329 7 5 4 5 6 4 3 500 7 5 812 5 5 21 1454 9 7 751 12 11 7 8 3 6 6 948 10 6 4 6 6 7 3 4 1013 635 6 4 4 6 4 6 4 6 8 7 446 7 8 7 946 7 6 3 6 8 3 5 6 5 5 4 4 7 1084 359 8 7 6 5 5 4 15 4 3 9 3 7 7 6 957 7 6 6 5 445 5 4 1017 5 6 4 5 1453 5 3 1453 7 6 7 7 5 5 4 4 8 8 5 333 4 5 6 508 330 8 4 6 5 7 6 5 5 4 720 5 12 9 4 6 1013 5 5 8 7 6 6 8 9 510 5 6 8616 5 6 5 6 6 17 9 4 6 6 4 9 7 5 7 4 5 6 7 7 5 5 7 5 4 6 7 6 5 16 2 6 5 4 93 1 10 4 9 5 6 6 5 3 5 6 5 6 5 9 687 9 5 5 3 7 184 204 6 7 5 6 1448 1518 4 7 4 3 5 6 4 6 4 7 5 1617 8 7 6 2 8 5 6 4 4 10 2 3 5 4 4 6 4 5 946 4 9 6 6 7 4 8 5 7 3 4 9 6 7 4 1517 11 11 8 329 1457 3 5 7 285 4 5 6 7 1517 2391 5 4 5 6 7 4 7 9 7 3 5 6 4 4 6 6 6 4 6 5 5 7 6 5 5 89 5 5 6 5 6 9 5 8 58 10 8 10 5 5 6 6 4 4 478 6 7 10 5 5 4 7 6 6 7 7 4 5 1012 7 7 4 26 6 4 3028 7 6 5 507 6 3 6 4 6 6 8 7 354 3 7 6 5 5 4 4 6 5 6 1009 5 4 5 5 7 5 7 7 72 7 5 3 7 5 5 4 4 9 5 5 1449 70 17 5 1452 7 6 946 5 1268 6 6 12 12 6 5 5 11 4 7 7 1270 5 4 5 5 329 3 7 1016 2016 1 3 5 510 4 4 4 5 4 3 395 3 3 8 4 8 1450 5 3 4 25 2 4 6 5 5 7 4 7 5 3 1459 3 7 3 5 2 6 1011 7 4 5 4 0 5 5 4 3 3 9 2 3 2018 4 3 4 6 4 3 4 3 6 3 2 3 5 4 6 945 3 3 4 3 4 5 888 4 3 5 3 3 4 1450 5 4 4 5 4 1009 3 3 3 1010 1 3 3 4 4 2 5 2 4 7 4 14472 4 8 4 7 4 3 4 4 7 10 6 1005 4 5 2 5 1 4 6 6 3 3 6 2 2 2 5 3 5 4 3 3 2 6 5 3 5 6 2 3 3 4 3 4 5 5 1 5 3 8 2 4 4 4 3826 4 2 3 5 3 7 943 5 3 4 4 6 3 1452 5 5 4 3 8 2 3 5 3 2 4 7 4 3 6 3 5 7 4 3 6 5 3 5 3 3 5 506 4 4 1 3 3 4 2 6 4 4 4 4 2 4 5 6 5 3 5 4 4 3 3 134 3 4 6 6 2 3 8 2 4 2 4 5 4 4 5 5 2 3 70 6 10 6 4 58 3 6 3 3402 4 3 7 2 3 6 5 6 3 5 2 4 5 4 4 4 4 5 3 4 238 3 4 7 4 4 7 3 4 2 3 1 5 4 4 2 5 5 8 5 4 4 5 2 0 4 2 3 5 4 6 5 7 4 9 5 6 2 5 3 7 509 6 5 1 5 5 4 5 4 2 9 2 946 1011 5 5 5 6 5 3 3 4 5 3 183 5 4 6 3 3 7 4 4 3 5 509 3 3 5 4 5 5 5 6 2 3 4 3 3 4 5 4 4 4 4 4 6 6 4 4 2 1451 4 2 2 4 3 241 4 4 4 3 1 6 1008 5 2 2 9 5 1020 4 3 2 8 5 3 3 2 4 5 3 3 5 5 3 5 4 1 5 5 6 5 4 5 4 4 4 945 3 3 3 3 5 3 2 4 3 2 6 1 4 3 6 4 1018 4 4 0 2021 2 4 7 7 5 6 2 6 2 2 6 4 2 3 16 5 6 3 3 6 9 3 3 3 4 4 6 3 981 3 1 6 3 5 5 4 9 4 1452 4 4 9 3 9 2 5 5 3 3 2 1 4 7 9 4 3 6 1 3 6 3 3 4 5 4 7 2 6 447 8 1 9 5 5 2 3 1163 3 6 5 5 7 507 8 7 7 5 1017 6 4 4 4 5 3 6 4 4 3 216 3 5 6 3 6 4 2 12 6 4 8 5 1 398 3 1 4 4 4 1058 4 8 6 4 7 3 2 3 7 1 4 2 3 5 3 8 5 3 17 4 102 2 5 3 6 2394 2 379 39 5 4 2 2 4 5 3 5 5 120 135 3 8 4 4 2 4 5 8 3 7 2 3 4 2 5 2 3 3 6 4 6 3 6 20255 2 3 2 10 3 5 4 3 4 7 2 2 4 2 8 4 2 2 5 2 4 4 4 3 6 6 12 7 1522 2 3 4 2 2 8 3 2 1012 3 2 5 7 260 5 1885 2 6 3 6 4 9 3 1895 3 3 3 6 2 10 3 2 9 4 8 3 1 5 21 1451 4 4 1450 945 10 6 3 6 5 379 1 6 4 4 4 4 4 4 1 5 3 5 4 4 19 2 4 3 4 4 15 6 6 5 2 1453 4 1 5 5 507 4 2 8 3 4 3 3 5 4 81 3 6 945 4 5 5 3 5 5 5 3 4 4 3 3 6 4 4 6 4 6 1884 7 4 5 3 4 3 4 5 6 4 4 4 4 5 3 5 5 3 7 5 5 7 4 3 7 5 6 7 6 2 3 5 2 5 3 1 5 5 5 3 4 2 5 1451 6 1450 1 4 3 11 4 5 4 5 3 5 5 5 2 4 9 5 4 3 5 2 3 3 4 328 3 3 6 1 7 5 4 7 5 4 4 2 3 7 8 5 4 5 2 8 7 7 3 6 3 514 4 1 4 5 6 2 3 5 3 2 0 8 2 4 0 7 3 4 10 3 3 4 4 6 5 3 5 3 4 5 3 8 5 3 8 2 3 219 3 4 4 5 4 7 4 6 8 10 3 5 5 1 6 2828 4 4 3 6 8 2 4 2 7 2 5 3 4 509 5 5 4 218 4 3 1 2 6 2 6 5 3 3 6 4 4 1454 3 6 6 5 7 3 5 1 7 2 3 2 11 4 8 5 944 6 6 3 4 7 6 4 4 3 3 4 2 3 5 4 4 4 5 3 3 5 4 3 2 4 4 3 6 4 4 2 5 5 7 5 3 4 4 2 3 2 5 3 5 4 945 4 4 6 4 2 5 51 
To predecode: 0
Predecoding something: 0
Predecode request dropped: 0
sizeofblock_0 0
sizeofblock_1 39172
sizeofblock_2 91909
sizeofblock_3 0
sizeofblock_4 0
sizeofblock_5 0
sizeofblock_6 0
sizeofblock_7 0
sizeofblock_8 0
Variant_0 Correct: 1598256 Incorrect: 0 Accuracy: 1
Variant_1 Correct: 5682112 Incorrect: 0 Accuracy: 1
Variant_2 Correct: 0 Incorrect: 0 Accuracy: -nan
Variant_3 Correct: 0 Incorrect: 0 Accuracy: -nan
