
*** ChampSim Multicore Out-of-Order Simulator ***

Warmup Instructions: 50000000
Simulation Instructions: 50000000
Number of CPUs: 1
LLC sets: 2048
LLC ways: 16
Off-chip DRAM Size: 4096 MB Channels: 1 Width: 64-bit Data Rate: 6400 MT/s
CPU 0 runs ./micro_traces/srv392.trace.gz
.gz
ITLB has LRU replacement policy
DTLB has LRU replacement policy
STLB has LRU replacement policy
FDIP Prefetcher at L1I
L1I has LRU replacement policy
L1D has LRU replacement policy
Initialize SRRIP state for L2C
Initialize DRRIP state for LLC
Heartbeat_Variant_0 : 1327 0.323975 per_variant_size: 0 1327 0 0 0 0 0 0 0 
Heartbeat_Variant_1 : 2532 0.618164 per_variant_size: 0 569 1963 0 0 0 0 0 0 
Heartbeat_Variant_2 : 0 0 per_variant_size: 0 0 0 0 0 0 0 0 0 
Heartbeat_Variant_3 : 0 0 per_variant_size: 0 0 0 0 0 0 0 0 0 
Heartbeat_Variant_0_evicts 0 : 5680 1 : 435 2 : 0 3 : 0 
Heartbeat_Variant_1_evicts 0 : 379 1 : 0 2 : 0 3 : 0 
Heartbeat_Variant_2_evicts 0 : 0 1 : 0 2 : 0 3 : 0 
Heartbeat_Variant_3_evicts 0 : 0 1 : 0 2 : 0 3 : 0 
Heartbeat CPU 0 instructions: 10000000 cycles: 2795802 heartbeat IPC: 3.57679 cumulative IPC: 3.57679 (Simulation time: 0 hr 1 min 44 sec) 
Heartbeat_Variant_0 : 1327 0.323975 per_variant_size: 0 1327 0 0 0 0 0 0 0 
Heartbeat_Variant_1 : 2535 0.618896 per_variant_size: 0 572 1963 0 0 0 0 0 0 
Heartbeat_Variant_2 : 0 0 per_variant_size: 0 0 0 0 0 0 0 0 0 
Heartbeat_Variant_3 : 0 0 per_variant_size: 0 0 0 0 0 0 0 0 0 
Heartbeat_Variant_0_evicts 0 : 5552 1 : 9 2 : 0 3 : 0 
Heartbeat_Variant_1_evicts 0 : 9 1 : 0 2 : 0 3 : 0 
Heartbeat_Variant_2_evicts 0 : 0 1 : 0 2 : 0 3 : 0 
Heartbeat_Variant_3_evicts 0 : 0 1 : 0 2 : 0 3 : 0 
Heartbeat CPU 0 instructions: 20000002 cycles: 5591275 heartbeat IPC: 3.57721 cumulative IPC: 3.577 (Simulation time: 0 hr 3 min 21 sec) 
Heartbeat_Variant_0 : 1366 0.333496 per_variant_size: 0 1366 0 0 0 0 0 0 0 
Heartbeat_Variant_1 : 2618 0.63916 per_variant_size: 0 520 2098 0 0 0 0 0 0 
Heartbeat_Variant_2 : 0 0 per_variant_size: 0 0 0 0 0 0 0 0 0 
Heartbeat_Variant_3 : 0 0 per_variant_size: 0 0 0 0 0 0 0 0 0 
Heartbeat_Variant_0_evicts 0 : 5891 1 : 387 2 : 0 3 : 0 
Heartbeat_Variant_1_evicts 0 : 380 1 : 0 2 : 0 3 : 0 
Heartbeat_Variant_2_evicts 0 : 0 1 : 0 2 : 0 3 : 0 
Heartbeat_Variant_3_evicts 0 : 0 1 : 0 2 : 0 3 : 0 
Heartbeat CPU 0 instructions: 30000003 cycles: 8384351 heartbeat IPC: 3.58028 cumulative IPC: 3.57809 (Simulation time: 0 hr 4 min 59 sec) 
Heartbeat_Variant_0 : 1365 0.333252 per_variant_size: 0 1365 0 0 0 0 0 0 0 
Heartbeat_Variant_1 : 2624 0.640625 per_variant_size: 0 521 2103 0 0 0 0 0 0 
Heartbeat_Variant_2 : 0 0 per_variant_size: 0 0 0 0 0 0 0 0 0 
Heartbeat_Variant_3 : 0 0 per_variant_size: 0 0 0 0 0 0 0 0 0 
Heartbeat_Variant_0_evicts 0 : 5578 1 : 41 2 : 0 3 : 0 
Heartbeat_Variant_1_evicts 0 : 42 1 : 0 2 : 0 3 : 0 
Heartbeat_Variant_2_evicts 0 : 0 1 : 0 2 : 0 3 : 0 
Heartbeat_Variant_3_evicts 0 : 0 1 : 0 2 : 0 3 : 0 
Heartbeat CPU 0 instructions: 40000002 cycles: 11179255 heartbeat IPC: 3.57794 cumulative IPC: 3.57806 (Simulation time: 0 hr 6 min 36 sec) 
Heartbeat_Variant_0 : 1372 0.334961 per_variant_size: 0 1372 0 0 0 0 0 0 0 
Heartbeat_Variant_1 : 2633 0.642822 per_variant_size: 0 518 2115 0 0 0 0 0 0 
Heartbeat_Variant_2 : 0 0 per_variant_size: 0 0 0 0 0 0 0 0 0 
Heartbeat_Variant_3 : 0 0 per_variant_size: 0 0 0 0 0 0 0 0 0 
Heartbeat_Variant_0_evicts 0 : 5644 1 : 186 2 : 0 3 : 0 
Heartbeat_Variant_1_evicts 0 : 183 1 : 0 2 : 0 3 : 0 
Heartbeat_Variant_2_evicts 0 : 0 1 : 0 2 : 0 3 : 0 
Heartbeat_Variant_3_evicts 0 : 0 1 : 0 2 : 0 3 : 0 
Heartbeat CPU 0 instructions: 50000002 cycles: 13975291 heartbeat IPC: 3.57649 cumulative IPC: 3.57774 (Simulation time: 0 hr 8 min 11 sec) 

Warmup complete CPU 0 instructions: 50000002 cycles: 13975291 (Simulation time: 0 hr 8 min 11 sec) 

Cycle: 20000000 FTQ IN: 58480706 FTQ occupancy: 20.4809 DECODE IN: 58480607 DECODE occupancy: 53.2009 ROB IN: 58480547 ROB occupancy: 318.442 ROB OUT: 58480195
Heartbeat_Variant_0 : 1373 0.335205 per_variant_size: 0 1373 0 0 0 0 0 0 0 
Heartbeat_Variant_1 : 2637 0.643799 per_variant_size: 0 523 2114 0 0 0 0 0 0 
Heartbeat_Variant_2 : 0 0 per_variant_size: 0 0 0 0 0 0 0 0 0 
Heartbeat_Variant_3 : 0 0 per_variant_size: 0 0 0 0 0 0 0 0 0 
Heartbeat_Variant_0_evicts 0 : 5641 1 : 80 2 : 0 3 : 0 
Heartbeat_Variant_1_evicts 0 : 81 1 : 0 2 : 0 3 : 0 
Heartbeat_Variant_2_evicts 0 : 0 1 : 0 2 : 0 3 : 0 
Heartbeat_Variant_3_evicts 0 : 0 1 : 0 2 : 0 3 : 0 
Heartbeat CPU 0 instructions: 60000003 cycles: 21084079 heartbeat IPC: 1.40671 cumulative IPC: 1.40671 (Simulation time: 0 hr 10 min 6 sec) 
Heartbeat_Variant_0 : 1372 0.334961 per_variant_size: 0 1372 0 0 0 0 0 0 0 
Heartbeat_Variant_1 : 2643 0.645264 per_variant_size: 0 530 2113 0 0 0 0 0 0 
Heartbeat_Variant_2 : 0 0 per_variant_size: 0 0 0 0 0 0 0 0 0 
Heartbeat_Variant_3 : 0 0 per_variant_size: 0 0 0 0 0 0 0 0 0 
Heartbeat_Variant_0_evicts 0 : 5628 1 : 90 2 : 0 3 : 0 
Heartbeat_Variant_1_evicts 0 : 93 1 : 0 2 : 0 3 : 0 
Heartbeat_Variant_2_evicts 0 : 0 1 : 0 2 : 0 3 : 0 
Heartbeat_Variant_3_evicts 0 : 0 1 : 0 2 : 0 3 : 0 
Heartbeat CPU 0 instructions: 70000003 cycles: 28236377 heartbeat IPC: 1.39815 cumulative IPC: 1.40242 (Simulation time: 0 hr 12 min 0 sec) 
Cycle: 30000000 FTQ IN: 13976461 FTQ occupancy: 14.6969 DECODE IN: 13976495 DECODE occupancy: 37.2206 ROB IN: 13976495 ROB occupancy: 248.569 ROB OUT: 13976519
Heartbeat_Variant_0 : 1380 0.336914 per_variant_size: 0 1380 0 0 0 0 0 0 0 
Heartbeat_Variant_1 : 2638 0.644043 per_variant_size: 0 503 2135 0 0 0 0 0 0 
Heartbeat_Variant_2 : 0 0 per_variant_size: 0 0 0 0 0 0 0 0 0 
Heartbeat_Variant_3 : 0 0 per_variant_size: 0 0 0 0 0 0 0 0 0 
Heartbeat_Variant_0_evicts 0 : 5638 1 : 110 2 : 0 3 : 0 
Heartbeat_Variant_1_evicts 0 : 104 1 : 0 2 : 0 3 : 0 
Heartbeat_Variant_2_evicts 0 : 0 1 : 0 2 : 0 3 : 0 
Heartbeat_Variant_3_evicts 0 : 0 1 : 0 2 : 0 3 : 0 
Heartbeat CPU 0 instructions: 80000001 cycles: 35343947 heartbeat IPC: 1.40695 cumulative IPC: 1.40393 (Simulation time: 0 hr 13 min 54 sec) 
Cycle: 40000000 FTQ IN: 14112299 FTQ occupancy: 14.9135 DECODE IN: 14112258 DECODE occupancy: 38.0899 ROB IN: 14112318 ROB occupancy: 250.283 ROB OUT: 14112473
Heartbeat_Variant_0 : 1380 0.336914 per_variant_size: 0 1380 0 0 0 0 0 0 0 
Heartbeat_Variant_1 : 2641 0.644775 per_variant_size: 0 493 2148 0 0 0 0 0 0 
Heartbeat_Variant_2 : 0 0 per_variant_size: 0 0 0 0 0 0 0 0 0 
Heartbeat_Variant_3 : 0 0 per_variant_size: 0 0 0 0 0 0 0 0 0 
Heartbeat_Variant_0_evicts 0 : 5484 1 : 57 2 : 0 3 : 0 
Heartbeat_Variant_1_evicts 0 : 57 1 : 0 2 : 0 3 : 0 
Heartbeat_Variant_2_evicts 0 : 0 1 : 0 2 : 0 3 : 0 
Heartbeat_Variant_3_evicts 0 : 0 1 : 0 2 : 0 3 : 0 
Heartbeat CPU 0 instructions: 90000000 cycles: 42509435 heartbeat IPC: 1.39558 cumulative IPC: 1.40183 (Simulation time: 0 hr 15 min 50 sec) 
Heartbeat_Variant_0 : 1384 0.337891 per_variant_size: 0 1384 0 0 0 0 0 0 0 
Heartbeat_Variant_1 : 2643 0.645264 per_variant_size: 0 476 2167 0 0 0 0 0 0 
Heartbeat_Variant_2 : 0 0 per_variant_size: 0 0 0 0 0 0 0 0 0 
Heartbeat_Variant_3 : 0 0 per_variant_size: 0 0 0 0 0 0 0 0 0 
Heartbeat_Variant_0_evicts 0 : 5615 1 : 96 2 : 0 3 : 0 
Heartbeat_Variant_1_evicts 0 : 96 1 : 0 2 : 0 3 : 0 
Heartbeat_Variant_2_evicts 0 : 0 1 : 0 2 : 0 3 : 0 
Heartbeat_Variant_3_evicts 0 : 0 1 : 0 2 : 0 3 : 0 
Heartbeat CPU 0 instructions: 100000001 cycles: 49620850 heartbeat IPC: 1.40619 cumulative IPC: 1.4027 (Simulation time: 0 hr 17 min 51 sec) 
Finished CPU 0 instructions: 50000003 cycles: 35645572 cumulative IPC: 1.4027 (Simulation time: 0 hr 17 min 51 sec) 

ChampSim completed all CPUs

Region of Interest Statistics

CPU 0 cumulative IPC: 1.4027 instructions: 50000003 cycles: 35645572
 Fetch stage stalled: 46.0886  Sim cycles: 35645572 fetch stall cycle: 16428556
 Empty decode stage: 26.5699  Sim cycles: 35645572 fetch stall cycle: 9471006
ITLB TOTAL     ACCESS:    5838056  HIT:    5341919  MISS:     496137  HIT %:    91.5017  MISS %:    8.49833   MPKI: 9.92274
ITLB LOAD TRANSLATION INSTRUCTION	ACCESS:    5700015  HIT:    5203878  MISS:     496137  HIT %:    91.2959  MISS %:    8.70413  MPKI: 9.92274
ITLB TRANSLATION FROM L1D PREFETCHER INSTRUCTION	ACCESS:     138041  HIT:     138041  MISS:          0  HIT %:        100  MISS %:          0  MPKI: 0

ITLB AVERAGE MISS LATENCY: 9.04406 cycles
ITLB RQ	ACCESS:    7937195	FORWARD:          0	MERGED:    1616086	TO_CACHE:    6321109

DTLB TOTAL     ACCESS:    8951555  HIT:    8477595  MISS:     473960  HIT %:    94.7053  MISS %:    5.29472   MPKI: 9.4792
DTLB LOAD TRANSLATION DATA	ACCESS:    8951555  HIT:    8477595  MISS:     473960  HIT %:    94.7053  MISS %:    5.29472  MPKI: 9.4792

DTLB AVERAGE MISS LATENCY: 9.31603 cycles
DTLB RQ	ACCESS:   13322170	FORWARD:          0	MERGED:    4333706	TO_CACHE:    8988464

STLB TOTAL     ACCESS:    1214622  HIT:    1212590  MISS:       2032  HIT %:    99.8327  MISS %:   0.167295   MPKI: 0.04064
STLB LOAD TRANSLATION INSTRUCTION	ACCESS:     496137  HIT:     495893  MISS:        244  HIT %:    99.9508  MISS %:    0.04918  MPKI: 0.00488
STLB LOAD TRANSLATION DATA	ACCESS:     473960  HIT:     472204  MISS:       1756  HIT %:    99.6295  MISS %:   0.370495  MPKI: 0.03512
STLB TRANSLATION FROM L1D PREFETCHER DATA	ACCESS:     244525  HIT:     244493  MISS:         32  HIT %:    99.9869  MISS %:  0.0130866  MPKI: 0.00064

STLB AVERAGE MISS LATENCY: 69.5153 cycles
STLB RQ	ACCESS:    1335356	FORWARD:          0	MERGED:     120698	TO_CACHE:    1214658

STLB Hit, L1D data hit: 0
STLB Hit, L2C data hit: 0
STLB Hit, LLC data hit: 0
STLB Hit, LLC data miss: 0
STLB STLB hints to L2: 0
L1D TOTAL     ACCESS:   13137601  HIT:   12163854  MISS:     973747  HIT %:    92.5881  MISS %:    7.41191   MPKI: 19.4749
L1D LOAD DATA	ACCESS:    6538031  HIT:    5902336  MISS:     635695  HIT %:     90.277  MISS %:    9.72303  MPKI: 12.7139
L1D RFO DATA	ACCESS:    6270481  HIT:    6020827  MISS:     249654  HIT %:    96.0186  MISS %:    3.98142  MPKI: 4.99308
L1D PREFETCH DATA	ACCESS:     329089  HIT:     240691  MISS:      88398  HIT %:    73.1386  MISS %:    26.8614  MPKI: 1.76796

L1D PREFETCH  REQUESTED:     730894  ISSUED:     730894  USEFUL:      30919  USELESS:      64307
L1D USEFUL LOAD PREFETCHES:      30919 PREFETCH ISSUED TO LOWER LEVEL:      95303  ACCURACY: 32.4428
 TIMELY PREFETCHES:      30919 LATE PREFETCHES: 6826 DROPPED PREFETCHES: 5
L1D AVERAGE MISS LATENCY: 227973 cycles
L1D RQ	ACCESS:   10676002	FORWARD:          0	MERGED:    3938933	TO_CACHE:    6569531
L1D WQ	ACCESS:    6949781	FORWARD:     167914	MERGED:     197142	TO_CACHE:    6752639
L1D PQ	ACCESS:     365635	FORWARD:          0	MERGED:          0	TO_CACHE:     365259

L1D UNIQUE REGIONS ACCESSED: 0
L1D REGIONS CONFLICTS: 0
L1D Cross Page Prefetch Requests: 6931
L1D Same Page Prefetch Requests: 742392
L1D ROI Sum of L1D PQ occupancy: 4637718
L1D PREFETCHES PUSHED FROM L2C: 0
L1I TOTAL     ACCESS:    7119449  HIT:    4348356  MISS:    2771093  HIT %:    61.0771  MISS %:    38.9229   MPKI: 55.4219
L1I LOAD INSTRUCTION	ACCESS:    6446002  HIT:    3674909  MISS:    2771093  HIT %:    57.0107  MISS %:    42.9893  MPKI: 55.4219
L1I PREFETCH INSTRUCTION	ACCESS:     673447  HIT:     673447  MISS:          0  HIT %:        100  MISS %:          0  MPKI: 0

L1I PREFETCH  REQUESTED:    1613265  ISSUED:    1613265  USEFUL:          0  USELESS:          0
L1I USEFUL LOAD PREFETCHES:          0 PREFETCH ISSUED TO LOWER LEVEL:          0  ACCURACY: -nan
 TIMELY PREFETCHES:          0 LATE PREFETCHES: 0 DROPPED PREFETCHES: 0
L1I AVERAGE MISS LATENCY: 17.2741 cycles
L1I RQ	ACCESS:    9568509	FORWARD:          0	MERGED:    2813410	TO_CACHE:    6755099
L1I PQ	ACCESS:    1613265	FORWARD:          0	MERGED:     431169	TO_CACHE:    1182096

L1BTB TOTAL     ACCESS:    5671590  HIT:    2032461  MISS:    3639129  HIT %:    35.8358  MISS %:    64.1642   MPKI: 72.7826
L1BTB BRANCH_DIRECT_JUMP	ACCESS:     547869 HIT:     144015 MISS:     403854 AVERAGE STALL: 59.1851 AVERAGE FETCH STALL: 18.4816 AVERAGE FETCH QUEUE STALL: 19.9252 AVERAGE DECODE STALL: 19.8538 AVERAGE EXECUTE STALL: 1.89004e+15
L1BTB BRANCH_INDIRECT	ACCESS:     182376 HIT:      65594 MISS:     116782 AVERAGE STALL: 110.767 AVERAGE FETCH STALL: 10.8535 AVERAGE FETCH QUEUE STALL: 18.2854 AVERAGE DECODE STALL: 13.4779 AVERAGE EXECUTE STALL: 67.1866
L1BTB BRANCH_CONDITIONAL	ACCESS:    2696939 HIT:    1401535 MISS:    1295404 AVERAGE STALL: 52.7678 AVERAGE FETCH STALL: 23.4234 AVERAGE FETCH QUEUE STALL: 13.9329 AVERAGE DECODE STALL: 14.7237 AVERAGE EXECUTE STALL: 3.28409e+15
L1BTB BRANCH_DIRECT_CALL	ACCESS:     949410 HIT:     107171 MISS:     842239 AVERAGE STALL: 83.8855 AVERAGE FETCH STALL: 22.279 AVERAGE FETCH QUEUE STALL: 35.9287 AVERAGE DECODE STALL: 24.7562 AVERAGE EXECUTE STALL: 8.76746e+15
L1BTB BRANCH_INDIRECT_CALL	ACCESS:     172792 HIT:      21991 MISS:     150801 AVERAGE STALL: 136.637 AVERAGE FETCH STALL: 12.285 AVERAGE FETCH QUEUE STALL: 16.8649 AVERAGE DECODE STALL: 11.9892 AVERAGE EXECUTE STALL: 95.0073
L1BTB BRANCH_RETURN	ACCESS:    1122204 HIT:     292155 MISS:     830049 AVERAGE STALL: 49.7497 AVERAGE FETCH STALL: 16.1588 AVERAGE FETCH QUEUE STALL: 6.14417 AVERAGE DECODE STALL: 6.2237 AVERAGE EXECUTE STALL: 4.24972e+14
L1BTB BRANCH_OTHER ACCESS:          0 HIT:          0 MISS:          0 AVERAGE STALL: -nan AVERAGE FETCH STALL: -nan AVERAGE FETCH QUEUE STALL: -nan AVERAGE DECODE STALL: -nan AVERAGE EXECUTE STALL: -nan
L1BTB TOTAL ROB OCCUPANCY AT BTB MISS: 2.80697

L2BTB TOTAL     ACCESS:    3613883  HIT:    3545710  MISS:      68173  HIT %:    98.1136  MISS %:    1.88642   MPKI: 1.36346
L2BTB BRANCH_DIRECT_JUMP	ACCESS:     399757 HIT:     394093 MISS:       5664 AVERAGE STALL: 59.1851 AVERAGE FETCH STALL: 18.4816 AVERAGE FETCH QUEUE STALL: 19.9252 AVERAGE DECODE STALL: 19.8538 AVERAGE EXECUTE STALL: 1.89004e+15
L2BTB BRANCH_INDIRECT	ACCESS:     106503 HIT:     103826 MISS:       2677 AVERAGE STALL: 110.767 AVERAGE FETCH STALL: 10.8535 AVERAGE FETCH QUEUE STALL: 18.2854 AVERAGE DECODE STALL: 13.4779 AVERAGE EXECUTE STALL: 67.1866
L2BTB BRANCH_CONDITIONAL	ACCESS:    1295404 HIT:    1289755 MISS:       5649 AVERAGE STALL: 52.7678 AVERAGE FETCH STALL: 23.4234 AVERAGE FETCH QUEUE STALL: 13.9329 AVERAGE DECODE STALL: 14.7237 AVERAGE EXECUTE STALL: 3.28409e+15
L2BTB BRANCH_DIRECT_CALL	ACCESS:     842239 HIT:     840117 MISS:       2122 AVERAGE STALL: 83.8855 AVERAGE FETCH STALL: 22.279 AVERAGE FETCH QUEUE STALL: 35.9287 AVERAGE DECODE STALL: 24.7562 AVERAGE EXECUTE STALL: 8.76746e+15
L2BTB BRANCH_INDIRECT_CALL	ACCESS:     141351 HIT:     131297 MISS:      10054 AVERAGE STALL: 136.637 AVERAGE FETCH STALL: 12.285 AVERAGE FETCH QUEUE STALL: 16.8649 AVERAGE DECODE STALL: 11.9892 AVERAGE EXECUTE STALL: 95.0073
L2BTB BRANCH_RETURN	ACCESS:     828629 HIT:     786622 MISS:      42007 AVERAGE STALL: 49.7497 AVERAGE FETCH STALL: 16.1588 AVERAGE FETCH QUEUE STALL: 6.14417 AVERAGE DECODE STALL: 6.2237 AVERAGE EXECUTE STALL: 4.24972e+14
L2BTB BRANCH_OTHER ACCESS:          0 HIT:          0 MISS:          0 AVERAGE STALL: -nan AVERAGE FETCH STALL: -nan AVERAGE FETCH QUEUE STALL: -nan AVERAGE DECODE STALL: -nan AVERAGE EXECUTE STALL: -nan
L2BTB TOTAL ROB OCCUPANCY AT BTB MISS: 149.838

L2C TOTAL     ACCESS:    4280277  HIT:    3800245  MISS:     480032  HIT %:     88.785  MISS %:     11.215   MPKI: 9.60064
L2C LOAD INSTRUCTION	ACCESS:    2771093  HIT:    2508212  MISS:     262881  HIT %:    90.5135  MISS %:    9.48655  MPKI: 5.25762
L2C LOAD TRANSLATION INSTRUCTION	ACCESS:        273  HIT:         75  MISS:        198  HIT %:    27.4725  MISS %:    72.5275  MPKI: 0.00396
L2C LOAD DATA	ACCESS:     628843  HIT:     552729  MISS:      76114  HIT %:    87.8962  MISS %:    12.1038  MPKI: 1.52228
L2C RFO DATA	ACCESS:     249540  HIT:     203952  MISS:      45588  HIT %:    81.7312  MISS %:    18.2688  MPKI: 0.91176
L2C PREFETCH DATA	ACCESS:     176413  HIT:     104537  MISS:      71876  HIT %:     59.257  MISS %:     40.743  MPKI: 1.43752
L2C WRITEBACK DATA	ACCESS:     452259  HIT:     430225  MISS:      22034  HIT %:     95.128  MISS %:    4.87199  MPKI: 0.44068
L2C LOAD TRANSLATION DATA	ACCESS:       1805  HIT:        481  MISS:       1324  HIT %:    26.6482  MISS %:    73.3518  MPKI: 0.02648
L2C TRANSLATION FROM L1D PREFETCHER DATA	ACCESS:         51  HIT:         34  MISS:         17  HIT %:    66.6667  MISS %:    33.3333  MPKI: 0.00034

L2C PREFETCH  REQUESTED:      89840  ISSUED:      89840  USEFUL:       7337  USELESS:      65153
L2C USEFUL LOAD PREFETCHES:       7337 PREFETCH ISSUED TO LOWER LEVEL:      72455  ACCURACY: 10.1263
 TIMELY PREFETCHES:       7337 LATE PREFETCHES: 579 DROPPED PREFETCHES: 0
L2C AVERAGE MISS LATENCY: 37.5481 cycles
L2C RQ	ACCESS:    3651668	FORWARD:          0	MERGED:          0	TO_CACHE:    3651607
L2C WQ	ACCESS:     452259	FORWARD:         61	MERGED:          0	TO_CACHE:     452259
L2C PQ	ACCESS:     185143	FORWARD:          0	MERGED:       3964	TO_CACHE:     181179

L2C Dense regions hint from L2: 0
PSCL5 TOTAL     ACCESS:       4080  HIT:       2040  MISS:       2040  HIT %:         50  MISS %:         50   MPKI: 0.0408
PSCL5 LOAD TRANSLATION INSTRUCTION	ACCESS:       3980  HIT:       1990  MISS:       1990  HIT %:         50  MISS %:         50  MPKI: 0.0398
PSCL5 TRANSLATION FROM L1D PREFETCHER INSTRUCTION	ACCESS:        100  HIT:         50  MISS:         50  HIT %:         50  MISS %:         50  MPKI: 0.001


PSCL4 TOTAL     ACCESS:       3986  HIT:       1991  MISS:       1995  HIT %:    49.9498  MISS %:    50.0502   MPKI: 0.0399
PSCL4 LOAD TRANSLATION INSTRUCTION	ACCESS:       3338  HIT:       1941  MISS:       1397  HIT %:    58.1486  MISS %:    41.8514  MPKI: 0.02794
PSCL4 TRANSLATION FROM L1D PREFETCHER INSTRUCTION	ACCESS:         83  HIT:         50  MISS:         33  HIT %:     60.241  MISS %:     39.759  MPKI: 0.00066
PSCL4 LOAD TRANSLATION DATA	ACCESS:        548  HIT:          0  MISS:        548  HIT %:          0  MISS %:        100  MPKI: 0.01096
PSCL4 TRANSLATION FROM L1D PREFETCHER DATA	ACCESS:         17  HIT:          0  MISS:         17  HIT %:          0  MISS %:        100  MPKI: 0.00034


PSCL3 TOTAL     ACCESS:       4030  HIT:       2013  MISS:       2017  HIT %:    49.9504  MISS %:    50.0496   MPKI: 0.04034
PSCL3 LOAD TRANSLATION INSTRUCTION	ACCESS:       3360  HIT:       1963  MISS:       1397  HIT %:    58.4226  MISS %:    41.5774  MPKI: 0.02794
PSCL3 TRANSLATION FROM L1D PREFETCHER INSTRUCTION	ACCESS:         83  HIT:         50  MISS:         33  HIT %:     60.241  MISS %:     39.759  MPKI: 0.00066
PSCL3 LOAD TRANSLATION DATA	ACCESS:        570  HIT:          0  MISS:        570  HIT %:          0  MISS %:        100  MPKI: 0.0114
PSCL3 TRANSLATION FROM L1D PREFETCHER DATA	ACCESS:         17  HIT:          0  MISS:         17  HIT %:          0  MISS %:        100  MPKI: 0.00034


PSCL2 TOTAL     ACCESS:       3999  HIT:       1959  MISS:       2040  HIT %:    48.9872  MISS %:    51.0128   MPKI: 0.0408
PSCL2 LOAD TRANSLATION INSTRUCTION	ACCESS:       2153  HIT:       1910  MISS:        243  HIT %:    88.7134  MISS %:    11.2866  MPKI: 0.00486
PSCL2 TRANSLATION FROM L1D PREFETCHER INSTRUCTION	ACCESS:         49  HIT:         49  MISS:          0  HIT %:        100  MISS %:          0  MPKI: 0
PSCL2 LOAD TRANSLATION DATA	ACCESS:       1748  HIT:          0  MISS:       1748  HIT %:          0  MISS %:        100  MPKI: 0.03496
PSCL2 TRANSLATION FROM L1D PREFETCHER DATA	ACCESS:         49  HIT:          0  MISS:         49  HIT %:          0  MISS %:        100  MPKI: 0.00098


LLC TOTAL     ACCESS:     527237  HIT:     499925  MISS:      27312  HIT %:    94.8198  MISS %:    5.18021   MPKI: 0.54624
LLC LOAD INSTRUCTION	ACCESS:     262882  HIT:     262110  MISS:        772  HIT %:    99.7063  MISS %:   0.293668  MPKI: 0.01544
LLC LOAD TRANSLATION INSTRUCTION	ACCESS:        198  HIT:        173  MISS:         25  HIT %:    87.3737  MISS %:    12.6263  MPKI: 0.0005
LLC LOAD DATA	ACCESS:      75560  HIT:      72247  MISS:       3313  HIT %:    95.6154  MISS %:     4.3846  MPKI: 0.06626
LLC RFO DATA	ACCESS:      45544  HIT:      32669  MISS:      12875  HIT %:    71.7306  MISS %:    28.2694  MPKI: 0.2575
LLC PREFETCH DATA	ACCESS:      72455  HIT:      62600  MISS:       9855  HIT %:    86.3985  MISS %:    13.6015  MPKI: 0.1971
LLC WRITEBACK DATA	ACCESS:      69257  HIT:      68853  MISS:        404  HIT %:    99.4167  MISS %:   0.583335  MPKI: 0.00808
LLC LOAD TRANSLATION DATA	ACCESS:       1324  HIT:       1256  MISS:         68  HIT %:     94.864  MISS %:    5.13595  MPKI: 0.00136
LLC TRANSLATION FROM L1D PREFETCHER DATA	ACCESS:         17  HIT:         17  MISS:          0  HIT %:        100  MISS %:          0  MPKI: 0

LLC AVERAGE MISS LATENCY: 155.336 cycles
LLC RQ	ACCESS:     385544	FORWARD:          0	MERGED:          0	TO_CACHE:     385525
LLC WQ	ACCESS:      69257	FORWARD:         19	MERGED:          0	TO_CACHE:      69257
LLC PQ	ACCESS:      72455	FORWARD:          0	MERGED:          0	TO_CACHE:      72455

LLC Dense regions hint to LLC: 0

RAW hits: 1952867
Loads Generated: 12628869
Loads sent to L1D: 10676002
Stores Generated: 6949757
Stores sent to L1D: 6949781
Major fault: 0 Minor fault: 2587
Allocated PAGES: 2587

stream: 
stream:times selected: 1175497
stream:pref_filled: 109925
stream:pref_useful: 20409
stream:pref_late: 6508
stream:misses: 6638
stream:misses_by_poll: 0

CS: 
CS:times selected: 176677
CS:pref_filled: 57265
CS:pref_useful: 34583
CS:pref_late: 5974
CS:misses: 14184
CS:misses_by_poll: 3

CPLX: 
CPLX:times selected: 997623
CPLX:pref_filled: 18744
CPLX:pref_useful: 4104
CPLX:pref_late: 3331
CPLX:misses: 83954
CPLX:misses_by_poll: 0

NL_L1: 
NL:times selected: 20561
NL:pref_filled: 716
NL:pref_useful: 317
NL:pref_late: 338
NL:misses: 1374
NL:misses_by_poll: 0

total selections: 2370358
total_filled: 88398
total_useful: 30919
total_late: 17281
total_polluted: 3
total_misses_after_warmup: 667195
conflicts: 5519384

test: 116044

DRAM Statistics
 CHANNEL 0
 RQ ROW_BUFFER_HIT:       9881  ROW_BUFFER_MISS:      17023
 DBUS_CONGESTED:         16
 WQ ROW_BUFFER_HIT:       1319  ROW_BUFFER_MISS:      11814  FULL:          0

 AVG_CONGESTED_CYCLE: 5

CPU 0 Branch Prediction Accuracy: 99.8269% MPKI: 0.31696 Average ROB Occupancy at Mispredict: 190.691
Branch types
NOT_BRANCH: 40846402 81.6928%
BRANCH_DIRECT_JUMP: 547869 1.09574%
BRANCH_INDIRECT: 182376 0.364752%
BRANCH_CONDITIONAL: 6178982 12.358%
BRANCH_DIRECT_CALL: 949410 1.89882%
BRANCH_INDIRECT_CALL: 172792 0.345584%
BRANCH_RETURN: 1122204 2.24441%
BRANCH_OTHER: 0 0%

DRAM PAGES: 1048576
Allocated PAGES: 2587
Average_ROB_Occupancy: 250.216
Average_Decode_Occupancy: 37.551
Average_FTQ_Occupancy: 14.7843
Indirect max targets: 14 Average targets: 1.14527
Branch_type:  BRANCH_DIRECT_JUMP:  Count Percentage: 3.38073 5.42582 4.18493 7.86647 1.69073 5.96347 1.1486 70.3393 
Branch_type:  BRANCH_INDIRECT:  Count Percentage: 11.7572 3.41318 2.49149 9.67814 3.35227 4.01822 2.01871 63.2708 
Branch_type:  BRANCH_CONDITIONAL:  Count Percentage: 21.3705 5.35117 2.31055 4.30727 2.1385 4.44314 0.647674 59.4311 
Branch_type:  BRANCH_DIRECT_CALL:  Count Percentage: 0.256492 1.30821 1.41073 3.45064 2.85587 2.34099 0.608595 87.7685 
Branch_type:  BRANCH_INDIRECT_CALL:  Count Percentage: 9.51905 0.554184 2.98472 4.81703 1.5067 2.97342 0.991043 76.6539 
Branch_type:  BRANCH_RETURN:  Count Percentage: 3.72484 3.62119 1.61679 5.90196 4.43224 4.8696 1.02589 74.8075 
Branch_type:  BRANCH_DIRECT_JUMP:  Total Count: 36998 59379 45799 86089 18503 65263 12570 769778 
Branch_type:  BRANCH_INDIRECT:  Total Count: 42848 12439 9080 35271 12217 14644 7357 230584 
Branch_type:  BRANCH_CONDITIONAL:  Total Count: 2638941 660789 285318 531883 264073 548661 79978 7338852 
Branch_type:  BRANCH_DIRECT_CALL:  Total Count: 4861 24793 26736 65396 54124 44366 11534 1663375 
Branch_type:  BRANCH_INDIRECT_CALL:  Total Count: 32859 1913 10303 16628 5201 10264 3421 264603 
Branch_type:  BRANCH_RETURN:  Total Count: 83480 81157 36235 132273 99334 109136 22992 1676562 
Number of unique branch instructions: 9858
Upper 32 bits: 
aaaa
ffff
ffff0000
Unique upper 32 bits: 3
Unique upper 36 bits: 3
Unique upper 40 bits: 5
Unique upper 44 bits: 32
Unique upper 48 bits: 154
Variant_0 : 1384 0.337891
Variant_1 : 2643 0.645264
Variant_2 : 0 0
Variant_3 : 0 0
Offset_3 4068
Offset_4 241
Offset_5 453
Offset_6 505
Offset_7 585
Offset_8 497
Offset_9 466
Offset_10 380
Offset_11 312
Offset_12 270
Offset_13 203
Offset_14 226
Offset_15 192
Offset_16 222
Offset_17 145
Offset_18 120
Offset_19 239
Offset_20 137
Offset_21 235
Offset_22 394
Offset_23 242
Offset_24 328
Offset_25 88
Offset_47 80
Offset_64 1
decode_dispatch_called: 26038744 73.049
Dispatch_width: 0 13927311 53.4869 39.0716
Dispatch_width: 1 1021960 3.92477 2.867
Dispatch_width: 2 854750 3.28261 2.39791
Dispatch_width: 3 507852 1.95037 1.42473
Dispatch_width: 4 6252213 24.0112 17.5399
Dispatch_width: 5 111813 0.42941 0.31368
Dispatch_width: 6 3362845 12.9148 9.43412
Empty_decode_cycles: 9606828 26.951
ROB_full_cycles: 9888569 27.7414
Starvation_cycles_per_kilo_instr: 223.942
Starvation_cycles_per_kilo_instr_3: 160.301
Starvation_cycles_per_kilo_instr_0: 136.456
Branch_type_1  (3,1)  (4,9)  (5,37)  (6,70)  (7,116)  (8,124)  (9,124)  (10,96)  (11,69)  (12,43)  (13,8)  (14,2)  (15,3)  (16,4)  (18,1)  (19,4)  (20,2)  (21,1)  (22,3)  (23,2)  (24,10)  (25,12) 
Branch_type_2  (3,1)  (5,1)  (8,3)  (9,3)  (12,1)  (13,1)  (14,1)  (16,3)  (17,2)  (20,2)  (21,2)  (23,5)  (24,1)  (47,36) 
Branch_type_3  (3,4066)  (4,232)  (5,411)  (6,420)  (7,438)  (8,308)  (9,253)  (10,156)  (11,126)  (12,50)  (13,7)  (64,1) 
Branch_type_4  (6,3)  (7,8)  (8,25)  (9,54)  (10,61)  (11,60)  (12,97)  (13,85)  (14,101)  (15,91)  (16,100)  (17,63)  (18,54)  (19,117)  (20,72)  (21,124)  (22,209)  (23,136)  (24,188)  (25,72) 
Branch_type_5  (8,2)  (9,1)  (10,3)  (11,5)  (12,3)  (13,14)  (14,16)  (15,11)  (16,20)  (17,13)  (18,16)  (19,12)  (20,10)  (21,13)  (22,42)  (23,26)  (24,37) 
Branch_type_6  (5,4)  (6,12)  (7,23)  (8,35)  (9,31)  (10,64)  (11,52)  (12,76)  (13,88)  (14,106)  (15,87)  (16,95)  (17,67)  (18,49)  (19,106)  (20,51)  (21,95)  (22,140)  (23,73)  (24,92)  (25,4)  (47,44) 
Unique trigger count: 
Variant_0_evicts_0 : 0
Variant_0_evicts_1 : 0
Variant_0_evicts_2 : 0
Variant_0_evicts_3 : 0
Variant_1_evicts_0 : 0
Variant_1_evicts_1 : 0
Variant_1_evicts_2 : 0
Variant_1_evicts_3 : 0
Variant_2_evicts_0 : 0
Variant_2_evicts_1 : 0
Variant_2_evicts_2 : 0
Variant_2_evicts_3 : 0
Variant_3_evicts_0 : 0
Variant_3_evicts_1 : 0
Variant_3_evicts_2 : 0
Variant_3_evicts_3 : 0
BTB PER SET UNIQUE ADDR: 10 11 6 11 12 10 7 9 6 9 12 15 7 9 8 6 8 10 8 12 13 9 13 14 12 8 8 12 8 12 15 10 12 9 8 10 10 11 8 7 10 8 9 10 13 10 13 9 12 12 13 11 8 9 9 9 10 11 10 10 9 12 9 13 10 12 12 8 17 10 10 12 7 8 5 8 6 11 7 12 9 7 11 8 10 11 11 9 7 15 9 9 11 10 7 10 8 12 6 10 12 13 11 12 8 11 8 8 9 10 6 10 12 12 7 8 12 6 9 10 11 8 7 10 10 11 6 7 11 9 4 12 10 11 10 12 9 10 7 9 6 9 10 10 9 10 12 6 9 9 13 11 8 10 8 14 11 12 13 8 10 10 13 9 11 9 10 7 11 9 8 9 8 8 8 10 8 9 8 9 8 9 8 10 12 12 4 9 10 8 15 8 8 11 13 9 9 10 8 7 10 13 8 7 9 8 10 9 9 9 7 10 8 13 10 11 9 12 10 9 8 11 6 9 9 15 12 14 6 11 11 6 8 11 10 6 13 11 13 7 12 10 12 12 8 9 11 11 9 12 10 9 14 8 13 11 7 8 8 9 11 7 7 11 10 7 9 10 10 8 11 9 10 5 7 8 10 8 10 9 10 9 9 7 8 8 10 13 11 12 7 9 9 11 8 11 11 12 9 10 8 8 10 15 10 10 8 7 8 7 7 14 7 12 13 8 11 9 5 14 7 12 6 9 11 14 8 10 8 7 10 11 9 8 7 12 10 14 7 7 7 8 5 12 9 9 11 12 11 10 14 11 8 9 7 13 8 9 7 8 8 13 8 12 8 11 8 12 12 12 11 6 10 9 11 13 10 12 13 12 12 8 6 7 8 9 11 9 13 8 11 8 10 13 8 10 8 9 8 10 6 8 9 13 9 13 11 8 7 8 10 7 6 12 12 8 10 8 14 12 14 14 11 14 12 8 15 7 10 12 13 12 11 16 9 12 12 8 8 12 12 10 8 9 15 8 10 11 12 11 9 13 15 11 9 9 13 8 7 19 9 9 11 13 15 7 12 8 10 11 8 9 10 10 11 11 13 7 10 10 13 9 11 7 8 15 13 11 12 11 10 9 8 9 12 9 9 9 7 12 11 11 9 18 7 7 9 11 8 11 10 7 10 9 11 10 10 12 8 8 7 12 6 12 11 10 14 5 9 8 12 9 12 7 14 12 8 10 15 8 13 9 10 12 14 14 8 10 9 10 9 15 8 12 11 15 7 9 9 11 11 13 9 11 9 14 11 11 9 11 9 10 11 13 9 9 13 13 9 8 11 8 8 7 13 9 9 11 12 11 8 11 11 8 11 8 10 8 12 9 9 8 10 5 10 14 12 8 7 9 13 13 7 10 6 14 11 11 9 14 14 10 8 6 9 11 9 12 10 9 8 12 8 9 10 9 9 9 7 15 7 12 9 11 8 8 9 11 15 8 10 12 10 10 10 10 11 9 10 9 10 8 10 16 10 9 10 12 11 7 11 8 9 14 10 9 8 8 9 12 6 12 14 12 10 8 8 12 12 9 11 10 7 8 10 10 8 12 6 11 8 11 12 10 9 15 8 12 10 9 10 14 10 9 7 8 9 10 5 9 10 12 10 5 11 9 13 8 8 10 10 10 11 8 10 15 10 10 15 10 11 11 9 9 8 9 10 10 11 9 10 9 9 12 7 10 12 8 9 6 8 6 11 8 8 10 11 13 9 11 12 11 7 6 11 9 12 10 12 12 4 12 10 10 12 11 10 11 9 7 8 7 9 11 11 10 9 10 14 15 13 14 19 12 15 10 10 9 9 7 14 15 11 13 10 9 9 15 6 15 11 14 9 12 16 9 11 9 10 10 15 11 9 8 11 10 10 8 11 10 10 12 8 11 7 12 9 15 10 11 10 14 9 8 8 10 10 13 12 13 10 6 12 9 13 6 8 6 9 8 8 9 12 9 8 9 8 10 9 12 12 10 11 9 13 11 14 11 9 9 9 6 10 10 9 9 10 8 13 10 13 8 12 11 5 11 7 11 12 8 10 10 9 7 11 8 8 13 10 9 13 7 10 10 8 10 7 11 10 7 11 11 9 12 13 17 11 12 8 13 8 9 10 10 10 9 10 17 7 12 9 7 7 6 7 9 6 10 14 10 13 8 11 10 11 11 10 10 8 13 13 14 15 5 11 10 11 13 10 11 8 9 10 11 9 9 13 13 9 12 11 9 9 11 10 9 7 9 9 9 12 16 7 8 9 12 9 13 9 11 8 11 8 7 9 12 6 7 6 7 4 15 9 6 
BTB PER SET COUNT: 972 12 1481 14 13 14 11 12 10 10 20 339 9 12 9 6 1993 16 12 19 17 11 244 25 20 11 8 17 8 18 20 262 13 12 10 60 13 12 9 9 10 10 15 1925 1488 83 23 9 87 12 17 14 10 18 9 373 13 13 257 13 9 16 332 14 12 19 15 2133 21 17 16 681 9 11 7 9 7 14 7 12 13 8 13 16 12 11 13 9 8 20 801 839 19 513 9 11 9 1005 7 13 17 16 15 22 1476 16 18 8 16 11 6 17 542 19 7 17 18 6 1484 21 13 36 8 13 13 172 7 1921 13 971 5 17 10 20 13 15 996 13 7 10 6 10 11 10 15 267 1486 7 11 12 24 11 805 14 9 20 1012 12 13 9 13 12 18 11 58 12 14 7 11 1843 8 9 10 9 8 391 9 11 769 132 229 151 1479 10 16 14 4 12 13 484 19 9 8 13 17 141 11 15 15 7 12 46 525 11 10 9 11 12 14 1440 9 18 11 17 11 246 15 15 669 10 10 14 8 9 11 24 14 16 8 14 16 6 8 17 10 6 17 121 19 7 16 12 872 947 11 14 979 12 428 15 16 11 16 8 18 15 8 10 9 10 29 8 9 243 13 9 13 15 21 10 13 11 932 7 7 10 12 20 12 10 15 13 9 7 12 9 10 24 13 13 8 13 10 163 12 12 422 16 20 19 8 8 10 27 14 11 12 484 8 261 11 15 9 20 1152 485 22 10 5 19 8 4384 6 10 14 726 338 13 8 7 11 14 14 10 7 183 12 21 7 7 7 2008 7 19 14 12 12 14 13 13 23 11 19 10 9 16 9 9 7 10 9 20 9 24 9 2404 8 14 16 19 19 10 13 13 999 232 10 15 20 1074 245 9 8 8 13 9 1628 15 15 1329 285 10 12 249 8 13 9 9 10 11 6 9 60 13 15 19 18 469 7 8 12 9 7 16 13 11 10 60 16 16 21 24 14 22 17 12 1272 8 11 20 20 16 13 30 9 19 16 33 8 13 21 13 54 10 18 9 1055 19 14 13 966 14 22 13 165 15 13 8 7 24 23 13 14 22 19 8 10938 8 13 15 12 10 10 15 11 31 19 7 11 12 21 251 14 10 630 23 507 16 15 18 39 10 160 10 16 12 1088 12 9 14 18 11 10 28 10 7 9 16 8 13 19 9 241 32 16 12 11 12 8 10 7 16 6 543 12 17 301 5 9 771 20 9 13 7 21 15 9 968 19 9 20 13 14 13 22 16 9 12 12 1300 11 17 8 38 13 22 16 9 11 17 15 17 11 11 11 16 14 15 10 12 12 13 16 15 1481 9 17 18 9 11 12 8 9 2951 15 17 9 14 13 30 426 11 14 8 15 9 15 372 256 9 11 9 11 6 14 16 23 1957 7 11 19 410 13 13 6 18 449 11 10 462 22 10 8 958 9 18 9 14 12 10 11 20 969 159 14 477 11 11 7 17 12 14 10 13 8 9 10 12 15 8 11 14 17 13 12 248 14 9 373 9 11 9 10 22 22409 11 12 53 1486 9 19 10 781 21 982 490 8 10 13 15 6 14 359 22 10 9 9 14 334 10 16 11 10 9 2472 10 1003 68 6 16 10 18 1485 12 12 241 8 25 14 10 367 31 973 10 251 8 412 18 16 422 14 1006 11 1479 14 12 17 10 11 3645 456 1722 154 8 13 2005 14 21 21 10 81 16 985 17 8 9 16 10 14 15 1483 26 11 1107 1482 10 16 9 10 7 11 10 15 11 2878 11 15 70 12 208 32 15 13 6 12 10 12 697 17 13 1435 18 738 16 17 15 10 13 11 7 9 988 13 18 1372 17 132 17 21 187 186 21 139 390 19 14 10 10 18 89 15 7786 19 18 12 996 16 2542 8 3001 12 977 10 18 719 9 15 10 19 11 19 13 12 10 30 1342 17 15 79 10 10 1013 8 12 7 15 490 22 14 2341 13 400 11 9 1001 11 14 14 21 19 12 6 18 11 14 8 8 6 9 10 26 14 17 10 11 12 10 10 10 13 19 13 13 161 16 14 17 14 9 16 10 6 12 61 9 13 12 13 16 11 17 12 13 946 6 14 7 14 15 10 11 12 15 7 15 11 1920 118 17 14 13 606 25 12 8 279 7 11 12 15 15 14 16 22 15 29 14 15 36 22 8 1367 13 15 12 11 98 26 8 14 338 59 11 16 7 12 6 16 21 432 17 12 553 16 11 11 13 15 9 16 64 2761 18 5 1489 11 16 21 382 13 924 10 10 14 9 9 15 22 11 18 22 10 9 19 21 9 7 1486 22 10 16 30 7 10 9 18 15 22 9 11 11 740 11 8 10 14 7 365 8 7 4 309 11 6 
To predecode: 0
Predecoding something: 0
Predecode request dropped: 0
sizeofblock_0 0
sizeofblock_1 48965
sizeofblock_2 93659
sizeofblock_3 0
sizeofblock_4 0
sizeofblock_5 0
sizeofblock_6 0
sizeofblock_7 0
sizeofblock_8 0
Variant_0 Correct: 1616238 Incorrect: 0 Accuracy: 1
Variant_1 Correct: 5741317 Incorrect: 0 Accuracy: 1
Variant_2 Correct: 0 Incorrect: 0 Accuracy: -nan
Variant_3 Correct: 0 Incorrect: 0 Accuracy: -nan
