
*** ChampSim Multicore Out-of-Order Simulator ***

Warmup Instructions: 50000000
Simulation Instructions: 50000000
Number of CPUs: 1
LLC sets: 2048
LLC ways: 16
Off-chip DRAM Size: 4096 MB Channels: 1 Width: 64-bit Data Rate: 6400 MT/s
CPU 0 runs ./micro_traces/srv307.trace.gz
.gz
ITLB has LRU replacement policy
DTLB has LRU replacement policy
STLB has LRU replacement policy
FDIP Prefetcher at L1I
L1I has LRU replacement policy
L1D has LRU replacement policy
Initialize SRRIP state for L2C
Initialize DRRIP state for LLC
Heartbeat_Variant_0 : 1134 0.276855 per_variant_size: 0 1134 0 0 0 0 0 0 0 
Heartbeat_Variant_1 : 1100 0.268555 per_variant_size: 0 512 588 0 0 0 0 0 0 
Heartbeat_Variant_2 : 976 0.238281 per_variant_size: 0 290 300 232 154 0 0 0 0 
Heartbeat_Variant_3 : 0 0 per_variant_size: 0 0 0 0 0 0 0 0 0 
Heartbeat_Variant_0_evicts 0 : 18349 1 : 7251 2 : 6961 3 : 0 
Heartbeat_Variant_1_evicts 0 : 7293 1 : 0 2 : 4428 3 : 0 
Heartbeat_Variant_2_evicts 0 : 6861 1 : 4330 2 : 0 3 : 0 
Heartbeat_Variant_3_evicts 0 : 0 1 : 0 2 : 0 3 : 0 
Heartbeat CPU 0 instructions: 10000002 cycles: 2797445 heartbeat IPC: 3.57469 cumulative IPC: 3.57469 (Simulation time: 0 hr 2 min 11 sec) 
Heartbeat_Variant_0 : 1155 0.281982 per_variant_size: 0 1155 0 0 0 0 0 0 0 
Heartbeat_Variant_1 : 1126 0.274902 per_variant_size: 0 504 622 0 0 0 0 0 0 
Heartbeat_Variant_2 : 988 0.241211 per_variant_size: 0 281 288 245 174 0 0 0 0 
Heartbeat_Variant_3 : 0 0 per_variant_size: 0 0 0 0 0 0 0 0 0 
Heartbeat_Variant_0_evicts 0 : 18265 1 : 7022 2 : 6968 3 : 0 
Heartbeat_Variant_1_evicts 0 : 7046 1 : 0 2 : 4124 3 : 0 
Heartbeat_Variant_2_evicts 0 : 6938 1 : 4145 2 : 0 3 : 0 
Heartbeat_Variant_3_evicts 0 : 0 1 : 0 2 : 0 3 : 0 
Heartbeat CPU 0 instructions: 20000003 cycles: 5593836 heartbeat IPC: 3.57604 cumulative IPC: 3.57536 (Simulation time: 0 hr 4 min 9 sec) 
Heartbeat_Variant_0 : 1180 0.288086 per_variant_size: 0 1180 0 0 0 0 0 0 0 
Heartbeat_Variant_1 : 1141 0.278564 per_variant_size: 0 496 645 0 0 0 0 0 0 
Heartbeat_Variant_2 : 994 0.242676 per_variant_size: 0 267 294 238 195 0 0 0 0 
Heartbeat_Variant_3 : 0 0 per_variant_size: 0 0 0 0 0 0 0 0 0 
Heartbeat_Variant_0_evicts 0 : 18420 1 : 7167 2 : 7159 3 : 0 
Heartbeat_Variant_1_evicts 0 : 7285 1 : 0 2 : 4111 3 : 0 
Heartbeat_Variant_2_evicts 0 : 7026 1 : 4229 2 : 0 3 : 0 
Heartbeat_Variant_3_evicts 0 : 0 1 : 0 2 : 0 3 : 0 
Heartbeat CPU 0 instructions: 30000003 cycles: 8391893 heartbeat IPC: 3.57391 cumulative IPC: 3.57488 (Simulation time: 0 hr 6 min 6 sec) 
Heartbeat_Variant_0 : 1169 0.2854 per_variant_size: 0 1169 0 0 0 0 0 0 0 
Heartbeat_Variant_1 : 1145 0.279541 per_variant_size: 0 496 649 0 0 0 0 0 0 
Heartbeat_Variant_2 : 1001 0.244385 per_variant_size: 0 268 289 250 194 0 0 0 0 
Heartbeat_Variant_3 : 0 0 per_variant_size: 0 0 0 0 0 0 0 0 0 
Heartbeat_Variant_0_evicts 0 : 18404 1 : 7301 2 : 7190 3 : 0 
Heartbeat_Variant_1_evicts 0 : 7418 1 : 0 2 : 4164 3 : 0 
Heartbeat_Variant_2_evicts 0 : 7084 1 : 4277 2 : 0 3 : 0 
Heartbeat_Variant_3_evicts 0 : 0 1 : 0 2 : 0 3 : 0 
Heartbeat CPU 0 instructions: 40000003 cycles: 11188932 heartbeat IPC: 3.57521 cumulative IPC: 3.57496 (Simulation time: 0 hr 8 min 7 sec) 
Heartbeat_Variant_0 : 1165 0.284424 per_variant_size: 0 1165 0 0 0 0 0 0 0 
Heartbeat_Variant_1 : 1144 0.279297 per_variant_size: 0 489 655 0 0 0 0 0 0 
Heartbeat_Variant_2 : 1008 0.246094 per_variant_size: 0 270 294 241 203 0 0 0 0 
Heartbeat_Variant_3 : 0 0 per_variant_size: 0 0 0 0 0 0 0 0 0 
Heartbeat_Variant_0_evicts 0 : 18539 1 : 7206 2 : 7221 3 : 0 
Heartbeat_Variant_1_evicts 0 : 7344 1 : 0 2 : 4131 3 : 0 
Heartbeat_Variant_2_evicts 0 : 7088 1 : 4270 2 : 0 3 : 0 
Heartbeat_Variant_3_evicts 0 : 0 1 : 0 2 : 0 3 : 0 
Heartbeat CPU 0 instructions: 50000002 cycles: 13985855 heartbeat IPC: 3.57536 cumulative IPC: 3.57504 (Simulation time: 0 hr 10 min 19 sec) 

Warmup complete CPU 0 instructions: 50000002 cycles: 13985855 (Simulation time: 0 hr 10 min 19 sec) 

Cycle: 20000000 FTQ IN: 56619074 FTQ occupancy: 18.1076 DECODE IN: 56619065 DECODE occupancy: 46.2856 ROB IN: 56619065 ROB occupancy: 279.359 ROB OUT: 56619065
Heartbeat_Variant_0 : 1164 0.28418 per_variant_size: 0 1164 0 0 0 0 0 0 0 
Heartbeat_Variant_1 : 1154 0.281738 per_variant_size: 0 502 652 0 0 0 0 0 0 
Heartbeat_Variant_2 : 1003 0.244873 per_variant_size: 0 266 291 254 192 0 0 0 0 
Heartbeat_Variant_3 : 0 0 per_variant_size: 0 0 0 0 0 0 0 0 0 
Heartbeat_Variant_0_evicts 0 : 18491 1 : 7186 2 : 7197 3 : 0 
Heartbeat_Variant_1_evicts 0 : 7291 1 : 0 2 : 4131 3 : 0 
Heartbeat_Variant_2_evicts 0 : 7093 1 : 4229 2 : 0 3 : 0 
Heartbeat_Variant_3_evicts 0 : 0 1 : 0 2 : 0 3 : 0 
Heartbeat CPU 0 instructions: 60000002 cycles: 23001912 heartbeat IPC: 1.10913 cumulative IPC: 1.10913 (Simulation time: 0 hr 12 min 5 sec) 
Cycle: 30000000 FTQ IN: 11339088 FTQ occupancy: 6.56679 DECODE IN: 11338985 DECODE occupancy: 13.9951 ROB IN: 11338969 ROB occupancy: 119.589 ROB OUT: 11338774
Heartbeat_Variant_0 : 1177 0.287354 per_variant_size: 0 1177 0 0 0 0 0 0 0 
Heartbeat_Variant_1 : 1165 0.284424 per_variant_size: 0 489 676 0 0 0 0 0 0 
Heartbeat_Variant_2 : 1006 0.245605 per_variant_size: 0 256 294 250 206 0 0 0 0 
Heartbeat_Variant_3 : 0 0 per_variant_size: 0 0 0 0 0 0 0 0 0 
Heartbeat_Variant_0_evicts 0 : 18313 1 : 7022 2 : 7061 3 : 0 
Heartbeat_Variant_1_evicts 0 : 7155 1 : 0 2 : 4026 3 : 0 
Heartbeat_Variant_2_evicts 0 : 6922 1 : 4163 2 : 0 3 : 0 
Heartbeat_Variant_3_evicts 0 : 0 1 : 0 2 : 0 3 : 0 
Heartbeat CPU 0 instructions: 70000002 cycles: 31827377 heartbeat IPC: 1.13308 cumulative IPC: 1.12098 (Simulation time: 0 hr 13 min 42 sec) 
Cycle: 40000000 FTQ IN: 11160681 FTQ occupancy: 6.71627 DECODE IN: 11160768 DECODE occupancy: 14.2056 ROB IN: 11160784 ROB occupancy: 119.058 ROB OUT: 11160841
Heartbeat_Variant_0 : 1178 0.287598 per_variant_size: 0 1178 0 0 0 0 0 0 0 
Heartbeat_Variant_1 : 1167 0.284912 per_variant_size: 0 496 671 0 0 0 0 0 0 
Heartbeat_Variant_2 : 1004 0.245117 per_variant_size: 0 259 289 256 200 0 0 0 0 
Heartbeat_Variant_3 : 0 0 per_variant_size: 0 0 0 0 0 0 0 0 0 
Heartbeat_Variant_0_evicts 0 : 18469 1 : 7094 2 : 7246 3 : 0 
Heartbeat_Variant_1_evicts 0 : 7297 1 : 0 2 : 4010 3 : 0 
Heartbeat_Variant_2_evicts 0 : 7042 1 : 4211 2 : 0 3 : 0 
Heartbeat_Variant_3_evicts 0 : 0 1 : 0 2 : 0 3 : 0 
Heartbeat CPU 0 instructions: 80000000 cycles: 40783407 heartbeat IPC: 1.11657 cumulative IPC: 1.11951 (Simulation time: 0 hr 15 min 28 sec) 
Heartbeat_Variant_0 : 1224 0.298828 per_variant_size: 0 1224 0 0 0 0 0 0 0 
Heartbeat_Variant_1 : 1222 0.29834 per_variant_size: 0 487 735 0 0 0 0 0 0 
Heartbeat_Variant_2 : 1029 0.251221 per_variant_size: 0 259 281 261 228 0 0 0 0 
Heartbeat_Variant_3 : 0 0 per_variant_size: 0 0 0 0 0 0 0 0 0 
Heartbeat_Variant_0_evicts 0 : 18583 1 : 7395 2 : 7292 3 : 0 
Heartbeat_Variant_1_evicts 0 : 7468 1 : 0 2 : 4375 3 : 0 
Heartbeat_Variant_2_evicts 0 : 7217 1 : 4434 2 : 0 3 : 0 
Heartbeat_Variant_3_evicts 0 : 0 1 : 0 2 : 0 3 : 0 
Heartbeat CPU 0 instructions: 90000003 cycles: 49852785 heartbeat IPC: 1.10261 cumulative IPC: 1.11523 (Simulation time: 0 hr 17 min 16 sec) 
Cycle: 50000000 FTQ IN: 11048823 FTQ occupancy: 6.47376 DECODE IN: 11048848 DECODE occupancy: 13.6883 ROB IN: 11048838 ROB occupancy: 115.894 ROB OUT: 11048976
Heartbeat_Variant_0 : 1217 0.297119 per_variant_size: 0 1217 0 0 0 0 0 0 0 
Heartbeat_Variant_1 : 1233 0.301025 per_variant_size: 0 499 734 0 0 0 0 0 0 
Heartbeat_Variant_2 : 1026 0.250488 per_variant_size: 0 258 282 260 226 0 0 0 0 
Heartbeat_Variant_3 : 0 0 per_variant_size: 0 0 0 0 0 0 0 0 0 
Heartbeat_Variant_0_evicts 0 : 18600 1 : 7459 2 : 7333 3 : 0 
Heartbeat_Variant_1_evicts 0 : 7600 1 : 0 2 : 4299 3 : 0 
Heartbeat_Variant_2_evicts 0 : 7199 1 : 4430 2 : 0 3 : 0 
Heartbeat_Variant_3_evicts 0 : 0 1 : 0 2 : 0 3 : 0 
Heartbeat CPU 0 instructions: 100000000 cycles: 58749021 heartbeat IPC: 1.12407 cumulative IPC: 1.11699 (Simulation time: 0 hr 19 min 25 sec) 
Finished CPU 0 instructions: 50000002 cycles: 44763167 cumulative IPC: 1.11699 (Simulation time: 0 hr 19 min 25 sec) 

ChampSim completed all CPUs

Region of Interest Statistics

CPU 0 cumulative IPC: 1.11699 instructions: 50000002 cycles: 44763167
 Fetch stage stalled: 71.2032  Sim cycles: 44763167 fetch stall cycle: 31872821
 Empty decode stage: 63.7072  Sim cycles: 44763167 fetch stall cycle: 28517339
ITLB TOTAL     ACCESS:    5778349  HIT:    5286454  MISS:     491895  HIT %:    91.4873  MISS %:    8.51273   MPKI: 9.8379
ITLB LOAD TRANSLATION INSTRUCTION	ACCESS:    5678737  HIT:    5186842  MISS:     491895  HIT %:     91.338  MISS %:    8.66205  MPKI: 9.8379
ITLB TRANSLATION FROM L1D PREFETCHER INSTRUCTION	ACCESS:      99612  HIT:      99612  MISS:          0  HIT %:        100  MISS %:          0  MPKI: 0

ITLB AVERAGE MISS LATENCY: 9.05568 cycles
ITLB RQ	ACCESS:    7596936	FORWARD:          0	MERGED:    1387800	TO_CACHE:    6209136

DTLB TOTAL     ACCESS:    9347117  HIT:    8876251  MISS:     470866  HIT %:    94.9624  MISS %:    5.03755   MPKI: 9.41732
DTLB LOAD TRANSLATION DATA	ACCESS:    9347117  HIT:    8876251  MISS:     470866  HIT %:    94.9624  MISS %:    5.03755  MPKI: 9.41732

DTLB AVERAGE MISS LATENCY: 9.34114 cycles
DTLB RQ	ACCESS:   13623485	FORWARD:          0	MERGED:    4242584	TO_CACHE:    9380901

STLB TOTAL     ACCESS:    1213806  HIT:    1211714  MISS:       2092  HIT %:    99.8276  MISS %:    0.17235   MPKI: 0.04184
STLB LOAD TRANSLATION INSTRUCTION	ACCESS:     491894  HIT:     491626  MISS:        268  HIT %:    99.9455  MISS %:  0.0544833  MPKI: 0.00536
STLB LOAD TRANSLATION DATA	ACCESS:     470595  HIT:     468795  MISS:       1800  HIT %:    99.6175  MISS %:   0.382495  MPKI: 0.036
STLB TRANSLATION FROM L1D PREFETCHER DATA	ACCESS:     251317  HIT:     251293  MISS:         24  HIT %:    99.9905  MISS %: 0.00954969  MPKI: 0.00048

STLB AVERAGE MISS LATENCY: 77.4015 cycles
STLB RQ	ACCESS:    1334417	FORWARD:          0	MERGED:     120569	TO_CACHE:    1213848

STLB Hit, L1D data hit: 0
STLB Hit, L2C data hit: 0
STLB Hit, LLC data hit: 0
STLB Hit, LLC data miss: 0
STLB STLB hints to L2: 0
L1D TOTAL     ACCESS:   13391294  HIT:   12279325  MISS:    1111969  HIT %:    91.6963  MISS %:    8.30367   MPKI: 22.2394
L1D LOAD DATA	ACCESS:    6821564  HIT:    6089149  MISS:     732415  HIT %:    89.2632  MISS %:    10.7368  MPKI: 14.6483
L1D RFO DATA	ACCESS:    6238865  HIT:    5952903  MISS:     285962  HIT %:    95.4164  MISS %:    4.58356  MPKI: 5.71924
L1D PREFETCH DATA	ACCESS:     330865  HIT:     237273  MISS:      93592  HIT %:    71.7129  MISS %:    28.2871  MPKI: 1.87184

L1D PREFETCH  REQUESTED:     743609  ISSUED:     743609  USEFUL:      34116  USELESS:      67303
L1D USEFUL LOAD PREFETCHES:      34116 PREFETCH ISSUED TO LOWER LEVEL:     101548  ACCURACY: 33.5959
 TIMELY PREFETCHES:      34116 LATE PREFETCHES: 7863 DROPPED PREFETCHES: 9
L1D AVERAGE MISS LATENCY: 251751 cycles
L1D RQ	ACCESS:   10899723	FORWARD:          0	MERGED:    3883783	TO_CACHE:    6853505
L1D WQ	ACCESS:    6943592	FORWARD:     162730	MERGED:     173612	TO_CACHE:    6769980
L1D PQ	ACCESS:     371952	FORWARD:          0	MERGED:          0	TO_CACHE:     371657

L1D UNIQUE REGIONS ACCESSED: 0
L1D REGIONS CONFLICTS: 0
L1D Cross Page Prefetch Requests: 6955
L1D Same Page Prefetch Requests: 752863
L1D ROI Sum of L1D PQ occupancy: 4727888
L1D PREFETCHES PUSHED FROM L2C: 0
L1I TOTAL     ACCESS:    7090770  HIT:    4335721  MISS:    2755049  HIT %:     61.146  MISS %:     38.854   MPKI: 55.101
L1I LOAD INSTRUCTION	ACCESS:    6580726  HIT:    3825677  MISS:    2755049  HIT %:    58.1346  MISS %:    41.8654  MPKI: 55.101
L1I PREFETCH INSTRUCTION	ACCESS:     510044  HIT:     510044  MISS:          0  HIT %:        100  MISS %:          0  MPKI: 0

L1I PREFETCH  REQUESTED:    1082765  ISSUED:    1082765  USEFUL:          0  USELESS:          0
L1I USEFUL LOAD PREFETCHES:          0 PREFETCH ISSUED TO LOWER LEVEL:          0  ACCURACY: -nan
 TIMELY PREFETCHES:          0 LATE PREFETCHES: 0 DROPPED PREFETCHES: 0
L1I AVERAGE MISS LATENCY: 17.2768 cycles
L1I RQ	ACCESS:    9450324	FORWARD:          0	MERGED:    2629133	TO_CACHE:    6821191
L1I PQ	ACCESS:    1082765	FORWARD:          0	MERGED:     307020	TO_CACHE:     775745

L1BTB TOTAL     ACCESS:    5670165  HIT:    2051522  MISS:    3618643  HIT %:     36.181  MISS %:     63.819   MPKI: 72.3729
L1BTB BRANCH_DIRECT_JUMP	ACCESS:     548687  HIT:     145655  MISS:     403032	AVERAGE STALL: 36.4465
L1BTB BRANCH_INDIRECT	ACCESS:     183413  HIT:      66311  MISS:     117102	AVERAGE STALL: 80.5116
L1BTB BRANCH_CONDITIONAL	ACCESS:    2714074  HIT:    1424798  MISS:    1289276	AVERAGE STALL: 36.3087
L1BTB BRANCH_DIRECT_CALL	ACCESS:     941311  HIT:     104656  MISS:     836655	AVERAGE STALL: 36.7982
L1BTB BRANCH_INDIRECT_CALL	ACCESS:     170683  HIT:      20673  MISS:     150010	AVERAGE STALL: 106.769
L1BTB BRANCH_RETURN	ACCESS:    1111997  HIT:     289429  MISS:     822568	AVERAGE STALL: 36.7595
L1BTB BRANCH_OTHER ACCESS:          0  HIT:          0  MISS:          0	AVERAGE STALL: -nan
L1BTB TOTAL ROB OCCUPANCY AT BTB MISS: 12.9432

L2BTB TOTAL     ACCESS:    3593140  HIT:    3131514  MISS:     461626  HIT %:    87.1526  MISS %:    12.8474   MPKI: 9.23252
L2BTB BRANCH_DIRECT_JUMP	ACCESS:     398812  HIT:     354465  MISS:      44347	AVERAGE STALL: 36.4465
L2BTB BRANCH_INDIRECT	ACCESS:     106818  HIT:      99664  MISS:       7154	AVERAGE STALL: 80.5116
L2BTB BRANCH_CONDITIONAL	ACCESS:    1289276  HIT:    1139764  MISS:     149512	AVERAGE STALL: 36.3087
L2BTB BRANCH_DIRECT_CALL	ACCESS:     836655  HIT:     697170  MISS:     139485	AVERAGE STALL: 36.7982
L2BTB BRANCH_INDIRECT_CALL	ACCESS:     140405  HIT:     111692  MISS:      28713	AVERAGE STALL: 106.769
L2BTB BRANCH_RETURN	ACCESS:     821174  HIT:     728759  MISS:      92415	AVERAGE STALL: 36.7595
L2BTB BRANCH_OTHER ACCESS:          0  HIT:          0  MISS:          0	AVERAGE STALL: -nan
L2BTB TOTAL ROB OCCUPANCY AT BTB MISS: 101.461

L2C TOTAL     ACCESS:    4485970  HIT:    3971379  MISS:     514591  HIT %:    88.5289  MISS %:    11.4711   MPKI: 10.2918
L2C LOAD INSTRUCTION	ACCESS:    2755049  HIT:    2489266  MISS:     265783  HIT %:    90.3529  MISS %:    9.64712  MPKI: 5.31566
L2C LOAD TRANSLATION INSTRUCTION	ACCESS:        306  HIT:         65  MISS:        241  HIT %:    21.2418  MISS %:    78.7582  MPKI: 0.00482
L2C LOAD DATA	ACCESS:     724541  HIT:     633687  MISS:      90854  HIT %:    87.4605  MISS %:    12.5395  MPKI: 1.81708
L2C RFO DATA	ACCESS:     285841  HIT:     228644  MISS:      57197  HIT %:    79.9899  MISS %:    20.0101  MPKI: 1.14394
L2C PREFETCH DATA	ACCESS:     198356  HIT:     117911  MISS:      80445  HIT %:    59.4441  MISS %:    40.5559  MPKI: 1.6089
L2C WRITEBACK DATA	ACCESS:     519960  HIT:     501262  MISS:      18698  HIT %:     96.404  MISS %:    3.59605  MPKI: 0.37396
L2C LOAD TRANSLATION DATA	ACCESS:       1867  HIT:        511  MISS:       1356  HIT %:    27.3701  MISS %:    72.6299  MPKI: 0.02712
L2C TRANSLATION FROM L1D PREFETCHER DATA	ACCESS:         50  HIT:         33  MISS:         17  HIT %:         66  MISS %:         34  MPKI: 0.00034

L2C PREFETCH  REQUESTED:     105420  ISSUED:     105420  USEFUL:       9408  USELESS:      71770
L2C USEFUL LOAD PREFETCHES:       9408 PREFETCH ISSUED TO LOWER LEVEL:      81060  ACCURACY: 11.6062
 TIMELY PREFETCHES:       9408 LATE PREFETCHES: 615 DROPPED PREFETCHES: 0
L2C AVERAGE MISS LATENCY: 38.0022 cycles
L2C RQ	ACCESS:    3767693	FORWARD:          0	MERGED:          0	TO_CACHE:    3767654
L2C WQ	ACCESS:     519962	FORWARD:         39	MERGED:          0	TO_CACHE:     519962
L2C PQ	ACCESS:     206968	FORWARD:          0	MERGED:       3689	TO_CACHE:     203279

L2C Dense regions hint from L2: 0
PSCL5 TOTAL     ACCESS:       4206  HIT:       2103  MISS:       2103  HIT %:         50  MISS %:         50   MPKI: 0.04206
PSCL5 LOAD TRANSLATION INSTRUCTION	ACCESS:       4106  HIT:       2053  MISS:       2053  HIT %:         50  MISS %:         50  MPKI: 0.04106
PSCL5 TRANSLATION FROM L1D PREFETCHER INSTRUCTION	ACCESS:        100  HIT:         50  MISS:         50  HIT %:         50  MISS %:         50  MPKI: 0.001


PSCL4 TOTAL     ACCESS:       3973  HIT:       1982  MISS:       1991  HIT %:    49.8867  MISS %:    50.1133   MPKI: 0.03982
PSCL4 LOAD TRANSLATION INSTRUCTION	ACCESS:       3565  HIT:       1939  MISS:       1626  HIT %:    54.3899  MISS %:    45.6101  MPKI: 0.03252
PSCL4 TRANSLATION FROM L1D PREFETCHER INSTRUCTION	ACCESS:         86  HIT:         43  MISS:         43  HIT %:         50  MISS %:         50  MPKI: 0.00086
PSCL4 LOAD TRANSLATION DATA	ACCESS:        322  HIT:          0  MISS:        322  HIT %:          0  MISS %:        100  MPKI: 0.00644


PSCL3 TOTAL     ACCESS:       4035  HIT:       2013  MISS:       2022  HIT %:    49.8885  MISS %:    50.1115   MPKI: 0.04044
PSCL3 LOAD TRANSLATION INSTRUCTION	ACCESS:       3596  HIT:       1970  MISS:       1626  HIT %:    54.7831  MISS %:    45.2169  MPKI: 0.03252
PSCL3 TRANSLATION FROM L1D PREFETCHER INSTRUCTION	ACCESS:         86  HIT:         43  MISS:         43  HIT %:         50  MISS %:         50  MPKI: 0.00086
PSCL3 LOAD TRANSLATION DATA	ACCESS:        353  HIT:          0  MISS:        353  HIT %:          0  MISS %:        100  MPKI: 0.00706


PSCL2 TOTAL     ACCESS:       4100  HIT:       1997  MISS:       2103  HIT %:    48.7073  MISS %:    51.2927   MPKI: 0.04206
PSCL2 LOAD TRANSLATION INSTRUCTION	ACCESS:       2224  HIT:       1947  MISS:        277  HIT %:     87.545  MISS %:     12.455  MPKI: 0.00554
PSCL2 TRANSLATION FROM L1D PREFETCHER INSTRUCTION	ACCESS:         50  HIT:         50  MISS:          0  HIT %:        100  MISS %:          0  MPKI: 0
PSCL2 LOAD TRANSLATION DATA	ACCESS:       1776  HIT:          0  MISS:       1776  HIT %:          0  MISS %:        100  MPKI: 0.03552
PSCL2 TRANSLATION FROM L1D PREFETCHER DATA	ACCESS:         50  HIT:          0  MISS:         50  HIT %:          0  MISS %:        100  MPKI: 0.001


LLC TOTAL     ACCESS:     580956  HIT:     551363  MISS:      29593  HIT %:    94.9062  MISS %:    5.09385   MPKI: 0.59186
LLC LOAD INSTRUCTION	ACCESS:     265783  HIT:     264484  MISS:       1299  HIT %:    99.5113  MISS %:   0.488745  MPKI: 0.02598
LLC LOAD TRANSLATION INSTRUCTION	ACCESS:        241  HIT:        200  MISS:         41  HIT %:    82.9876  MISS %:    17.0124  MPKI: 0.00082
LLC LOAD DATA	ACCESS:      90251  HIT:      86639  MISS:       3612  HIT %:    95.9978  MISS %:    4.00217  MPKI: 0.07224
LLC RFO DATA	ACCESS:      57185  HIT:      43053  MISS:      14132  HIT %:    75.2872  MISS %:    24.7128  MPKI: 0.28264
LLC PREFETCH DATA	ACCESS:      81057  HIT:      71031  MISS:      10026  HIT %:    87.6309  MISS %:    12.3691  MPKI: 0.20052
LLC WRITEBACK DATA	ACCESS:      85066  HIT:      84695  MISS:        371  HIT %:    99.5639  MISS %:   0.436132  MPKI: 0.00742
LLC LOAD TRANSLATION DATA	ACCESS:       1356  HIT:       1245  MISS:        111  HIT %:    91.8142  MISS %:    8.18584  MPKI: 0.00222
LLC TRANSLATION FROM L1D PREFETCHER DATA	ACCESS:         17  HIT:         16  MISS:          1  HIT %:    94.1176  MISS %:    5.88235  MPKI: 2e-05

LLC AVERAGE MISS LATENCY: 156.825 cycles
LLC RQ	ACCESS:     414833	FORWARD:          0	MERGED:          0	TO_CACHE:     414833
LLC WQ	ACCESS:      85066	FORWARD:          3	MERGED:          0	TO_CACHE:      85066
LLC PQ	ACCESS:      81060	FORWARD:          0	MERGED:          0	TO_CACHE:      81057

LLC Dense regions hint to LLC: 0

RAW hits: 1737684
Loads Generated: 12637409
Loads sent to L1D: 10899723
Stores Generated: 6943578
Stores sent to L1D: 6943592
Major fault: 0 Minor fault: 2597
Allocated PAGES: 2597

stream: 
stream:times selected: 1189905
stream:pref_filled: 121098
stream:pref_useful: 24120
stream:pref_late: 7043
stream:misses: 8052
stream:misses_by_poll: 0

CS: 
CS:times selected: 178362
CS:pref_filled: 58829
CS:pref_useful: 35648
CS:pref_late: 6831
CS:misses: 16166
CS:misses_by_poll: 0

CPLX: 
CPLX:times selected: 1010431
CPLX:pref_filled: 19327
CPLX:pref_useful: 4601
CPLX:pref_late: 2972
CPLX:misses: 92912
CPLX:misses_by_poll: 1

NL_L1: 
NL:times selected: 20762
NL:pref_filled: 708
NL:pref_useful: 335
NL:pref_late: 284
NL:misses: 1833
NL:misses_by_poll: 0

total selections: 2399460
total_filled: 93592
total_useful: 34116
total_late: 18368
total_polluted: 1
total_misses_after_warmup: 764360
conflicts: 5645051

test: 117329

DRAM Statistics
 CHANNEL 0
 RQ ROW_BUFFER_HIT:      10597  ROW_BUFFER_MISS:      18620
 DBUS_CONGESTED:          9
 WQ ROW_BUFFER_HIT:       1632  ROW_BUFFER_MISS:      12535  FULL:          0

 AVG_CONGESTED_CYCLE: 6

CPU 0 Branch Prediction Accuracy: 99.8062% MPKI: 0.3542 Average ROB Occupancy at Mispredict: 121.803
Branch types
NOT_BRANCH: 40859534 81.7191%
BRANCH_DIRECT_JUMP: 548687 1.09737%
BRANCH_INDIRECT: 183413 0.366826%
BRANCH_CONDITIONAL: 6184304 12.3686%
BRANCH_DIRECT_CALL: 941311 1.88262%
BRANCH_INDIRECT_CALL: 170683 0.341366%
BRANCH_RETURN: 1111997 2.22399%
BRANCH_OTHER: 0 0%

DRAM PAGES: 1048576
Allocated PAGES: 2597
Average_ROB_Occupancy: 119.001
Average_Decode_Occupancy: 13.9908
Average_FTQ_Occupancy: 6.59652
Indirect max targets: 14 Average targets: 1.17949
Branch_type:  BRANCH_DIRECT_JUMP:  Count Percentage: 2.13511 6.66011 4.42913 9.17952 2.14341 11.106 1.30623 63.0405 
Branch_type:  BRANCH_INDIRECT:  Count Percentage: 11.7665 3.41891 2.57045 0 1.33488 25.0078 2.26981 53.6317 
Branch_type:  BRANCH_CONDITIONAL:  Count Percentage: 21.1979 6.54967 1.66544 5.34075 1.33255 8.30764 0.6799 54.9262 
Branch_type:  BRANCH_DIRECT_CALL:  Count Percentage: 0.260656 1.74958 1.29739 4.71044 1.86053 2.83297 0.860961 86.4275 
Branch_type:  BRANCH_INDIRECT_CALL:  Count Percentage: 9.56943 0 2.99878 8.7333 0 2.55105 1.29145 74.856 
Branch_type:  BRANCH_RETURN:  Count Percentage: 4.1121 4.94812 1.17108 6.181 3.19112 9.15943 1.70725 69.5299 
Branch_type:  BRANCH_DIRECT_JUMP:  Total Count: 23407 73014 48556 100634 23498 121754 14320 691105 
Branch_type:  BRANCH_INDIRECT:  Total Count: 43130 12532 9422 0 4893 91666 8320 196587 
Branch_type:  BRANCH_CONDITIONAL:  Total Count: 2620382 809639 205874 660199 164724 1026951 84046 6789717 
Branch_type:  BRANCH_DIRECT_CALL:  Total Count: 4910 32957 24439 88731 35047 53365 16218 1628042 
Branch_type:  BRANCH_INDIRECT_CALL:  Total Count: 32744 0 10261 29883 0 8729 4419 256137 
Branch_type:  BRANCH_RETURN:  Total Count: 91566 110182 26077 137635 71058 203957 38016 1548253 
Number of unique branch instructions: 10693
Upper 32 bits: 
aaaa
ffff
ffff0000
Unique upper 32 bits: 3
Unique upper 36 bits: 3
Unique upper 40 bits: 5
Unique upper 44 bits: 32
Unique upper 48 bits: 157
Variant_0 : 1217 0.297119
Variant_1 : 1233 0.301025
Variant_2 : 1026 0.250488
Variant_3 : 0 0
Offset_3 4443
Offset_4 257
Offset_5 476
Offset_6 538
Offset_7 636
Offset_8 580
Offset_9 513
Offset_10 417
Offset_11 348
Offset_12 321
Offset_13 236
Offset_14 247
Offset_15 199
Offset_16 227
Offset_17 163
Offset_18 152
Offset_19 257
Offset_20 144
Offset_21 235
Offset_22 408
Offset_23 241
Offset_24 342
Offset_25 117
Offset_47 92
decode_dispatch_called: 20474465 45.7395
Dispatch_width: 0 10431307 50.9479 23.3033
Dispatch_width: 1 566951 2.76906 1.26656
Dispatch_width: 2 652388 3.18635 1.45742
Dispatch_width: 3 450506 2.20033 1.00642
Dispatch_width: 4 1556037 7.59989 3.47615
Dispatch_width: 5 351160 1.71511 0.784484
Dispatch_width: 6 6466116 31.5814 14.4452
Empty_decode_cycles: 24288702 54.2605
ROB_full_cycles: 2149478 4.80189
Starvation_cycles_per_kilo_instr: 361.476
Starvation_cycles_per_kilo_instr_3: 342.404
Starvation_cycles_per_kilo_instr_0: 325.705
Branch_type_1  (3,1)  (4,7)  (5,38)  (6,74)  (7,125)  (8,148)  (9,135)  (10,110)  (11,77)  (12,55)  (13,11)  (14,2)  (15,3)  (16,4)  (18,1)  (19,5)  (20,2)  (21,1)  (22,3)  (23,2)  (24,10)  (25,12) 
Branch_type_2  (3,1)  (4,1)  (5,1)  (8,4)  (9,4)  (10,1)  (12,1)  (13,1)  (14,1)  (16,3)  (17,2)  (20,2)  (21,2)  (23,5)  (24,1)  (47,41) 
Branch_type_3  (3,4441)  (4,249)  (5,433)  (6,447)  (7,480)  (8,362)  (9,281)  (10,167)  (11,135)  (12,62)  (13,10) 
Branch_type_4  (6,4)  (7,8)  (8,26)  (9,55)  (10,66)  (11,70)  (12,113)  (13,100)  (14,111)  (15,95)  (16,100)  (17,75)  (18,65)  (19,124)  (20,73)  (21,124)  (22,214)  (23,136)  (24,198)  (25,101) 
Branch_type_5  (8,3)  (9,1)  (10,4)  (11,5)  (12,3)  (13,14)  (14,16)  (15,11)  (16,22)  (17,11)  (18,23)  (19,14)  (20,11)  (21,13)  (22,43)  (23,26)  (24,37) 
Branch_type_6  (5,4)  (6,13)  (7,23)  (8,37)  (9,37)  (10,69)  (11,61)  (12,87)  (13,100)  (14,117)  (15,90)  (16,98)  (17,75)  (18,63)  (19,114)  (20,56)  (21,95)  (22,148)  (23,72)  (24,96)  (25,4)  (47,51) 
Unique trigger count: 
Variant_0_evicts_0 : 0
Variant_0_evicts_1 : 0
Variant_0_evicts_2 : 0
Variant_0_evicts_3 : 0
Variant_1_evicts_0 : 0
Variant_1_evicts_1 : 0
Variant_1_evicts_2 : 0
Variant_1_evicts_3 : 0
Variant_2_evicts_0 : 0
Variant_2_evicts_1 : 0
Variant_2_evicts_2 : 0
Variant_2_evicts_3 : 0
Variant_3_evicts_0 : 0
Variant_3_evicts_1 : 0
Variant_3_evicts_2 : 0
Variant_3_evicts_3 : 0
BTB PER SET UNIQUE ADDR: 6 7 6 5 3 4 6 9 10 2 5 2 8 5 3 4 6 4 8 9 6 8 7 8 8 11 1 7 6 6 10 10 6 5 8 4 4 6 6 3 7 5 6 10 9 8 5 12 11 6 5 3 12 2 2 7 5 5 9 8 4 11 4 7 5 10 8 9 6 7 6 2 6 5 6 7 6 15 6 5 8 7 7 6 7 8 7 8 8 11 10 9 9 6 7 5 11 8 5 5 7 7 9 9 7 8 7 8 7 5 6 7 4 8 5 11 3 8 6 2 8 9 4 3 6 4 4 7 11 8 11 3 10 6 9 7 5 3 6 8 7 8 7 7 5 11 5 8 12 7 6 14 6 10 6 9 7 9 8 11 11 8 10 5 12 7 3 4 12 6 6 4 7 7 4 3 6 6 11 5 6 6 10 8 9 12 6 6 6 8 5 8 7 7 6 10 11 4 11 6 4 6 9 4 8 4 5 8 7 2 3 6 9 9 7 6 4 9 7 6 6 4 6 7 7 8 13 7 3 11 12 9 4 5 6 9 11 6 4 5 4 3 11 8 16 11 1 7 6 8 9 10 6 7 5 12 4 7 10 6 8 5 7 4 9 15 5 5 7 5 7 7 4 9 9 9 7 5 4 9 8 5 9 5 9 8 7 7 7 4 5 7 4 12 7 3 5 10 6 6 6 6 5 4 7 4 6 4 12 9 6 4 8 4 6 5 10 13 6 5 7 11 5 9 5 6 6 10 3 1 9 2 5 7 9 5 7 9 8 1 6 6 2 9 7 7 3 8 11 6 5 13 11 6 8 7 7 2 8 5 7 11 6 8 11 8 4 4 4 5 8 4 7 5 8 4 11 8 7 9 10 7 7 13 6 5 8 5 8 4 9 6 8 4 7 4 5 6 2 8 7 5 7 7 5 6 8 5 4 3 5 4 11 7 2 6 9 4 2 7 2 6 7 8 11 9 5 2 4 9 3 4 15 5 8 10 6 6 7 4 5 6 10 3 7 9 6 6 5 5 6 3 4 3 9 3 5 7 9 6 5 4 6 12 6 5 12 4 5 7 2 6 10 8 5 3 10 5 3 3 5 2 3 4 3 7 8 4 7 2 13 4 5 8 2 11 4 7 5 5 10 3 5 4 2 5 5 3 4 6 8 4 8 11 3 4 2 10 6 9 7 4 8 6 11 9 6 9 9 8 6 6 6 7 5 7 7 1 6 4 5 8 10 4 9 5 10 13 14 11 7 8 7 6 2 6 9 3 7 4 10 5 9 5 5 6 10 9 11 7 7 4 11 11 6 7 7 12 3 9 13 5 2 6 5 3 3 14 6 5 8 8 4 7 5 5 9 5 6 5 12 5 11 11 7 5 5 9 7 5 8 8 7 6 8 5 7 5 5 7 8 7 11 4 5 10 8 8 4 6 8 7 7 7 7 8 6 6 6 4 11 8 4 6 3 3 7 8 8 7 7 4 10 3 5 2 11 5 6 8 12 3 6 11 7 7 7 6 6 10 7 8 6 8 11 8 8 6 8 5 8 11 8 6 8 8 6 8 7 6 3 8 3 5 5 7 10 7 7 9 3 11 4 5 7 12 4 4 5 5 7 7 6 6 5 7 12 6 1 8 5 3 5 4 4 3 4 9 2 11 7 11 8 3 7 7 10 3 6 4 5 8 5 10 4 5 6 4 6 7 6 3 5 7 2 5 5 10 9 4 5 6 6 7 7 6 14 7 6 3 9 7 0 5 7 5 5 10 3 3 8 6 4 6 10 9 9 7 2 9 3 9 6 7 6 13 12 5 5 5 12 4 8 4 8 6 7 8 5 7 3 5 6 5 5 7 1 5 5 10 7 4 9 4 5 5 6 3 7 6 7 3 7 4 10 5 4 5 6 4 5 4 6 6 5 7 9 6 6 4 8 8 6 9 6 10 7 5 7 6 7 7 4 4 12 7 6 8 10 9 4 6 6 9 7 2 2 6 7 4 3 6 6 6 8 5 7 5 5 8 8 4 4 7 5 3 8 12 5 3 12 8 4 6 10 7 7 11 6 8 9 7 5 4 3 9 6 6 8 6 9 6 9 5 9 8 5 5 5 12 6 4 11 10 6 8 10 10 3 10 8 9 6 4 6 8 9 8 9 6 9 3 13 8 4 7 9 13 6 9 6 7 10 5 3 9 10 9 10 5 3 6 2 10 13 6 8 5 4 7 13 6 4 6 5 7 4 5 9 7 8 7 7 11 5 11 7 11 5 6 5 5 6 4 7 6 7 6 6 7 9 4 9 7 11 4 9 5 3 8 11 6 13 5 
BTB PER SET COUNT: 7 1490 6 5 3 5 7 1988 7304 2 7 1943 1501 9 3 8 1245 4 31 3450 6 9 11 1069 5865 1704 1 9 1471 6 4013 797 2930 9 16 5 2935 6 13 3 25 5 12 2264 4883 21 5 5045 2974 6 5 6 12326 2 2 1487 6 5 25 121 5 3110 4 7 5 685 2116 35 7 7 1281 2 11 5 995 9 502 7242 1000 5 1098 1485 1503 755 887 21 13 14 3957 2667 1499 494 1986 8 7 6 777 14 5 5 7 16 10 985 11 10 1486 3636 2479 5 1980 10 4 13 9 7160 4 10 6 2 8 35 4 4 1702 4 5 30 4214 1982 1512 3 3424 9 3506 7 6 3 7 81 8 20 9 8 5 1983 7 9 25 2477 7 5405 8 9287 14 16 10 1993 1069 1006 4927 16 1973 942 40 2924 3 4 4474 998 6 4 15 156 5 5 6 501 1947 5 6 6 1041 18 15 8772 9 6 2912 16 6 14 7 1492 1487 38 1956 4 32 7 4 16 12 4 12 4 5 2866 12 2 3 9 273 4904 7 7 4 148 21 6 7 4 6 7 7 9 6796 1992 5 2946 8034 9 4 5 14 3884 3482 6 4 5 4 3 6263 11 4568 17 1 9 6 12 12 3752 10 9 6 4393 5 7 1493 9 2417 6 7 7 2662 8560 977 7 2486 5 1987 14 5 11 31 767 9 7 4 2483 13 995 11 6 3439 1494 13 1001 7 4 5 2442 992 3990 2977 994 8 4120 7 10 6 7 5 4 8 5 6 4 4748 15 12 4 1007 6 6 7 27 2993 1515 8 10 28 5 17 50 11 7 265 4 1 3474 2 5 9 1952 8 2482 18 13 1 12 6 2 2838 1002 947 5 9 484 11 5 1039 12 1945 8 16 11 2 5097 50 15 1122 13 2980 2363 18 4 6 7 8 18 4 12 8 63 4 7336 9 7 904 3473 2970 11 7940 7 9 42 5 13 4 2490 11 3960 5 1493 6 1473 13 2 11 16 7 1492 10 750 6 2940 5 4 2334 12 4 2604 14 972 7 229 4 2 1517 2 999 11 26 51 14 9 2 4 17 146 6 5736 5 11 18 10 6 1987 4 6 10 25 3 10 1035 7 978 5 6 6 5 5 4 251 4 8 10 655 7 993 4 21 81 34 6 3518 4 7 14 2 17 4769 1495 137 3 24999 6 3 3 10 2 3 498 3 12 1511 372 11 2 511 4 7 13 2 7472 6 9 6 5 44 9 13 4 2 6 5 4 4 11 20 5 9 67 6 4 2 9716 8 1007 11 1471 11 455 39 2072 9 9 19 16 7 6 6 14 5 1000 9 1 14 4 10 1489 28 8 1938 5 22 62 3008 8358 20 1036 10 8 2 11 1702 3 7 4 7934 1948 2490 6 5 6 43 15 29 1007 946 5 1498 4968 1487 2478 14 3969 4 4861 9244 363 3 993 1471 3 3 7371 11 7 11 27 7 1956 976 7 12 5 7 6 28 12 7053 765 2939 2980 6 1000 14 6 3957 17 7 6 8 8 1941 8 7 7 15 1875 1933 4 1471 280 10 2479 9 2774 502 1472 8 12 9 19 10 6 11 4 7836 28 4 7 3 4 14 10 956 10 14 4 10259 3 7 3 19 7 1494 3966 7889 5 15 7470 7 1495 2964 999 24 33 1938 10 8 998 6441 3516 508 8 2450 5 2978 7445 10 1000 21024 1008 32 4951 1472 9 3 2259 3 11 5 7 8376 9 15 45 3 2985 4 5 161 2702 5 2438 5 1471 207 9 15 993 997 13 1506 772 1 8 8 5 6 4 1940 5 993 1793 3 9558 1947 2007 1954 3 10 8 576 4 17 4 9 8 5 9983 5 7 505 6 6 995 6 4 6 844 2 5 5 13 6351 1942 5 8 979 761 3887 6 6112 8 7 3 18 22 0 211 25 1473 11 3417 3 3 2481 21 5 3418 1508 97 14 18 443 1002 3 1862 35 9 213 4590 1627 6 5 5 2678 4 391 992 2014 2939 9 11 7 13 3 6 8 474 7 12 2 5 7 3349 14 4 3405 369 1485 9 1944 3 2479 68 1687 3 506 4 8093 1011 996 6 6 4 397 4 10 1637 5 12 3629 9 13 4 3470 1752 13 17 12 11677 10 6 16 16 25 10 4 4 7214 977 11 997 2811 39 4 9 6 31 14 2 4 7 9 4 3 6 12 8 13 8 1496 6 5 1779 11 4 4 1612 5 3 23 3243 7 3 5301 2670 154 60 2571 9 8 3427 7 15 1128 15 8 4 5 9 8 998 3429 2315 17 6 3906 6 35 256 6 7 6 2948 7 502 3572 1418 8 9 3505 1940 3 3477 8 968 10 976 9 15 14 259 13 7 3533 3 8356 13 7 9 1534 11281 10 2974 6 506 8309 6 5 1036 60 13 16 10 3 6 2 3332 5938 9 990 6 9 7 1554 8 499 8 5 12 4 7 16 10 1490 1006 7 2688 5 1518 8 5725 12 11 7 7 7 4 17 7 1493 11 11 9 6839 4 7153 399 3053 7 2252 6 3 9 3731 7 4333 9 
To predecode: 0
Predecoding something: 0
Predecode request dropped: 0
sizeofblock_0 0
sizeofblock_1 263021
sizeofblock_2 191781
sizeofblock_3 134222
sizeofblock_4 65554
sizeofblock_5 0
sizeofblock_6 0
sizeofblock_7 0
sizeofblock_8 0
Variant_0 Correct: 0 Incorrect: 0 Accuracy: -nan
Variant_1 Correct: 0 Incorrect: 0 Accuracy: -nan
Variant_2 Correct: 0 Incorrect: 0 Accuracy: -nan
Variant_3 Correct: 0 Incorrect: 0 Accuracy: -nan
