
*** ChampSim Multicore Out-of-Order Simulator ***

Warmup Instructions: 50000000
Simulation Instructions: 50000000
Number of CPUs: 1
LLC sets: 2048
LLC ways: 16
Off-chip DRAM Size: 4096 MB Channels: 1 Width: 64-bit Data Rate: 6400 MT/s
CPU 0 runs ./micro_traces/srv305.trace.gz
.gz
ITLB has LRU replacement policy
DTLB has LRU replacement policy
STLB has LRU replacement policy
FDIP Prefetcher at L1I
L1I has LRU replacement policy
L1D has LRU replacement policy
Initialize SRRIP state for L2C
Initialize DRRIP state for LLC
Heartbeat CPU 0 instructions: 10000000 cycles: 2797099 heartbeat IPC: 3.57513 cumulative IPC: 3.57513 (Simulation time: 0 hr 2 min 10 sec) 
Heartbeat CPU 0 instructions: 20000002 cycles: 5594660 heartbeat IPC: 3.57454 cumulative IPC: 3.57484 (Simulation time: 0 hr 4 min 17 sec) 
Heartbeat CPU 0 instructions: 30000000 cycles: 8389654 heartbeat IPC: 3.57782 cumulative IPC: 3.57583 (Simulation time: 0 hr 6 min 21 sec) 
Heartbeat CPU 0 instructions: 40000002 cycles: 11186043 heartbeat IPC: 3.57604 cumulative IPC: 3.57588 (Simulation time: 0 hr 8 min 32 sec) 
Heartbeat CPU 0 instructions: 50000002 cycles: 13983289 heartbeat IPC: 3.57494 cumulative IPC: 3.5757 (Simulation time: 0 hr 10 min 42 sec) 

Warmup complete CPU 0 instructions: 50000002 cycles: 13983289 (Simulation time: 0 hr 10 min 42 sec) 

Cycle: 20000000 FTQ IN: 56329375 FTQ occupancy: 17.9334 DECODE IN: 56329375 DECODE occupancy: 45.7207 ROB IN: 56329350 ROB occupancy: 275.088 ROB OUT: 56329318
Heartbeat CPU 0 instructions: 60000002 cycles: 23620840 heartbeat IPC: 1.03761 cumulative IPC: 1.03761 (Simulation time: 0 hr 12 min 31 sec) 
Cycle: 30000000 FTQ IN: 10167515 FTQ occupancy: 6.28866 DECODE IN: 10167513 DECODE occupancy: 12.6275 ROB IN: 10167538 ROB occupancy: 103.397 ROB OUT: 10167547
Heartbeat CPU 0 instructions: 70000000 cycles: 33342563 heartbeat IPC: 1.02862 cumulative IPC: 1.0331 (Simulation time: 0 hr 14 min 10 sec) 
Cycle: 40000000 FTQ IN: 10452452 FTQ occupancy: 6.20197 DECODE IN: 10452427 DECODE occupancy: 12.585 ROB IN: 10452423 ROB occupancy: 104.14 ROB OUT: 10452338
Heartbeat CPU 0 instructions: 80000003 cycles: 42943631 heartbeat IPC: 1.04155 cumulative IPC: 1.0359 (Simulation time: 0 hr 15 min 56 sec) 
Cycle: 50000000 FTQ IN: 10350395 FTQ occupancy: 6.37777 DECODE IN: 10350417 DECODE occupancy: 12.91 ROB IN: 10350421 ROB occupancy: 104.324 ROB OUT: 10350527
Heartbeat CPU 0 instructions: 90000002 cycles: 52564916 heartbeat IPC: 1.03936 cumulative IPC: 1.03676 (Simulation time: 0 hr 17 min 51 sec) 
Cycle: 60000000 FTQ IN: 10491302 FTQ occupancy: 6.21462 DECODE IN: 10491307 DECODE occupancy: 12.642 ROB IN: 10491307 ROB occupancy: 103.983 ROB OUT: 10491203
Heartbeat CPU 0 instructions: 100000000 cycles: 62118060 heartbeat IPC: 1.04678 cumulative IPC: 1.03875 (Simulation time: 0 hr 19 min 35 sec) 
Finished CPU 0 instructions: 50000002 cycles: 48134772 cumulative IPC: 1.03875 (Simulation time: 0 hr 19 min 35 sec) 

ChampSim completed all CPUs

Region of Interest Statistics

CPU 0 cumulative IPC: 1.03875 instructions: 50000002 cycles: 48134772
 Fetch stage stalled: 72.9558  Sim cycles: 48134772 fetch stall cycle: 35117093
 Empty decode stage: 61.8973  Sim cycles: 48134772 fetch stall cycle: 29794110
ITLB TOTAL     ACCESS:    5539297  HIT:    5045889  MISS:     493408  HIT %:    91.0926  MISS %:    8.90741   MPKI: 9.86816
ITLB LOAD TRANSLATION INSTRUCTION	ACCESS:    5435160  HIT:    4941752  MISS:     493408  HIT %:    90.9219  MISS %:    9.07808  MPKI: 9.86816
ITLB TRANSLATION FROM L1D PREFETCHER INSTRUCTION	ACCESS:     104137  HIT:     104137  MISS:          0  HIT %:        100  MISS %:          0  MPKI: 0

ITLB AVERAGE MISS LATENCY: 9.05009 cycles
ITLB RQ	ACCESS:    7216124	FORWARD:          0	MERGED:    1167947	TO_CACHE:    6048177

DTLB TOTAL     ACCESS:    9469328  HIT:    8999919  MISS:     469409  HIT %:    95.0428  MISS %:    4.95715   MPKI: 9.38818
DTLB LOAD TRANSLATION DATA	ACCESS:    9469328  HIT:    8999919  MISS:     469409  HIT %:    95.0428  MISS %:    4.95715  MPKI: 9.38818

DTLB AVERAGE MISS LATENCY: 9.35996 cycles
DTLB RQ	ACCESS:   13722612	FORWARD:          0	MERGED:    4222222	TO_CACHE:    9500390

STLB TOTAL     ACCESS:    1211294  HIT:    1209169  MISS:       2125  HIT %:    99.8246  MISS %:   0.175432   MPKI: 0.0425
STLB LOAD TRANSLATION INSTRUCTION	ACCESS:     493407  HIT:     493132  MISS:        275  HIT %:    99.9443  MISS %:  0.0557349  MPKI: 0.0055
STLB LOAD TRANSLATION DATA	ACCESS:     469376  HIT:     467560  MISS:       1816  HIT %:    99.6131  MISS %:   0.386897  MPKI: 0.03632
STLB TRANSLATION FROM L1D PREFETCHER DATA	ACCESS:     248511  HIT:     248477  MISS:         34  HIT %:    99.9863  MISS %:  0.0136815  MPKI: 0.00068

STLB AVERAGE MISS LATENCY: 80.2254 cycles
STLB RQ	ACCESS:    1335087	FORWARD:          0	MERGED:     123755	TO_CACHE:    1211332

STLB Hit, L1D data hit: 0
STLB Hit, L2C data hit: 0
STLB Hit, LLC data hit: 0
STLB Hit, LLC data miss: 0
STLB STLB hints to L2: 0
L1D TOTAL     ACCESS:   13499245  HIT:   12382229  MISS:    1117016  HIT %:    91.7253  MISS %:    8.27466   MPKI: 22.3403
L1D LOAD DATA	ACCESS:    6909606  HIT:    6172024  MISS:     737582  HIT %:    89.3253  MISS %:    10.6747  MPKI: 14.7516
L1D RFO DATA	ACCESS:    6257350  HIT:    5972376  MISS:     284974  HIT %:    95.4458  MISS %:    4.55423  MPKI: 5.69948
L1D PREFETCH DATA	ACCESS:     332289  HIT:     237829  MISS:      94460  HIT %:    71.5729  MISS %:    28.4271  MPKI: 1.8892

L1D PREFETCH  REQUESTED:     744917  ISSUED:     744917  USEFUL:      34124  USELESS:      68165
L1D USEFUL LOAD PREFETCHES:      34124 PREFETCH ISSUED TO LOWER LEVEL:     102358  ACCURACY: 33.3379
 TIMELY PREFETCHES:      34124 LATE PREFETCHES: 7852 DROPPED PREFETCHES: 12
L1D AVERAGE MISS LATENCY: 262363 cycles
L1D RQ	ACCESS:   10958512	FORWARD:          0	MERGED:    3857895	TO_CACHE:    6940113
L1D WQ	ACCESS:    6946538	FORWARD:     160881	MERGED:     164039	TO_CACHE:    6782499
L1D PQ	ACCESS:     372647	FORWARD:          0	MERGED:          0	TO_CACHE:     372270

L1D UNIQUE REGIONS ACCESSED: 0
L1D REGIONS CONFLICTS: 0
L1D Cross Page Prefetch Requests: 6881
L1D Same Page Prefetch Requests: 746654
L1D ROI Sum of L1D PQ occupancy: 4737521
L1D PREFETCHES PUSHED FROM L2C: 0
L1I TOTAL     ACCESS:    6856773  HIT:    4093546  MISS:    2763227  HIT %:    59.7008  MISS %:    40.2992   MPKI: 55.2645
L1I LOAD INSTRUCTION	ACCESS:    6428691  HIT:    3665464  MISS:    2763227  HIT %:    57.0173  MISS %:    42.9827  MPKI: 55.2645
L1I PREFETCH INSTRUCTION	ACCESS:     428082  HIT:     428082  MISS:          0  HIT %:        100  MISS %:          0  MPKI: 0

L1I PREFETCH  REQUESTED:     866461  ISSUED:     866461  USEFUL:          0  USELESS:          0
L1I USEFUL LOAD PREFETCHES:          0 PREFETCH ISSUED TO LOWER LEVEL:          0  ACCURACY: -nan
 TIMELY PREFETCHES:          0 LATE PREFETCHES: 0 DROPPED PREFETCHES: 0
L1I AVERAGE MISS LATENCY: 17.602 cycles
L1I RQ	ACCESS:    9465880	FORWARD:          0	MERGED:    2854922	TO_CACHE:    6610958
L1I PQ	ACCESS:     866461	FORWARD:          0	MERGED:     261295	TO_CACHE:     605166

L1BTB TOTAL     ACCESS:    5671786  HIT:    2042906  MISS:    3628880  HIT %:    36.0187  MISS %:    63.9813   MPKI: 72.5776
L1BTB BRANCH_DIRECT_JUMP	ACCESS:     549273 HIT:     145262 MISS:     404011 AVERAGE STALL: 34.7492 AVERAGE FETCH STALL: 19.7532 AVERAGE FETCH QUEUE STALL: 6.96209 AVERAGE DECODE STALL: 7.18868 AVERAGE EXECUTE STALL: 2.00471e+14
L1BTB BRANCH_INDIRECT	ACCESS:     183223 HIT:      66171 MISS:     117052 AVERAGE STALL: 87.8786 AVERAGE FETCH STALL: 15.3966 AVERAGE FETCH QUEUE STALL: 6.20554 AVERAGE DECODE STALL: 6.25483 AVERAGE EXECUTE STALL: 59.0835
L1BTB BRANCH_CONDITIONAL	ACCESS:    2709027 HIT:    1415256 MISS:    1293771 AVERAGE STALL: 34.3276 AVERAGE FETCH STALL: 21.0403 AVERAGE FETCH QUEUE STALL: 6.24979 AVERAGE DECODE STALL: 6.28862 AVERAGE EXECUTE STALL: 7.4215e+13
L1BTB BRANCH_DIRECT_CALL	ACCESS:     943782 HIT:     105536 MISS:     838246 AVERAGE STALL: 36.4337 AVERAGE FETCH STALL: 21.2097 AVERAGE FETCH QUEUE STALL: 7.12885 AVERAGE DECODE STALL: 7.33822 AVERAGE EXECUTE STALL: 9.7699e+13
L1BTB BRANCH_INDIRECT_CALL	ACCESS:     171349 HIT:      21057 MISS:     150292 AVERAGE STALL: 108.456 AVERAGE FETCH STALL: 18.7102 AVERAGE FETCH QUEUE STALL: 7.5916 AVERAGE DECODE STALL: 6.91424 AVERAGE EXECUTE STALL: 74.6944
L1BTB BRANCH_RETURN	ACCESS:    1115132 HIT:     289624 MISS:     825508 AVERAGE STALL: 35.0404 AVERAGE FETCH STALL: 19.4525 AVERAGE FETCH QUEUE STALL: 5.33125 AVERAGE DECODE STALL: 6.14967 AVERAGE EXECUTE STALL: 1.13111e+14
L1BTB BRANCH_OTHER ACCESS:          0 HIT:          0 MISS:          0 AVERAGE STALL: -nan AVERAGE FETCH STALL: -nan AVERAGE FETCH QUEUE STALL: -nan AVERAGE DECODE STALL: -nan AVERAGE EXECUTE STALL: -nan
L1BTB TOTAL ROB OCCUPANCY AT BTB MISS: 18.135

L2BTB TOTAL     ACCESS:    3603488  HIT:    2872667  MISS:     730821  HIT %:    79.7191  MISS %:    20.2809   MPKI: 14.6164
L2BTB BRANCH_DIRECT_JUMP	ACCESS:     399850 HIT:     311934 MISS:      87916 AVERAGE STALL: 34.7492 AVERAGE FETCH STALL: 19.7532 AVERAGE FETCH QUEUE STALL: 6.96209 AVERAGE DECODE STALL: 7.18868 AVERAGE EXECUTE STALL: 2.00471e+14
L2BTB BRANCH_INDIRECT	ACCESS:     106755 HIT:      97429 MISS:       9326 AVERAGE STALL: 87.8786 AVERAGE FETCH STALL: 15.3966 AVERAGE FETCH QUEUE STALL: 6.20554 AVERAGE DECODE STALL: 6.25483 AVERAGE EXECUTE STALL: 59.0835
L2BTB BRANCH_CONDITIONAL	ACCESS:    1293771 HIT:    1043962 MISS:     249809 AVERAGE STALL: 34.3276 AVERAGE FETCH STALL: 21.0403 AVERAGE FETCH QUEUE STALL: 6.24979 AVERAGE DECODE STALL: 6.28862 AVERAGE EXECUTE STALL: 7.4215e+13
L2BTB BRANCH_DIRECT_CALL	ACCESS:     838246 HIT:     649307 MISS:     188939 AVERAGE STALL: 36.4337 AVERAGE FETCH STALL: 21.2097 AVERAGE FETCH QUEUE STALL: 7.12885 AVERAGE DECODE STALL: 7.33822 AVERAGE EXECUTE STALL: 9.7699e+13
L2BTB BRANCH_INDIRECT_CALL	ACCESS:     140758 HIT:     107697 MISS:      33061 AVERAGE STALL: 108.456 AVERAGE FETCH STALL: 18.7102 AVERAGE FETCH QUEUE STALL: 7.5916 AVERAGE DECODE STALL: 6.91424 AVERAGE EXECUTE STALL: 74.6944
L2BTB BRANCH_RETURN	ACCESS:     824108 HIT:     662338 MISS:     161770 AVERAGE STALL: 35.0404 AVERAGE FETCH STALL: 19.4525 AVERAGE FETCH QUEUE STALL: 5.33125 AVERAGE DECODE STALL: 6.14967 AVERAGE EXECUTE STALL: 1.13111e+14
L2BTB BRANCH_OTHER ACCESS:          0 HIT:          0 MISS:          0 AVERAGE STALL: -nan AVERAGE FETCH STALL: -nan AVERAGE FETCH QUEUE STALL: -nan AVERAGE DECODE STALL: -nan AVERAGE EXECUTE STALL: -nan
L2BTB TOTAL ROB OCCUPANCY AT BTB MISS: 90.0491

L2C TOTAL     ACCESS:    4494343  HIT:    3976864  MISS:     517479  HIT %:     88.486  MISS %:     11.514   MPKI: 10.3496
L2C LOAD INSTRUCTION	ACCESS:    2763228  HIT:    2474193  MISS:     289035  HIT %:      89.54  MISS %:      10.46  MPKI: 5.7807
L2C LOAD TRANSLATION INSTRUCTION	ACCESS:        320  HIT:         83  MISS:        237  HIT %:    25.9375  MISS %:    74.0625  MPKI: 0.00474
L2C LOAD DATA	ACCESS:     729701  HIT:     646283  MISS:      83418  HIT %:    88.5682  MISS %:    11.4318  MPKI: 1.66836
L2C RFO DATA	ACCESS:     284903  HIT:     234153  MISS:      50750  HIT %:    82.1869  MISS %:    17.8131  MPKI: 1.015
L2C PREFETCH DATA	ACCESS:     192685  HIT:     113396  MISS:      79289  HIT %:    58.8505  MISS %:    41.1495  MPKI: 1.58578
L2C WRITEBACK DATA	ACCESS:     521531  HIT:     508268  MISS:      13263  HIT %:    97.4569  MISS %:    2.54309  MPKI: 0.26526
L2C LOAD TRANSLATION DATA	ACCESS:       1919  HIT:        453  MISS:       1466  HIT %:     23.606  MISS %:     76.394  MPKI: 0.02932
L2C TRANSLATION FROM L1D PREFETCHER DATA	ACCESS:         56  HIT:         35  MISS:         21  HIT %:       62.5  MISS %:       37.5  MPKI: 0.00042

L2C PREFETCH  REQUESTED:      97666  ISSUED:      97666  USEFUL:       8997  USELESS:      70871
L2C USEFUL LOAD PREFETCHES:       8997 PREFETCH ISSUED TO LOWER LEVEL:      79742  ACCURACY: 11.2826
 TIMELY PREFETCHES:       8997 LATE PREFETCHES: 453 DROPPED PREFETCHES: 0
L2C AVERAGE MISS LATENCY: 37.9696 cycles
L2C RQ	ACCESS:    3780180	FORWARD:          0	MERGED:          0	TO_CACHE:    3780128
L2C WQ	ACCESS:     521531	FORWARD:         52	MERGED:          0	TO_CACHE:     521531
L2C PQ	ACCESS:     200024	FORWARD:          0	MERGED:       3381	TO_CACHE:     196643

L2C Dense regions hint from L2: 0
PSCL5 TOTAL     ACCESS:       4278  HIT:       2139  MISS:       2139  HIT %:         50  MISS %:         50   MPKI: 0.04278
PSCL5 LOAD TRANSLATION INSTRUCTION	ACCESS:       4168  HIT:       2084  MISS:       2084  HIT %:         50  MISS %:         50  MPKI: 0.04168
PSCL5 TRANSLATION FROM L1D PREFETCHER INSTRUCTION	ACCESS:        110  HIT:         55  MISS:         55  HIT %:         50  MISS %:         50  MPKI: 0.0011


PSCL4 TOTAL     ACCESS:       4045  HIT:       2014  MISS:       2031  HIT %:    49.7899  MISS %:    50.2101   MPKI: 0.04062
PSCL4 LOAD TRANSLATION INSTRUCTION	ACCESS:       2293  HIT:       1960  MISS:        333  HIT %:    85.4775  MISS %:    14.5225  MPKI: 0.00666
PSCL4 TRANSLATION FROM L1D PREFETCHER INSTRUCTION	ACCESS:         57  HIT:         54  MISS:          3  HIT %:    94.7368  MISS %:    5.26316  MPKI: 6e-05
PSCL4 LOAD TRANSLATION DATA	ACCESS:       1644  HIT:          0  MISS:       1644  HIT %:          0  MISS %:        100  MPKI: 0.03288
PSCL4 TRANSLATION FROM L1D PREFETCHER DATA	ACCESS:         51  HIT:          0  MISS:         51  HIT %:          0  MISS %:        100  MPKI: 0.00102


PSCL3 TOTAL     ACCESS:       4127  HIT:       2055  MISS:       2072  HIT %:     49.794  MISS %:     50.206   MPKI: 0.04144
PSCL3 LOAD TRANSLATION INSTRUCTION	ACCESS:       2334  HIT:       2001  MISS:        333  HIT %:    85.7326  MISS %:    14.2674  MPKI: 0.00666
PSCL3 TRANSLATION FROM L1D PREFETCHER INSTRUCTION	ACCESS:         57  HIT:         54  MISS:          3  HIT %:    94.7368  MISS %:    5.26316  MPKI: 6e-05
PSCL3 LOAD TRANSLATION DATA	ACCESS:       1685  HIT:          0  MISS:       1685  HIT %:          0  MISS %:        100  MPKI: 0.0337
PSCL3 TRANSLATION FROM L1D PREFETCHER DATA	ACCESS:         51  HIT:          0  MISS:         51  HIT %:          0  MISS %:        100  MPKI: 0.00102


PSCL2 TOTAL     ACCESS:       4150  HIT:       2011  MISS:       2139  HIT %:    48.4578  MISS %:    51.5422   MPKI: 0.04278
PSCL2 LOAD TRANSLATION INSTRUCTION	ACCESS:       2238  HIT:       1957  MISS:        281  HIT %:    87.4441  MISS %:    12.5559  MPKI: 0.00562
PSCL2 TRANSLATION FROM L1D PREFETCHER INSTRUCTION	ACCESS:         54  HIT:         54  MISS:          0  HIT %:        100  MISS %:          0  MPKI: 0
PSCL2 LOAD TRANSLATION DATA	ACCESS:       1804  HIT:          0  MISS:       1804  HIT %:          0  MISS %:        100  MPKI: 0.03608
PSCL2 TRANSLATION FROM L1D PREFETCHER DATA	ACCESS:         54  HIT:          0  MISS:         54  HIT %:          0  MISS %:        100  MPKI: 0.00108


LLC TOTAL     ACCESS:     578446  HIT:     549146  MISS:      29300  HIT %:    94.9347  MISS %:     5.0653   MPKI: 0.586
LLC LOAD INSTRUCTION	ACCESS:     289035  HIT:     287774  MISS:       1261  HIT %:    99.5637  MISS %:   0.436279  MPKI: 0.02522
LLC LOAD TRANSLATION INSTRUCTION	ACCESS:        237  HIT:        202  MISS:         35  HIT %:    85.2321  MISS %:    14.7679  MPKI: 0.0007
LLC LOAD DATA	ACCESS:      82971  HIT:      79201  MISS:       3770  HIT %:    95.4562  MISS %:    4.54376  MPKI: 0.0754
LLC RFO DATA	ACCESS:      50739  HIT:      37071  MISS:      13668  HIT %:    73.0621  MISS %:    26.9379  MPKI: 0.27336
LLC PREFETCH DATA	ACCESS:      79742  HIT:      69657  MISS:      10085  HIT %:     87.353  MISS %:     12.647  MPKI: 0.2017
LLC WRITEBACK DATA	ACCESS:      74235  HIT:      73881  MISS:        354  HIT %:    99.5231  MISS %:   0.476864  MPKI: 0.00708
LLC LOAD TRANSLATION DATA	ACCESS:       1466  HIT:       1340  MISS:        126  HIT %:    91.4052  MISS %:    8.59482  MPKI: 0.00252
LLC TRANSLATION FROM L1D PREFETCHER DATA	ACCESS:         21  HIT:         20  MISS:          1  HIT %:    95.2381  MISS %:     4.7619  MPKI: 2e-05

LLC AVERAGE MISS LATENCY: 153.1 cycles
LLC RQ	ACCESS:     424474	FORWARD:          0	MERGED:          0	TO_CACHE:     424469
LLC WQ	ACCESS:      74235	FORWARD:          5	MERGED:          0	TO_CACHE:      74235
LLC PQ	ACCESS:      79742	FORWARD:          0	MERGED:          0	TO_CACHE:      79742

LLC Dense regions hint to LLC: 0

RAW hits: 1677965
Loads Generated: 12636477
Loads sent to L1D: 10958512
Stores Generated: 6946527
Stores sent to L1D: 6946538
Major fault: 0 Minor fault: 2576
Allocated PAGES: 2576

stream: 
stream:times selected: 1175953
stream:pref_filled: 120781
stream:pref_useful: 24442
stream:pref_late: 6861
stream:misses: 7929
stream:misses_by_poll: 0

CS: 
CS:times selected: 178314
CS:pref_filled: 60186
CS:pref_useful: 36105
CS:pref_late: 7036
CS:misses: 15751
CS:misses_by_poll: 0

CPLX: 
CPLX:times selected: 996532
CPLX:pref_filled: 20634
CPLX:pref_useful: 4772
CPLX:pref_late: 3213
CPLX:misses: 93460
CPLX:misses_by_poll: 0

NL_L1: 
NL:times selected: 20483
NL:pref_filled: 724
NL:pref_useful: 300
NL:pref_late: 384
NL:misses: 1852
NL:misses_by_poll: 0

total selections: 2371282
total_filled: 94460
total_useful: 34124
total_late: 18775
total_polluted: 0
total_misses_after_warmup: 768089
conflicts: 5698235

test: 114540

DRAM Statistics
 CHANNEL 0
 RQ ROW_BUFFER_HIT:      10648  ROW_BUFFER_MISS:      18287
 DBUS_CONGESTED:         10
 WQ ROW_BUFFER_HIT:       1353  ROW_BUFFER_MISS:      12035  FULL:          0

 AVG_CONGESTED_CYCLE: 5

CPU 0 Branch Prediction Accuracy: 99.8033% MPKI: 0.35992 Average ROB Occupancy at Mispredict: 95.2714
Branch types
NOT_BRANCH: 40851639 81.7033%
BRANCH_DIRECT_JUMP: 549273 1.09855%
BRANCH_INDIRECT: 183223 0.366446%
BRANCH_CONDITIONAL: 6185118 12.3702%
BRANCH_DIRECT_CALL: 943782 1.88756%
BRANCH_INDIRECT_CALL: 171349 0.342698%
BRANCH_RETURN: 1115132 2.23026%
BRANCH_OTHER: 0 0%

DRAM PAGES: 1048576
Allocated PAGES: 2576
Average_ROB_Occupancy: 104.879
Average_Decode_Occupancy: 12.6593
Average_FTQ_Occupancy: 6.25721
Indirect max targets: 14 Average targets: 1.17516
Branch_type:  BRANCH_DIRECT_JUMP:  Count Percentage: 3.73145 6.39201 3.93549 9.38562 4.0026 3.08013 1.22853 68.2442 
Branch_type:  BRANCH_INDIRECT:  Count Percentage: 11.7585 3.4527 12.1779 8.00241 1.34021 1.1996 1.07704 60.9917 
Branch_type:  BRANCH_CONDITIONAL:  Count Percentage: 21.4768 3.11576 2.39683 6.12268 2.21053 3.10564 0.980674 60.5911 
Branch_type:  BRANCH_DIRECT_CALL:  Count Percentage: 0.772644 1.28538 1.42395 5.34649 3.06716 1.67947 0.764714 85.6602 
Branch_type:  BRANCH_INDIRECT_CALL:  Count Percentage: 9.57468 0.559346 3.00201 4.84747 0.908755 2.99502 0 78.1127 
Branch_type:  BRANCH_RETURN:  Count Percentage: 4.47246 0.700092 2.90235 6.8666 2.89635 4.51249 1.11101 76.5387 
Branch_type:  BRANCH_DIRECT_JUMP:  Total Count: 40928 70110 43166 102945 43902 33784 13475 748528 
Branch_type:  BRANCH_INDIRECT:  Total Count: 42982 12621 44515 29252 4899 4385 3937 222949 
Branch_type:  BRANCH_CONDITIONAL:  Total Count: 2654483 385101 296243 756749 273216 383850 121209 7488916 
Branch_type:  BRANCH_DIRECT_CALL:  Total Count: 14614 24312 26933 101125 58013 31766 14464 1620200 
Branch_type:  BRANCH_INDIRECT_CALL:  Total Count: 32883 1921 10310 16648 3121 10286 0 268268 
Branch_type:  BRANCH_RETURN:  Total Count: 99991 15652 64888 153517 64754 100886 24839 1711180 
Number of unique branch instructions: 10587
Upper 32 bits: 
aaaa
ffff
ffff0000
Unique upper 32 bits: 3
Unique upper 36 bits: 3
Unique upper 40 bits: 5
Unique upper 44 bits: 32
Unique upper 48 bits: 157
Offset_3 4374
Offset_4 255
Offset_5 474
Offset_6 530
Offset_7 628
Offset_8 578
Offset_9 512
Offset_10 415
Offset_11 337
Offset_12 305
Offset_13 239
Offset_14 242
Offset_15 198
Offset_16 221
Offset_17 163
Offset_18 146
Offset_19 256
Offset_20 141
Offset_21 235
Offset_22 405
Offset_23 241
Offset_24 346
Offset_25 117
Offset_47 94
Offset_64 3
decode_dispatch_called: 19410117 40.3245
Dispatch_width: 0 9332036 48.0782 19.3873
Dispatch_width: 1 531644 2.739 1.10449
Dispatch_width: 2 708119 3.6482 1.47112
Dispatch_width: 3 462206 2.38126 0.960233
Dispatch_width: 4 1624778 8.37078 3.37548
Dispatch_width: 5 341953 1.76173 0.710407
Dispatch_width: 6 6409381 33.0208 13.3155
Empty_decode_cycles: 28724655 59.6755
ROB_full_cycles: 2048554 4.25587
Starvation_cycles_per_kilo_instr: 396.768
Starvation_cycles_per_kilo_instr_3: 377.101
Starvation_cycles_per_kilo_instr_0: 360.081
Branch_type_1  (3,1)  (4,7)  (5,38)  (6,72)  (7,124)  (8,148)  (9,135)  (10,109)  (11,74)  (12,47)  (13,12)  (14,2)  (15,3)  (16,4)  (18,1)  (19,5)  (20,2)  (21,1)  (22,3)  (23,2)  (24,10)  (25,12) 
Branch_type_2  (3,1)  (4,1)  (5,1)  (8,4)  (9,4)  (10,1)  (12,1)  (13,1)  (14,1)  (16,3)  (17,2)  (20,2)  (21,2)  (23,5)  (24,1)  (47,43) 
Branch_type_3  (3,4372)  (4,247)  (5,431)  (6,442)  (7,474)  (8,361)  (9,281)  (10,166)  (11,127)  (12,54)  (13,10)  (64,3) 
Branch_type_4  (6,3)  (7,8)  (8,26)  (9,54)  (10,66)  (11,70)  (12,112)  (13,101)  (14,109)  (15,94)  (16,97)  (17,75)  (18,62)  (19,123)  (20,72)  (21,124)  (22,211)  (23,136)  (24,202)  (25,101) 
Branch_type_5  (8,3)  (9,1)  (10,4)  (11,5)  (12,3)  (13,14)  (14,16)  (15,11)  (16,22)  (17,11)  (18,23)  (19,14)  (20,11)  (21,13)  (22,43)  (23,26)  (24,37) 
Branch_type_6  (5,4)  (6,13)  (7,22)  (8,36)  (9,37)  (10,69)  (11,61)  (12,88)  (13,101)  (14,114)  (15,90)  (16,95)  (17,75)  (18,60)  (19,114)  (20,54)  (21,95)  (22,148)  (23,72)  (24,96)  (25,4)  (47,51) 
aaaaab1fc620: 2ac9e77e 2aca717c 2aca8eff 2acaf6bc 2acaf9aa 2acaf9f1 2acb1abc 2acb1b7f 2acd4e22 2acdb712 2acf5f9e 2ad0ef44 2ad3f15c 2ad414e6 2ad60e42 2ad8609c 2ad99830 2ada35cc 2ada4676 2ada6612 2adf183e 2adf30e5 2adf5602 2adf785c 2ae11572 2aeb2dcf 2aee101b 2aee1ae1 2aee9456 2b156a8c 2b156b61 2b156bea 2b167f35 2b177656 2b17feec 2b1a3e5a 
aaaaab1fc640: 2ac9ec07 2aca656e 2aca801d 2acaea11 2acaee73 2acb13ee 2acb1470 2acd462b 2ad0ef5d 2ad3f3fe 2ad86e9b 2ada1641 2ada4115 2ada6638 2adf30d4 2ae12e57 2aee1033 2b1693ab 2b16948c 2b169491 2b17d915 2b17fa85 2b17fccd 
aaaaab1fc740: 2aca1fb0 2aca45b3 2aca5aa1 2aca5c69 2aca66f9 2aca9426 2acaeecb 2acf3d2d 2acf3d64 2acf6089 2ad017ea 2ad5e7ef 2ad61064 2ad87373 2ad9bf84 2ad9c093 2ae9b606 2aea9ffa 2aee99f5 2aee9a2c 2aeece4b 
aaaaab1fcb00: 2acf2d72 2acf3734 2acf604c 2acfa5b7 2ad397b5 2ad3b800 2ae8af7d 2ae8aff0 2ae9aaba 2aea9fc6 2aeaa358 2aee910b 2aee91cf 2aee928e 2aee92e4 2aee99de 2af6fe87 2af70dfe 2b16850c 2b16c4a2 2b1765f4 2b178094 2b17d925 2b17db06 2b17ec8f 
aaaaab1fcb10: 2acf2d95 2acf3758 2acf6052 2acfa5f4 2ad397c3 2ad3b81c 2ae8af88 2ae8affe 2ae9aacf 2aeaa017 2aeaa36d 2aee9114 2aee91d8 2aee934d 2aee9353 2aee9a14 2af6fe8c 2af70e22 2b168526 2b16c542 2b176609 2b1780a3 2b17d95d 2b17db44 2b17ecac 
aaaaac68f310: 2ac9ec8c 2ac9fb44 2ac9fbd2 2aca59ab 2acac04c 2acaf6e0 2acaf6ec 2acaf6f9 2acaf700 2acaf708 2acf2d90 2ad3cfbd 2ad3cfc4 2ad3d000 2ad3f35f 2ad4955d 2ad49571 2ad4f3f2 2ad4f400 2ad5f240 2ad5f37c 2ad5f86a 2ad5f86f 2ad5f880 2ad5fc0d 2ad5fc14 2ad5fc21 2ad5fe1b 2ad873bb 2ad873e3 2ad8a6b2 2ad9086e 2ad93096 2ad9bbb2 2ada152c 2ada1554 2ada3332 2ada5522 2adf3130 2adf313c 2adf3a3f 2adf3bd9 2adf5788 2adf7a8d 2ae07f6b 2ae0857a 2ae0857e 2ae08630 2ae08634 2ae08637 2ae08642 2ae0866f 2ae086e4 2ae086ec 2ae08717 2ae0871b 2aee0170 2aee1d38 2aee75f4 2aee7662 2aee85ca 2aee85e4 2aee8eef 2aee9a0a 2af70b84 2af74e8f 2b17d843 
aaaaac690ef0: 2aca598b 2acb111b 2acb175f 2acb1772 2acbfaf4 2acbfb00 2acf374f 2acf6d43 2acfa5c8 2ad3baf1 2ad3d4ac 2ad3d4b8 2ad3f1cf 2ad486b2 2ad5a59b 2ad5fc64 2ad5fcf9 2ad6121c 2ad906e9 2ad907bf 2ad9bada 2ada16ce 2ada1ad5 2ada43df 2ada64c0 2ada72ee 2adeb71a 2adf3bcb 2adf7a38 2adf7c6a 2adf8872 2adf8880 2adf9959 2adf9abe 2ae07f78 2ae08503 2ae08754 2ae12e80 2aea3bea 2aecb509 2aee00b0 2aee2bdd 2aee5467 2aee5601 2aee8f20 2af703fd 2af7048b 2af74e74 2dfba627 
Unique trigger count: 
1 10079
2 555
3 86
4 32
5 15
6 9
7 8
8 2
9 2
10 2
11 1
12 1
13 2
14 2
16 2
19 1
21 1
23 1
25 2
36 1
49 1
67 1
BTB PER SET UNIQUE ADDR: 1 2 2 2 0 0 1 1 3 0 2 0 1 1 0 1 2 1 1 2 0 1 1 2 1 2 1 2 1 1 2 2 2 0 3 0 0 3 4 0 1 2 3 3 1 1 2 1 4 1 1 1 2 0 0 2 3 3 1 1 1 2 2 2 0 4 4 0 2 2 5 1 1 2 1 1 2 6 1 1 1 1 1 4 3 2 1 4 3 2 3 4 2 3 2 0 1 3 0 1 3 2 2 3 2 2 1 1 3 0 1 2 3 2 1 3 1 2 1 0 3 2 2 0 1 1 1 1 3 2 3 0 1 1 2 1 0 0 1 2 2 3 3 0 2 1 2 3 3 2 1 6 1 2 2 1 0 3 1 1 0 0 0 1 4 3 0 1 5 2 2 2 2 1 1 0 1 1 3 1 1 3 6 2 3 2 3 0 1 1 4 1 1 2 1 1 1 1 0 1 2 1 1 0 0 0 1 1 1 0 0 2 2 1 2 1 0 2 1 0 0 1 1 3 2 0 2 2 0 3 5 3 1 2 1 3 3 0 1 2 1 0 2 2 6 3 1 1 3 1 1 1 1 1 0 5 2 2 2 2 3 3 2 2 2 4 3 0 2 1 2 2 1 2 2 2 1 0 3 2 2 2 1 1 2 3 2 1 1 1 0 0 1 2 0 1 3 2 0 1 2 2 1 1 2 2 3 2 3 3 2 1 2 2 3 0 2 2 1 2 1 2 2 2 0 3 1 4 0 0 3 0 2 2 3 1 2 2 4 0 2 0 0 1 2 3 1 1 1 3 1 3 3 2 2 2 1 0 3 0 0 2 1 2 4 2 1 0 0 0 3 1 2 0 1 2 2 2 2 3 0 0 1 3 0 0 2 1 2 1 1 2 2 2 2 0 3 0 0 2 3 1 4 1 1 0 2 3 0 1 0 1 2 2 1 0 4 1 1 2 1 1 3 2 2 4 0 0 1 3 1 0 5 2 3 3 2 1 1 0 0 4 3 3 2 1 1 3 1 1 3 0 0 1 3 0 1 3 2 2 3 0 3 2 0 0 2 0 1 3 0 1 1 1 2 1 0 1 1 0 0 1 1 2 0 2 2 0 3 1 3 1 1 2 0 3 1 1 3 0 3 0 0 1 0 2 1 0 0 2 3 2 4 4 2 0 1 4 1 5 1 0 3 1 3 3 1 3 3 2 5 1 2 2 1 4 1 0 3 0 0 4 4 1 5 1 6 3 4 4 2 3 3 3 0 1 2 0 2 2 6 0 1 2 1 0 0 1 3 4 3 0 1 4 1 0 0 2 0 0 1 1 1 0 1 0 0 4 2 2 3 3 0 2 1 2 3 0 2 2 1 0 1 3 1 1 1 1 3 0 2 2 3 1 2 1 2 0 2 1 3 1 5 0 2 2 2 2 1 0 3 1 0 2 2 4 0 1 1 2 5 1 3 3 0 0 2 1 2 1 1 1 3 1 1 0 4 0 1 3 3 2 3 3 2 1 1 1 0 0 4 2 1 0 4 2 0 1 3 2 1 0 3 2 2 1 1 2 2 1 0 3 1 1 1 3 3 3 2 3 0 2 0 2 1 1 0 1 0 0 1 2 0 1 2 0 1 1 0 2 1 0 1 1 0 1 1 1 0 3 3 2 1 0 1 1 6 1 1 0 1 2 1 2 1 0 3 1 2 2 0 0 1 2 0 2 2 3 1 0 1 1 1 2 0 1 3 1 0 0 2 2 0 0 1 2 3 1 1 1 2 1 0 0 3 3 3 4 0 0 1 3 0 0 2 3 3 1 1 0 2 2 1 2 1 1 1 4 0 2 0 2 1 0 2 1 1 0 0 3 3 0 1 0 2 1 1 1 1 4 1 1 2 1 3 0 1 0 3 2 0 1 0 2 0 1 3 2 3 0 2 1 3 1 3 2 0 0 1 0 0 0 0 1 4 1 1 0 2 0 1 1 1 2 1 0 2 2 3 1 2 1 1 0 0 0 1 2 0 0 2 0 1 2 1 1 4 0 1 1 1 0 0 1 1 3 0 1 0 4 3 3 0 0 1 2 0 1 1 2 4 1 3 1 2 0 3 0 2 1 3 1 4 2 2 1 1 1 0 1 1 1 0 3 2 2 1 2 1 1 1 0 4 1 1 1 4 2 2 1 2 1 2 2 2 4 8 2 2 2 1 1 0 2 3 1 3 4 1 2 3 2 1 3 1 1 1 3 2 1 3 1 1 2 2 1 2 2 1 4 0 1 2 1 2 3 3 2 0 2 2 0 3 0 1 2 3 3 1 3 3 1 7 4 0 2 2 1 1 1 3 4 2 1 3 0 0 1 1 0 2 0 1 3 0 2 4 1 3 3 0 1 3 2 1 3 2 1 2 1 0 1 1 0 2 0 1 2 3 2 1 4 3 2 0 1 7 0 1 1 1 1 2 2 1 5 2 3 2 4 2 4 2 2 1 0 4 1 1 2 1 6 1 0 3 1 1 1 2 1 1 2 3 4 2 2 2 1 1 4 4 2 1 1 1 1 3 2 1 4 2 2 2 1 2 4 0 1 3 1 0 2 1 0 1 3 1 2 1 2 1 3 2 0 1 1 3 2 1 0 2 0 0 3 2 1 2 2 1 4 0 1 5 0 3 3 1 2 2 4 2 4 0 6 4 0 2 1 2 0 0 1 3 0 1 1 2 4 1 0 0 3 3 2 1 1 0 0 1 4 1 4 2 2 0 2 0 1 2 4 5 1 5 0 0 1 1 1 4 0 2 3 2 1 1 1 0 4 1 3 0 1 1 5 3 1 2 2 0 2 3 3 2 4 2 2 0 0 3 3 4 1 2 2 0 1 3 2 3 1 0 1 1 2 5 3 4 0 0 1 1 1 3 2 3 0 0 1 2 3 1 0 3 1 1 1 1 1 5 0 1 1 0 4 3 0 2 1 3 2 1 1 2 1 2 2 0 3 2 0 0 3 1 1 2 2 1 1 0 2 1 1 1 2 0 3 3 2 1 2 0 0 2 0 2 2 0 2 1 1 2 2 1 0 3 0 1 1 2 2 1 1 1 1 1 4 1 3 2 1 2 0 1 1 1 4 1 2 1 1 1 2 0 1 4 2 3 1 4 2 1 1 1 2 3 1 1 1 4 0 5 2 2 3 1 0 3 3 1 1 1 3 0 2 2 1 1 1 2 1 0 1 1 4 2 1 2 1 0 2 2 0 1 2 1 1 1 0 0 2 0 0 1 1 0 2 1 3 4 1 1 0 1 1 1 0 1 0 0 3 1 0 1 0 0 1 1 0 0 0 1 0 0 0 0 0 1 0 2 0 2 0 1 0 1 0 0 4 1 0 1 1 3 1 1 0 2 2 1 0 3 0 1 1 1 1 1 0 2 0 3 1 0 1 3 0 0 1 0 2 1 2 1 1 2 2 2 2 0 1 1 0 0 0 3 0 1 1 0 0 0 1 0 1 1 0 1 3 2 1 2 1 2 2 1 1 1 0 1 1 2 0 0 1 2 1 3 1 0 1 1 3 3 0 0 1 2 1 0 0 3 1 3 0 2 1 3 2 1 3 4 2 5 0 1 0 3 2 1 5 3 3 2 3 4 0 0 2 2 1 1 1 1 1 2 0 2 1 0 1 3 0 1 1 3 1 2 3 3 1 0 1 3 0 2 3 2 1 2 1 3 3 1 1 1 2 2 1 1 4 2 1 1 1 1 3 3 1 1 0 1 0 2 1 2 3 0 0 1 1 0 2 3 1 0 2 2 0 1 2 1 1 1 2 1 0 0 3 2 1 0 0 0 2 1 0 2 1 3 2 2 1 4 1 2 6 3 2 3 2 0 3 2 1 1 1 0 0 0 2 3 1 2 0 0 3 3 1 2 2 0 0 1 2 2 2 2 1 2 2 1 1 0 2 0 1 2 1 0 0 0 1 0 1 2 0 3 0 3 1 1 0 2 1 1 3 0 3 0 1 0 1 1 1 4 0 1 1 0 1 2 1 0 1 0 0 1 1 1 1 2 2 3 0 3 0 0 1 2 1 1 6 1 0 2 2 3 2 1 2 5 1 3 3 0 2 1 3 2 5 4 0 2 1 5 0 4 0 3 2 2 2 1 1 1 0 1 2 0 2 0 1 2 3 2 1 4 2 2 2 3 0 1 0 3 1 3 2 2 2 2 1 0 2 3 2 0 0 1 2 0 0 0 1 0 1 1 3 0 2 2 2 3 2 2 1 2 2 2 1 1 2 2 1 0 2 2 1 2 0 0 1 0 0 0 0 0 1 1 1 2 1 1 2 0 0 0 1 1 1 1 0 2 1 2 2 2 0 2 1 1 1 1 2 1 2 1 0 1 0 2 1 0 1 2 1 3 2 2 2 0 2 0 1 0 0 2 2 0 4 2 4 0 2 2 6 1 0 0 1 4 2 3 1 1 1 3 1 0 0 2 4 1 6 2 0 3 0 1 1 1 1 2 1 0 2 0 1 2 2 1 0 0 3 4 1 0 0 2 3 1 0 3 3 1 0 3 3 0 1 1 4 0 0 0 2 1 0 4 0 1 0 2 2 3 0 2 1 2 1 2 1 0 2 4 2 3 0 2 2 1 1 1 1 2 1 1 0 0 0 4 2 1 2 1 1 2 3 3 3 1 1 3 3 0 2 2 1 4 4 2 3 2 2 1 3 1 2 3 2 1 3 5 3 2 3 2 2 2 1 1 1 0 1 1 0 2 2 0 2 0 1 1 0 1 4 1 3 0 0 0 2 1 2 1 0 0 3 1 1 0 0 0 2 1 1 0 1 3 1 1 2 0 0 2 1 2 2 1 2 1 0 1 0 0 1 0 2 1 0 0 4 1 3 1 2 3 1 2 2 0 0 0 1 1 1 4 2 3 2 3 1 4 4 2 2 2 1 3 1 1 2 1 4 1 2 2 2 2 3 2 3 2 0 4 1 4 2 5 6 5 3 2 2 2 1 4 1 1 1 3 2 0 2 3 3 3 0 2 1 1 2 4 4 1 1 1 2 1 2 2 2 3 3 2 2 3 4 1 1 3 2 3 3 1 4 2 1 2 2 3 3 2 1 3 3 3 0 1 2 1 1 2 2 2 1 0 1 3 1 2 2 3 1 2 2 1 1 0 0 5 2 5 5 0 2 1 3 1 1 0 3 2 2 1 3 2 1 1 1 2 0 1 3 0 2 2 1 1 0 1 2 1 1 0 2 0 1 2 1 4 1 3 2 2 2 0 0 0 3 0 4 2 0 1 1 2 1 1 1 1 1 2 0 1 0 4 3 2 0 1 0 2 2 5 4 1 1 3 5 1 2 2 0 1 3 1 1 2 0 0 3 2 0 1 1 2 0 1 0 1 4 3 0 0 3 3 2 3 5 3 1 3 1 1 0 2 1 2 3 1 2 3 3 0 1 2 1 0 1 0 4 3 2 1 3 2 1 6 3 0 2 3 3 3 1 4 0 4 3 2 0 1 1 2 0 1 1 1 2 1 1 1 4 2 0 1 0 1 3 4 2 1 3 2 3 0 1 0 0 1 3 2 2 2 0 1 2 1 2 4 1 2 2 1 2 3 0 3 0 2 1 3 5 1 1 2 2 1 3 1 2 2 1 0 1 6 1 0 3 1 4 2 3 4 2 2 0 0 3 4 1 0 0 4 4 1 1 2 0 1 0 0 2 1 1 3 0 2 1 2 2 1 3 2 2 0 2 2 1 1 0 1 0 1 2 2 1 0 0 1 4 0 1 1 2 3 1 3 4 1 2 3 3 0 3 3 2 0 2 2 4 2 0 2 1 1 1 2 1 3 2 1 1 2 0 3 5 2 3 1 3 1 2 2 1 2 2 1 3 4 1 1 1 4 2 0 3 0 2 2 3 1 2 3 2 1 6 4 1 1 0 0 0 0 5 3 1 3 5 2 0 2 1 3 2 2 0 5 2 5 4 1 4 4 3 0 2 3 1 0 1 0 2 0 0 1 0 1 3 3 2 0 2 1 3 1 3 2 3 3 1 3 1 3 4 2 1 3 0 1 1 1 0 2 3 1 3 2 1 2 1 2 0 1 3 1 0 3 0 2 1 4 2 4 2 2 3 1 3 3 3 1 4 3 2 0 1 2 2 3 0 3 2 4 1 2 2 1 2 1 2 2 0 3 1 3 2 0 4 0 1 2 2 4 0 3 1 2 1 3 1 0 1 7 1 0 1 1 0 0 0 1 2 0 3 2 1 3 3 1 2 2 3 2 2 1 2 1 1 1 2 1 2 1 1 1 0 0 2 0 2 2 1 1 3 3 1 2 2 1 3 4 3 5 1 2 2 2 1 0 3 2 2 2 1 0 2 2 3 0 3 5 3 0 0 0 3 1 1 1 1 2 4 4 1 1 2 3 1 3 1 3 2 2 1 1 0 1 1 3 0 3 2 0 2 0 1 2 2 3 2 0 1 2 1 3 0 2 0 1 1 2 2 1 2 2 1 2 1 3 2 2 3 4 3 2 2 4 2 2 3 2 2 3 2 3 4 2 6 2 0 4 2 2 4 3 3 0 2 2 4 3 0 0 1 2 3 1 5 3 5 6 3 1 1 3 4 3 2 2 2 1 0 2 4 1 0 4 2 1 3 4 2 4 4 3 1 2 1 1 3 0 3 0 1 5 0 2 4 2 2 2 2 0 2 3 7 2 3 5 5 4 3 5 3 2 5 3 1 1 1 2 4 4 3 3 3 5 1 1 3 1 3 2 4 2 1 1 2 2 3 0 2 1 3 4 1 2 3 0 4 4 0 4 1 0 1 4 3 2 1 1 0 1 1 2 1 2 3 1 5 3 4 2 3 2 1 3 2 3 1 0 2 1 1 3 2 3 3 1 4 5 0 2 0 1 2 2 1 3 1 3 2 1 1 1 2 1 3 4 1 0 2 3 1 2 1 1 2 3 1 3 2 1 4 1 3 0 2 0 2 3 1 0 0 1 1 3 0 0 1 2 1 1 1 0 2 0 4 2 1 2 0 3 1 1 3 0 1 4 3 2 2 0 2 2 2 1 1 1 0 0 1 1 0 3 2 2 2 3 1 3 3 5 1 1 3 4 1 2 4 2 2 4 0 3 1 3 2 2 1 3 2 3 4 2 2 4 4 2 2 2 1 1 1 0 4 1 1 1 1 2 2 1 1 4 0 1 2 2 2 4 0 4 1 2 2 1 1 3 2 1 3 1 2 1 2 2 2 2 3 1 2 2 3 0 4 1 1 3 2 2 2 4 0 3 2 1 1 1 4 2 0 1 0 2 1 2 0 1 2 2 1 3 4 1 1 1 1 2 3 0 3 3 2 0 2 2 0 3 0 1 3 3 1 1 1 1 0 2 0 0 1 4 1 2 1 1 3 2 1 2 0 2 1 3 4 6 1 1 3 3 3 1 1 0 2 2 2 0 0 3 2 1 2 2 2 0 3 1 1 1 5 1 3 3 4 0 1 3 1 1 1 3 1 4 5 1 3 0 2 3 4 1 4 1 6 4 1 1 1 1 2 2 2 1 2 2 3 5 2 3 2 3 2 3 2 1 4 3 3 1 1 2 1 3 0 1 1 4 2 2 0 2 0 0 1 3 7 2 2 1 2 2 2 2 2 2 1 1 0 1 2 2 1 2 1 3 3 1 0 1 2 0 1 0 3 0 3 5 0 0 1 3 1 2 2 4 0 3 3 1 3 1 3 0 1 2 2 1 1 2 1 3 0 0 0 3 1 1 3 3 4 2 4 2 1 2 0 2 1 2 0 3 1 2 1 0 4 0 1 1 2 1 3 3 0 3 3 3 0 3 0 5 3 0 1 3 1 0 3 1 3 2 0 2 2 1 2 1 2 1 2 6 2 3 2 2 3 2 3 2 1 4 0 2 3 3 3 2 1 2 0 2 0 2 2 2 3 1 3 1 1 2 1 3 2 5 0 0 2 1 2 3 3 1 2 3 0 0 1 2 0 0 2 1 3 2 2 1 0 4 2 1 3 1 4 0 2 1 2 4 0 1 0 1 2 2 1 2 3 1 2 2 2 1 3 0 4 2 2 2 0 3 0 3 2 3 2 1 2 0 2 1 2 1 1 3 0 2 2 1 2 1 0 3 2 1 6 4 2 3 1 2 0 1 3 3 1 0 0 1 1 1 0 2 2 2 3 3 0 3 1 5 2 3 0 0 5 0 1 4 3 0 4 2 2 2 4 2 2 0 1 0 4 2 1 0 3 1 2 3 2 3 1 3 0 1 4 2 3 1 2 3 2 4 1 2 2 1 5 3 1 1 0 2 2 3 2 1 2 2 0 1 3 1 2 2 2 1 0 1 4 0 2 1 2 3 1 2 2 4 0 3 1 1 0 4 1 3 3 5 1 1 4 0 3 2 3 4 5 1 3 0 3 3 0 3 2 1 2 3 3 1 2 0 3 1 2 1 2 1 2 0 2 2 2 1 2 0 4 3 2 1 1 2 7 0 3 1 2 2 2 1 3 1 4 2 3 1 3 3 2 2 2 3 0 2 4 0 6 0 6 3 1 1 2 1 0 2 1 2 2 3 3 2 2 2 1 2 4 2 1 2 2 0 2 0 3 5 2 2 3 4 1 2 1 4 2 1 1 2 3 0 1 2 0 0 2 1 0 2 0 1 1 1 1 1 2 0 3 1 3 3 3 0 1 1 3 1 1 2 1 0 1 0 1 2 2 2 3 1 1 1 3 0 1 0 2 2 3 0 1 1 0 1 1 0 1 1 2 1 1 1 0 3 1 0 2 1 0 0 1 3 2 2 1 2 1 1 1 2 4 0 2 1 4 2 1 0 0 3 0 0 1 2 3 2 2 3 5 3 1 1 2 1 2 0 2 2 0 0 1 2 1 3 1 3 1 1 1 4 1 1 2 2 1 1 7 1 1 5 4 2 2 2 1 2 4 2 1 4 1 3 1 1 4 3 3 2 3 1 1 1 1 3 5 3 1 0 3 1 0 0 1 0 0 2 2 1 1 2 1 4 0 2 1 0 0 2 1 2 1 5 2 2 2 1 3 1 1 1 4 4 0 0 2 0 3 2 1 0 0 3 3 4 2 0 0 3 1 2 0 1 1 1 3 1 1 2 2 2 3 2 1 1 5 1 2 2 1 2 0 1 2 2 1 2 3 1 1 1 1 3 2 3 2 2 1 1 1 2 2 1 0 
BTB PER SET COUNT: 1 2 2 2 0 0 2 1 2499 0 2 0 1 1 0 1 3 1 1 2 0 1 1 2 1 2 1 3 1473 1 3 2 2 0 8 0 0 1539 3258 0 1 2 9 497 1 2 2 1 3937 1 1 1 2 0 0 3 1541 4419 1 1 2 2 2 2 0 1890 1923 0 2 2 5412 1 1 2 1 1 482 2698 2 1 1 1 3 1689 741 2 1 32 4419 2 667 526 2 2977 2 0 1 18 0 1 16 2 3 962 2 2 1 1 1442 0 1 2 963 2 1 743 1 2 1 0 4 4 2 0 1 1 1 1 4 2 1442 0 1 2 2 1 0 0 1 2 2 7 5 0 2 4 5 2979 1442 2 1 5293 1 2 8 1 0 4 1 1 0 0 0 1 11 6 0 1 4933 2 2 2 2 1 1 0 1 1 1005 1 1 5 7366 2 5 2 7 0 1 1 4433 1 1 2 1 6 1 1 0 1 2 1 1 0 0 0 1 1 1 0 0 7 2 1 2 1 0 2 1 0 0 2 1 5 2 0 2 37 0 8 2346 4 1 2 1 4 5 0 1 2 2 0 2 2 5414 9 1 1 5 1 1 1 1 1 0 3463 3 3 2 2 1048 1442 2 2 3 3940 962 0 3 2 2 2 1 2 2 3 1 0 2978 2 4 2 1 1 2 1923 2 1 1 1 0 0 1 3 0 1 19 2 0 1 2 2 1 1 2 2 19 2 1442 963 2 1 2 2 963 0 2 2 1 3 1 2 2 2 0 5 1 20 0 0 1442 0 2 2 2874 1 962 2 972 0 2 0 0 961 962 8 1 1 1 10 2 7 6 2 2 2 1 0 2947 0 0 2 2 2 1284 2 1 0 0 0 4 1 2 0 1 2 2 2 2 18 0 0 1 1540 0 0 3 1 2 1 1 2 2 2 2 0 2978 0 0 2 1443 1 8 1 1 0 1474 5 0 993 0 1 2 2 1 0 23 1 1 89 1 1 5 2 2 18 0 0 1 1442 1 0 1925 3 739 1445 2 1 2 0 0 976 1443 6 2 1 1 5 1 1 1443 0 0 1 1443 0 1 5 2 3 16 0 1442 2 0 0 2 0 1 34 0 1 1 480 2 1 0 1 2 0 0 1 1 481 0 2 2 0 6 1 6 1 3 2 0 4 1 1 5 0 963 0 0 1 0 2 1 0 0 2 1442 2 8 9 6 0 1 4420 1 1458 1 0 962 1 17 6 1 7 2994 2 4349 1 2 2 1 5411 1 0 14 0 0 1924 2949 1 3432 1 1003 17 2992 4900 2 1443 6 1443 0 1 2 0 2 3 7845 0 1 2 1 0 0 1 7 1464 4420 0 1 3937 1 0 0 2 0 0 1 1 1 0 2 0 0 973 3 2 5 7 0 2 993 2 5 0 2 2 1 0 1 1539 1 1 1 1 7 0 2 3 4 1 2 1 1031 0 2 1 18 1 1448 0 2 2 2 2 1 0 3458 1 0 9 2 5 0 1 1 2 1927 1 2978 7 0 0 4 1 2 1 3 1 1444 1 2 0 2983 0 1 1440 7786 2 14 963 2 1 1 961 0 0 1693 3 1 0 1923 962 0 1 6 2 1 0 5 962 2 1 1 1474 2 1 0 966 1 1 1 1442 1442 1441 3 5 0 2 0 2 1 961 0 1 0 0 1 2 0 1 962 0 1473 1 0 3 1 0 1 1 0 1 1 1 0 19 5 2 993 0 1 1 4903 1 1 0 1 2 1 2 1 0 6 1 2 962 0 0 1 2 0 2 2 1442 1 0 1 1 1 2 0 1 1443 1 0 0 2 4 0 0 1 2 2497 1 1 1 2 3 0 0 1055 2981 16 21 0 0 1 1063 0 0 4 16 1054 1 1 0 2 2 1 2 1 1 2 973 0 7 0 3 1 0 4 2 2 0 0 287 13 0 1 0 3 1 1 1 1 1923 1 1 2 1 1443 0 1 0 1443 2 0 1 0 2 0 1 963 2 9 0 2 1 1443 1 5 2 0 0 1 0 0 0 0 1 2251 1 1 0 2 0 1 1 1 3 1 0 7 4 4419 1 2 1 4 0 0 0 1 2 0 0 4 0 1 2 1 1 1134 0 1 1 1 0 0 3 1 2980 0 1 0 3741 28 963 0 0 1 2 0 1 1 2 29 1 1987 1 2 0 968 0 2 1 17 1 1690 515 3 1 48 1 0 1 1 1 0 1954 5 2 1 2 2 2 1 0 3059 1 2 2 2302 3 2 1 2 482 2 2 2 754 5796 2 2 3 1 1 0 352 5 1 2978 2953 1 2 1442 2 1 503 1 4 1 6 3 1 963 1 1 2 2 1 2 2 1 1454 0 1 2 1 2 17 1445 3 0 3 1924 0 3490 0 1 3 16 8 1 14 1114 4 6415 22 0 2 3 1 1 1 15 1923 2 1 1442 0 0 1 1 0 3 0 1 964 0 2 18 1 2496 16 0 1 705 3 1 365 2 1 2 4 0 1 1 0 4 0 1 3 1442 2 1 1923 963 2 0 1 8362 0 1 1 2 1 2 2 1 4934 2 17 2 4419 2 23 2 2 1 0 22 1 1 2 1 4426 1 0 246 1 1 1 482 1 1 2 1443 14 2 2 2 2 4 20 2733 2 1 1 1 1 17 2 1 5412 2 2 2 1 2 13 0 1 13 1 0 2 1 0 1 4 2 3 1 4 1 20 2 0 1 1 1026 4 1 0 2 0 0 4420 3 1 2 2 1 22 0 1 3939 0 1445 7 1 2 2 3458 2 4416 0 5893 4931 0 2 1 2 0 0 1 3458 0 1 1 4 1221 1 0 0 484 2986 2 1 1 0 0 1 4419 1 2986 2 3 0 2 0 1 2 1454 5430 1 1457 0 0 1 1 5 22 0 2 971 2 1 1 1 0 2995 1 963 0 1 1 6372 17 1 2 2 0 2 1445 3438 5 4420 2 2 0 0 16 2979 1924 1 2 2 0 1 2977 2 16 1 0 1 1 2 7877 963 4932 0 0 1 1 1 4 2 963 0 0 1 2 1484 1 0 17 1 1 1 1 1 1929 0 1 1 0 1447 4 0 2 1 4419 2 1 1 2 1 2 2 0 2979 2 0 0 1443 1 1 2 2 1 1 0 2 1 1 1 2 0 5 1212 2 1 2 0 0 5 0 2 2 0 2 1 2 2 2 1 0 5 0 1 1 2 2 3 1 1 1 1 2486 1 279 3 1 2 0 1 1 1 4420 1 2 1 1 1 2 0 1 1446 2 16 1 21 2 1 1 1 2 963 1 1 1 18 0 3502 2 3 1443 1 0 1442 1109 1 1 1 1443 0 2 2 1 2 4 2 2 0 2 1 19 2 1 4 1 0 2 1474 0 1 1345 1 1 1 0 0 2 0 0 3 1344 0 3 1 1443 1448 1 1 0 1 1 1 0 1 0 0 963 2 0 1 0 0 1 1 0 0 0 1 0 0 0 0 0 1 0 2 0 2 0 1 0 1 0 0 4426 29 0 1 1 3459 1 1 0 5 2 130 0 7 0 1 1 1 1 1 0 2 0 1287 379 0 1 2499 0 0 1 0 2 1 2 1 1 25 3 2 2 0 1 1 0 0 0 15 0 1 1 0 0 0 1 0 1 1 0 2 463 3 1 2 1 2 2 1 5 1 0 2 1 3 0 0 1 2 1 14 1 0 1 1 7 1442 0 0 1 2 1 0 0 744 1 1441 0 2 1 5 2 1 5 1444 2 4451 0 1 0 5 2 1 1932 1443 2977 2 1301 6406 0 0 2 1474 1 2 1 1 1 2 0 2 993 0 1 6 0 1 1 2978 2 2 6 2977 2883 0 1 4418 0 6 21 2 1 2 2 1442 2976 1 1 1 246 2 1 1 2961 2 1 8 1 1 4418 17 1 1 0 2 0 2 1 3 962 0 0 1 1 0 2 17 1 0 2 2 0 1 3 1 1 961 2 1 0 0 1290 2 961 0 0 0 2 482 0 2 1 963 2 2 1 5541 1 2 7369 225 2 16715 961 0 2497 2 2 1 1 0 0 0 2 2980 1 2 0 0 4 743 1 172 2 0 0 1 1474 240 2 2 1 4 2 1 771 0 2 0 1 2 1 0 0 0 623 0 1 2 0 1442 0 962 1 1 0 2 1 1 1281 0 1442 0 2 0 1 1 1 4899 0 1 505 0 1 2 2 0 1 0 0 993 1 1 2 2 2 4419 0 20 0 0 1 2 1473 1 2830 1 0 2 4 1139 2 5 2 2347 1 1603 1440 0 2 1 1443 243 3940 1529 0 2 1 4646 0 4901 0 568 1474 2 2 1 1 1 0 1 2 0 2 0 1 8 1552 2 1 2477 392 2 7 1488 0 1 0 505 1 1443 2 2 2 2 1 0 2 4422 2 0 0 1 2 0 0 0 1 0 1 1 4 0 2 2 2 1442 5 2 1 2 2 2 1 1 2 2 1 0 2 2 1 2 0 0 1 0 0 0 0 0 2 1 1 2 1 1 2 0 0 0 1 1 1 1 0 4 1 2 2 130 0 3 1 1 1 1 4 1 2 1 0 1 0 3 1 0 1 2 1 10 2 2 2 0 5 0 1 0 0 2 3 0 1922 1475 1457 0 2 2 2391 1 0 0 1 35 2 5 1 5 1 1442 1 0 0 2 18 10 4898 2 0 2980 0 1 1 1 1 2 1 0 2 0 1 2 2 3 0 0 1441 4419 1 0 0 2 1442 1 0 1441 1442 1 0 1442 16 0 1 1 1449 0 0 0 2 1 0 1443 0 1 0 2 2 5 0 2 2 211 1 3 1 0 2 1538 2 10 0 2 2 1 1 1 1 2 1 1 0 0 0 1923 2 1 2 1 2 2 1476 4419 19 2 1 14 16 0 4 2 1 1926 22 2 4 3 2 2946 5 1 2 7 2 1 1442 6891 4 2 5 2 2 2 1 1 1 0 1 1 0 3 2 0 2 0 1 1 0 1 6 1 990 0 0 0 2 1 2 1 0 0 5 1 1 0 0 0 4 1 2 0 1 1442 1 1 2 0 0 2 1 2 2 2 2 1 0 1 0 0 1 0 3 1 0 0 4420 1 1446 1 2 210 1 2 2 0 0 0 1 1 1 4697 6 5 2 4 5 967 6 3 2 2 1 833 1 1 2 1 501 1 2 2 2 3 1312 2 1444 3 0 1446 1 8 3 1556 3250 2152 1539 2 1987 2 1 2983 1 1 1 5 2 0 3 4 1443 6 0 2 1 1 2 6 7 1 1 2 2 1 2 2 2 1443 14 2 4 6 2501 2 1 5 2 2977 1115 1 3525 2 1 4 3 15 4 2 1 5 402 5 0 1 2 1 1 2 2 5 1 0 1 2947 1 2 4 8 1 2 2 1 1 0 0 1926 2 2735 2316 0 2 1 4 1 1 0 4 2 3 1 6 2 1 5 1 2 0 1473 8 0 3 2 1 1 0 3 2 1 1 0 3 0 1 5 2 1923 1 1542 2 2 2 0 0 0 963 0 2980 5 0 3 1 3 1 1 1 1 1 2 0 1 0 9 6 4 0 2 0 2 3 1450 754 1 1 5 2965 1 2 2 0 1 484 1 1 4 0 0 497 2 0 1 2 2 0 1 0 1 1444 11 0 0 3 1029 2 3 502 5 1 1443 3 1 0 4 1 2 7 1 3 746 838 0 2 2 2 0 1 0 1209 1423 2 3 6 2 1 1456 1442 0 3 18 6 18 1 7 0 671 4 2 0 1 1 1476 0 1 1 1 2 1 1 1 1343 4 0 1 0 1 5 1921 5 993 4 143 4 0 1 0 0 1 7 2 5 9 0 1 5 133 2 31 1 2 2 1 2 1443 0 5 0 2 1 4 1699 2 1 2 2 1 963 1 4 2 1 0 1 1457 1 0 963 1 1924 2 17 762 3 2 0 0 13 2978 1 0 0 1369 3492 1 1 2 0 1 0 0 2 1 1 15 0 2 1 2 2 1 17 3 2 0 2 2 8 1 0 1 0 1 2 2 1 0 0 1 22 0 1 1 2 13 1 5 1494 1 3 10 1444 0 1444 13 2 0 2 2 20 2 0 2 1 1 1 2 1 10 5 1 1 2 0 4 2881 2 17 1 958 1 2 4 1 2 2 1 6 1924 1 1 1 1449 2 0 1444 0 3 2 16 1 2 1539 2 2 3979 1923 42 1 0 0 0 0 2406 1539 1 1442 1926 3 0 2 4 5 2 2 0 19 2 1544 748 1 20 7 962 0 2 1442 1 0 1 0 2 0 0 1 0 1 486 1443 2 0 2 1 16 1 2979 2 4419 1442 1 963 1 4 1446 2 1 23 0 1 1 1 0 2 16 1 13 2 1 2 1 2 0 1 963 1 0 12 0 2 1 1444 4 3928 3 3 963 1 5 14 1441 1 1591 1442 2 0 1 2 5 16 0 963 3 4426 1 2 2 1 4 1 3 2 0 17 1 17 31 0 1452 0 1 2 3 19 0 964 2 2 2 17 1 0 1 3448 1 0 1 1 0 0 0 1 4 0 16 2 1 2977 5 1 2 2 1428 2 3 1 2 1 1 1 2 1 3 481 1 1 0 0 2 0 3 2 1 1 2979 2977 2 2 2 1 21 1449 963 2997 1 2 2 2 1 0 1105 2 3 2 1 0 2 3 13 0 2979 4912 17 0 0 0 8 1 2 1 2 2 3055 2005 1 1 2 13 1 17 3 1934 4 4 1 1 0 1 2 17 0 4 2 0 2 0 1 2 2 963 2 0 1 2 1 1442 0 2 0 1 1 2 6 1 2 2 1 2 1 2978 1478 3 500 981 5 2 2 2884 2 2 14 2 2 15 2 1441 5892 2 6886 2 0 3501 994 4 4900 963 1416 0 2 2 3983 2977 0 0 1 2 1986 1 5415 5 3461 2309 1442 1 1 7 2175 4 2 2 2 1 0 2 1446 1 0 1924 3 1 53 495 3 17 2253 1539 1 2 1 1 2979 0 1446 0 1 4420 0 2 1444 2 2 4 2 0 2 1443 1937 2 1444 3942 2966 1443 1443 2653 741 3 1926 1025 1 1 1 2 1445 1455 1442 5 4 4932 1 1 1198 1 968 2 1444 2 2 1 2 2 2976 0 2 1 5 4900 1 3 5 0 8 1446 0 2980 1 0 1 17 962 482 1 1 0 1 1 3 1 2 15 1 2407 5 9 2 1442 2 1 5 3 5 1 0 2 1 1 8 2 963 8 1 1058 3215 0 2 0 1 3 2 1 8 1 6 2 1 1 1 2 1 16 973 1 0 2 17 1 2 4 1 3 14 1 5 2 1 1923 1 2499 0 2 0 2 1475 1 0 0 1 1 963 0 0 1 3 1 2 1 0 2 0 1922 2 1 2 0 962 1 1 1442 0 1 1444 106 4 2 0 2 2 2 1 1 1 0 0 1 1 0 965 2 2 3 1441 1 1443 963 1927 1 1 2977 980 1 3 1922 2 3 1446 0 1443 2 963 2 2 1 963 2 963 2155 2 2 4419 1923 2 2 2 1 1 1 0 4900 1 2 1 1 2 2 1 1 5063 0 1 2 2 2 35 0 4374 1 2 2 1 1 14 2 2 1929 1 2 1 2 2 2 3 962 1 2 2 1442 0 1535 1 1 314 2 2 2 3460 0 17 2 1 1 2 1927 2 0 1 0 3 1 2 0 1 2 2 1 5 15 1 1 1 1 2 10 0 1443 16 2 0 2 2 0 5 0 1 16 16 1 1 1 1 0 4 0 0 1 323 1 2 1 1 1442 3 1 2 0 2 1 4413 3929 6854 2 1 3459 2951 1442 1 1 0 2 3 2 0 0 1443 2 1 2 2 2 0 2978 1 1 1 5514 1 17 14 1549 0 1 1443 1 1 1 1443 1 1922 4900 993 2978 0 2 1445 2172 1 1923 1 2404 964 2 1 1 1 2 4 2 2 2 2 962 1475 2 1442 2 573 2 1442 7 1 1539 1443 963 1 1 2 2 1442 0 1 1 974 2 2 0 2 0 0 1 1441 6854 2 2 1 2 2 3 3 2 2 1 1 0 1 3 2 1 2 1 1442 963 1 0 1 2 0 1 0 86 0 744 1923 0 0 1 1443 993 2 2 4899 0 963 1006 1 964 1 963 0 1 3 2 1 1 2 1 1442 0 0 0 869 1 1 1443 1441 3459 2 3974 2 1 2 0 2 1 2 0 1443 1 2 1 0 3971 0 1 1 3 1 6 578 0 1442 5 4 0 11 0 3460 5 0 1 16 1 0 4 1 4 2 0 3 5 2 2 1 2 1 2 3943 3 4419 7 2 4419 2 741 2 1 10 0 7 8 6 1956 2 1 2 0 3 0 2 2 2 748 1 1442 961 1 10 2 963 2 3429 0 0 2 1 2 23 21 1 2 21585 0 0 1 2 0 0 2 1 128 261 2 1 0 39 2 1 2499 1 1448 0 2 1 2 1925 0 11 0 1 2 2 1 2 38 1 4 2 3 1 4 0 4449 2 2 7 0 7 0 1442 2 1442 2 1 2 0 2 1 2 1 1 5 0 2 2 2 2 1 0 1538 2 1 3445 1442 2 6 1 2 0 1 1427 996 1 0 0 1 1 1 0 2 2 2 17 4 0 1027 1 1691 2 2978 0 0 1923 0 1 2596 963 0 1923 2 2 2 1444 2 2 0 1 0 1442 3 1 0 963 1 2 7 4 962 1 10 0 1 1792 2 1551 1 4 6 2 4419 1 3 2 1 3979 6 1 352 0 1474 2 10 107 1 2 2 0 1 17 1 2 2 3 2 0 1 1145 0 2 1 3 962 1 482 2 3907 0 2947 1 1 0 3938 1 3907 962 2886 1 1 4419 0 963 2 964 1924 1927 1 4417 0 5 1444 0 486 2 1 2 4 8 1 2 0 1443 1 354 1473 2 1 2 0 3 3 2 1 2 0 1442 1879 2 1 1 2 4426 0 2436 1 2 2 2 1 963 1 1794 2 1443 1 1443 9 4 2 2 1443 0 2 1922 0 6408 0 2875 5 1 1 2 1 0 2 1 3 2 1442 2499 2 2 3 2 2 1443 2 1 2 2 0 2 0 497 4450 995 2 1443 2947 1 2 1 1690 2 1 1 2 1291 0 1 2 0 0 2 1 0 2 0 1 1 1 1 1 2 0 2498 1 1442 1443 7 0 1 2 4 1 1 4 1 0 1 0 1 3 3 2 5 1 1 1 516 0 1 0 2 2 963 0 1 1 0 1 1 0 1 1 3 1 1 1 0 118 1 0 2 1 0 0 1 4 2 2 1 2 1 2 1 2 1674 0 2 1 2981 2 1 0 0 5 0 0 1 2 5 3 962 5 3458 1442 1 1 2 1 2 0 2 3 0 0 1 3 1 2978 5 1442 1 1 1 2404 1 1 2 2 1 1 4485 1 1 2171 1444 2 2 2 2 2 2840 2 1 1271 2 2753 2 2 7 5 964 2 846 1 1 1 2 6 1980 961 2 0 2978 2 0 0 1 0 0 2 2 1 1 2 1 965 0 2 1 0 0 3 1 2 1 2841 2 3 3 1 1924 1 1 1 966 969 0 0 2 0 962 2 1 0 0 963 4419 14 2 0 0 746 1 2 0 1 1 1 6 1 1 2 2 2 13 2 1 1 1928 1 2 5 1 2 0 1 2 6 1 2 4 1 2 1 1 4419 2 14 2 2 1 1 1 10 2 1 0 
