
*** ChampSim Multicore Out-of-Order Simulator ***

Warmup Instructions: 50000000
Simulation Instructions: 50000000
Number of CPUs: 1
LLC sets: 2048
LLC ways: 16
Off-chip DRAM Size: 4096 MB Channels: 1 Width: 64-bit Data Rate: 6400 MT/s
CPU 0 runs ./micro_traces/srv385.trace.gz
.gz
ITLB has LRU replacement policy
DTLB has LRU replacement policy
STLB has LRU replacement policy
FDIP Prefetcher at L1I
L1I has LRU replacement policy
L1D has LRU replacement policy
Initialize SRRIP state for L2C
Initialize DRRIP state for LLC
Heartbeat_Variant_0 : 1123 0.27417 per_variant_size: 0 1123 0 0 0 0 0 0 0 
Heartbeat_Variant_1 : 2601 0.63501 per_variant_size: 0 1017 1584 0 0 0 0 0 0 
Heartbeat_Variant_2 : 0 0 per_variant_size: 0 0 0 0 0 0 0 0 0 
Heartbeat_Variant_3 : 0 0 per_variant_size: 0 0 0 0 0 0 0 0 0 
Heartbeat_Variant_0_evicts 0 : 12415 1 : 15865 2 : 0 3 : 0 
Heartbeat_Variant_1_evicts 0 : 15783 1 : 0 2 : 0 3 : 0 
Heartbeat_Variant_2_evicts 0 : 0 1 : 0 2 : 0 3 : 0 
Heartbeat_Variant_3_evicts 0 : 0 1 : 0 2 : 0 3 : 0 
Heartbeat CPU 0 instructions: 10000001 cycles: 2797609 heartbeat IPC: 3.57448 cumulative IPC: 3.57448 (Simulation time: 0 hr 1 min 41 sec) 
Heartbeat_Variant_0 : 1146 0.279785 per_variant_size: 0 1146 0 0 0 0 0 0 0 
Heartbeat_Variant_1 : 2586 0.631348 per_variant_size: 0 1000 1586 0 0 0 0 0 0 
Heartbeat_Variant_2 : 0 0 per_variant_size: 0 0 0 0 0 0 0 0 0 
Heartbeat_Variant_3 : 0 0 per_variant_size: 0 0 0 0 0 0 0 0 0 
Heartbeat_Variant_0_evicts 0 : 11973 1 : 14829 2 : 0 3 : 0 
Heartbeat_Variant_1_evicts 0 : 14807 1 : 0 2 : 0 3 : 0 
Heartbeat_Variant_2_evicts 0 : 0 1 : 0 2 : 0 3 : 0 
Heartbeat_Variant_3_evicts 0 : 0 1 : 0 2 : 0 3 : 0 
Heartbeat CPU 0 instructions: 20000000 cycles: 5594755 heartbeat IPC: 3.57507 cumulative IPC: 3.57478 (Simulation time: 0 hr 3 min 22 sec) 
Heartbeat_Variant_0 : 1125 0.274658 per_variant_size: 0 1125 0 0 0 0 0 0 0 
Heartbeat_Variant_1 : 2652 0.647461 per_variant_size: 0 1017 1635 0 0 0 0 0 0 
Heartbeat_Variant_2 : 0 0 per_variant_size: 0 0 0 0 0 0 0 0 0 
Heartbeat_Variant_3 : 0 0 per_variant_size: 0 0 0 0 0 0 0 0 0 
Heartbeat_Variant_0_evicts 0 : 12489 1 : 15340 2 : 0 3 : 0 
Heartbeat_Variant_1_evicts 0 : 15369 1 : 0 2 : 0 3 : 0 
Heartbeat_Variant_2_evicts 0 : 0 1 : 0 2 : 0 3 : 0 
Heartbeat_Variant_3_evicts 0 : 0 1 : 0 2 : 0 3 : 0 
Heartbeat CPU 0 instructions: 30000000 cycles: 8391672 heartbeat IPC: 3.57537 cumulative IPC: 3.57497 (Simulation time: 0 hr 5 min 2 sec) 
Heartbeat_Variant_0 : 1135 0.2771 per_variant_size: 0 1135 0 0 0 0 0 0 0 
Heartbeat_Variant_1 : 2643 0.645264 per_variant_size: 0 975 1668 0 0 0 0 0 0 
Heartbeat_Variant_2 : 0 0 per_variant_size: 0 0 0 0 0 0 0 0 0 
Heartbeat_Variant_3 : 0 0 per_variant_size: 0 0 0 0 0 0 0 0 0 
Heartbeat_Variant_0_evicts 0 : 12473 1 : 15753 2 : 0 3 : 0 
Heartbeat_Variant_1_evicts 0 : 15743 1 : 0 2 : 0 3 : 0 
Heartbeat_Variant_2_evicts 0 : 0 1 : 0 2 : 0 3 : 0 
Heartbeat_Variant_3_evicts 0 : 0 1 : 0 2 : 0 3 : 0 
Heartbeat CPU 0 instructions: 40000000 cycles: 11188701 heartbeat IPC: 3.57522 cumulative IPC: 3.57504 (Simulation time: 0 hr 6 min 40 sec) 
Heartbeat_Variant_0 : 1116 0.272461 per_variant_size: 0 1116 0 0 0 0 0 0 0 
Heartbeat_Variant_1 : 2671 0.6521 per_variant_size: 0 975 1696 0 0 0 0 0 0 
Heartbeat_Variant_2 : 0 0 per_variant_size: 0 0 0 0 0 0 0 0 0 
Heartbeat_Variant_3 : 0 0 per_variant_size: 0 0 0 0 0 0 0 0 0 
Heartbeat_Variant_0_evicts 0 : 12058 1 : 14796 2 : 0 3 : 0 
Heartbeat_Variant_1_evicts 0 : 14816 1 : 0 2 : 0 3 : 0 
Heartbeat_Variant_2_evicts 0 : 0 1 : 0 2 : 0 3 : 0 
Heartbeat_Variant_3_evicts 0 : 0 1 : 0 2 : 0 3 : 0 
Heartbeat CPU 0 instructions: 50000002 cycles: 13985099 heartbeat IPC: 3.57603 cumulative IPC: 3.57523 (Simulation time: 0 hr 8 min 23 sec) 

Warmup complete CPU 0 instructions: 50000002 cycles: 13985099 (Simulation time: 0 hr 8 min 23 sec) 

Cycle: 20000000 FTQ IN: 57434794 FTQ occupancy: 18.654 DECODE IN: 57434770 DECODE occupancy: 47.954 ROB IN: 57434770 ROB occupancy: 290.93 ROB OUT: 57434754
Heartbeat_Variant_0 : 1131 0.276123 per_variant_size: 0 1131 0 0 0 0 0 0 0 
Heartbeat_Variant_1 : 2658 0.648926 per_variant_size: 0 1002 1656 0 0 0 0 0 0 
Heartbeat_Variant_2 : 0 0 per_variant_size: 0 0 0 0 0 0 0 0 0 
Heartbeat_Variant_3 : 0 0 per_variant_size: 0 0 0 0 0 0 0 0 0 
Heartbeat_Variant_0_evicts 0 : 12235 1 : 15117 2 : 0 3 : 0 
Heartbeat_Variant_1_evicts 0 : 15102 1 : 0 2 : 0 3 : 0 
Heartbeat_Variant_2_evicts 0 : 0 1 : 0 2 : 0 3 : 0 
Heartbeat_Variant_3_evicts 0 : 0 1 : 0 2 : 0 3 : 0 
Heartbeat CPU 0 instructions: 60000000 cycles: 22092575 heartbeat IPC: 1.23343 cumulative IPC: 1.23343 (Simulation time: 0 hr 9 min 55 sec) 
Cycle: 30000000 FTQ IN: 12223757 FTQ occupancy: 8.61227 DECODE IN: 12223770 DECODE occupancy: 19.9033 ROB IN: 12223756 ROB occupancy: 158.171 ROB OUT: 12223486
Heartbeat_Variant_0 : 1132 0.276367 per_variant_size: 0 1132 0 0 0 0 0 0 0 
Heartbeat_Variant_1 : 2659 0.64917 per_variant_size: 0 992 1667 0 0 0 0 0 0 
Heartbeat_Variant_2 : 0 0 per_variant_size: 0 0 0 0 0 0 0 0 0 
Heartbeat_Variant_3 : 0 0 per_variant_size: 0 0 0 0 0 0 0 0 0 
Heartbeat_Variant_0_evicts 0 : 12097 1 : 14809 2 : 0 3 : 0 
Heartbeat_Variant_1_evicts 0 : 14808 1 : 0 2 : 0 3 : 0 
Heartbeat_Variant_2_evicts 0 : 0 1 : 0 2 : 0 3 : 0 
Heartbeat_Variant_3_evicts 0 : 0 1 : 0 2 : 0 3 : 0 
Heartbeat CPU 0 instructions: 70000003 cycles: 30282694 heartbeat IPC: 1.22098 cumulative IPC: 1.22717 (Simulation time: 0 hr 11 min 27 sec) 
Heartbeat_Variant_0 : 1131 0.276123 per_variant_size: 0 1131 0 0 0 0 0 0 0 
Heartbeat_Variant_1 : 2668 0.651367 per_variant_size: 0 998 1670 0 0 0 0 0 0 
Heartbeat_Variant_2 : 0 0 per_variant_size: 0 0 0 0 0 0 0 0 0 
Heartbeat_Variant_3 : 0 0 per_variant_size: 0 0 0 0 0 0 0 0 0 
Heartbeat_Variant_0_evicts 0 : 12175 1 : 15478 2 : 0 3 : 0 
Heartbeat_Variant_1_evicts 0 : 15480 1 : 0 2 : 0 3 : 0 
Heartbeat_Variant_2_evicts 0 : 0 1 : 0 2 : 0 3 : 0 
Heartbeat_Variant_3_evicts 0 : 0 1 : 0 2 : 0 3 : 0 
Heartbeat CPU 0 instructions: 80000001 cycles: 38404172 heartbeat IPC: 1.2313 cumulative IPC: 1.22855 (Simulation time: 0 hr 13 min 0 sec) 
Cycle: 40000000 FTQ IN: 12308496 FTQ occupancy: 8.44455 DECODE IN: 12308507 DECODE occupancy: 19.4942 ROB IN: 12308521 ROB occupancy: 156.112 ROB OUT: 12308708
Heartbeat_Variant_0 : 1118 0.272949 per_variant_size: 0 1118 0 0 0 0 0 0 0 
Heartbeat_Variant_1 : 2683 0.655029 per_variant_size: 0 1000 1683 0 0 0 0 0 0 
Heartbeat_Variant_2 : 0 0 per_variant_size: 0 0 0 0 0 0 0 0 0 
Heartbeat_Variant_3 : 0 0 per_variant_size: 0 0 0 0 0 0 0 0 0 
Heartbeat_Variant_0_evicts 0 : 12255 1 : 15546 2 : 0 3 : 0 
Heartbeat_Variant_1_evicts 0 : 15559 1 : 0 2 : 0 3 : 0 
Heartbeat_Variant_2_evicts 0 : 0 1 : 0 2 : 0 3 : 0 
Heartbeat_Variant_3_evicts 0 : 0 1 : 0 2 : 0 3 : 0 
Heartbeat CPU 0 instructions: 90000000 cycles: 46617521 heartbeat IPC: 1.21753 cumulative IPC: 1.22577 (Simulation time: 0 hr 14 min 34 sec) 
Cycle: 50000000 FTQ IN: 12105752 FTQ occupancy: 8.43599 DECODE IN: 12105716 DECODE occupancy: 19.1921 ROB IN: 12105656 ROB occupancy: 153.014 ROB OUT: 12105409
Heartbeat_Variant_0 : 1137 0.277588 per_variant_size: 0 1137 0 0 0 0 0 0 0 
Heartbeat_Variant_1 : 2671 0.6521 per_variant_size: 0 977 1694 0 0 0 0 0 0 
Heartbeat_Variant_2 : 0 0 per_variant_size: 0 0 0 0 0 0 0 0 0 
Heartbeat_Variant_3 : 0 0 per_variant_size: 0 0 0 0 0 0 0 0 0 
Heartbeat_Variant_0_evicts 0 : 12853 1 : 15886 2 : 0 3 : 0 
Heartbeat_Variant_1_evicts 0 : 15868 1 : 0 2 : 0 3 : 0 
Heartbeat_Variant_2_evicts 0 : 0 1 : 0 2 : 0 3 : 0 
Heartbeat_Variant_3_evicts 0 : 0 1 : 0 2 : 0 3 : 0 
Heartbeat CPU 0 instructions: 100000000 cycles: 54820670 heartbeat IPC: 1.21904 cumulative IPC: 1.22442 (Simulation time: 0 hr 16 min 7 sec) 
Finished CPU 0 instructions: 50000001 cycles: 40835573 cumulative IPC: 1.22442 (Simulation time: 0 hr 16 min 7 sec) 

ChampSim completed all CPUs

Region of Interest Statistics

CPU 0 cumulative IPC: 1.22442 instructions: 50000001 cycles: 40835573
 Fetch stage stalled: 65.932  Sim cycles: 40835573 fetch stall cycle: 26923709
 Empty decode stage: 52.2297  Sim cycles: 40835573 fetch stall cycle: 21328279
ITLB TOTAL     ACCESS:    5650654  HIT:    5156922  MISS:     493732  HIT %:    91.2624  MISS %:    8.73761   MPKI: 9.87464
ITLB LOAD TRANSLATION INSTRUCTION	ACCESS:    5533188  HIT:    5039456  MISS:     493732  HIT %:    91.0769  MISS %:     8.9231  MPKI: 9.87464
ITLB TRANSLATION FROM L1D PREFETCHER INSTRUCTION	ACCESS:     117466  HIT:     117466  MISS:          0  HIT %:        100  MISS %:          0  MPKI: 0

ITLB AVERAGE MISS LATENCY: 9.04448 cycles
ITLB RQ	ACCESS:    7581848	FORWARD:          0	MERGED:    1433411	TO_CACHE:    6148437

DTLB TOTAL     ACCESS:    9172069  HIT:    8695967  MISS:     476102  HIT %:    94.8092  MISS %:    5.19078   MPKI: 9.52204
DTLB LOAD TRANSLATION DATA	ACCESS:    9172069  HIT:    8695967  MISS:     476102  HIT %:    94.8092  MISS %:    5.19078  MPKI: 9.52204

DTLB AVERAGE MISS LATENCY: 9.29676 cycles
DTLB RQ	ACCESS:   13496520	FORWARD:          0	MERGED:    4289102	TO_CACHE:    9207418

STLB TOTAL     ACCESS:    1219755  HIT:    1217771  MISS:       1984  HIT %:    99.8373  MISS %:   0.162656   MPKI: 0.03968
STLB LOAD TRANSLATION INSTRUCTION	ACCESS:     493732  HIT:     493486  MISS:        246  HIT %:    99.9502  MISS %:  0.0498246  MPKI: 0.00492
STLB LOAD TRANSLATION DATA	ACCESS:     475913  HIT:     474200  MISS:       1713  HIT %:    99.6401  MISS %:    0.35994  MPKI: 0.03426
STLB TRANSLATION FROM L1D PREFETCHER DATA	ACCESS:     250110  HIT:     250085  MISS:         25  HIT %:      99.99  MISS %:  0.0099956  MPKI: 0.0005

STLB AVERAGE MISS LATENCY: 69.3674 cycles
STLB RQ	ACCESS:    1339348	FORWARD:          0	MERGED:     119551	TO_CACHE:    1219797

STLB Hit, L1D data hit: 0
STLB Hit, L2C data hit: 0
STLB Hit, LLC data hit: 0
STLB Hit, LLC data miss: 0
STLB STLB hints to L2: 0
L1D TOTAL     ACCESS:   13254388  HIT:   12140265  MISS:    1114123  HIT %:    91.5943  MISS %:    8.40569   MPKI: 22.2825
L1D LOAD DATA	ACCESS:    6703432  HIT:    5967233  MISS:     736199  HIT %:    89.0176  MISS %:    10.9824  MPKI: 14.724
L1D RFO DATA	ACCESS:    6223352  HIT:    5938493  MISS:     284859  HIT %:    95.4227  MISS %:    4.57726  MPKI: 5.69718
L1D PREFETCH DATA	ACCESS:     327604  HIT:     234539  MISS:      93065  HIT %:    71.5922  MISS %:    28.4078  MPKI: 1.8613

L1D PREFETCH  REQUESTED:     739421  ISSUED:     739421  USEFUL:      33242  USELESS:      68822
L1D USEFUL LOAD PREFETCHES:      33242 PREFETCH ISSUED TO LOWER LEVEL:     102119  ACCURACY: 32.5522
 TIMELY PREFETCHES:      33242 LATE PREFETCHES: 9016 DROPPED PREFETCHES: 6
L1D AVERAGE MISS LATENCY: 281416 cycles
L1D RQ	ACCESS:   10798027	FORWARD:          0	MERGED:    3893588	TO_CACHE:    6736781
L1D WQ	ACCESS:    6943836	FORWARD:     168051	MERGED:     184097	TO_CACHE:    6759739
L1D PQ	ACCESS:     369907	FORWARD:          0	MERGED:          0	TO_CACHE:     369514

L1D UNIQUE REGIONS ACCESSED: 0
L1D REGIONS CONFLICTS: 0
L1D Cross Page Prefetch Requests: 6984
L1D Same Page Prefetch Requests: 748569
L1D ROI Sum of L1D PQ occupancy: 4683513
L1D PREFETCHES PUSHED FROM L2C: 0
L1I TOTAL     ACCESS:    6972519  HIT:    4209609  MISS:    2762910  HIT %:    60.3743  MISS %:    39.6257   MPKI: 55.2582
L1I LOAD INSTRUCTION	ACCESS:    6432084  HIT:    3669174  MISS:    2762910  HIT %:    57.0449  MISS %:    42.9551  MPKI: 55.2582
L1I PREFETCH INSTRUCTION	ACCESS:     540435  HIT:     540435  MISS:          0  HIT %:        100  MISS %:          0  MPKI: 0

L1I PREFETCH  REQUESTED:    1258779  ISSUED:    1258779  USEFUL:          0  USELESS:          0
L1I USEFUL LOAD PREFETCHES:          0 PREFETCH ISSUED TO LOWER LEVEL:          0  ACCURACY: -nan
 TIMELY PREFETCHES:          0 LATE PREFETCHES: 0 DROPPED PREFETCHES: 0
L1I AVERAGE MISS LATENCY: 17.4035 cycles
L1I RQ	ACCESS:    9464491	FORWARD:          0	MERGED:    2786212	TO_CACHE:    6678279
L1I PQ	ACCESS:    1258779	FORWARD:          0	MERGED:     355210	TO_CACHE:     903569

L1BTB TOTAL     ACCESS:    5671887  HIT:    2043675  MISS:    3628212  HIT %:    36.0317  MISS %:    63.9683   MPKI: 72.5642
L1BTB BRANCH_DIRECT_JUMP	ACCESS:     548746 HIT:     144629 MISS:     404117 AVERAGE STALL: 40.979 AVERAGE FETCH STALL: 18.3179 AVERAGE FETCH QUEUE STALL: 12.0344 AVERAGE DECODE STALL: 9.80408 AVERAGE EXECUTE STALL: 5.9569e+14
L1BTB BRANCH_INDIRECT	ACCESS:     183366 HIT:      66347 MISS:     117019 AVERAGE STALL: 96.5546 AVERAGE FETCH STALL: 13.5416 AVERAGE FETCH QUEUE STALL: 10.3257 AVERAGE DECODE STALL: 8.58424 AVERAGE EXECUTE STALL: 63.1553
L1BTB BRANCH_CONDITIONAL	ACCESS:    2710557 HIT:    1417628 MISS:    1292929 AVERAGE STALL: 41.3304 AVERAGE FETCH STALL: 22.0285 AVERAGE FETCH QUEUE STALL: 10.0665 AVERAGE DECODE STALL: 8.4871 AVERAGE EXECUTE STALL: 2.24621e+14
L1BTB BRANCH_DIRECT_CALL	ACCESS:     943397 HIT:     104643 MISS:     838754 AVERAGE STALL: 42.8358 AVERAGE FETCH STALL: 22.2408 AVERAGE FETCH QUEUE STALL: 10.7368 AVERAGE DECODE STALL: 9.10136 AVERAGE EXECUTE STALL: 1.73168e+14
L1BTB BRANCH_INDIRECT_CALL	ACCESS:     171214 HIT:      20835 MISS:     150379 AVERAGE STALL: 128.223 AVERAGE FETCH STALL: 16.6374 AVERAGE FETCH QUEUE STALL: 9.01574 AVERAGE DECODE STALL: 8.02733 AVERAGE EXECUTE STALL: 94.0115
L1BTB BRANCH_RETURN	ACCESS:    1114607 HIT:     289593 MISS:     825014 AVERAGE STALL: 41.6474 AVERAGE FETCH STALL: 18.3581 AVERAGE FETCH QUEUE STALL: 7.16766 AVERAGE DECODE STALL: 6.7471 AVERAGE EXECUTE STALL: 2.48692e+14
L1BTB BRANCH_OTHER ACCESS:          0 HIT:          0 MISS:          0 AVERAGE STALL: -nan AVERAGE FETCH STALL: -nan AVERAGE FETCH QUEUE STALL: -nan AVERAGE DECODE STALL: -nan AVERAGE EXECUTE STALL: -nan
L1BTB TOTAL ROB OCCUPANCY AT BTB MISS: 11.5576

L2BTB TOTAL     ACCESS:    3602762  HIT:    3281173  MISS:     321589  HIT %:    91.0738  MISS %:    8.92618   MPKI: 6.43178
L2BTB BRANCH_DIRECT_JUMP	ACCESS:     399923 HIT:     373145 MISS:      26778 AVERAGE STALL: 40.979 AVERAGE FETCH STALL: 18.3179 AVERAGE FETCH QUEUE STALL: 12.0344 AVERAGE DECODE STALL: 9.80408 AVERAGE EXECUTE STALL: 5.9569e+14
L2BTB BRANCH_INDIRECT	ACCESS:     106730 HIT:     100268 MISS:       6462 AVERAGE STALL: 96.5546 AVERAGE FETCH STALL: 13.5416 AVERAGE FETCH QUEUE STALL: 10.3257 AVERAGE DECODE STALL: 8.58424 AVERAGE EXECUTE STALL: 63.1553
L2BTB BRANCH_CONDITIONAL	ACCESS:    1292929 HIT:    1210350 MISS:      82579 AVERAGE STALL: 41.3304 AVERAGE FETCH STALL: 22.0285 AVERAGE FETCH QUEUE STALL: 10.0665 AVERAGE DECODE STALL: 8.4871 AVERAGE EXECUTE STALL: 2.24621e+14
L2BTB BRANCH_DIRECT_CALL	ACCESS:     838754 HIT:     732188 MISS:     106566 AVERAGE STALL: 42.8358 AVERAGE FETCH STALL: 22.2408 AVERAGE FETCH QUEUE STALL: 10.7368 AVERAGE DECODE STALL: 9.10136 AVERAGE EXECUTE STALL: 1.73168e+14
L2BTB BRANCH_INDIRECT_CALL	ACCESS:     140809 HIT:     114410 MISS:      26399 AVERAGE STALL: 128.223 AVERAGE FETCH STALL: 16.6374 AVERAGE FETCH QUEUE STALL: 9.01574 AVERAGE DECODE STALL: 8.02733 AVERAGE EXECUTE STALL: 94.0115
L2BTB BRANCH_RETURN	ACCESS:     823617 HIT:     750812 MISS:      72805 AVERAGE STALL: 41.6474 AVERAGE FETCH STALL: 18.3581 AVERAGE FETCH QUEUE STALL: 7.16766 AVERAGE DECODE STALL: 6.7471 AVERAGE EXECUTE STALL: 2.48692e+14
L2BTB BRANCH_OTHER ACCESS:          0 HIT:          0 MISS:          0 AVERAGE STALL: -nan AVERAGE FETCH STALL: -nan AVERAGE FETCH QUEUE STALL: -nan AVERAGE DECODE STALL: -nan AVERAGE EXECUTE STALL: -nan
L2BTB TOTAL ROB OCCUPANCY AT BTB MISS: 130.395

L2C TOTAL     ACCESS:    4495239  HIT:    3961200  MISS:     534039  HIT %:    88.1199  MISS %:    11.8801   MPKI: 10.6808
L2C LOAD INSTRUCTION	ACCESS:    2762910  HIT:    2489930  MISS:     272980  HIT %:    90.1198  MISS %:    9.88016  MPKI: 5.4596
L2C LOAD TRANSLATION INSTRUCTION	ACCESS:        276  HIT:         94  MISS:        182  HIT %:     34.058  MISS %:     65.942  MPKI: 0.00364
L2C LOAD DATA	ACCESS:     727170  HIT:     636123  MISS:      91047  HIT %:    87.4793  MISS %:    12.5207  MPKI: 1.82094
L2C RFO DATA	ACCESS:     284794  HIT:     222468  MISS:      62326  HIT %:    78.1154  MISS %:    21.8846  MPKI: 1.24652
L2C PREFETCH DATA	ACCESS:     197733  HIT:     111581  MISS:      86152  HIT %:    56.4301  MISS %:    43.5699  MPKI: 1.72304
L2C WRITEBACK DATA	ACCESS:     520530  HIT:     500506  MISS:      20024  HIT %:    96.1532  MISS %:    3.84685  MPKI: 0.40048
L2C LOAD TRANSLATION DATA	ACCESS:       1783  HIT:        463  MISS:       1320  HIT %:    25.9675  MISS %:    74.0325  MPKI: 0.0264
L2C TRANSLATION FROM L1D PREFETCHER DATA	ACCESS:         43  HIT:         35  MISS:          8  HIT %:    81.3953  MISS %:    18.6047  MPKI: 0.00016

L2C PREFETCH  REQUESTED:     104056  ISSUED:     104056  USEFUL:       8646  USELESS:      78067
L2C USEFUL LOAD PREFETCHES:       8646 PREFETCH ISSUED TO LOWER LEVEL:      86686  ACCURACY: 9.97393
 TIMELY PREFETCHES:       8646 LATE PREFETCHES: 534 DROPPED PREFETCHES: 0
L2C AVERAGE MISS LATENCY: 36.8656 cycles
L2C RQ	ACCESS:    3777017	FORWARD:          0	MERGED:          0	TO_CACHE:    3776977
L2C WQ	ACCESS:     520530	FORWARD:         40	MERGED:          0	TO_CACHE:     520530
L2C PQ	ACCESS:     206175	FORWARD:          0	MERGED:       3756	TO_CACHE:     202419

L2C Dense regions hint from L2: 0
PSCL5 TOTAL     ACCESS:       3990  HIT:       1995  MISS:       1995  HIT %:         50  MISS %:         50   MPKI: 0.0399
PSCL5 LOAD TRANSLATION INSTRUCTION	ACCESS:       3904  HIT:       1952  MISS:       1952  HIT %:         50  MISS %:         50  MPKI: 0.03904
PSCL5 TRANSLATION FROM L1D PREFETCHER INSTRUCTION	ACCESS:         86  HIT:         43  MISS:         43  HIT %:         50  MISS %:         50  MPKI: 0.00086


PSCL4 TOTAL     ACCESS:       3773  HIT:       1882  MISS:       1891  HIT %:    49.8807  MISS %:    50.1193   MPKI: 0.03782
PSCL4 LOAD TRANSLATION INSTRUCTION	ACCESS:       2318  HIT:       1839  MISS:        479  HIT %:    79.3356  MISS %:    20.6644  MPKI: 0.00958
PSCL4 TRANSLATION FROM L1D PREFETCHER INSTRUCTION	ACCESS:         58  HIT:         43  MISS:         15  HIT %:    74.1379  MISS %:    25.8621  MPKI: 0.0003
PSCL4 LOAD TRANSLATION DATA	ACCESS:       1369  HIT:          0  MISS:       1369  HIT %:          0  MISS %:        100  MPKI: 0.02738
PSCL4 TRANSLATION FROM L1D PREFETCHER DATA	ACCESS:         28  HIT:          0  MISS:         28  HIT %:          0  MISS %:        100  MPKI: 0.00056


PSCL3 TOTAL     ACCESS:       3851  HIT:       1921  MISS:       1930  HIT %:    49.8831  MISS %:    50.1169   MPKI: 0.0386
PSCL3 LOAD TRANSLATION INSTRUCTION	ACCESS:       2357  HIT:       1878  MISS:        479  HIT %:    79.6776  MISS %:    20.3224  MPKI: 0.00958
PSCL3 TRANSLATION FROM L1D PREFETCHER INSTRUCTION	ACCESS:         58  HIT:         43  MISS:         15  HIT %:    74.1379  MISS %:    25.8621  MPKI: 0.0003
PSCL3 LOAD TRANSLATION DATA	ACCESS:       1408  HIT:          0  MISS:       1408  HIT %:          0  MISS %:        100  MPKI: 0.02816
PSCL3 TRANSLATION FROM L1D PREFETCHER DATA	ACCESS:         28  HIT:          0  MISS:         28  HIT %:          0  MISS %:        100  MPKI: 0.00056


PSCL2 TOTAL     ACCESS:       3901  HIT:       1906  MISS:       1995  HIT %:    48.8593  MISS %:    51.1407   MPKI: 0.0399
PSCL2 LOAD TRANSLATION INSTRUCTION	ACCESS:       2108  HIT:       1863  MISS:        245  HIT %:    88.3776  MISS %:    11.6224  MPKI: 0.0049
PSCL2 TRANSLATION FROM L1D PREFETCHER INSTRUCTION	ACCESS:         43  HIT:         43  MISS:          0  HIT %:        100  MISS %:          0  MPKI: 0
PSCL2 LOAD TRANSLATION DATA	ACCESS:       1707  HIT:          0  MISS:       1707  HIT %:          0  MISS %:        100  MPKI: 0.03414
PSCL2 TRANSLATION FROM L1D PREFETCHER DATA	ACCESS:         43  HIT:          0  MISS:         43  HIT %:          0  MISS %:        100  MPKI: 0.00086


LLC TOTAL     ACCESS:     602920  HIT:     575739  MISS:      27181  HIT %:    95.4918  MISS %:    4.50823   MPKI: 0.54362
LLC LOAD INSTRUCTION	ACCESS:     272980  HIT:     272176  MISS:        804  HIT %:    99.7055  MISS %:   0.294527  MPKI: 0.01608
LLC LOAD TRANSLATION INSTRUCTION	ACCESS:        182  HIT:        146  MISS:         36  HIT %:    80.2198  MISS %:    19.7802  MPKI: 0.00072
LLC LOAD DATA	ACCESS:      90569  HIT:      87330  MISS:       3239  HIT %:    96.4237  MISS %:    3.57628  MPKI: 0.06478
LLC RFO DATA	ACCESS:      62259  HIT:      48864  MISS:      13395  HIT %:     78.485  MISS %:     21.515  MPKI: 0.2679
LLC PREFETCH DATA	ACCESS:      86686  HIT:      77350  MISS:       9336  HIT %:    89.2301  MISS %:    10.7699  MPKI: 0.18672
LLC WRITEBACK DATA	ACCESS:      88916  HIT:      88612  MISS:        304  HIT %:    99.6581  MISS %:   0.341896  MPKI: 0.00608
LLC LOAD TRANSLATION DATA	ACCESS:       1320  HIT:       1253  MISS:         67  HIT %:    94.9242  MISS %:    5.07576  MPKI: 0.00134
LLC TRANSLATION FROM L1D PREFETCHER DATA	ACCESS:          8  HIT:          8  MISS:          0  HIT %:        100  MISS %:          0  MPKI: 0

LLC AVERAGE MISS LATENCY: 155.646 cycles
LLC RQ	ACCESS:     427329	FORWARD:          0	MERGED:          0	TO_CACHE:     427318
LLC WQ	ACCESS:      88916	FORWARD:         11	MERGED:          0	TO_CACHE:      88916
LLC PQ	ACCESS:      86686	FORWARD:          0	MERGED:          0	TO_CACHE:      86686

LLC Dense regions hint to LLC: 0

RAW hits: 1834776
Loads Generated: 12632804
Loads sent to L1D: 10798027
Stores Generated: 6943830
Stores sent to L1D: 6943836
Major fault: 0 Minor fault: 2545
Allocated PAGES: 2545

stream: 
stream:times selected: 1188366
stream:pref_filled: 122089
stream:pref_useful: 23526
stream:pref_late: 7263
stream:misses: 8199
stream:misses_by_poll: 0

CS: 
CS:times selected: 179585
CS:pref_filled: 59302
CS:pref_useful: 36061
CS:pref_late: 7981
CS:misses: 16550
CS:misses_by_poll: 3

CPLX: 
CPLX:times selected: 1007607
CPLX:pref_filled: 19030
CPLX:pref_useful: 4241
CPLX:pref_late: 3182
CPLX:misses: 94487
CPLX:misses_by_poll: 1

NL_L1: 
NL:times selected: 20549
NL:pref_filled: 650
NL:pref_useful: 259
NL:pref_late: 396
NL:misses: 1686
NL:misses_by_poll: 0

total selections: 2396107
total_filled: 93065
total_useful: 33242
total_late: 20076
total_polluted: 4
total_misses_after_warmup: 769546
conflicts: 5589453

test: 116903

DRAM Statistics
 CHANNEL 0
 RQ ROW_BUFFER_HIT:       9903  ROW_BUFFER_MISS:      16962
 DBUS_CONGESTED:         13
 WQ ROW_BUFFER_HIT:       1288  ROW_BUFFER_MISS:      11884  FULL:          0

 AVG_CONGESTED_CYCLE: 4

CPU 0 Branch Prediction Accuracy: 99.8223% MPKI: 0.32502 Average ROB Occupancy at Mispredict: 155.038
Branch types
NOT_BRANCH: 40852731 81.7055%
BRANCH_DIRECT_JUMP: 548746 1.09749%
BRANCH_INDIRECT: 183366 0.366732%
BRANCH_CONDITIONAL: 6185521 12.371%
BRANCH_DIRECT_CALL: 943397 1.88679%
BRANCH_INDIRECT_CALL: 171214 0.342428%
BRANCH_RETURN: 1114607 2.22921%
BRANCH_OTHER: 0 0%

DRAM PAGES: 1048576
Allocated PAGES: 2545
Average_ROB_Occupancy: 156.703
Average_Decode_Occupancy: 19.5408
Average_FTQ_Occupancy: 8.4924
Indirect max targets: 14 Average targets: 1.14527
Branch_type:  BRANCH_DIRECT_JUMP:  Count Percentage: 2.51394 6.83069 4.03621 9.36069 1.69652 6.29142 0.26767 69.0029 
Branch_type:  BRANCH_INDIRECT:  Count Percentage: 14.4773 0.804522 2.54797 0 1.33613 9.66983 2.27151 68.8927 
Branch_type:  BRANCH_CONDITIONAL:  Count Percentage: 21.2518 2.5784 1.75294 5.52861 1.27799 9.48575 3.57491 54.5496 
Branch_type:  BRANCH_DIRECT_CALL:  Count Percentage: 0.769916 1.30846 1.28201 4.55414 2.1969 2.54685 0.56934 86.7724 
Branch_type:  BRANCH_INDIRECT_CALL:  Count Percentage: 9.55435 0 2.99454 8.70743 0 2.3401 1.28496 75.1186 
Branch_type:  BRANCH_RETURN:  Count Percentage: 4.90626 0.785382 1.16408 6.19804 2.06156 9.62936 4.27705 70.9783 
Branch_type:  BRANCH_DIRECT_JUMP:  Total Count: 27556 74873 44242 102605 18596 68962 2934 756359 
Branch_type:  BRANCH_INDIRECT:  Total Count: 52995 2945 9327 0 4891 35397 8315 252186 
Branch_type:  BRANCH_CONDITIONAL:  Total Count: 2626633 318679 216656 683313 157954 1172398 441844 6742096 
Branch_type:  BRANCH_DIRECT_CALL:  Total Count: 14525 24685 24186 85917 41446 48048 10741 1637021 
Branch_type:  BRANCH_INDIRECT_CALL:  Total Count: 32761 0 10268 29857 0 8024 4406 257575 
Branch_type:  BRANCH_RETURN:  Total Count: 109422 17516 25962 138232 45978 214759 95389 1582995 
Number of unique branch instructions: 9824
Upper 32 bits: 
aaaa
ffff
ffff0000
Unique upper 32 bits: 3
Unique upper 36 bits: 3
Unique upper 40 bits: 5
Unique upper 44 bits: 32
Unique upper 48 bits: 154
Variant_0 : 1137 0.277588
Variant_1 : 2671 0.6521
Variant_2 : 0 0
Variant_3 : 0 0
Offset_3 4037
Offset_4 247
Offset_5 449
Offset_6 502
Offset_7 576
Offset_8 508
Offset_9 465
Offset_10 376
Offset_11 303
Offset_12 269
Offset_13 203
Offset_14 227
Offset_15 185
Offset_16 222
Offset_17 146
Offset_18 118
Offset_19 236
Offset_20 136
Offset_21 235
Offset_22 392
Offset_23 241
Offset_24 332
Offset_25 88
Offset_47 82
decode_dispatch_called: 20903643 51.1898
Dispatch_width: 0 10655108 50.9725 26.0927
Dispatch_width: 1 595766 2.85006 1.45894
Dispatch_width: 2 630394 3.01571 1.54374
Dispatch_width: 3 412393 1.97283 1.00989
Dispatch_width: 4 2249667 10.7621 5.50909
Dispatch_width: 5 254596 1.21795 0.623466
Dispatch_width: 6 6105719 29.2089 14.952
Empty_decode_cycles: 19931930 48.8102
ROB_full_cycles: 3480012 8.52201
Starvation_cycles_per_kilo_instr: 312.498
Starvation_cycles_per_kilo_instr_3: 287.456
Starvation_cycles_per_kilo_instr_0: 271.07
Branch_type_1  (3,1)  (4,9)  (5,37)  (6,70)  (7,114)  (8,127)  (9,122)  (10,97)  (11,67)  (12,43)  (13,5)  (14,2)  (15,3)  (16,4)  (18,1)  (19,4)  (20,2)  (21,1)  (22,3)  (23,2)  (24,10)  (25,12) 
Branch_type_2  (3,1)  (5,1)  (8,3)  (9,3)  (12,1)  (13,1)  (14,1)  (16,3)  (17,2)  (20,2)  (21,2)  (23,5)  (24,1)  (47,38) 
Branch_type_3  (3,4035)  (4,238)  (5,407)  (6,417)  (7,433)  (8,319)  (9,257)  (10,153)  (11,120)  (12,50)  (13,4) 
Branch_type_4  (6,3)  (7,8)  (8,25)  (9,51)  (10,60)  (11,59)  (12,96)  (13,88)  (14,100)  (15,87)  (16,99)  (17,65)  (18,53)  (19,115)  (20,71)  (21,124)  (22,208)  (23,136)  (24,193)  (25,72) 
Branch_type_5  (8,2)  (9,1)  (10,3)  (11,5)  (12,3)  (13,14)  (14,16)  (15,11)  (16,20)  (17,11)  (18,16)  (19,12)  (20,10)  (21,13)  (22,42)  (23,26)  (24,37) 
Branch_type_6  (5,4)  (6,12)  (7,21)  (8,32)  (9,31)  (10,63)  (11,52)  (12,76)  (13,91)  (14,108)  (15,84)  (16,96)  (17,68)  (18,48)  (19,105)  (20,51)  (21,95)  (22,139)  (23,72)  (24,91)  (25,4)  (47,44) 
Unique trigger count: 
Variant_0_evicts_0 : 0
Variant_0_evicts_1 : 0
Variant_0_evicts_2 : 0
Variant_0_evicts_3 : 0
Variant_1_evicts_0 : 0
Variant_1_evicts_1 : 0
Variant_1_evicts_2 : 0
Variant_1_evicts_3 : 0
Variant_2_evicts_0 : 0
Variant_2_evicts_1 : 0
Variant_2_evicts_2 : 0
Variant_2_evicts_3 : 0
Variant_3_evicts_0 : 0
Variant_3_evicts_1 : 0
Variant_3_evicts_2 : 0
Variant_3_evicts_3 : 0
BTB PER SET UNIQUE ADDR: 2 7 3 5 5 5 6 4 2 6 5 4 3 4 10 9 3 4 3 2 4 7 6 9 3 7 3 4 5 6 5 5 4 6 5 6 7 4 5 9 4 7 3 4 6 5 3 4 6 6 8 5 5 3 2 7 5 3 7 5 4 7 4 7 5 2 4 4 3 7 6 6 5 7 6 9 3 5 6 5 10 7 6 7 8 3 6 2 6 7 6 8 6 6 3 1 5 3 4 6 5 4 4 5 4 4 4 6 6 7 6 2 2 8 2 5 4 5 4 10 5 4 5 3 7 7 3 6 6 2 2 5 3 6 9 6 5 2 7 4 3 4 8 7 2 7 5 5 4 7 3 2 2 11 2 4 6 4 6 4 2 7 4 5 8 2 1 4 6 8 7 6 4 4 4 5 2 6 5 6 4 4 3 8 3 5 4 5 4 6 4 3 6 7 1 4 6 6 6 4 4 6 3 5 1 7 3 5 5 4 2 3 5 5 6 5 6 4 4 5 3 8 6 8 6 10 6 3 7 9 3 5 5 9 4 6 3 7 3 7 4 5 4 4 5 4 3 4 5 6 3 7 4 2 5 6 4 6 7 1 9 6 4 5 4 4 4 5 5 4 7 8 6 6 6 5 6 2 5 8 7 2 4 7 3 6 11 4 8 5 4 3 10 7 7 5 4 3 6 5 9 3 5 7 3 3 6 7 6 4 7 3 5 6 5 4 6 6 5 3 7 8 2 4 10 6 3 5 2 7 4 11 3 5 6 4 6 8 6 8 2 5 5 3 5 4 4 6 2 4 5 5 3 2 6 4 4 6 5 5 10 6 3 8 5 10 5 6 4 3 9 7 10 5 5 5 6 6 4 1 5 5 4 5 8 3 2 6 5 5 5 2 3 6 4 5 4 2 5 3 7 5 7 4 4 9 10 4 8 2 4 4 1 5 6 4 4 4 4 6 6 0 4 4 6 3 6 7 5 6 8 3 3 4 6 1 4 2 2 3 8 6 3 2 5 0 3 5 6 4 9 2 5 4 5 2 7 2 9 4 4 5 4 12 1 8 4 6 2 5 4 7 2 6 3 8 3 2 3 8 4 3 6 4 3 4 5 6 6 6 6 5 4 5 6 4 5 4 2 9 3 3 3 4 4 6 5 4 2 4 6 2 4 3 4 5 8 6 6 4 7 5 9 3 6 11 1 3 5 3 7 7 3 2 3 5 5 8 4 6 3 8 9 11 6 4 7 10 4 3 2 6 2 5 6 7 7 1 5 4 4 3 5 6 3 3 4 5 10 3 4 4 1 7 2 6 7 2 6 5 1 6 3 9 3 4 3 2 5 7 6 6 6 6 3 7 10 7 3 5 8 2 4 2 5 11 8 1 4 4 4 4 6 6 1 3 10 5 9 7 3 4 6 2 5 5 2 5 6 3 4 8 4 5 8 5 3 7 5 10 2 5 3 2 3 6 5 4 4 6 5 5 5 8 4 7 5 4 2 5 4 5 5 7 5 4 3 9 6 7 8 5 7 4 7 4 4 6 4 7 6 7 3 6 7 8 3 5 9 4 7 2 4 5 5 9 4 7 5 8 6 5 4 3 9 4 2 5 7 7 4 1 3 5 5 5 7 6 3 3 6 6 3 8 7 7 9 7 3 8 3 5 7 4 7 2 4 6 2 7 3 11 6 6 5 3 8 3 4 5 7 3 7 5 9 8 8 1 3 8 5 7 6 6 9 6 7 8 6 3 7 4 1 6 9 4 4 6 4 5 6 3 3 4 10 5 5 8 5 8 7 4 4 4 8 6 6 3 6 3 6 5 7 4 4 3 5 3 5 6 6 2 0 5 6 5 9 4 7 5 6 5 4 5 5 6 5 6 10 5 6 6 4 6 5 5 6 4 2 5 1 8 5 5 4 5 4 6 3 4 4 5 4 3 6 3 10 7 4 2 1 5 4 6 5 5 7 7 5 4 3 4 5 3 3 3 4 6 1 6 6 5 6 4 3 6 6 9 0 0 9 2 4 1 4 6 4 9 6 2 7 3 6 4 3 2 5 5 6 9 5 5 5 5 8 9 6 4 8 6 8 1 7 6 2 2 5 6 7 4 3 7 7 4 5 6 3 3 1 5 6 5 4 2 5 3 3 2 8 2 9 8 3 2 11 5 8 3 5 2 5 4 6 5 4 3 6 4 2 3 5 1 3 6 2 4 2 9 5 6 4 5 8 5 8 3 3 5 6 3 3 5 5 10 7 4 5 3 2 3 6 4 7 4 3 4 5 9 6 4 4 7 6 5 4 5 5 6 3 4 4 3 4 7 9 4 7 7 3 4 7 2 5 5 4 7 7 5 2 4 5 4 4 6 8 4 5 6 3 4 6 5 6 4 2 6 8 6 3 2 3 7 3 5 4 6 8 6 7 4 1 5 2 7 6 4 5 6 7 4 8 2 5 5 6 5 4 3 2 6 8 8 5 5 6 3 3 3 4 3 5 11 5 7 3 6 4 6 3 1 7 6 4 3 8 3 5 6 4 5 5 4 3 8 2 6 5 8 4 3 6 5 8 2 6 4 3 5 3 6 8 8 4 3 4 6 2 6 6 5 3 5 1 4 4 4 5 9 7 5 4 2 7 5 3 4 6 5 5 8 7 5 6 4 4 8 4 7 2 5 6 1 10 4 3 4 5 3 7 8 10 8 4 1 5 4 8 5 4 3 6 3 4 3 6 5 5 2 7 4 5 3 7 7 1 6 8 3 7 5 8 3 5 4 5 5 8 5 5 3 4 2 3 2 8 5 3 6 5 3 5 5 4 4 6 5 8 4 2 5 3 9 2 3 3 2 2 3 2 5 3 4 5 4 5 2 7 7 4 9 5 4 8 3 5 6 5 5 7 5 7 5 6 7 4 4 5 5 10 8 5 5 5 10 4 5 7 5 5 7 2 6 5 6 7 5 6 8 9 8 11 5 3 5 9 4 2 4 4 3 3 6 4 5 5 2 5 4 6 9 4 5 2 6 6 4 7 5 5 5 6 4 7 5 7 10 4 5 8 5 5 3 5 5 5 2 6 1 4 4 4 8 7 8 5 2 4 5 5 7 3 5 3 12 9 7 4 5 3 5 2 5 3 4 5 3 6 5 3 2 1 4 7 7 1 5 6 4 5 4 7 5 7 2 2 5 8 6 4 5 2 5 9 4 10 7 3 2 2 5 6 6 4 8 6 8 5 4 3 7 8 3 5 5 10 6 7 8 5 3 6 7 6 4 4 4 9 4 7 4 3 5 1 6 6 4 4 3 8 5 5 4 5 6 7 5 3 5 4 7 4 5 6 1 4 2 8 5 5 9 5 6 4 7 7 4 4 4 4 5 3 5 5 8 4 9 6 4 6 1 6 3 9 7 6 5 8 4 5 3 6 5 10 3 3 7 5 7 6 11 9 1 3 7 8 4 11 6 5 1 3 4 5 2 4 8 4 5 2 5 4 3 5 5 4 5 5 7 3 2 4 5 4 4 2 5 4 8 4 4 3 7 6 4 2 4 3 8 5 6 9 4 6 4 1 6 4 7 7 3 4 4 4 5 3 8 8 6 4 8 7 5 3 6 5 3 3 6 4 7 5 6 5 6 4 6 10 6 7 6 4 5 8 6 4 6 4 4 8 4 4 7 7 8 5 5 3 2 3 4 3 6 7 4 8 5 7 4 6 6 4 6 9 3 6 7 5 4 4 8 4 5 3 5 4 4 4 5 6 4 3 6 3 6 6 3 4 5 2 2 6 4 3 2 5 4 0 5 4 4 6 4 5 1 0 3 5 6 13 2 4 8 2 3 4 3 1 5 3 6 3 5 5 2 4 8 8 3 4 4 2 1 6 5 5 3 4 6 4 6 2 3 3 8 8 5 7 5 4 3 3 2 4 5 3 6 2 3 7 6 3 3 7 4 1 6 5 7 5 5 6 3 3 3 2 6 1 1 3 4 6 8 3 7 5 5 7 5 7 4 2 4 6 10 0 6 5 8 5 9 5 9 1 5 10 7 6 6 2 6 3 7 3 5 4 6 7 4 4 6 4 5 2 4 2 1 4 2 6 2 4 4 5 2 6 4 3 7 1 4 3 3 7 6 6 7 6 4 5 4 4 8 4 1 3 4 5 4 4 7 5 5 2 3 5 5 5 5 4 8 3 5 4 5 5 3 5 6 3 4 2 4 7 4 4 6 1 5 4 3 3 7 4 6 4 4 4 6 3 8 2 6 3 5 5 8 4 5 3 2 3 3 1 5 2 9 1 6 2 8 3 2 3 5 3 5 2 1 3 8 2 5 4 4 3 7 4 2 4 6 5 6 6 3 4 7 2 5 8 3 1 1 5 9 1 5 7 6 4 4 5 5 9 7 6 7 4 1 5 3 4 6 5 8 8 9 4 4 2 7 3 7 5 5 6 8 5 6 6 9 6 4 3 6 6 5 5 5 3 8 2 7 5 9 6 3 5 8 3 5 5 4 2 3 7 7 3 6 3 6 2 4 8 6 4 4 2 3 7 6 0 3 6 9 3 4 6 8 7 7 4 9 6 5 3 8 6 5 5 2 3 11 5 3 7 4 4 14 4 5 3 7 3 6 3 5 8 5 
BTB PER SET COUNT: 3 1814 135 626 126 144 297 182 2 1018 730 427 3 1476 1012 148 259 210 3 2 217 652 641 331 440 1142 131 170 409 475 387 143 258 775 471 180 813 248 167 1252 12 1663 3 10 776 656 12 82 269 789 597 5 775 3 2 397 586 1164 663 132 1245 666 162 15 13 3 106 192 4 570 1296 122 237 1117 10 994 4 394 906 222 892 234 166 514 459 3 565 2 582 1501 400 656 654 518 5 1 185 3 135 471 379 247 104 6 7 4 133 233 603 368 84 2 2 1164 3 8 356 13 287 1809 404 235 1616 3 325 891 4 349 880 2 2 163 3 148 223 432 195 2 386 563 8 908 1070 460 2 357 6 18 32 624 185 489 2 730 2 418 280 984 395 186 2 112 5 514 807 36 1 5 248 241 229 394 221 134 307 84 2 356 5 370 86 156 101 448 216 118 46 11 4 76 28 3 678 244 1 374 100 676 797 5 235 138 79 155 1 421 3 480 265 7 4 7 357 561 257 244 742 351 4 246 3 391 266 763 286 1124 306 41 378 1047 469 148 5 4403 6 192 6 175 259 772 458 178 312 167 211 166 23 15 9 239 117 815 7 190 456 39 1720 237 375 1 443 142 303 318 11 415 5 510 468 65 205 329 11 189 387 213 151 246 147 591 651 2 342 475 3 130 1174 236 393 30 6 3 1124 408 526 152 6 3 302 6 937 206 1471 364 3 3 98 62 44 8 153 5 300 181 8 154 52 256 144 4 480 307 205 189 1037 171 337 163 2 425 6 717 188 464 254 161 790 230 193 407 2 345 282 6 754 217 214 553 2 151 424 31 48 2 502 5 395 598 423 9 1289 413 4 720 143 2604 489 948 4 351 846 588 1239 15 217 233 721 222 166 1 141 994 11 952 785 6 2 263 5 58 240 2 3 114 156 7 423 2 265 136 969 362 238 4 324 828 2240 350 84 10 4 84 1 206 742 13 408 380 210 109 551 0 4 245 34 468 552 474 814 117 895 64 3 181 212 1 4 2 2 3 968 263 3 2 769 0 2445 28 307 182 1125 841 294 201 91 2 350 2 711 264 950 11 19 933 1 602 209 29 2 382 156 1023 2 390 970 227 155 4 3 655 56 330 327 414 73 4 142 391 534 422 568 531 151 218 143 975 458 193 78 378 3 82 3 265 94 555 128 129 2 4 939 2 923 1100 9 82 603 1042 479 352 247 184 984 3 125 1325 1 3 234 5 1448 544 3 5 3 148 795 624 5 124 136 390 899 1188 272 1425 886 995 273 175 3 1803 985 6 250 45 1045 1 5 73 465 7826 393 388 120 3 1488 33 1847 206 211 223 1 1083 2 673 646 2 137 5 1 313 3 421 3 119 214 2 5 1653 11 366 383 1007 226 829 698 488 3 64 329 32 212 2 20 1107 1241 1 42 117 4 4 990 526 1 95 980 376 11375 609 214 92 133 4 263 305 230 7 134 6 614 1166 95 457 573 634 3 445 163 1632 2 216 431 6 5 381 213 274 4 394 406 8 202 1135 7 149 348 119 2 11 245 8 10 8 523 879 3 1272 281 942 482 436 229 7 557 39 163 1046 137 700 491 211 38 1068 357 436 253 1474 67 6 376 2 173 388 5 982 6 964 9 840 202 681 6 3 761 7 2 183 537 632 5 2 244 345 55 643 247 182 3 3 386 348 875 493 518 414 880 389 379 382 328 346 412 124 16 2 7 190 2 2013 148 906 278 168 180 12 40 231 4 676 2218 3 346 188 25 421 623 1 3 799 158 18 76 223 279 114 260 3355 365 3 58 265 2 82 571 313 6 724 14 146 479 3 3 195 881 413 546 666 294 810 307 325 334 257 471 558 142 243 441 87 106 5 431 444 22 3 5 3 5 163 497 2 0 318 212 241 1188 395 274 5 474 322 4 110 176 984 441 669 1521 414 579 200 110 592 5 118 951 4 2 117 10 1511 363 5 360 28 173 850 116 1043 5 297 5 244 475 65 641 336 166 3 1 334 7 443 673 11 243 195 605 4 538 292 160 6 3 3 1178 702 1 354 362 882 258 4 3 547 197 1020 0 0 1427 2 119 1 8 391 384 690 690 158 257 112 473 917 3 258 7 47 232 949 315 218 282 293 451 617 11 10 941 471 1341 1 273 180 2 2 1456 293 170 176 4 442 1284 306 205 184 3 978 1 449 543 174 6 2 705 52 3 2 511 2 657 1110 3 2 2161 380 1017 3 1794 199 225 256 202 219 225 5 687 210 2 178 106 1 3 411 3 4 77 1070 141 97 276 12 524 10 498 3 3 975 210 3 3 536 139 868 215 6 94 1469 2 3 21 31 210 1282 3 7 428 1948 1000 459 4 458 300 340 85 29 115 1157 6 101 367 468 196 42 388 347 633 775 3 106 317 2 396 405 76 452 313 124 1465 4 39 41 5 204 605 497 729 23 37 6 409 426 175 135 2 155 599 1514 180 2 3 324 121 585 417 158 707 355 214 329 1 441 2 600 576 4 6 84 130 7 1003 2 136 247 529 372 5 113 2 334 779 860 402 61 284 537 114 3 83 3 158 874 333 1410 375 529 36 73 3 1 121 526 532 348 340 3 87 238 6 10 172 6 374 86 2 469 242 32 9 3 45 209 182 3 71 185 3 438 5 270 537 15545 341 252 147 49 2 401 8 6 3 137 1 163 176 551 9 589 1096 35 4 2 123 395 3 4 342 95 8 443 998 7 382 5 238 593 6 21 4 8 322 1 893 84 5 5 97 269 343 477 843 258 215 1 1382 478 858 398 559 197 254 102 9 6 535 411 925 2 198 376 753 4 566 1842 1 276 563 4 262 303 296 8 344 4 284 106 372 119 11 74 285 5 89 2 671 203 5 360 170 3 102 538 4 15 11 159 763 4 174 258 353 84 2 190 36 2 2 3 2 166 3 177 276 4 300 2 236 109 242 799 200 4 495 3 218 456 115 167 522 6 243 5 9 379 4 955 230 661 2142 430 154 416 6 968 206 490 598 158 394 499 4 72 9 415 620 399 381 620 795 331 438 311 3 156 451 7 2 4 254 3 3 330 4 312 135 2 115 1472 153 1710 149 128 3 622 318 4 108 442 164 416 191 4 238 166 608 558 79 305 1479 444 585 3 8 331 91 2 363 1 4 4 363 539 749 268 16 2 167 5 48 622 3 145 170 1267 690 173 279 76 3 500 2 476 3 4 304 185 364 265 6 225 1 13 448 26 1 7 527 13 15 176 696 229 161 2 2 188 914 481 9 441 2 252 953 63 635 1085 3 2 3 538 744 243 93 99 138 519 360 4 92 2613 1709 7 242 3202 657 776 524 37 196 4 191 464 146 129 119 43 791 67 347 11 3 309 1 594 336 7 7 314 405 44 253 4 12 13 764 116 14 7 4 962 144 389 551 1 4 2 428 224 384 1435 196 662 979 539 349 242 25 156 4 357 5 115 180 383 265 1041 620 162 215 2 1082 976 694 377 375 5 1114 498 175 3 355 432 1353 3 3 1153 6 250 675 1420 1152 1 3 1354 609 407 1113 245 983 1 109 7 642 2 152 388 4 259 2 657 76 3 164 17 6 320 211 669 74 2 515 124 155 14 2 12 112 639 135 552 471 830 463 282 2 195 2937 769 236 229 939 5 138 221 1 307 4 996 10 1465 551 16 26 201 3 800 968 12 119 278 136 199 3 461 672 12 3 688 81 143 141 397 277 470 235 439 803 21 1152 30 229 289 665 135 110 13 4 231 432 4 5 293 480 677 384 175 209 2 3 4 93 90 389 6 385 231 790 4 667 191 92 401 464 323 561 337 451 299 4 608 4 281 186 188 11 132 269 193 734 633 172 184 4 51 501 4 633 255 2 91 170 106 7 12 444 190 0 358 4 333 167 5 239 1 0 124 5 240 1642 12 71 1306 2 6 398 3 1 170 723 264 171 146 61 2 11 841 246 3 4 5 2 1 667 121 140 251 4 358 131 226 7 3 6 699 495 161 310 284 27 240 4 2 115 209 3 492 2 5 356 257 195 3 454 4 1 538 167 480 148 366 433 4 3 87 11 446 2 1 3 297 334 859 3 1136 163 370 320 248 1015 416 2 4 377 749 0 236 220 174 334 1735 289 374 1 467 1807 223 85 138 2 1069 3 579 3 204 248 22 82 5 103 508 4 316 62 4 5 1 4 2 704 2 333 386 42 2 334 7 6 23 1 394 109 327 308 564 720 432 245 56 518 4 195 736 4 1 52 4 230 698 71 598 464 411 2 276 167 1418 721 255 5 830 3 9 61 242 605 5 327 7 169 315 2 5 499 267 4 265 1 525 5719 335 136 808 160 806 317 4 259 1019 209 983 420 305 273 8 214 100 17 5 3 2 10 3 1 1596 11 451 1 105 262 149 3 205 345 40 4 253 2 1 3 696 2 58 1455 681 3 280 154 2 198 945 29 132 666 3 428 792 2 807 315 74 2 2 261 774 2 180 347 382 4 189 467 285 551 289 679 539 4 1 42 166 216 744 207 298 1132 420 32 110 2 676 93 359 167 346 229 1237 485 638 704 461 912 964 87 564 3026 681 6 224 130 444 2 866 378 1058 54 224 354 911 432 438 486 5 2 4 882 1304 5 775 49 311 2 112 699 503 101 160 1350 264 128 401 0 3 201 381 3 255 196 887 785 596 161 883 411 459 3 521 1851 15 1453 2 5 1748 1319 12 229 298 116 1718 192 259 3 666 211 9 132 254 590 14 
To predecode: 0
Predecoding something: 0
Predecode request dropped: 0
sizeofblock_0 0
sizeofblock_1 213587
sizeofblock_2 212248
sizeofblock_3 0
sizeofblock_4 0
sizeofblock_5 0
sizeofblock_6 0
sizeofblock_7 0
sizeofblock_8 0
Variant_0 Correct: 1391054 Incorrect: 0 Accuracy: 1
Variant_1 Correct: 5437969 Incorrect: 0 Accuracy: 1
Variant_2 Correct: 0 Incorrect: 0 Accuracy: -nan
Variant_3 Correct: 0 Incorrect: 0 Accuracy: -nan
