
*** ChampSim Multicore Out-of-Order Simulator ***

Warmup Instructions: 50000000
Simulation Instructions: 50000000
Number of CPUs: 1
LLC sets: 2048
LLC ways: 16
Off-chip DRAM Size: 4096 MB Channels: 1 Width: 64-bit Data Rate: 6400 MT/s
CPU 0 runs ./micro_traces/srv307.trace.gz
.gz
ITLB has LRU replacement policy
DTLB has LRU replacement policy
STLB has LRU replacement policy
FDIP Prefetcher at L1I
L1I has LRU replacement policy
L1D has LRU replacement policy
Initialize SRRIP state for L2C
Initialize DRRIP state for LLC
Heartbeat CPU 0 instructions: 10000002 cycles: 2797445 heartbeat IPC: 3.57469 cumulative IPC: 3.57469 (Simulation time: 0 hr 1 min 36 sec) 
Heartbeat CPU 0 instructions: 20000003 cycles: 5593836 heartbeat IPC: 3.57604 cumulative IPC: 3.57536 (Simulation time: 0 hr 3 min 11 sec) 
Heartbeat CPU 0 instructions: 30000003 cycles: 8391893 heartbeat IPC: 3.57391 cumulative IPC: 3.57488 (Simulation time: 0 hr 4 min 45 sec) 
Heartbeat CPU 0 instructions: 40000003 cycles: 11188932 heartbeat IPC: 3.57521 cumulative IPC: 3.57496 (Simulation time: 0 hr 6 min 19 sec) 
Heartbeat CPU 0 instructions: 50000002 cycles: 13985855 heartbeat IPC: 3.57536 cumulative IPC: 3.57504 (Simulation time: 0 hr 7 min 53 sec) 

Warmup complete CPU 0 instructions: 50000002 cycles: 13985855 (Simulation time: 0 hr 7 min 53 sec) 

Cycle: 20000000 FTQ IN: 57839068 FTQ occupancy: 19.2407 DECODE IN: 57839007 DECODE occupancy: 49.7469 ROB IN: 57838947 ROB occupancy: 302.268 ROB OUT: 57838918
Heartbeat CPU 0 instructions: 60000002 cycles: 21625878 heartbeat IPC: 1.3089 cumulative IPC: 1.3089 (Simulation time: 0 hr 9 min 31 sec) 
Heartbeat CPU 0 instructions: 70000002 cycles: 29157460 heartbeat IPC: 1.32774 cumulative IPC: 1.31825 (Simulation time: 0 hr 11 min 8 sec) 
Cycle: 30000000 FTQ IN: 13287806 FTQ occupancy: 10.2735 DECODE IN: 13287847 DECODE occupancy: 25.6031 ROB IN: 13287907 ROB occupancy: 195.806 ROB OUT: 13287837
Heartbeat CPU 0 instructions: 80000000 cycles: 36767861 heartbeat IPC: 1.31399 cumulative IPC: 1.31683 (Simulation time: 0 hr 12 min 43 sec) 
Cycle: 40000000 FTQ IN: 12958487 FTQ occupancy: 10.3547 DECODE IN: 12958439 DECODE occupancy: 25.3479 ROB IN: 12958379 ROB occupancy: 191.554 ROB OUT: 12958264
Heartbeat CPU 0 instructions: 90000003 cycles: 44456284 heartbeat IPC: 1.30066 cumulative IPC: 1.31275 (Simulation time: 0 hr 14 min 18 sec) 
Cycle: 50000000 FTQ IN: 13302069 FTQ occupancy: 10.3113 DECODE IN: 13302110 DECODE occupancy: 25.5676 ROB IN: 13302168 ROB occupancy: 194.671 ROB OUT: 13302266
*** Reached end of trace for Core: 0 Repeating trace: ./micro_traces/srv307.trace.gz
Heartbeat CPU 0 instructions: 100000000 cycles: 51962088 heartbeat IPC: 1.3323 cumulative IPC: 1.31661 (Simulation time: 0 hr 15 min 51 sec) 
Finished CPU 0 instructions: 50000001 cycles: 37976234 cumulative IPC: 1.31661 (Simulation time: 0 hr 15 min 51 sec) 

ChampSim completed all CPUs

Region of Interest Statistics

CPU 0 cumulative IPC: 1.31661 instructions: 50000001 cycles: 37976234
 Fetch stage stalled: 61.1008  Sim cycles: 37976234 fetch stall cycle: 23203796
 Empty decode stage: 44.698  Sim cycles: 37976234 fetch stall cycle: 16974614
ITLB TOTAL     ACCESS:    5796367  HIT:    5304466  MISS:     491901  HIT %:    91.5136  MISS %:    8.48637   MPKI: 9.83802
ITLB LOAD TRANSLATION INSTRUCTION	ACCESS:    5669936  HIT:    5178035  MISS:     491901  HIT %:    91.3244  MISS %:     8.6756  MPKI: 9.83802
ITLB TRANSLATION FROM L1D PREFETCHER INSTRUCTION	ACCESS:     126431  HIT:     126431  MISS:          0  HIT %:        100  MISS %:          0  MPKI: 0

ITLB AVERAGE MISS LATENCY: 9.0604 cycles
ITLB RQ	ACCESS:    7878210	FORWARD:          0	MERGED:    1631295	TO_CACHE:    6246915

DTLB TOTAL     ACCESS:    9058293  HIT:    8588461  MISS:     469832  HIT %:    94.8132  MISS %:    5.18676   MPKI: 9.39664
DTLB LOAD TRANSLATION DATA	ACCESS:    9058293  HIT:    8588461  MISS:     469832  HIT %:    94.8132  MISS %:    5.18676  MPKI: 9.39664

DTLB AVERAGE MISS LATENCY: 9.35127 cycles
DTLB RQ	ACCESS:   13406097	FORWARD:          0	MERGED:    4311438	TO_CACHE:    9094659

STLB TOTAL     ACCESS:    1213056  HIT:    1210966  MISS:       2090  HIT %:    99.8277  MISS %:   0.172292   MPKI: 0.0418
STLB LOAD TRANSLATION INSTRUCTION	ACCESS:     491900  HIT:     491632  MISS:        268  HIT %:    99.9455  MISS %:  0.0544826  MPKI: 0.00536
STLB LOAD TRANSLATION DATA	ACCESS:     469628  HIT:     467830  MISS:       1798  HIT %:    99.6171  MISS %:   0.382856  MPKI: 0.03596
STLB TRANSLATION FROM L1D PREFETCHER DATA	ACCESS:     251528  HIT:     251504  MISS:         24  HIT %:    99.9905  MISS %: 0.00954168  MPKI: 0.00048

STLB AVERAGE MISS LATENCY: 79.0306 cycles
STLB RQ	ACCESS:    1333767	FORWARD:          0	MERGED:     120668	TO_CACHE:    1213099

STLB Hit, L1D data hit: 0
STLB Hit, L2C data hit: 0
STLB Hit, LLC data hit: 0
STLB Hit, LLC data miss: 0
STLB STLB hints to L2: 0
L1D TOTAL     ACCESS:   13158787  HIT:   12045599  MISS:    1113188  HIT %:    91.5403  MISS %:    8.45966   MPKI: 22.2638
L1D LOAD DATA	ACCESS:    6619834  HIT:    5886512  MISS:     733322  HIT %:    88.9224  MISS %:    11.0776  MPKI: 14.6664
L1D RFO DATA	ACCESS:    6208112  HIT:    5922418  MISS:     285694  HIT %:    95.3981  MISS %:    4.60195  MPKI: 5.71388
L1D PREFETCH DATA	ACCESS:     330841  HIT:     236669  MISS:      94172  HIT %:    71.5356  MISS %:    28.4644  MPKI: 1.88344

L1D PREFETCH  REQUESTED:     744439  ISSUED:     744439  USEFUL:      33921  USELESS:      68067
L1D USEFUL LOAD PREFETCHES:      33921 PREFETCH ISSUED TO LOWER LEVEL:     102085  ACCURACY: 33.2282
 TIMELY PREFETCHES:      33921 LATE PREFETCHES: 7844 DROPPED PREFETCHES: 10
L1D AVERAGE MISS LATENCY: 227643 cycles
L1D RQ	ACCESS:   10739405	FORWARD:          0	MERGED:    3924227	TO_CACHE:    6655557
L1D WQ	ACCESS:    6943592	FORWARD:     159992	MERGED:     193052	TO_CACHE:    6750540
L1D PQ	ACCESS:     372405	FORWARD:          0	MERGED:          0	TO_CACHE:     372034

L1D UNIQUE REGIONS ACCESSED: 0
L1D REGIONS CONFLICTS: 0
L1D Cross Page Prefetch Requests: 6934
L1D Same Page Prefetch Requests: 753337
L1D ROI Sum of L1D PQ occupancy: 4733071
L1D PREFETCHES PUSHED FROM L2C: 0
L1I TOTAL     ACCESS:    7107198  HIT:    4352600  MISS:    2754598  HIT %:    61.2421  MISS %:    38.7579   MPKI: 55.092
L1I LOAD INSTRUCTION	ACCESS:    6467646  HIT:    3713048  MISS:    2754598  HIT %:    57.4096  MISS %:    42.5904  MPKI: 55.092
L1I PREFETCH INSTRUCTION	ACCESS:     639552  HIT:     639552  MISS:          0  HIT %:        100  MISS %:          0  MPKI: 0

L1I PREFETCH  REQUESTED:    1508197  ISSUED:    1508197  USEFUL:          0  USELESS:          0
L1I USEFUL LOAD PREFETCHES:          0 PREFETCH ISSUED TO LOWER LEVEL:          0  ACCURACY: -nan
 TIMELY PREFETCHES:          0 LATE PREFETCHES: 0 DROPPED PREFETCHES: 0
L1I AVERAGE MISS LATENCY: 17.2948 cycles
L1I RQ	ACCESS:    9483652	FORWARD:          0	MERGED:    2700756	TO_CACHE:    6782896
L1I PQ	ACCESS:    1508197	FORWARD:          0	MERGED:     412883	TO_CACHE:    1095314

L1BTB TOTAL     ACCESS:    5670183  HIT:    2051551  MISS:    3618632  HIT %:    36.1814  MISS %:    63.8186   MPKI: 72.3726
L1BTB BRANCH_DIRECT_JUMP	ACCESS:     548687  HIT:     145651  MISS:     403036	AVERAGE STALL: 39.0627
L1BTB BRANCH_INDIRECT	ACCESS:     183413  HIT:      66312  MISS:     117101	AVERAGE STALL: 124.767
L1BTB BRANCH_CONDITIONAL	ACCESS:    2714090  HIT:    1424824  MISS:    1289266	AVERAGE STALL: 52.3411
L1BTB BRANCH_DIRECT_CALL	ACCESS:     941312  HIT:     104658  MISS:     836654	AVERAGE STALL: 50.8934
L1BTB BRANCH_INDIRECT_CALL	ACCESS:     170683  HIT:      20677  MISS:     150006	AVERAGE STALL: 144.728
L1BTB BRANCH_RETURN	ACCESS:    1111998  HIT:     289429  MISS:     822569	AVERAGE STALL: 46.4687
L1BTB BRANCH_OTHER ACCESS:          0  HIT:          0  MISS:          0	AVERAGE STALL: -nan
L1BTB TOTAL ROB OCCUPANCY AT BTB MISS: 5.05626

L2BTB1 TOTAL     ACCESS:    3593135  HIT:    3468718  MISS:     124417  HIT %:    96.5374  MISS %:    3.46263   MPKI: 2.48834
L2BTB1 BRANCH_DIRECT_JUMP	ACCESS:     398812  HIT:     390384  MISS:       8428	AVERAGE STALL: 39.0627
L2BTB1 BRANCH_INDIRECT	ACCESS:     106822  HIT:      95905  MISS:      10917	AVERAGE STALL: 124.767
L2BTB1 BRANCH_CONDITIONAL	ACCESS:    1289266  HIT:    1273888  MISS:      15378	AVERAGE STALL: 52.3411
L2BTB1 BRANCH_DIRECT_CALL	ACCESS:     836654  HIT:     813560  MISS:      23094	AVERAGE STALL: 50.8934
L2BTB1 BRANCH_INDIRECT_CALL	ACCESS:     140406  HIT:     126991  MISS:      13415	AVERAGE STALL: 144.728
L2BTB1 BRANCH_RETURN	ACCESS:     821175  HIT:     767990  MISS:      53185	AVERAGE STALL: 46.4687
L2BTB1 BRANCH_OTHER ACCESS:          0  HIT:          0  MISS:          0	AVERAGE STALL: -nan
L2BTB1 TOTAL ROB OCCUPANCY AT BTB MISS: 147.06

L2C TOTAL     ACCESS:    4486457  HIT:    3972943  MISS:     513514  HIT %:    88.5541  MISS %:    11.4459   MPKI: 10.2703
L2C LOAD INSTRUCTION	ACCESS:    2754599  HIT:    2489479  MISS:     265120  HIT %:    90.3754  MISS %:    9.62463  MPKI: 5.3024
L2C LOAD TRANSLATION INSTRUCTION	ACCESS:        306  HIT:         65  MISS:        241  HIT %:    21.2418  MISS %:    78.7582  MPKI: 0.00482
L2C LOAD DATA	ACCESS:     725406  HIT:     634743  MISS:      90663  HIT %:    87.5018  MISS %:    12.4982  MPKI: 1.81326
L2C RFO DATA	ACCESS:     285589  HIT:     228117  MISS:      57472  HIT %:     79.876  MISS %:     20.124  MPKI: 1.14944
L2C PREFETCH DATA	ACCESS:     198662  HIT:     118905  MISS:      79757  HIT %:    59.8529  MISS %:    40.1471  MPKI: 1.59514
L2C WRITEBACK DATA	ACCESS:     519978  HIT:     501091  MISS:      18887  HIT %:    96.3677  MISS %:    3.63227  MPKI: 0.37774
L2C LOAD TRANSLATION DATA	ACCESS:       1864  HIT:        509  MISS:       1355  HIT %:    27.3069  MISS %:    72.6931  MPKI: 0.0271
L2C TRANSLATION FROM L1D PREFETCHER DATA	ACCESS:         53  HIT:         34  MISS:         19  HIT %:    64.1509  MISS %:    35.8491  MPKI: 0.00038

L2C PREFETCH  REQUESTED:     105346  ISSUED:     105346  USEFUL:       9319  USELESS:      71210
L2C USEFUL LOAD PREFETCHES:       9319 PREFETCH ISSUED TO LOWER LEVEL:      80375  ACCURACY: 11.5944
 TIMELY PREFETCHES:       9319 LATE PREFETCHES: 618 DROPPED PREFETCHES: 0
L2C AVERAGE MISS LATENCY: 37.97 cycles
L2C RQ	ACCESS:    3767930	FORWARD:          0	MERGED:          0	TO_CACHE:    3767822
L2C WQ	ACCESS:     519978	FORWARD:        108	MERGED:          0	TO_CACHE:     519978
L2C PQ	ACCESS:     207431	FORWARD:          0	MERGED:       3585	TO_CACHE:     203846

L2C Dense regions hint from L2: 0
PSCL5 TOTAL     ACCESS:       4206  HIT:       2103  MISS:       2103  HIT %:         50  MISS %:         50   MPKI: 0.04206
PSCL5 LOAD TRANSLATION INSTRUCTION	ACCESS:       4102  HIT:       2051  MISS:       2051  HIT %:         50  MISS %:         50  MPKI: 0.04102
PSCL5 TRANSLATION FROM L1D PREFETCHER INSTRUCTION	ACCESS:        104  HIT:         52  MISS:         52  HIT %:         50  MISS %:         50  MPKI: 0.00104


PSCL4 TOTAL     ACCESS:       3973  HIT:       1982  MISS:       1991  HIT %:    49.8867  MISS %:    50.1133   MPKI: 0.03982
PSCL4 LOAD TRANSLATION INSTRUCTION	ACCESS:       3558  HIT:       1936  MISS:       1622  HIT %:    54.4126  MISS %:    45.5874  MPKI: 0.03244
PSCL4 TRANSLATION FROM L1D PREFETCHER INSTRUCTION	ACCESS:         91  HIT:         46  MISS:         45  HIT %:    50.5495  MISS %:    49.4505  MPKI: 0.0009
PSCL4 LOAD TRANSLATION DATA	ACCESS:        323  HIT:          0  MISS:        323  HIT %:          0  MISS %:        100  MPKI: 0.00646
PSCL4 TRANSLATION FROM L1D PREFETCHER DATA	ACCESS:          1  HIT:          0  MISS:          1  HIT %:          0  MISS %:        100  MPKI: 2e-05


PSCL3 TOTAL     ACCESS:       4035  HIT:       2013  MISS:       2022  HIT %:    49.8885  MISS %:    50.1115   MPKI: 0.04044
PSCL3 LOAD TRANSLATION INSTRUCTION	ACCESS:       3589  HIT:       1967  MISS:       1622  HIT %:    54.8064  MISS %:    45.1936  MPKI: 0.03244
PSCL3 TRANSLATION FROM L1D PREFETCHER INSTRUCTION	ACCESS:         91  HIT:         46  MISS:         45  HIT %:    50.5495  MISS %:    49.4505  MPKI: 0.0009
PSCL3 LOAD TRANSLATION DATA	ACCESS:        354  HIT:          0  MISS:        354  HIT %:          0  MISS %:        100  MPKI: 0.00708
PSCL3 TRANSLATION FROM L1D PREFETCHER DATA	ACCESS:          1  HIT:          0  MISS:          1  HIT %:          0  MISS %:        100  MPKI: 2e-05


PSCL2 TOTAL     ACCESS:       4096  HIT:       1995  MISS:       2101  HIT %:    48.7061  MISS %:    51.2939   MPKI: 0.04202
PSCL2 LOAD TRANSLATION INSTRUCTION	ACCESS:       2221  HIT:       1944  MISS:        277  HIT %:    87.5281  MISS %:    12.4719  MPKI: 0.00554
PSCL2 TRANSLATION FROM L1D PREFETCHER INSTRUCTION	ACCESS:         51  HIT:         51  MISS:          0  HIT %:        100  MISS %:          0  MPKI: 0
PSCL2 LOAD TRANSLATION DATA	ACCESS:       1773  HIT:          0  MISS:       1773  HIT %:          0  MISS %:        100  MPKI: 0.03546
PSCL2 TRANSLATION FROM L1D PREFETCHER DATA	ACCESS:         51  HIT:          0  MISS:         51  HIT %:          0  MISS %:        100  MPKI: 0.00102


LLC TOTAL     ACCESS:     579863  HIT:     550330  MISS:      29533  HIT %:    94.9069  MISS %:     5.0931   MPKI: 0.59066
LLC LOAD INSTRUCTION	ACCESS:     265120  HIT:     263821  MISS:       1299  HIT %:      99.51  MISS %:   0.489967  MPKI: 0.02598
LLC LOAD TRANSLATION INSTRUCTION	ACCESS:        241  HIT:        200  MISS:         41  HIT %:    82.9876  MISS %:    17.0124  MPKI: 0.00082
LLC LOAD DATA	ACCESS:      90077  HIT:      86394  MISS:       3683  HIT %:    95.9113  MISS %:    4.08872  MPKI: 0.07366
LLC RFO DATA	ACCESS:      57433  HIT:      43303  MISS:      14130  HIT %:    75.3974  MISS %:    24.6026  MPKI: 0.2826
LLC PREFETCH DATA	ACCESS:      80375  HIT:      70460  MISS:       9915  HIT %:    87.6641  MISS %:    12.3359  MPKI: 0.1983
LLC WRITEBACK DATA	ACCESS:      85243  HIT:      84893  MISS:        350  HIT %:    99.5894  MISS %:   0.410591  MPKI: 0.007
LLC LOAD TRANSLATION DATA	ACCESS:       1355  HIT:       1243  MISS:        112  HIT %:    91.7343  MISS %:    8.26568  MPKI: 0.00224
LLC TRANSLATION FROM L1D PREFETCHER DATA	ACCESS:         19  HIT:         16  MISS:          3  HIT %:    84.2105  MISS %:    15.7895  MPKI: 6e-05

LLC AVERAGE MISS LATENCY: 156.461 cycles
LLC RQ	ACCESS:     414253	FORWARD:          0	MERGED:          0	TO_CACHE:     414246
LLC WQ	ACCESS:      85243	FORWARD:          7	MERGED:          0	TO_CACHE:      85243
LLC PQ	ACCESS:      80375	FORWARD:          0	MERGED:          0	TO_CACHE:      80375

LLC Dense regions hint to LLC: 0

RAW hits: 1898002
Loads Generated: 12637409
Loads sent to L1D: 10739405
Stores Generated: 6943578
Stores sent to L1D: 6943592
Major fault: 0 Minor fault: 2597
Allocated PAGES: 2597

stream: 
stream:times selected: 1191893
stream:pref_filled: 121672
stream:pref_useful: 24191
stream:pref_late: 6838
stream:misses: 7967
stream:misses_by_poll: 0

CS: 
CS:times selected: 179951
CS:pref_filled: 58491
CS:pref_useful: 35336
CS:pref_late: 6892
CS:misses: 16211
CS:misses_by_poll: 0

CPLX: 
CPLX:times selected: 1010776
CPLX:pref_filled: 19612
CPLX:pref_useful: 4693
CPLX:pref_late: 3022
CPLX:misses: 93098
CPLX:misses_by_poll: 1

NL_L1: 
NL:times selected: 20787
NL:pref_filled: 711
NL:pref_useful: 321
NL:pref_late: 290
NL:misses: 1808
NL:misses_by_poll: 0

total selections: 2403407
total_filled: 94172
total_useful: 33921
total_late: 18349
total_polluted: 1
total_misses_after_warmup: 769049
conflicts: 5548616

test: 116691

DRAM Statistics
 CHANNEL 0
 RQ ROW_BUFFER_HIT:      10680  ROW_BUFFER_MISS:      18498
 DBUS_CONGESTED:         10
 WQ ROW_BUFFER_HIT:       1580  ROW_BUFFER_MISS:      12536  FULL:          0

 AVG_CONGESTED_CYCLE: 5

CPU 0 Branch Prediction Accuracy: 99.8062% MPKI: 0.3542 Average ROB Occupancy at Mispredict: 162.236
Branch types
NOT_BRANCH: 40859587 81.7192%
BRANCH_DIRECT_JUMP: 548687 1.09737%
BRANCH_INDIRECT: 183413 0.366826%
BRANCH_CONDITIONAL: 6184311 12.3686%
BRANCH_DIRECT_CALL: 941312 1.88262%
BRANCH_INDIRECT_CALL: 170683 0.341366%
BRANCH_RETURN: 1111998 2.224%
BRANCH_OTHER: 0 0%

DRAM PAGES: 1048576
Allocated PAGES: 2597
Average_ROB_Occupancy: 195.281
Average_Decode_Occupancy: 25.5329
Average_FTQ_Occupancy: 10.3338
Indirect max targets: 14 Average targets: 1.17949
Branch_type:  BRANCH_DIRECT_JUMP:  Count Percentage: 2.13511 6.66011 4.42913 9.17952 2.14341 11.106 1.30623 63.0405 
Branch_type:  BRANCH_INDIRECT:  Count Percentage: 11.7665 3.41891 2.57045 0 1.33488 25.0078 2.26981 53.6317 
Branch_type:  BRANCH_CONDITIONAL:  Count Percentage: 23.7814 3.96613 1.66544 5.35678 1.33255 8.30763 0.679899 54.9101 
Branch_type:  BRANCH_DIRECT_CALL:  Count Percentage: 0.260656 1.74958 1.29739 4.76305 1.86053 2.83297 0.860961 86.3749 
Branch_type:  BRANCH_INDIRECT_CALL:  Count Percentage: 9.56943 0 2.99878 8.7333 0 2.55105 1.29145 74.856 
Branch_type:  BRANCH_RETURN:  Count Percentage: 4.1121 4.94812 1.17108 6.181 3.19112 9.15942 1.70725 69.5299 
Branch_type:  BRANCH_DIRECT_JUMP:  Total Count: 23407 73014 48556 100634 23498 121754 14320 691105 
Branch_type:  BRANCH_INDIRECT:  Total Count: 43130 12532 9422 0 4893 91666 8320 196587 
Branch_type:  BRANCH_CONDITIONAL:  Total Count: 2939750 490275 205874 662181 164724 1026951 84046 6787738 
Branch_type:  BRANCH_DIRECT_CALL:  Total Count: 4910 32957 24439 89722 35047 53365 16218 1627052 
Branch_type:  BRANCH_INDIRECT_CALL:  Total Count: 32744 0 10261 29883 0 8729 4419 256137 
Branch_type:  BRANCH_RETURN:  Total Count: 91566 110182 26077 137635 71058 203957 38016 1548254 
Number of unique branch instructions: 10693
Upper 32 bits: 
aaaa
ffff
ffff0000
Unique upper 32 bits: 3
Unique upper 36 bits: 3
Unique upper 40 bits: 5
Unique upper 44 bits: 32
Unique upper 48 bits: 157
Offset_3 4443
Offset_4 257
Offset_5 476
Offset_6 538
Offset_7 636
Offset_8 580
Offset_9 513
Offset_10 417
Offset_11 348
Offset_12 321
Offset_13 236
Offset_14 247
Offset_15 199
Offset_16 227
Offset_17 163
Offset_18 152
Offset_19 257
Offset_20 144
Offset_21 235
Offset_22 408
Offset_23 241
Offset_24 342
Offset_25 117
Offset_47 92
decode_dispatch_called: 22780765 59.9869
Dispatch_width: 0 11950187 52.4574 31.4675
Dispatch_width: 1 718032 3.15192 1.89074
Dispatch_width: 2 708996 3.11226 1.86695
Dispatch_width: 3 432288 1.8976 1.13831
Dispatch_width: 4 3518567 15.4453 9.26518
Dispatch_width: 5 223325 0.980323 0.588065
Dispatch_width: 6 5229370 22.9552 13.7701
Empty_decode_cycles: 15195469 40.0131
ROB_full_cycles: 5552333 14.6205
Starvation_cycles_per_kilo_instr: 271.945
Starvation_cycles_per_kilo_instr_3: 234.526
Starvation_cycles_per_kilo_instr_0: 215.933
Branch_type_1  (3,1)  (4,7)  (5,38)  (6,74)  (7,125)  (8,148)  (9,135)  (10,110)  (11,77)  (12,55)  (13,11)  (14,2)  (15,3)  (16,4)  (18,1)  (19,5)  (20,2)  (21,1)  (22,3)  (23,2)  (24,10)  (25,12) 
Branch_type_2  (3,1)  (4,1)  (5,1)  (8,4)  (9,4)  (10,1)  (12,1)  (13,1)  (14,1)  (16,3)  (17,2)  (20,2)  (21,2)  (23,5)  (24,1)  (47,41) 
Branch_type_3  (3,4441)  (4,249)  (5,433)  (6,447)  (7,480)  (8,362)  (9,281)  (10,167)  (11,135)  (12,62)  (13,10) 
Branch_type_4  (6,4)  (7,8)  (8,26)  (9,55)  (10,66)  (11,70)  (12,113)  (13,100)  (14,111)  (15,95)  (16,100)  (17,75)  (18,65)  (19,124)  (20,73)  (21,124)  (22,214)  (23,136)  (24,198)  (25,101) 
Branch_type_5  (8,3)  (9,1)  (10,4)  (11,5)  (12,3)  (13,14)  (14,16)  (15,11)  (16,22)  (17,11)  (18,23)  (19,14)  (20,11)  (21,13)  (22,43)  (23,26)  (24,37) 
Branch_type_6  (5,4)  (6,13)  (7,23)  (8,37)  (9,37)  (10,69)  (11,61)  (12,87)  (13,100)  (14,117)  (15,90)  (16,98)  (17,75)  (18,63)  (19,114)  (20,56)  (21,95)  (22,148)  (23,72)  (24,96)  (25,4)  (47,51) 
Unique trigger count: 
L2BTB1 1536 4
L2BTB2 1536 4
L2BTB3 1536 4
L2BTB4 224 4
