
*** ChampSim Multicore Out-of-Order Simulator ***

Warmup Instructions: 50000000
Simulation Instructions: 50000000
Number of CPUs: 1
LLC sets: 2048
LLC ways: 16
Off-chip DRAM Size: 4096 MB Channels: 1 Width: 64-bit Data Rate: 6400 MT/s
CPU 0 runs ./micro_traces/srv38.trace.gz
.gz
ITLB has LRU replacement policy
DTLB has LRU replacement policy
STLB has LRU replacement policy
FDIP Prefetcher at L1I
L1I has LRU replacement policy
L1D has LRU replacement policy
Initialize SRRIP state for L2C
Initialize DRRIP state for LLC
Heartbeat_Variant_0 : 1428 0.348633 per_variant_size: 0 1428 0 0 0 0 0 0 0 
Heartbeat_Variant_1 : 2582 0.630371 per_variant_size: 0 242 2340 0 0 0 0 0 0 
Heartbeat_Variant_2 : 0 0 per_variant_size: 0 0 0 0 0 0 0 0 0 
Heartbeat_Variant_3 : 0 0 per_variant_size: 0 0 0 0 0 0 0 0 0 
Heartbeat_Variant_0_evicts 0 : 5692 1 : 189 2 : 0 3 : 0 
Heartbeat_Variant_1_evicts 0 : 173 1 : 0 2 : 0 3 : 0 
Heartbeat_Variant_2_evicts 0 : 0 1 : 0 2 : 0 3 : 0 
Heartbeat_Variant_3_evicts 0 : 0 1 : 0 2 : 0 3 : 0 
Heartbeat CPU 0 instructions: 10000000 cycles: 2796176 heartbeat IPC: 3.57631 cumulative IPC: 3.57631 (Simulation time: 0 hr 1 min 41 sec) 
Heartbeat_Variant_0 : 1433 0.349854 per_variant_size: 0 1433 0 0 0 0 0 0 0 
Heartbeat_Variant_1 : 2623 0.640381 per_variant_size: 0 227 2396 0 0 0 0 0 0 
Heartbeat_Variant_2 : 0 0 per_variant_size: 0 0 0 0 0 0 0 0 0 
Heartbeat_Variant_3 : 0 0 per_variant_size: 0 0 0 0 0 0 0 0 0 
Heartbeat_Variant_0_evicts 0 : 5586 1 : 120 2 : 0 3 : 0 
Heartbeat_Variant_1_evicts 0 : 127 1 : 0 2 : 0 3 : 0 
Heartbeat_Variant_2_evicts 0 : 0 1 : 0 2 : 0 3 : 0 
Heartbeat_Variant_3_evicts 0 : 0 1 : 0 2 : 0 3 : 0 
Heartbeat CPU 0 instructions: 20000002 cycles: 5590054 heartbeat IPC: 3.57926 cumulative IPC: 3.57778 (Simulation time: 0 hr 3 min 20 sec) 
Heartbeat_Variant_0 : 1437 0.35083 per_variant_size: 0 1437 0 0 0 0 0 0 0 
Heartbeat_Variant_1 : 2639 0.644287 per_variant_size: 0 195 2444 0 0 0 0 0 0 
Heartbeat_Variant_2 : 0 0 per_variant_size: 0 0 0 0 0 0 0 0 0 
Heartbeat_Variant_3 : 0 0 per_variant_size: 0 0 0 0 0 0 0 0 0 
Heartbeat_Variant_0_evicts 0 : 5602 1 : 183 2 : 0 3 : 0 
Heartbeat_Variant_1_evicts 0 : 185 1 : 0 2 : 0 3 : 0 
Heartbeat_Variant_2_evicts 0 : 0 1 : 0 2 : 0 3 : 0 
Heartbeat_Variant_3_evicts 0 : 0 1 : 0 2 : 0 3 : 0 
Heartbeat CPU 0 instructions: 30000003 cycles: 8385585 heartbeat IPC: 3.57714 cumulative IPC: 3.57757 (Simulation time: 0 hr 5 min 2 sec) 
Heartbeat_Variant_0 : 1429 0.348877 per_variant_size: 0 1429 0 0 0 0 0 0 0 
Heartbeat_Variant_1 : 2655 0.648193 per_variant_size: 0 194 2461 0 0 0 0 0 0 
Heartbeat_Variant_2 : 0 0 per_variant_size: 0 0 0 0 0 0 0 0 0 
Heartbeat_Variant_3 : 0 0 per_variant_size: 0 0 0 0 0 0 0 0 0 
Heartbeat_Variant_0_evicts 0 : 5582 1 : 163 2 : 0 3 : 0 
Heartbeat_Variant_1_evicts 0 : 177 1 : 0 2 : 0 3 : 0 
Heartbeat_Variant_2_evicts 0 : 0 1 : 0 2 : 0 3 : 0 
Heartbeat_Variant_3_evicts 0 : 0 1 : 0 2 : 0 3 : 0 
Heartbeat CPU 0 instructions: 40000000 cycles: 11180557 heartbeat IPC: 3.57785 cumulative IPC: 3.57764 (Simulation time: 0 hr 6 min 42 sec) 
Heartbeat_Variant_0 : 1435 0.350342 per_variant_size: 0 1435 0 0 0 0 0 0 0 
Heartbeat_Variant_1 : 2656 0.648438 per_variant_size: 0 163 2493 0 0 0 0 0 0 
Heartbeat_Variant_2 : 0 0 per_variant_size: 0 0 0 0 0 0 0 0 0 
Heartbeat_Variant_3 : 0 0 per_variant_size: 0 0 0 0 0 0 0 0 0 
Heartbeat_Variant_0_evicts 0 : 5692 1 : 199 2 : 0 3 : 0 
Heartbeat_Variant_1_evicts 0 : 194 1 : 0 2 : 0 3 : 0 
Heartbeat_Variant_2_evicts 0 : 0 1 : 0 2 : 0 3 : 0 
Heartbeat_Variant_3_evicts 0 : 0 1 : 0 2 : 0 3 : 0 
Heartbeat CPU 0 instructions: 50000001 cycles: 13975342 heartbeat IPC: 3.57809 cumulative IPC: 3.57773 (Simulation time: 0 hr 8 min 22 sec) 

Warmup complete CPU 0 instructions: 50000001 cycles: 13975342 (Simulation time: 0 hr 8 min 22 sec) 

*** Reached end of trace for Core: 0 Repeating trace: ./micro_traces/srv38.trace.gz
Cycle: 20000000 FTQ IN: 58209886 FTQ occupancy: 20.5065 DECODE IN: 58209822 DECODE occupancy: 53.2183 ROB IN: 58209762 ROB occupancy: 317.599 ROB OUT: 58209543
Heartbeat_Variant_0 : 1439 0.351318 per_variant_size: 0 1439 0 0 0 0 0 0 0 
Heartbeat_Variant_1 : 2654 0.647949 per_variant_size: 0 160 2494 0 0 0 0 0 0 
Heartbeat_Variant_2 : 0 0 per_variant_size: 0 0 0 0 0 0 0 0 0 
Heartbeat_Variant_3 : 0 0 per_variant_size: 0 0 0 0 0 0 0 0 0 
Heartbeat_Variant_0_evicts 0 : 5717 1 : 196 2 : 0 3 : 0 
Heartbeat_Variant_1_evicts 0 : 192 1 : 0 2 : 0 3 : 0 
Heartbeat_Variant_2_evicts 0 : 0 1 : 0 2 : 0 3 : 0 
Heartbeat_Variant_3_evicts 0 : 0 1 : 0 2 : 0 3 : 0 
Heartbeat CPU 0 instructions: 60000003 cycles: 21276665 heartbeat IPC: 1.36962 cumulative IPC: 1.36962 (Simulation time: 0 hr 10 min 24 sec) 
Heartbeat_Variant_0 : 1446 0.353027 per_variant_size: 0 1446 0 0 0 0 0 0 0 
Heartbeat_Variant_1 : 2647 0.64624 per_variant_size: 0 196 2451 0 0 0 0 0 0 
Heartbeat_Variant_2 : 0 0 per_variant_size: 0 0 0 0 0 0 0 0 0 
Heartbeat_Variant_3 : 0 0 per_variant_size: 0 0 0 0 0 0 0 0 0 
Heartbeat_Variant_0_evicts 0 : 5736 1 : 321 2 : 0 3 : 0 
Heartbeat_Variant_1_evicts 0 : 314 1 : 0 2 : 0 3 : 0 
Heartbeat_Variant_2_evicts 0 : 0 1 : 0 2 : 0 3 : 0 
Heartbeat_Variant_3_evicts 0 : 0 1 : 0 2 : 0 3 : 0 
Heartbeat CPU 0 instructions: 70000002 cycles: 28594311 heartbeat IPC: 1.36656 cumulative IPC: 1.36809 (Simulation time: 0 hr 12 min 24 sec) 
Cycle: 30000000 FTQ IN: 13710872 FTQ occupancy: 14.6998 DECODE IN: 13710888 DECODE occupancy: 37.5467 ROB IN: 13710888 ROB occupancy: 246.904 ROB OUT: 13710755
Heartbeat_Variant_0 : 1437 0.35083 per_variant_size: 0 1437 0 0 0 0 0 0 0 
Heartbeat_Variant_1 : 2658 0.648926 per_variant_size: 0 196 2462 0 0 0 0 0 0 
Heartbeat_Variant_2 : 0 0 per_variant_size: 0 0 0 0 0 0 0 0 0 
Heartbeat_Variant_3 : 0 0 per_variant_size: 0 0 0 0 0 0 0 0 0 
Heartbeat_Variant_0_evicts 0 : 5518 1 : 208 2 : 0 3 : 0 
Heartbeat_Variant_1_evicts 0 : 219 1 : 0 2 : 0 3 : 0 
Heartbeat_Variant_2_evicts 0 : 0 1 : 0 2 : 0 3 : 0 
Heartbeat_Variant_3_evicts 0 : 0 1 : 0 2 : 0 3 : 0 
Heartbeat CPU 0 instructions: 80000002 cycles: 35805520 heartbeat IPC: 1.38673 cumulative IPC: 1.37424 (Simulation time: 0 hr 14 min 24 sec) 
Cycle: 40000000 FTQ IN: 13931859 FTQ occupancy: 14.8409 DECODE IN: 13931768 DECODE occupancy: 38.2551 ROB IN: 13931768 ROB occupancy: 250.468 ROB OUT: 13931772
Heartbeat_Variant_0 : 1433 0.349854 per_variant_size: 0 1433 0 0 0 0 0 0 0 
Heartbeat_Variant_1 : 2663 0.650146 per_variant_size: 0 204 2459 0 0 0 0 0 0 
Heartbeat_Variant_2 : 0 0 per_variant_size: 0 0 0 0 0 0 0 0 0 
Heartbeat_Variant_3 : 0 0 per_variant_size: 0 0 0 0 0 0 0 0 0 
Heartbeat_Variant_0_evicts 0 : 5631 1 : 159 2 : 0 3 : 0 
Heartbeat_Variant_1_evicts 0 : 163 1 : 0 2 : 0 3 : 0 
Heartbeat_Variant_2_evicts 0 : 0 1 : 0 2 : 0 3 : 0 
Heartbeat_Variant_3_evicts 0 : 0 1 : 0 2 : 0 3 : 0 
Heartbeat CPU 0 instructions: 90000003 cycles: 43064548 heartbeat IPC: 1.3776 cumulative IPC: 1.37508 (Simulation time: 0 hr 16 min 22 sec) 
Cycle: 50000000 FTQ IN: 13849419 FTQ occupancy: 14.8354 DECODE IN: 13849484 DECODE occupancy: 37.9347 ROB IN: 13849484 ROB occupancy: 249.082 ROB OUT: 13849480
Heartbeat_Variant_0 : 1433 0.349854 per_variant_size: 0 1433 0 0 0 0 0 0 0 
Heartbeat_Variant_1 : 2663 0.650146 per_variant_size: 0 194 2469 0 0 0 0 0 0 
Heartbeat_Variant_2 : 0 0 per_variant_size: 0 0 0 0 0 0 0 0 0 
Heartbeat_Variant_3 : 0 0 per_variant_size: 0 0 0 0 0 0 0 0 0 
Heartbeat_Variant_0_evicts 0 : 5524 1 : 51 2 : 0 3 : 0 
Heartbeat_Variant_1_evicts 0 : 51 1 : 0 2 : 0 3 : 0 
Heartbeat_Variant_2_evicts 0 : 0 1 : 0 2 : 0 3 : 0 
Heartbeat_Variant_3_evicts 0 : 0 1 : 0 2 : 0 3 : 0 
Heartbeat CPU 0 instructions: 100000003 cycles: 50211669 heartbeat IPC: 1.39916 cumulative IPC: 1.37983 (Simulation time: 0 hr 18 min 20 sec) 
Finished CPU 0 instructions: 50000002 cycles: 36236327 cumulative IPC: 1.37983 (Simulation time: 0 hr 18 min 20 sec) 

ChampSim completed all CPUs

Region of Interest Statistics

CPU 0 cumulative IPC: 1.37983 instructions: 50000002 cycles: 36236327
 Fetch stage stalled: 46.4019  Sim cycles: 36236327 fetch stall cycle: 16814333
 Empty decode stage: 25.7036  Sim cycles: 36236327 fetch stall cycle: 9314041
ITLB TOTAL     ACCESS:    5845912  HIT:    5355607  MISS:     490305  HIT %:    91.6129  MISS %:    8.38714   MPKI: 9.8061
ITLB LOAD TRANSLATION INSTRUCTION	ACCESS:    5712605  HIT:    5222300  MISS:     490305  HIT %:    91.4171  MISS %:    8.58286  MPKI: 9.8061
ITLB TRANSLATION FROM L1D PREFETCHER INSTRUCTION	ACCESS:     133307  HIT:     133307  MISS:          0  HIT %:        100  MISS %:          0  MPKI: 0

ITLB AVERAGE MISS LATENCY: 9.06576 cycles
ITLB RQ	ACCESS:    7938024	FORWARD:          0	MERGED:    1611263	TO_CACHE:    6326761

DTLB TOTAL     ACCESS:    8922965  HIT:    8448001  MISS:     474964  HIT %:    94.6771  MISS %:    5.32294   MPKI: 9.49928
DTLB LOAD TRANSLATION DATA	ACCESS:    8922965  HIT:    8448001  MISS:     474964  HIT %:    94.6771  MISS %:    5.32294  MPKI: 9.49928

DTLB AVERAGE MISS LATENCY: 9.31624 cycles
DTLB RQ	ACCESS:   13282898	FORWARD:          0	MERGED:    4322064	TO_CACHE:    8960834

STLB TOTAL     ACCESS:    1221091  HIT:    1218582  MISS:       2509  HIT %:    99.7945  MISS %:   0.205472   MPKI: 0.05018
STLB LOAD TRANSLATION INSTRUCTION	ACCESS:     490305  HIT:     489958  MISS:        347  HIT %:    99.9292  MISS %:  0.0707723  MPKI: 0.00694
STLB LOAD TRANSLATION DATA	ACCESS:     474962  HIT:     472849  MISS:       2113  HIT %:    99.5551  MISS %:   0.444878  MPKI: 0.04226
STLB TRANSLATION FROM L1D PREFETCHER DATA	ACCESS:     255824  HIT:     255775  MISS:         49  HIT %:    99.9808  MISS %:  0.0191538  MPKI: 0.00098

STLB AVERAGE MISS LATENCY: 61.8143 cycles
STLB RQ	ACCESS:    1368169	FORWARD:          0	MERGED:     147047	TO_CACHE:    1221122

STLB Hit, L1D data hit: 0
STLB Hit, L2C data hit: 0
STLB Hit, LLC data hit: 0
STLB Hit, LLC data miss: 0
STLB STLB hints to L2: 0
L1D TOTAL     ACCESS:   13032179  HIT:   11862724  MISS:    1169455  HIT %:    91.0264  MISS %:     8.9736   MPKI: 23.3891
L1D LOAD DATA	ACCESS:    6537706  HIT:    5769179  MISS:     768527  HIT %:    88.2447  MISS %:    11.7553  MPKI: 15.3705
L1D RFO DATA	ACCESS:    6157980  HIT:    5865048  MISS:     292932  HIT %:    95.2431  MISS %:    4.75695  MPKI: 5.85864
L1D PREFETCH DATA	ACCESS:     336493  HIT:     228497  MISS:     107996  HIT %:    67.9054  MISS %:    32.0946  MPKI: 2.15992

L1D PREFETCH  REQUESTED:     806156  ISSUED:     806156  USEFUL:      50359  USELESS:      71291
L1D USEFUL LOAD PREFETCHES:      50359 PREFETCH ISSUED TO LOWER LEVEL:     121749  ACCURACY: 41.363
 TIMELY PREFETCHES:      50359 LATE PREFETCHES: 13686 DROPPED PREFETCHES: 2
L1D AVERAGE MISS LATENCY: 369680 cycles
L1D RQ	ACCESS:   10665703	FORWARD:          0	MERGED:    3929652	TO_CACHE:    6572480
L1D WQ	ACCESS:    6907638	FORWARD:     163927	MERGED:     197220	TO_CACHE:    6710418
L1D PQ	ACCESS:     403256	FORWARD:          0	MERGED:          0	TO_CACHE:     402900

L1D UNIQUE REGIONS ACCESSED: 0
L1D REGIONS CONFLICTS: 0
L1D Cross Page Prefetch Requests: 8139
L1D Same Page Prefetch Requests: 812286
L1D ROI Sum of L1D PQ occupancy: 5139534
L1D PREFETCHES PUSHED FROM L2C: 0
L1I TOTAL     ACCESS:    7118994  HIT:    4371736  MISS:    2747258  HIT %:    61.4095  MISS %:    38.5905   MPKI: 54.9452
L1I LOAD INSTRUCTION	ACCESS:    6454622  HIT:    3707364  MISS:    2747258  HIT %:    57.4374  MISS %:    42.5626  MPKI: 54.9452
L1I PREFETCH INSTRUCTION	ACCESS:     664372  HIT:     664372  MISS:          0  HIT %:        100  MISS %:          0  MPKI: 0

L1I PREFETCH  REQUESTED:    1607560  ISSUED:    1607560  USEFUL:          0  USELESS:          0
L1I USEFUL LOAD PREFETCHES:          0 PREFETCH ISSUED TO LOWER LEVEL:          0  ACCURACY: -nan
 TIMELY PREFETCHES:          0 LATE PREFETCHES: 0 DROPPED PREFETCHES: 0
L1I AVERAGE MISS LATENCY: 17.3591 cycles
L1I RQ	ACCESS:    9572810	FORWARD:          0	MERGED:    2811783	TO_CACHE:    6761027
L1I PQ	ACCESS:    1607560	FORWARD:          0	MERGED:     430563	TO_CACHE:    1176997

L1BTB TOTAL     ACCESS:    5680875  HIT:    2074069  MISS:    3606806  HIT %:    36.5097  MISS %:    63.4903   MPKI: 72.1361
L1BTB BRANCH_DIRECT_JUMP	ACCESS:     543192 HIT:     143754 MISS:     399438 AVERAGE STALL: 59.4919 AVERAGE FETCH STALL: 14.7937 AVERAGE FETCH QUEUE STALL: 20.0625 AVERAGE DECODE STALL: 23.721 AVERAGE EXECUTE STALL: 2.19997e+15
L1BTB BRANCH_INDIRECT	ACCESS:     181400 HIT:      65431 MISS:     115969 AVERAGE STALL: 114.554 AVERAGE FETCH STALL: 10.8834 AVERAGE FETCH QUEUE STALL: 19.0994 AVERAGE DECODE STALL: 12.8187 AVERAGE EXECUTE STALL: 70.7905
L1BTB BRANCH_CONDITIONAL	ACCESS:    2732098 HIT:    1447740 MISS:    1284358 AVERAGE STALL: 88.5653 AVERAGE FETCH STALL: 27.7467 AVERAGE FETCH QUEUE STALL: 34.9001 AVERAGE DECODE STALL: 25.2283 AVERAGE EXECUTE STALL: 3.42367e+15
L1BTB BRANCH_DIRECT_CALL	ACCESS:     941242 HIT:     104904 MISS:     836338 AVERAGE STALL: 73.7231 AVERAGE FETCH STALL: 30.3899 AVERAGE FETCH QUEUE STALL: 26.4173 AVERAGE DECODE STALL: 16.1149 AVERAGE EXECUTE STALL: 5.05806e+15
L1BTB BRANCH_INDIRECT_CALL	ACCESS:     170851 HIT:      21534 MISS:     149317 AVERAGE STALL: 142.564 AVERAGE FETCH STALL: 12.9033 AVERAGE FETCH QUEUE STALL: 18.2738 AVERAGE DECODE STALL: 12.6299 AVERAGE EXECUTE STALL: 98.2651
L1BTB BRANCH_RETURN	ACCESS:    1112092 HIT:     290706 MISS:     821386 AVERAGE STALL: 50.944 AVERAGE FETCH STALL: 17.276 AVERAGE FETCH QUEUE STALL: 5.7202 AVERAGE DECODE STALL: 6.5839 AVERAGE EXECUTE STALL: 4.29694e+14
L1BTB BRANCH_OTHER ACCESS:          0 HIT:          0 MISS:          0 AVERAGE STALL: -nan AVERAGE FETCH STALL: -nan AVERAGE FETCH QUEUE STALL: -nan AVERAGE DECODE STALL: -nan AVERAGE EXECUTE STALL: -nan
L1BTB TOTAL ROB OCCUPANCY AT BTB MISS: 2.90943

L2BTB TOTAL     ACCESS:    3581851  HIT:    3513853  MISS:      67998  HIT %:    98.1016  MISS %:     1.8984   MPKI: 1.35996
L2BTB BRANCH_DIRECT_JUMP	ACCESS:     395333 HIT:     391039 MISS:       4294 AVERAGE STALL: 59.4919 AVERAGE FETCH STALL: 14.7937 AVERAGE FETCH QUEUE STALL: 20.0625 AVERAGE DECODE STALL: 23.721 AVERAGE EXECUTE STALL: 2.19997e+15
L2BTB BRANCH_INDIRECT	ACCESS:     105748 HIT:     103076 MISS:       2672 AVERAGE STALL: 114.554 AVERAGE FETCH STALL: 10.8834 AVERAGE FETCH QUEUE STALL: 19.0994 AVERAGE DECODE STALL: 12.8187 AVERAGE EXECUTE STALL: 70.7905
L2BTB BRANCH_CONDITIONAL	ACCESS:    1284358 HIT:    1278836 MISS:       5522 AVERAGE STALL: 88.5653 AVERAGE FETCH STALL: 27.7467 AVERAGE FETCH QUEUE STALL: 34.9001 AVERAGE DECODE STALL: 25.2283 AVERAGE EXECUTE STALL: 3.42367e+15
L2BTB BRANCH_DIRECT_CALL	ACCESS:     836338 HIT:     832667 MISS:       3671 AVERAGE STALL: 73.7231 AVERAGE FETCH STALL: 30.3899 AVERAGE FETCH QUEUE STALL: 26.4173 AVERAGE DECODE STALL: 16.1149 AVERAGE EXECUTE STALL: 5.05806e+15
L2BTB BRANCH_INDIRECT_CALL	ACCESS:     139905 HIT:     129795 MISS:      10110 AVERAGE STALL: 142.564 AVERAGE FETCH STALL: 12.9033 AVERAGE FETCH QUEUE STALL: 18.2738 AVERAGE DECODE STALL: 12.6299 AVERAGE EXECUTE STALL: 98.2651
L2BTB BRANCH_RETURN	ACCESS:     820169 HIT:     778440 MISS:      41729 AVERAGE STALL: 50.944 AVERAGE FETCH STALL: 17.276 AVERAGE FETCH QUEUE STALL: 5.7202 AVERAGE DECODE STALL: 6.5839 AVERAGE EXECUTE STALL: 4.29694e+14
L2BTB BRANCH_OTHER ACCESS:          0 HIT:          0 MISS:          0 AVERAGE STALL: -nan AVERAGE FETCH STALL: -nan AVERAGE FETCH QUEUE STALL: -nan AVERAGE DECODE STALL: -nan AVERAGE EXECUTE STALL: -nan
L2BTB TOTAL ROB OCCUPANCY AT BTB MISS: 154.324

L2C TOTAL     ACCESS:    4545312  HIT:    4031122  MISS:     514190  HIT %:    88.6875  MISS %:    11.3125   MPKI: 10.2838
L2C LOAD INSTRUCTION	ACCESS:    2747257  HIT:    2480761  MISS:     266496  HIT %:    90.2996  MISS %:    9.70044  MPKI: 5.32992
L2C LOAD TRANSLATION INSTRUCTION	ACCESS:        404  HIT:        108  MISS:        296  HIT %:    26.7327  MISS %:    73.2673  MPKI: 0.00592
L2C LOAD DATA	ACCESS:     754802  HIT:     659886  MISS:      94916  HIT %:     87.425  MISS %:     12.575  MPKI: 1.89832
L2C RFO DATA	ACCESS:     292842  HIT:     235870  MISS:      56972  HIT %:    80.5451  MISS %:    19.4549  MPKI: 1.13944
L2C PREFETCH DATA	ACCESS:     215617  HIT:     135027  MISS:      80590  HIT %:    62.6235  MISS %:    37.3765  MPKI: 1.6118
L2C WRITEBACK DATA	ACCESS:     532059  HIT:     518734  MISS:      13325  HIT %:    97.4956  MISS %:    2.50442  MPKI: 0.2665
L2C LOAD TRANSLATION DATA	ACCESS:       2262  HIT:        684  MISS:       1578  HIT %:    30.2387  MISS %:    69.7613  MPKI: 0.03156
L2C TRANSLATION FROM L1D PREFETCHER DATA	ACCESS:         69  HIT:         52  MISS:         17  HIT %:    75.3623  MISS %:    24.6377  MPKI: 0.00034

L2C PREFETCH  REQUESTED:     103005  ISSUED:     103005  USEFUL:       9802  USELESS:      71663
L2C USEFUL LOAD PREFETCHES:       9802 PREFETCH ISSUED TO LOWER LEVEL:      81534  ACCURACY: 12.022
 TIMELY PREFETCHES:       9802 LATE PREFETCHES: 944 DROPPED PREFETCHES: 0
L2C AVERAGE MISS LATENCY: 40.339 cycles
L2C RQ	ACCESS:    3797698	FORWARD:          0	MERGED:          0	TO_CACHE:    3797636
L2C WQ	ACCESS:     532059	FORWARD:         62	MERGED:          0	TO_CACHE:     532059
L2C PQ	ACCESS:     224754	FORWARD:          0	MERGED:       3598	TO_CACHE:     221156

L2C Dense regions hint from L2: 0
PSCL5 TOTAL     ACCESS:       5024  HIT:       2512  MISS:       2512  HIT %:         50  MISS %:         50   MPKI: 0.05024
PSCL5 LOAD TRANSLATION INSTRUCTION	ACCESS:       4886  HIT:       2443  MISS:       2443  HIT %:         50  MISS %:         50  MPKI: 0.04886
PSCL5 TRANSLATION FROM L1D PREFETCHER INSTRUCTION	ACCESS:        138  HIT:         69  MISS:         69  HIT %:         50  MISS %:         50  MPKI: 0.00138


PSCL4 TOTAL     ACCESS:       3160  HIT:       1577  MISS:       1583  HIT %:    49.9051  MISS %:    50.0949   MPKI: 0.03166
PSCL4 LOAD TRANSLATION INSTRUCTION	ACCESS:       2669  HIT:       1532  MISS:       1137  HIT %:    57.3998  MISS %:    42.6002  MPKI: 0.02274
PSCL4 TRANSLATION FROM L1D PREFETCHER INSTRUCTION	ACCESS:         90  HIT:         45  MISS:         45  HIT %:         50  MISS %:         50  MPKI: 0.0009
PSCL4 LOAD TRANSLATION DATA	ACCESS:        401  HIT:          0  MISS:        401  HIT %:          0  MISS %:        100  MPKI: 0.00802


PSCL3 TOTAL     ACCESS:       4887  HIT:       2434  MISS:       2453  HIT %:    49.8056  MISS %:    50.1944   MPKI: 0.04906
PSCL3 LOAD TRANSLATION INSTRUCTION	ACCESS:       3941  HIT:       2381  MISS:       1560  HIT %:    60.4161  MISS %:    39.5839  MPKI: 0.0312
PSCL3 TRANSLATION FROM L1D PREFETCHER INSTRUCTION	ACCESS:         98  HIT:         53  MISS:         45  HIT %:    54.0816  MISS %:    45.9184  MPKI: 0.0009
PSCL3 LOAD TRANSLATION DATA	ACCESS:        840  HIT:          0  MISS:        840  HIT %:          0  MISS %:        100  MPKI: 0.0168
PSCL3 TRANSLATION FROM L1D PREFETCHER DATA	ACCESS:          8  HIT:          0  MISS:          8  HIT %:          0  MISS %:        100  MPKI: 0.00016


PSCL2 TOTAL     ACCESS:       4826  HIT:       2314  MISS:       2512  HIT %:    47.9486  MISS %:    52.0514   MPKI: 0.05024
PSCL2 LOAD TRANSLATION INSTRUCTION	ACCESS:       2596  HIT:       2245  MISS:        351  HIT %:    86.4792  MISS %:    13.5208  MPKI: 0.00702
PSCL2 TRANSLATION FROM L1D PREFETCHER INSTRUCTION	ACCESS:         69  HIT:         69  MISS:          0  HIT %:        100  MISS %:          0  MPKI: 0
PSCL2 LOAD TRANSLATION DATA	ACCESS:       2092  HIT:          0  MISS:       2092  HIT %:          0  MISS %:        100  MPKI: 0.04184
PSCL2 TRANSLATION FROM L1D PREFETCHER DATA	ACCESS:         69  HIT:          0  MISS:         69  HIT %:          0  MISS %:        100  MPKI: 0.00138


LLC TOTAL     ACCESS:     580251  HIT:     550441  MISS:      29810  HIT %:    94.8626  MISS %:    5.13743   MPKI: 0.5962
LLC LOAD INSTRUCTION	ACCESS:     266496  HIT:     265309  MISS:       1187  HIT %:    99.5546  MISS %:    0.44541  MPKI: 0.02374
LLC LOAD TRANSLATION INSTRUCTION	ACCESS:        296  HIT:        255  MISS:         41  HIT %:    86.1486  MISS %:    13.8514  MPKI: 0.00082
LLC LOAD DATA	ACCESS:      93986  HIT:      90331  MISS:       3655  HIT %:    96.1111  MISS %:    3.88888  MPKI: 0.0731
LLC RFO DATA	ACCESS:      56947  HIT:      42466  MISS:      14481  HIT %:    74.5711  MISS %:    25.4289  MPKI: 0.28962
LLC PREFETCH DATA	ACCESS:      81534  HIT:      71419  MISS:      10115  HIT %:    87.5941  MISS %:    12.4059  MPKI: 0.2023
LLC WRITEBACK DATA	ACCESS:      79397  HIT:      79147  MISS:        250  HIT %:    99.6851  MISS %:   0.314873  MPKI: 0.005
LLC LOAD TRANSLATION DATA	ACCESS:       1578  HIT:       1497  MISS:         81  HIT %:    94.8669  MISS %:    5.13308  MPKI: 0.00162
LLC TRANSLATION FROM L1D PREFETCHER DATA	ACCESS:         17  HIT:         17  MISS:          0  HIT %:        100  MISS %:          0  MPKI: 0

LLC AVERAGE MISS LATENCY: 191.735 cycles
LLC RQ	ACCESS:     419331	FORWARD:          0	MERGED:          0	TO_CACHE:     419320
LLC WQ	ACCESS:      79397	FORWARD:         11	MERGED:          0	TO_CACHE:      79397
LLC PQ	ACCESS:      81534	FORWARD:          0	MERGED:          0	TO_CACHE:      81534

LLC Dense regions hint to LLC: 0

RAW hits: 1939432
Loads Generated: 12605135
Loads sent to L1D: 10665703
Stores Generated: 6907628
Stores sent to L1D: 6907638
Major fault: 0 Minor fault: 2405
Allocated PAGES: 2405

stream: 
stream:times selected: 1246862
stream:pref_filled: 128747
stream:pref_useful: 28504
stream:pref_late: 10157
stream:misses: 10664
stream:misses_by_poll: 0

CS: 
CS:times selected: 195078
CS:pref_filled: 73437
CS:pref_useful: 50235
CS:pref_late: 9639
CS:misses: 24406
CS:misses_by_poll: 4

CPLX: 
CPLX:times selected: 1050460
CPLX:pref_filled: 24859
CPLX:pref_useful: 7609
CPLX:pref_late: 4203
CPLX:misses: 132496
CPLX:misses_by_poll: 4

NL_L1: 
NL:times selected: 22296
NL:pref_filled: 1259
NL:pref_useful: 574
NL:pref_late: 706
NL:misses: 3267
NL:misses_by_poll: 0

total selections: 2514696
total_filled: 107996
total_useful: 50359
total_late: 27303
total_polluted: 8
total_misses_after_warmup: 803306
conflicts: 5485335

test: 120087

DRAM Statistics
 CHANNEL 0
 RQ ROW_BUFFER_HIT:      10622  ROW_BUFFER_MISS:      18930
 DBUS_CONGESTED:         15
 WQ ROW_BUFFER_HIT:       2137  ROW_BUFFER_MISS:      13526  FULL:          0

 AVG_CONGESTED_CYCLE: 4

CPU 0 Branch Prediction Accuracy: 99.8185% MPKI: 0.33254 Average ROB Occupancy at Mispredict: 197.622
Branch types
NOT_BRANCH: 40839002 81.678%
BRANCH_DIRECT_JUMP: 543192 1.08638%
BRANCH_INDIRECT: 181400 0.3628%
BRANCH_CONDITIONAL: 6212147 12.4243%
BRANCH_DIRECT_CALL: 941242 1.88248%
BRANCH_INDIRECT_CALL: 170851 0.341702%
BRANCH_RETURN: 1112092 2.22418%
BRANCH_OTHER: 0 0%

DRAM PAGES: 1048576
Allocated PAGES: 2405
Average_ROB_Occupancy: 249.709
Average_Decode_Occupancy: 37.8359
Average_FTQ_Occupancy: 14.7848
Indirect max targets: 14 Average targets: 1.17572
Branch_type:  BRANCH_DIRECT_JUMP:  Count Percentage: 3.25271 4.63814 3.72959 7.67138 2.79194 5.97147 2.949 68.9958 
Branch_type:  BRANCH_INDIRECT:  Count Percentage: 11.7615 3.47504 2.53226 0 2.53722 9.69166 19.2082 50.7942 
Branch_type:  BRANCH_CONDITIONAL:  Count Percentage: 22.6358 1.71231 1.87309 7.78005 1.66063 4.83747 2.1432 57.3575 
Branch_type:  BRANCH_DIRECT_CALL:  Count Percentage: 0.264899 1.24886 1.43212 3.74089 3.46498 2.34726 0.613627 86.8874 
Branch_type:  BRANCH_INDIRECT_CALL:  Count Percentage: 9.51994 0.566925 2.9817 4.83249 1.29763 1.71015 1.27829 77.8129 
Branch_type:  BRANCH_RETURN:  Count Percentage: 3.44186 0.569291 1.48104 8.45382 3.60332 6.37661 2.8646 73.2095 
Branch_type:  BRANCH_DIRECT_JUMP:  Total Count: 35332 50381 40512 83329 30327 64864 32033 749454 
Branch_type:  BRANCH_INDIRECT:  Total Count: 42703 12617 9194 0 9212 35188 69740 184421 
Branch_type:  BRANCH_CONDITIONAL:  Total Count: 2811833 212705 232677 966444 206285 600914 266230 7124991 
Branch_type:  BRANCH_DIRECT_CALL:  Total Count: 4977 23464 26907 70285 65101 44101 11529 1632465 
Branch_type:  BRANCH_INDIRECT_CALL:  Total Count: 32493 1935 10177 16494 4429 5837 4363 265587 
Branch_type:  BRANCH_RETURN:  Total Count: 76444 12644 32894 187760 80030 141625 63623 1625989 
Number of unique branch instructions: 10849
Upper 32 bits: 
aaaa
ffff
ffff0000
Unique upper 32 bits: 3
Unique upper 36 bits: 3
Unique upper 40 bits: 5
Unique upper 44 bits: 32
Unique upper 48 bits: 160
Variant_0 : 1433 0.349854
Variant_1 : 2663 0.650146
Variant_2 : 0 0
Variant_3 : 0 0
Offset_3 4511
Offset_4 261
Offset_5 486
Offset_6 554
Offset_7 641
Offset_8 574
Offset_9 522
Offset_10 436
Offset_11 357
Offset_12 298
Offset_13 235
Offset_14 233
Offset_15 207
Offset_16 234
Offset_17 168
Offset_18 163
Offset_19 261
Offset_20 149
Offset_21 245
Offset_22 413
Offset_23 241
Offset_24 342
Offset_25 114
Offset_47 91
decode_dispatch_called: 26506013 73.1476
Dispatch_width: 0 14419595 54.4012 39.7932
Dispatch_width: 1 1033844 3.90041 2.85306
Dispatch_width: 2 825844 3.11569 2.27905
Dispatch_width: 3 500927 1.88986 1.38239
Dispatch_width: 4 6215121 23.448 17.1516
Dispatch_width: 5 112984 0.426258 0.311798
Dispatch_width: 6 3397698 12.8186 9.3765
Empty_decode_cycles: 9730314 26.8524
ROB_full_cycles: 10180027 28.0934
Starvation_cycles_per_kilo_instr: 226.586
Starvation_cycles_per_kilo_instr_3: 163.305
Starvation_cycles_per_kilo_instr_0: 139.699
Branch_type_1  (3,1)  (4,7)  (5,38)  (6,80)  (7,126)  (8,145)  (9,137)  (10,115)  (11,84)  (12,48)  (13,10)  (14,2)  (15,3)  (16,4)  (18,1)  (19,5)  (20,2)  (21,1)  (22,3)  (23,2)  (24,10)  (25,12) 
Branch_type_2  (3,1)  (4,1)  (5,1)  (8,4)  (9,4)  (10,1)  (12,1)  (13,1)  (14,1)  (16,3)  (17,2)  (20,2)  (21,2)  (23,5)  (24,1)  (47,40) 
Branch_type_3  (3,4509)  (4,253)  (5,443)  (6,457)  (7,482)  (8,361)  (9,288)  (10,182)  (11,140)  (12,53)  (13,10) 
Branch_type_4  (6,4)  (7,8)  (8,26)  (9,57)  (10,65)  (11,68)  (12,108)  (13,101)  (14,104)  (15,100)  (16,104)  (17,77)  (18,72)  (19,126)  (20,75)  (21,130)  (22,221)  (23,136)  (24,198)  (25,98)  (47,1) 
Branch_type_5  (8,3)  (9,1)  (10,4)  (11,5)  (12,3)  (13,14)  (14,16)  (15,11)  (16,22)  (17,12)  (18,23)  (19,14)  (20,12)  (21,13)  (22,43)  (23,26)  (24,37) 
Branch_type_6  (5,4)  (6,13)  (7,25)  (8,35)  (9,35)  (10,69)  (11,60)  (12,85)  (13,99)  (14,110)  (15,93)  (16,101)  (17,77)  (18,67)  (19,116)  (20,58)  (21,99)  (22,146)  (23,72)  (24,96)  (25,4)  (47,50) 
Unique trigger count: 
Variant_0_evicts_0 : 0
Variant_0_evicts_1 : 0
Variant_0_evicts_2 : 0
Variant_0_evicts_3 : 0
Variant_1_evicts_0 : 0
Variant_1_evicts_1 : 0
Variant_1_evicts_2 : 0
Variant_1_evicts_3 : 0
Variant_2_evicts_0 : 0
Variant_2_evicts_1 : 0
Variant_2_evicts_2 : 0
Variant_2_evicts_3 : 0
Variant_3_evicts_0 : 0
Variant_3_evicts_1 : 0
Variant_3_evicts_2 : 0
Variant_3_evicts_3 : 0
BTB PER SET UNIQUE ADDR: 29 24 18 28 22 26 36 15 17 36 35 25 28 25 20 21 19 30 30 19 40 21 21 28 32 26 22 26 22 31 29 15 19 24 31 22 36 22 20 27 33 20 17 34 21 35 26 18 28 27 22 33 20 26 36 21 20 33 28 17 29 23 18 26 20 29 28 17 32 20 23 37 40 23 19 33 25 24 28 22 20 26 24 35 27 36 42 21 22 33 37 20 30 26 22 33 23 19 21 32 25 37 29 23 18 26 27 22 33 25 24 32 22 31 39 25 34 16 13 31 29 24 17 26 24 30 36 20 21 25 33 22 27 23 24 26 29 23 23 43 22 28 32 18 33 19 22 36 24 26 30 26 23 29 33 20 32 16 21 33 37 16 18 29 14 33 31 19 25 33 27 23 24 20 23 30 22 30 31 22 30 26 13 32 26 23 18 31 19 36 25 19 25 21 17 32 20 28 23 22 21 40 43 22 30 24 22 31 17 31 25 25 29 26 21 34 29 16 17 26 23 31 29 21 20 26 29 25 25 24 21 38 26 23 22 25 16 26 34 19 27 25 21 32 21 37 31 28 19 28 29 19 36 20 24 30 25 34 26 24 33 23 23 32 30 20 25 31 22 34 37 29 28 23 23 38 25 43 38 21 19 23 25 13 25 19 22 19 23 25 29 29 16 22 31 26 24 37 40 23 44 26 23 37 23 31 29 15 33 23 18 33 28 24 22 34 24 33 31 17 29 24 20 37 26 33 29 24 22 32 34 20 40 19 24 25 23 35 41 18 31 25 19 33 29 20 17 37 22 31 32 18 19 34 35 20 30 23 26 29 25 21 20 31 19 33 37 22 26 23 26 26 25 32 28 18 25 30 35 21 30 23 22 32 26 25 26 33 19 37 35 18 20 27 27 18 25 23 20 35 16 34 30 20 36 24 16 29 35 25 20 26 21 26 35 20 15 31 39 25 30 21 20 39 42 17 24 38 21 35 30 19 36 22 27 38 19 35 37 23 21 25 21 17 32 19 17 30 26 26 38 16 34 21 23 39 38 23 20 30 17 30 32 26 34 18 14 25 29 38 31 24 21 29 29 18 34 17 20 30 32 20 28 36 19 25 29 21 17 31 27 19 34 16 22 34 18 27 35 18 27 25 19 37 31 18 19 26 22 37 29 15 
BTB PER SET COUNT: 72 33 1343 192 24 167 1182 15 147 51 612 32 385 31 27 21 22 1033 35 437 461 22 28 33 37 1276 2370 750 28 35 36 17 467 59 87 26 219 28 301 1220 41 466 983 42 25 239 46 67 34 37 26 37 22 33 662 26 23 51 581 21 227 1228 18 1893 23 124 114 19 207 20 338 328 54 1752 21 603 27 36 569 25 22 27 41 895 30 40 51 785 25 353 475 1595 592 32 22 44 1302 1220 110 1207 27 46 39 26 167 82 36 887 42 28 344 241 376 34 721 31 210 503 13 41 48 28 17 7860 26 798 160 21 1184 36 36 27 55 25 200 27 311 699 23 48 357 1688 40 21 39 6878 282 42 1700 738 525 28 213 31 48 21 36 22 22 1007 48 346 26 6139 14 188 38 613 46 4715 260 40 256 22 27 293 29 146 636 23 1010 33 13 42 55 25 19 266 21 1012 254 705 1536 1347 19 41 21 483 24 24 23 118 116 27 48 29 27 358 1421 226 38 1481 38 962 25 42 36 17 28 968 334 35 236 24 23 30 2249 27 128 27 209 996 154 25 26 282 21 662 589 22 1002 1526 27 41 302 41 38 33 588 1159 36 42 166 443 411 274 413 42 27 26 51 25 1664 35 1856 22 27 41 26 539 52 351 35 26 33 166 1307 1010 45 29 30 524 30 13 28 608 25 20 37 28 34 33 363 280 1844 1461 27 42 224 1911 793 33 30 41 27 38 34 680 43 168 3380 955 311 637 472 2149 27 514 935 1780 4281 201 26 1300 28 44 37 27 343 44 43 22 48 23 27 30 27 45 1556 128 375 31 21 344 45 23 21 849 27 1010 36 18 22 48 54 21 182 31 29 32 163 1477 22 199 23 47 454 251 28 1481 91 102 506 37 213 20 31 37 786 25 37 25 81 2004 2458 32 292 40 29 122 556 944 21 32 30 20 198 508 820 42 16 168 96 55 46 28 18 162 5510 30 25 1385 28 26 622 280 1468 108 48 27 37 25 27 1044 529 20 29 106 23 406 41 20 42 2142 1306 61 559 596 48 24 24 26 22 19 39 22 21 162 1967 48 51 326 458 411 25 53 43 31 662 34 18 386 117 1115 7031 19 15 30 1166 469 197 138 28 117 38 21 43 20 30 43 40 27 28 1535 25 1175 34 24 22 40 39 149 73 19 1813 40 2010 36 168 20 535 35 20 471 38 261 23 28 23 866 199 15 
To predecode: 0
Predecoding something: 0
Predecode request dropped: 0
sizeofblock_0 0
sizeofblock_1 43713
sizeofblock_2 95255
sizeofblock_3 0
sizeofblock_4 0
sizeofblock_5 0
sizeofblock_6 0
sizeofblock_7 0
sizeofblock_8 0
Variant_0 Correct: 1599873 Incorrect: 0 Accuracy: 1
Variant_1 Correct: 5694978 Incorrect: 0 Accuracy: 1
Variant_2 Correct: 0 Incorrect: 0 Accuracy: -nan
Variant_3 Correct: 0 Incorrect: 0 Accuracy: -nan
