
*** ChampSim Multicore Out-of-Order Simulator ***

Warmup Instructions: 50000000
Simulation Instructions: 50000000
Number of CPUs: 1
LLC sets: 2048
LLC ways: 16
Off-chip DRAM Size: 4096 MB Channels: 1 Width: 64-bit Data Rate: 6400 MT/s
CPU 0 runs ./micro_traces/srv307.trace.gz
.gz
ITLB has LRU replacement policy
DTLB has LRU replacement policy
STLB has LRU replacement policy
FDIP Prefetcher at L1I
L1I has LRU replacement policy
L1D has LRU replacement policy
Initialize SRRIP state for L2C
Initialize DRRIP state for LLC
Heartbeat_Variant_0 : 639 0.312012 per_variant_size: 0 639 0 0 0 0 0 0 0 
Heartbeat_Variant_1 : 1409 0.687988 per_variant_size: 0 133 1276 0 0 0 0 0 0 
Heartbeat_Variant_2 : 0 0 per_variant_size: 0 0 0 0 0 0 0 0 0 
Heartbeat_Variant_3 : 0 0 per_variant_size: 0 0 0 0 0 0 0 0 0 
Heartbeat_Variant_0_evicts 0 : 31081 1 : 59301 2 : 0 3 : 0 
Heartbeat_Variant_1_evicts 0 : 59354 1 : 0 2 : 0 3 : 0 
Heartbeat_Variant_2_evicts 0 : 0 1 : 0 2 : 0 3 : 0 
Heartbeat_Variant_3_evicts 0 : 0 1 : 0 2 : 0 3 : 0 
Heartbeat CPU 0 instructions: 10000002 cycles: 2797568 heartbeat IPC: 3.57453 cumulative IPC: 3.57453 (Simulation time: 0 hr 2 min 26 sec) 
Heartbeat_Variant_0 : 641 0.312988 per_variant_size: 0 641 0 0 0 0 0 0 0 
Heartbeat_Variant_1 : 1407 0.687012 per_variant_size: 0 140 1267 0 0 0 0 0 0 
Heartbeat_Variant_2 : 0 0 per_variant_size: 0 0 0 0 0 0 0 0 0 
Heartbeat_Variant_3 : 0 0 per_variant_size: 0 0 0 0 0 0 0 0 0 
Heartbeat_Variant_0_evicts 0 : 30744 1 : 58762 2 : 0 3 : 0 
Heartbeat_Variant_1_evicts 0 : 58760 1 : 0 2 : 0 3 : 0 
Heartbeat_Variant_2_evicts 0 : 0 1 : 0 2 : 0 3 : 0 
Heartbeat_Variant_3_evicts 0 : 0 1 : 0 2 : 0 3 : 0 
Heartbeat CPU 0 instructions: 20000003 cycles: 5594122 heartbeat IPC: 3.57583 cumulative IPC: 3.57518 (Simulation time: 0 hr 4 min 35 sec) 
Heartbeat_Variant_0 : 641 0.312988 per_variant_size: 0 641 0 0 0 0 0 0 0 
Heartbeat_Variant_1 : 1407 0.687012 per_variant_size: 0 130 1277 0 0 0 0 0 0 
Heartbeat_Variant_2 : 0 0 per_variant_size: 0 0 0 0 0 0 0 0 0 
Heartbeat_Variant_3 : 0 0 per_variant_size: 0 0 0 0 0 0 0 0 0 
Heartbeat_Variant_0_evicts 0 : 31398 1 : 59858 2 : 0 3 : 0 
Heartbeat_Variant_1_evicts 0 : 59858 1 : 0 2 : 0 3 : 0 
Heartbeat_Variant_2_evicts 0 : 0 1 : 0 2 : 0 3 : 0 
Heartbeat_Variant_3_evicts 0 : 0 1 : 0 2 : 0 3 : 0 
Heartbeat CPU 0 instructions: 30000003 cycles: 8392097 heartbeat IPC: 3.57401 cumulative IPC: 3.57479 (Simulation time: 0 hr 6 min 46 sec) 
Heartbeat_Variant_0 : 622 0.303711 per_variant_size: 0 622 0 0 0 0 0 0 0 
Heartbeat_Variant_1 : 1426 0.696289 per_variant_size: 0 129 1297 0 0 0 0 0 0 
Heartbeat_Variant_2 : 0 0 per_variant_size: 0 0 0 0 0 0 0 0 0 
Heartbeat_Variant_3 : 0 0 per_variant_size: 0 0 0 0 0 0 0 0 0 
Heartbeat_Variant_0_evicts 0 : 31181 1 : 60157 2 : 0 3 : 0 
Heartbeat_Variant_1_evicts 0 : 60176 1 : 0 2 : 0 3 : 0 
Heartbeat_Variant_2_evicts 0 : 0 1 : 0 2 : 0 3 : 0 
Heartbeat_Variant_3_evicts 0 : 0 1 : 0 2 : 0 3 : 0 
Heartbeat CPU 0 instructions: 40000003 cycles: 11189240 heartbeat IPC: 3.57508 cumulative IPC: 3.57486 (Simulation time: 0 hr 8 min 53 sec) 
Heartbeat_Variant_0 : 627 0.306152 per_variant_size: 0 627 0 0 0 0 0 0 0 
Heartbeat_Variant_1 : 1421 0.693848 per_variant_size: 0 128 1293 0 0 0 0 0 0 
Heartbeat_Variant_2 : 0 0 per_variant_size: 0 0 0 0 0 0 0 0 0 
Heartbeat_Variant_3 : 0 0 per_variant_size: 0 0 0 0 0 0 0 0 0 
Heartbeat_Variant_0_evicts 0 : 31173 1 : 59943 2 : 0 3 : 0 
Heartbeat_Variant_1_evicts 0 : 59938 1 : 0 2 : 0 3 : 0 
Heartbeat_Variant_2_evicts 0 : 0 1 : 0 2 : 0 3 : 0 
Heartbeat_Variant_3_evicts 0 : 0 1 : 0 2 : 0 3 : 0 
Heartbeat CPU 0 instructions: 50000002 cycles: 13986131 heartbeat IPC: 3.5754 cumulative IPC: 3.57497 (Simulation time: 0 hr 11 min 5 sec) 

Warmup complete CPU 0 instructions: 50000002 cycles: 13986131 (Simulation time: 0 hr 11 min 5 sec) 

Cycle: 20000000 FTQ IN: 54423766 FTQ occupancy: 17.1115 DECODE IN: 54423745 DECODE occupancy: 43.871 ROB IN: 54423745 ROB occupancy: 260.235 ROB OUT: 54423726
Heartbeat_Variant_0 : 631 0.308105 per_variant_size: 0 631 0 0 0 0 0 0 0 
Heartbeat_Variant_1 : 1417 0.691895 per_variant_size: 0 132 1285 0 0 0 0 0 0 
Heartbeat_Variant_2 : 0 0 per_variant_size: 0 0 0 0 0 0 0 0 0 
Heartbeat_Variant_3 : 0 0 per_variant_size: 0 0 0 0 0 0 0 0 0 
Heartbeat_Variant_0_evicts 0 : 31267 1 : 59780 2 : 0 3 : 0 
Heartbeat_Variant_1_evicts 0 : 59776 1 : 0 2 : 0 3 : 0 
Heartbeat_Variant_2_evicts 0 : 0 1 : 0 2 : 0 3 : 0 
Heartbeat_Variant_3_evicts 0 : 0 1 : 0 2 : 0 3 : 0 
Heartbeat CPU 0 instructions: 60000002 cycles: 27743820 heartbeat IPC: 0.726866 cumulative IPC: 0.726866 (Simulation time: 0 hr 12 min 39 sec) 
Cycle: 30000000 FTQ IN: 7240924 FTQ occupancy: 3.63277 DECODE IN: 7240945 DECODE occupancy: 6.734 ROB IN: 7240945 ROB occupancy: 56.8648 ROB OUT: 7240958
Cycle: 40000000 FTQ IN: 7432415 FTQ occupancy: 3.49972 DECODE IN: 7432396 DECODE occupancy: 6.39323 ROB IN: 7432367 ROB occupancy: 55.5728 ROB OUT: 7432332
Heartbeat_Variant_0 : 634 0.30957 per_variant_size: 0 634 0 0 0 0 0 0 0 
Heartbeat_Variant_1 : 1414 0.69043 per_variant_size: 0 125 1289 0 0 0 0 0 0 
Heartbeat_Variant_2 : 0 0 per_variant_size: 0 0 0 0 0 0 0 0 0 
Heartbeat_Variant_3 : 0 0 per_variant_size: 0 0 0 0 0 0 0 0 0 
Heartbeat_Variant_0_evicts 0 : 30895 1 : 59452 2 : 0 3 : 0 
Heartbeat_Variant_1_evicts 0 : 59449 1 : 0 2 : 0 3 : 0 
Heartbeat_Variant_2_evicts 0 : 0 1 : 0 2 : 0 3 : 0 
Heartbeat_Variant_3_evicts 0 : 0 1 : 0 2 : 0 3 : 0 
Heartbeat CPU 0 instructions: 70000000 cycles: 41213729 heartbeat IPC: 0.742395 cumulative IPC: 0.734549 (Simulation time: 0 hr 14 min 11 sec) 
Cycle: 50000000 FTQ IN: 7301509 FTQ occupancy: 3.67374 DECODE IN: 7301387 DECODE occupancy: 6.78129 ROB IN: 7301356 ROB occupancy: 56.8892 ROB OUT: 7301045
Heartbeat_Variant_0 : 622 0.303711 per_variant_size: 0 622 0 0 0 0 0 0 0 
Heartbeat_Variant_1 : 1426 0.696289 per_variant_size: 0 151 1275 0 0 0 0 0 0 
Heartbeat_Variant_2 : 0 0 per_variant_size: 0 0 0 0 0 0 0 0 0 
Heartbeat_Variant_3 : 0 0 per_variant_size: 0 0 0 0 0 0 0 0 0 
Heartbeat_Variant_0_evicts 0 : 31196 1 : 59596 2 : 0 3 : 0 
Heartbeat_Variant_1_evicts 0 : 59608 1 : 0 2 : 0 3 : 0 
Heartbeat_Variant_2_evicts 0 : 0 1 : 0 2 : 0 3 : 0 
Heartbeat_Variant_3_evicts 0 : 0 1 : 0 2 : 0 3 : 0 
Heartbeat CPU 0 instructions: 80000000 cycles: 54914751 heartbeat IPC: 0.729873 cumulative IPC: 0.732983 (Simulation time: 0 hr 15 min 47 sec) 
Cycle: 60000000 FTQ IN: 7167631 FTQ occupancy: 3.4465 DECODE IN: 7167683 DECODE occupancy: 6.27873 ROB IN: 7167743 ROB occupancy: 54.2849 ROB OUT: 7168058
Heartbeat_Variant_0 : 608 0.296875 per_variant_size: 0 608 0 0 0 0 0 0 0 
Heartbeat_Variant_1 : 1440 0.703125 per_variant_size: 0 132 1308 0 0 0 0 0 0 
Heartbeat_Variant_2 : 0 0 per_variant_size: 0 0 0 0 0 0 0 0 0 
Heartbeat_Variant_3 : 0 0 per_variant_size: 0 0 0 0 0 0 0 0 0 
Heartbeat_Variant_0_evicts 0 : 31329 1 : 59930 2 : 0 3 : 0 
Heartbeat_Variant_1_evicts 0 : 59944 1 : 0 2 : 0 3 : 0 
Heartbeat_Variant_2_evicts 0 : 0 1 : 0 2 : 0 3 : 0 
Heartbeat_Variant_3_evicts 0 : 0 1 : 0 2 : 0 3 : 0 
Heartbeat CPU 0 instructions: 90000003 cycles: 68707831 heartbeat IPC: 0.725001 cumulative IPC: 0.730971 (Simulation time: 0 hr 17 min 22 sec) 
Cycle: 70000000 FTQ IN: 7385687 FTQ occupancy: 3.47361 DECODE IN: 7385730 DECODE occupancy: 6.35661 ROB IN: 7385730 ROB occupancy: 55.2712 ROB OUT: 7385767
Cycle: 80000000 FTQ IN: 7325411 FTQ occupancy: 3.48299 DECODE IN: 7325436 DECODE occupancy: 6.40812 ROB IN: 7325436 ROB occupancy: 55.0629 ROB OUT: 7325424
Heartbeat_Variant_0 : 638 0.311523 per_variant_size: 0 638 0 0 0 0 0 0 0 
Heartbeat_Variant_1 : 1410 0.688477 per_variant_size: 0 142 1268 0 0 0 0 0 0 
Heartbeat_Variant_2 : 0 0 per_variant_size: 0 0 0 0 0 0 0 0 0 
Heartbeat_Variant_3 : 0 0 per_variant_size: 0 0 0 0 0 0 0 0 0 
Heartbeat_Variant_0_evicts 0 : 30811 1 : 60350 2 : 0 3 : 0 
Heartbeat_Variant_1_evicts 0 : 60320 1 : 0 2 : 0 3 : 0 
Heartbeat_Variant_2_evicts 0 : 0 1 : 0 2 : 0 3 : 0 
Heartbeat_Variant_3_evicts 0 : 0 1 : 0 2 : 0 3 : 0 
Heartbeat CPU 0 instructions: 100000000 cycles: 82320762 heartbeat IPC: 0.734595 cumulative IPC: 0.731693 (Simulation time: 0 hr 19 min 6 sec) 
Finished CPU 0 instructions: 50000002 cycles: 68334632 cumulative IPC: 0.731693 (Simulation time: 0 hr 19 min 6 sec) 

ChampSim completed all CPUs

Region of Interest Statistics

CPU 0 cumulative IPC: 0.731693 instructions: 50000002 cycles: 68334632
 Fetch stage stalled: 82.3199  Sim cycles: 68334632 fetch stall cycle: 56252995
 Empty decode stage: 67.7382  Sim cycles: 68334632 fetch stall cycle: 46288639
ITLB TOTAL     ACCESS:    5663151  HIT:    5171106  MISS:     492045  HIT %:    91.3115  MISS %:    8.68854   MPKI: 9.8409
ITLB LOAD TRANSLATION INSTRUCTION	ACCESS:    5588519  HIT:    5096474  MISS:     492045  HIT %:    91.1954  MISS %:    8.80457  MPKI: 9.8409
ITLB TRANSLATION FROM L1D PREFETCHER INSTRUCTION	ACCESS:      74632  HIT:      74632  MISS:          0  HIT %:        100  MISS %:          0  MPKI: 0

ITLB AVERAGE MISS LATENCY: 9.05024 cycles
ITLB RQ	ACCESS:    7133548	FORWARD:          0	MERGED:    1038267	TO_CACHE:    6095281

DTLB TOTAL     ACCESS:   10090602  HIT:    9618224  MISS:     472378  HIT %:    95.3186  MISS %:    4.68137   MPKI: 9.44756
DTLB LOAD TRANSLATION DATA	ACCESS:   10090602  HIT:    9618224  MISS:     472378  HIT %:    95.3186  MISS %:    4.68137  MPKI: 9.44756

DTLB AVERAGE MISS LATENCY: 9.32293 cycles
DTLB RQ	ACCESS:   14150341	FORWARD:          0	MERGED:    4031836	TO_CACHE:   10118505

STLB TOTAL     ACCESS:    1215119  HIT:    1213026  MISS:       2093  HIT %:    99.8278  MISS %:   0.172247   MPKI: 0.04186
STLB LOAD TRANSLATION INSTRUCTION	ACCESS:     492044  HIT:     491775  MISS:        269  HIT %:    99.9453  MISS %:  0.0546699  MPKI: 0.00538
STLB LOAD TRANSLATION DATA	ACCESS:     472020  HIT:     470215  MISS:       1805  HIT %:    99.6176  MISS %:   0.382399  MPKI: 0.0361
STLB TRANSLATION FROM L1D PREFETCHER DATA	ACCESS:     251055  HIT:     251036  MISS:         19  HIT %:    99.9924  MISS %: 0.00756806  MPKI: 0.00038

STLB AVERAGE MISS LATENCY: 75.9001 cycles
STLB RQ	ACCESS:    1339616	FORWARD:          0	MERGED:     124450	TO_CACHE:    1215166

STLB Hit, L1D data hit: 0
STLB Hit, L2C data hit: 0
STLB Hit, LLC data hit: 0
STLB Hit, LLC data miss: 0
STLB STLB hints to L2: 0
L1D TOTAL     ACCESS:   13952041  HIT:   12840898  MISS:    1111143  HIT %:     92.036  MISS %:    7.96402   MPKI: 22.2229
L1D LOAD DATA	ACCESS:    7315267  HIT:    6583803  MISS:     731464  HIT %:    90.0009  MISS %:    9.99914  MPKI: 14.6293
L1D RFO DATA	ACCESS:    6301767  HIT:    6015194  MISS:     286573  HIT %:    95.4525  MISS %:     4.5475  MPKI: 5.73146
L1D PREFETCH DATA	ACCESS:     335007  HIT:     241901  MISS:      93106  HIT %:    72.2077  MISS %:    27.7923  MPKI: 1.86212

L1D PREFETCH  REQUESTED:     750532  ISSUED:     750532  USEFUL:      33420  USELESS:      67070
L1D USEFUL LOAD PREFETCHES:      33420 PREFETCH ISSUED TO LOWER LEVEL:     100586  ACCURACY: 33.2253
 TIMELY PREFETCHES:      33420 LATE PREFETCHES: 7416 DROPPED PREFETCHES: 5
L1D AVERAGE MISS LATENCY: 310609 cycles
L1D RQ	ACCESS:   11283348	FORWARD:          0	MERGED:    3779834	TO_CACHE:    7341040
L1D WQ	ACCESS:    6943592	FORWARD:     162618	MERGED:     134291	TO_CACHE:    6809301
L1D PQ	ACCESS:     375338	FORWARD:          0	MERGED:          0	TO_CACHE:     375194

L1D UNIQUE REGIONS ACCESSED: 0
L1D REGIONS CONFLICTS: 0
L1D Cross Page Prefetch Requests: 6811
L1D Same Page Prefetch Requests: 756459
L1D ROI Sum of L1D PQ occupancy: 4762349
L1D PREFETCHES PUSHED FROM L2C: 0
L1I TOTAL     ACCESS:    6995677  HIT:    4240674  MISS:    2755003  HIT %:    60.6185  MISS %:    39.3815   MPKI: 55.1001
L1I LOAD INSTRUCTION	ACCESS:    6681499  HIT:    3926496  MISS:    2755003  HIT %:    58.7667  MISS %:    41.2333  MPKI: 55.1001
L1I PREFETCH INSTRUCTION	ACCESS:     314178  HIT:     314178  MISS:          0  HIT %:        100  MISS %:          0  MPKI: 0

L1I PREFETCH  REQUESTED:     548169  ISSUED:     548169  USEFUL:          0  USELESS:          0
L1I USEFUL LOAD PREFETCHES:          0 PREFETCH ISSUED TO LOWER LEVEL:          0  ACCURACY: -nan
 TIMELY PREFETCHES:          0 LATE PREFETCHES: 0 DROPPED PREFETCHES: 0
L1I AVERAGE MISS LATENCY: 17.5808 cycles
L1I RQ	ACCESS:    9446739	FORWARD:          0	MERGED:    2687571	TO_CACHE:    6759168
L1I PQ	ACCESS:     548169	FORWARD:          0	MERGED:     173789	TO_CACHE:     374380

L1BTB TOTAL     ACCESS:    5670056  HIT:    2051424  MISS:    3618632  HIT %:      36.18  MISS %:      63.82   MPKI: 72.3726
L1BTB BRANCH_DIRECT_JUMP	ACCESS:     548686 HIT:     145659 MISS:     403027 AVERAGE STALL: 28.309 AVERAGE FETCH STALL: 19.012 AVERAGE FETCH QUEUE STALL: 3.29191 AVERAGE DECODE STALL: 5.15697 AVERAGE EXECUTE STALL: 1.09831e+14
L1BTB BRANCH_INDIRECT	ACCESS:     183413 HIT:      66317 MISS:     117096 AVERAGE STALL: 68.4664 AVERAGE FETCH STALL: 16.7893 AVERAGE FETCH QUEUE STALL: 3.56042 AVERAGE DECODE STALL: 5.1261 AVERAGE EXECUTE STALL: 42.0472
L1BTB BRANCH_CONDITIONAL	ACCESS:    2713977 HIT:    1424696 MISS:    1289281 AVERAGE STALL: 29.0201 AVERAGE FETCH STALL: 20.539 AVERAGE FETCH QUEUE STALL: 2.64622 AVERAGE DECODE STALL: 5.08889 AVERAGE EXECUTE STALL: 3.60002e+13
L1BTB BRANCH_DIRECT_CALL	ACCESS:     941306 HIT:     104654 MISS:     836652 AVERAGE STALL: 30.1294 AVERAGE FETCH STALL: 21.3805 AVERAGE FETCH QUEUE STALL: 2.77299 AVERAGE DECODE STALL: 5.22176 AVERAGE EXECUTE STALL: 3.98218e+13
L1BTB BRANCH_INDIRECT_CALL	ACCESS:     170683 HIT:      20675 MISS:     150008 AVERAGE STALL: 90.0744 AVERAGE FETCH STALL: 19.47 AVERAGE FETCH QUEUE STALL: 2.6241 AVERAGE DECODE STALL: 5.24846 AVERAGE EXECUTE STALL: 62.1726
L1BTB BRANCH_RETURN	ACCESS:    1111991 HIT:     289423 MISS:     822568 AVERAGE STALL: 29.0138 AVERAGE FETCH STALL: 18.6749 AVERAGE FETCH QUEUE STALL: 2.77529 AVERAGE DECODE STALL: 5.2558 AVERAGE EXECUTE STALL: 6.21753e+13
L1BTB BRANCH_OTHER ACCESS:          0 HIT:          0 MISS:          0 AVERAGE STALL: -nan AVERAGE FETCH STALL: -nan AVERAGE FETCH QUEUE STALL: -nan AVERAGE DECODE STALL: -nan AVERAGE EXECUTE STALL: -nan
L1BTB TOTAL ROB OCCUPANCY AT BTB MISS: 20.0164

L2BTB TOTAL     ACCESS:    3593135  HIT:    2052413  MISS:    1540722  HIT %:    57.1204  MISS %:    42.8796   MPKI: 30.8144
L2BTB BRANCH_DIRECT_JUMP	ACCESS:     398816 HIT:     234993 MISS:     163823 AVERAGE STALL: 28.309 AVERAGE FETCH STALL: 19.012 AVERAGE FETCH QUEUE STALL: 3.29191 AVERAGE DECODE STALL: 5.15697 AVERAGE EXECUTE STALL: 1.09831e+14
L2BTB BRANCH_INDIRECT	ACCESS:     106807 HIT:      82666 MISS:      24141 AVERAGE STALL: 68.4664 AVERAGE FETCH STALL: 16.7893 AVERAGE FETCH QUEUE STALL: 3.56042 AVERAGE DECODE STALL: 5.1261 AVERAGE EXECUTE STALL: 42.0472
L2BTB BRANCH_CONDITIONAL	ACCESS:    1289281 HIT:     774237 MISS:     515044 AVERAGE STALL: 29.0201 AVERAGE FETCH STALL: 20.539 AVERAGE FETCH QUEUE STALL: 2.64622 AVERAGE DECODE STALL: 5.08889 AVERAGE EXECUTE STALL: 3.60002e+13
L2BTB BRANCH_DIRECT_CALL	ACCESS:     836652 HIT:     373262 MISS:     463390 AVERAGE STALL: 30.1294 AVERAGE FETCH STALL: 21.3805 AVERAGE FETCH QUEUE STALL: 2.77299 AVERAGE DECODE STALL: 5.22176 AVERAGE EXECUTE STALL: 3.98218e+13
L2BTB BRANCH_INDIRECT_CALL	ACCESS:     140405 HIT:      61487 MISS:      78918 AVERAGE STALL: 90.0744 AVERAGE FETCH STALL: 19.47 AVERAGE FETCH QUEUE STALL: 2.6241 AVERAGE DECODE STALL: 5.24846 AVERAGE EXECUTE STALL: 62.1726
L2BTB BRANCH_RETURN	ACCESS:     821174 HIT:     525768 MISS:     295406 AVERAGE STALL: 29.0138 AVERAGE FETCH STALL: 18.6749 AVERAGE FETCH QUEUE STALL: 2.77529 AVERAGE DECODE STALL: 5.2558 AVERAGE EXECUTE STALL: 6.21753e+13
L2BTB BRANCH_OTHER ACCESS:          0 HIT:          0 MISS:          0 AVERAGE STALL: -nan AVERAGE FETCH STALL: -nan AVERAGE FETCH QUEUE STALL: -nan AVERAGE DECODE STALL: -nan AVERAGE EXECUTE STALL: -nan
L2BTB TOTAL ROB OCCUPANCY AT BTB MISS: 47.0117

L2C TOTAL     ACCESS:    4485159  HIT:    3949390  MISS:     535769  HIT %:    88.0546  MISS %:    11.9454   MPKI: 10.7154
L2C LOAD INSTRUCTION	ACCESS:    2755003  HIT:    2462506  MISS:     292497  HIT %:    89.3831  MISS %:    10.6169  MPKI: 5.84994
L2C LOAD TRANSLATION INSTRUCTION	ACCESS:        307  HIT:         75  MISS:        232  HIT %:      24.43  MISS %:      75.57  MPKI: 0.00464
L2C LOAD DATA	ACCESS:     724036  HIT:     634764  MISS:      89272  HIT %:    87.6702  MISS %:    12.3298  MPKI: 1.78544
L2C RFO DATA	ACCESS:     286497  HIT:     228463  MISS:      58034  HIT %:    79.7436  MISS %:    20.2564  MPKI: 1.16068
L2C PREFETCH DATA	ACCESS:     197872  HIT:     119274  MISS:      78598  HIT %:    60.2784  MISS %:    39.7216  MPKI: 1.57196
L2C WRITEBACK DATA	ACCESS:     519531  HIT:     503772  MISS:      15759  HIT %:    96.9667  MISS %:    3.03331  MPKI: 0.31518
L2C LOAD TRANSLATION DATA	ACCESS:       1878  HIT:        511  MISS:       1367  HIT %:    27.2098  MISS %:    72.7902  MPKI: 0.02734
L2C TRANSLATION FROM L1D PREFETCHER DATA	ACCESS:         35  HIT:         25  MISS:         10  HIT %:    71.4286  MISS %:    28.5714  MPKI: 0.0002

L2C PREFETCH  REQUESTED:     105363  ISSUED:     105363  USEFUL:       9883  USELESS:      69407
L2C USEFUL LOAD PREFETCHES:       9883 PREFETCH ISSUED TO LOWER LEVEL:      79180  ACCURACY: 12.4817
 TIMELY PREFETCHES:       9883 LATE PREFETCHES: 582 DROPPED PREFETCHES: 0
L2C AVERAGE MISS LATENCY: 37.7653 cycles
L2C RQ	ACCESS:    3767785	FORWARD:          0	MERGED:          0	TO_CACHE:    3767761
L2C WQ	ACCESS:     519532	FORWARD:         25	MERGED:          0	TO_CACHE:     519532
L2C PQ	ACCESS:     205949	FORWARD:          0	MERGED:       3621	TO_CACHE:     202327

L2C Dense regions hint from L2: 0
PSCL5 TOTAL     ACCESS:       4200  HIT:       2100  MISS:       2100  HIT %:         50  MISS %:         50   MPKI: 0.042
PSCL5 LOAD TRANSLATION INSTRUCTION	ACCESS:       4130  HIT:       2065  MISS:       2065  HIT %:         50  MISS %:         50  MPKI: 0.0413
PSCL5 TRANSLATION FROM L1D PREFETCHER INSTRUCTION	ACCESS:         70  HIT:         35  MISS:         35  HIT %:         50  MISS %:         50  MPKI: 0.0007


PSCL4 TOTAL     ACCESS:       3967  HIT:       1979  MISS:       1988  HIT %:    49.8866  MISS %:    50.1134   MPKI: 0.03976
PSCL4 LOAD TRANSLATION INSTRUCTION	ACCESS:       3586  HIT:       1950  MISS:       1636  HIT %:    54.3781  MISS %:    45.6219  MPKI: 0.03272
PSCL4 TRANSLATION FROM L1D PREFETCHER INSTRUCTION	ACCESS:         58  HIT:         29  MISS:         29  HIT %:         50  MISS %:         50  MPKI: 0.00058
PSCL4 LOAD TRANSLATION DATA	ACCESS:        323  HIT:          0  MISS:        323  HIT %:          0  MISS %:        100  MPKI: 0.00646


PSCL3 TOTAL     ACCESS:       4029  HIT:       2010  MISS:       2019  HIT %:    49.8883  MISS %:    50.1117   MPKI: 0.04038
PSCL3 LOAD TRANSLATION INSTRUCTION	ACCESS:       3617  HIT:       1981  MISS:       1636  HIT %:    54.7691  MISS %:    45.2309  MPKI: 0.03272
PSCL3 TRANSLATION FROM L1D PREFETCHER INSTRUCTION	ACCESS:         58  HIT:         29  MISS:         29  HIT %:         50  MISS %:         50  MPKI: 0.00058
PSCL3 LOAD TRANSLATION DATA	ACCESS:        354  HIT:          0  MISS:        354  HIT %:          0  MISS %:        100  MPKI: 0.00708


PSCL2 TOTAL     ACCESS:       4094  HIT:       1994  MISS:       2100  HIT %:    48.7054  MISS %:    51.2946   MPKI: 0.042
PSCL2 LOAD TRANSLATION INSTRUCTION	ACCESS:       2236  HIT:       1959  MISS:        277  HIT %:    87.6118  MISS %:    12.3882  MPKI: 0.00554
PSCL2 TRANSLATION FROM L1D PREFETCHER INSTRUCTION	ACCESS:         35  HIT:         35  MISS:          0  HIT %:        100  MISS %:          0  MPKI: 0
PSCL2 LOAD TRANSLATION DATA	ACCESS:       1788  HIT:          0  MISS:       1788  HIT %:          0  MISS %:        100  MPKI: 0.03576
PSCL2 TRANSLATION FROM L1D PREFETCHER DATA	ACCESS:         35  HIT:          0  MISS:         35  HIT %:          0  MISS %:        100  MPKI: 0.0007


LLC TOTAL     ACCESS:     605393  HIT:     575624  MISS:      29769  HIT %:    95.0827  MISS %:     4.9173   MPKI: 0.59538
LLC LOAD INSTRUCTION	ACCESS:     292497  HIT:     291070  MISS:       1427  HIT %:    99.5121  MISS %:   0.487868  MPKI: 0.02854
LLC LOAD TRANSLATION INSTRUCTION	ACCESS:        232  HIT:        182  MISS:         50  HIT %:    78.4483  MISS %:    21.5517  MPKI: 0.001
LLC LOAD DATA	ACCESS:      88705  HIT:      84979  MISS:       3726  HIT %:    95.7996  MISS %:    4.20044  MPKI: 0.07452
LLC RFO DATA	ACCESS:      58011  HIT:      43916  MISS:      14095  HIT %:    75.7029  MISS %:    24.2971  MPKI: 0.2819
LLC PREFETCH DATA	ACCESS:      79180  HIT:      69137  MISS:      10043  HIT %:    87.3162  MISS %:    12.6838  MPKI: 0.20086
LLC WRITEBACK DATA	ACCESS:      85391  HIT:      85069  MISS:        322  HIT %:    99.6229  MISS %:   0.377089  MPKI: 0.00644
LLC LOAD TRANSLATION DATA	ACCESS:       1367  HIT:       1261  MISS:        106  HIT %:    92.2458  MISS %:    7.75421  MPKI: 0.00212
LLC TRANSLATION FROM L1D PREFETCHER DATA	ACCESS:         10  HIT:         10  MISS:          0  HIT %:        100  MISS %:          0  MPKI: 0

LLC AVERAGE MISS LATENCY: 154.481 cycles
LLC RQ	ACCESS:     440830	FORWARD:          0	MERGED:          0	TO_CACHE:     440822
LLC WQ	ACCESS:      85391	FORWARD:          8	MERGED:          0	TO_CACHE:      85391
LLC PQ	ACCESS:      79180	FORWARD:          0	MERGED:          0	TO_CACHE:      79180

LLC Dense regions hint to LLC: 0

RAW hits: 1354057
Loads Generated: 12637404
Loads sent to L1D: 11283348
Stores Generated: 6943573
Stores sent to L1D: 6943592
Major fault: 0 Minor fault: 2597
Allocated PAGES: 2597

stream: 
stream:times selected: 1187032
stream:pref_filled: 119369
stream:pref_useful: 23923
stream:pref_late: 6599
stream:misses: 8035
stream:misses_by_poll: 0

CS: 
CS:times selected: 177465
CS:pref_filled: 59635
CS:pref_useful: 35722
CS:pref_late: 6951
CS:misses: 16302
CS:misses_by_poll: 3

CPLX: 
CPLX:times selected: 1008482
CPLX:pref_filled: 19987
CPLX:pref_useful: 4591
CPLX:pref_late: 3070
CPLX:misses: 92154
CPLX:misses_by_poll: 0

NL_L1: 
NL:times selected: 20363
NL:pref_filled: 694
NL:pref_useful: 310
NL:pref_late: 297
NL:misses: 1788
NL:misses_by_poll: 0

total selections: 2393342
total_filled: 93106
total_useful: 33420
total_late: 17987
total_polluted: 3
total_misses_after_warmup: 757241
conflicts: 5886946

test: 115744

DRAM Statistics
 CHANNEL 0
 RQ ROW_BUFFER_HIT:      10841  ROW_BUFFER_MISS:      18599
 DBUS_CONGESTED:          6
 WQ ROW_BUFFER_HIT:       1474  ROW_BUFFER_MISS:      12337  FULL:          0

 AVG_CONGESTED_CYCLE: 5

CPU 0 Branch Prediction Accuracy: 99.8062% MPKI: 0.3542 Average ROB Occupancy at Mispredict: 90.7421
Branch types
NOT_BRANCH: 40859208 81.7184%
BRANCH_DIRECT_JUMP: 548686 1.09737%
BRANCH_INDIRECT: 183413 0.366826%
BRANCH_CONDITIONAL: 6184258 12.3685%
BRANCH_DIRECT_CALL: 941306 1.88261%
BRANCH_INDIRECT_CALL: 170683 0.341366%
BRANCH_RETURN: 1111991 2.22398%
BRANCH_OTHER: 0 0%

DRAM PAGES: 1048576
Allocated PAGES: 2597
Average_ROB_Occupancy: 56.2941
Average_Decode_Occupancy: 6.47183
Average_FTQ_Occupancy: 3.5255
Indirect max targets: 14 Average targets: 1.17949
Branch_type:  BRANCH_DIRECT_JUMP:  Count Percentage: 2.13512 6.66012 4.42913 9.17953 2.23363 11.106 1.30623 62.9502 
Branch_type:  BRANCH_INDIRECT:  Count Percentage: 11.7665 3.41891 2.57045 0 1.33488 25.0078 2.26981 53.6317 
Branch_type:  BRANCH_CONDITIONAL:  Count Percentage: 21.21 6.56145 1.66545 5.2089 1.34856 8.30767 0.679902 55.0181 
Branch_type:  BRANCH_DIRECT_CALL:  Count Percentage: 0.260657 1.74958 1.29739 4.65774 1.91304 2.83298 0.860963 86.4276 
Branch_type:  BRANCH_INDIRECT_CALL:  Count Percentage: 9.56943 0 2.99878 8.7333 0 2.55105 1.29145 74.856 
Branch_type:  BRANCH_RETURN:  Count Percentage: 4.11211 4.94791 1.17109 5.98157 3.19113 9.15945 1.70725 69.7295 
Branch_type:  BRANCH_DIRECT_JUMP:  Total Count: 23407 73014 48556 100634 24487 121754 14320 690115 
Branch_type:  BRANCH_INDIRECT:  Total Count: 43130 12532 9422 0 4893 91666 8320 196587 
Branch_type:  BRANCH_CONDITIONAL:  Total Count: 2621866 811093 205874 643897 166702 1026951 84046 6801057 
Branch_type:  BRANCH_DIRECT_CALL:  Total Count: 4910 32957 24439 87738 36036 53365 16218 1628041 
Branch_type:  BRANCH_INDIRECT_CALL:  Total Count: 32744 0 10261 29883 0 8729 4419 256137 
Branch_type:  BRANCH_RETURN:  Total Count: 91566 110177 26077 133194 71058 203957 38016 1552693 
Number of unique branch instructions: 10693
Upper 32 bits: 
aaaa
ffff
ffff0000
Unique upper 32 bits: 3
Unique upper 36 bits: 3
Unique upper 40 bits: 5
Unique upper 44 bits: 32
Unique upper 48 bits: 157
Variant_0 : 638 0.311523
Variant_1 : 1410 0.688477
Variant_2 : 0 0
Variant_3 : 0 0
Offset_3 4443
Offset_4 257
Offset_5 476
Offset_6 538
Offset_7 636
Offset_8 580
Offset_9 513
Offset_10 417
Offset_11 348
Offset_12 321
Offset_13 236
Offset_14 247
Offset_15 199
Offset_16 227
Offset_17 163
Offset_18 152
Offset_19 257
Offset_20 144
Offset_21 235
Offset_22 408
Offset_23 241
Offset_24 342
Offset_25 117
Offset_47 92
decode_dispatch_called: 20263919 29.654
Dispatch_width: 0 9869905 48.7068 14.4435
Dispatch_width: 1 647697 3.19631 0.947831
Dispatch_width: 2 929130 4.58514 1.35968
Dispatch_width: 3 634665 3.132 0.92876
Dispatch_width: 4 1517915 7.49073 2.2213
Dispatch_width: 5 469595 2.31739 0.687199
Dispatch_width: 6 6195012 30.5716 9.0657
Empty_decode_cycles: 48070713 70.346
ROB_full_cycles: 1255684 1.83755
Starvation_cycles_per_kilo_instr: 608.839
Starvation_cycles_per_kilo_instr_3: 588.964
Starvation_cycles_per_kilo_instr_0: 566.849
Branch_type_1  (3,1)  (4,7)  (5,38)  (6,74)  (7,125)  (8,148)  (9,135)  (10,110)  (11,77)  (12,55)  (13,11)  (14,2)  (15,3)  (16,4)  (18,1)  (19,5)  (20,2)  (21,1)  (22,3)  (23,2)  (24,10)  (25,12) 
Branch_type_2  (3,1)  (4,1)  (5,1)  (8,4)  (9,4)  (10,1)  (12,1)  (13,1)  (14,1)  (16,3)  (17,2)  (20,2)  (21,2)  (23,5)  (24,1)  (47,41) 
Branch_type_3  (3,4441)  (4,249)  (5,433)  (6,447)  (7,480)  (8,362)  (9,281)  (10,167)  (11,135)  (12,62)  (13,10) 
Branch_type_4  (6,4)  (7,8)  (8,26)  (9,55)  (10,66)  (11,70)  (12,113)  (13,100)  (14,111)  (15,95)  (16,100)  (17,75)  (18,65)  (19,124)  (20,73)  (21,124)  (22,214)  (23,136)  (24,198)  (25,101) 
Branch_type_5  (8,3)  (9,1)  (10,4)  (11,5)  (12,3)  (13,14)  (14,16)  (15,11)  (16,22)  (17,11)  (18,23)  (19,14)  (20,11)  (21,13)  (22,43)  (23,26)  (24,37) 
Branch_type_6  (5,4)  (6,13)  (7,23)  (8,37)  (9,37)  (10,69)  (11,61)  (12,87)  (13,100)  (14,117)  (15,90)  (16,98)  (17,75)  (18,63)  (19,114)  (20,56)  (21,95)  (22,148)  (23,72)  (24,96)  (25,4)  (47,51) 
Unique trigger count: 
Variant_0_evicts_0 : 0
Variant_0_evicts_1 : 0
Variant_0_evicts_2 : 0
Variant_0_evicts_3 : 0
Variant_1_evicts_0 : 0
Variant_1_evicts_1 : 0
Variant_1_evicts_2 : 0
Variant_1_evicts_3 : 0
Variant_2_evicts_0 : 0
Variant_2_evicts_1 : 0
Variant_2_evicts_2 : 0
Variant_2_evicts_3 : 0
Variant_3_evicts_0 : 0
Variant_3_evicts_1 : 0
Variant_3_evicts_2 : 0
Variant_3_evicts_3 : 0
BTB PER SET UNIQUE ADDR: 45 48 52 52 53 42 49 42 42 45 57 46 42 50 42 39 40 43 48 45 54 54 33 40 50 36 55 48 49 42 49 43 44 37 47 46 46 39 44 49 46 42 40 52 40 50 48 37 41 38 55 50 49 44 53 52 47 48 46 37 48 45 46 58 47 53 48 50 50 37 46 57 49 48 55 47 43 40 50 49 50 33 49 33 39 54 53 57 61 55 51 38 60 42 48 56 38 54 55 58 59 53 44 46 46 47 47 42 47 42 47 42 51 59 36 56 52 36 47 53 56 48 52 61 46 50 57 46 51 50 59 46 50 44 45 47 48 54 45 60 46 40 43 50 48 53 49 49 41 38 55 46 51 52 52 39 42 34 51 54 50 42 45 46 48 55 51 49 41 37 42 37 48 41 56 60 60 51 50 55 39 50 40 44 44 46 51 49 45 50 47 41 39 45 50 47 58 48 46 50 54 45 60 42 37 40 56 49 44 47 49 46 50 50 35 62 47 39 45 36 39 44 47 41 48 41 47 49 57 47 31 46 63 55 44 43 42 42 49 45 43 57 57 47 41 61 38 48 47 36 47 40 56 41 52 29 56 52 48 45 51 43 56 49 47 40 47 49 54 55 41 42 54 44 59 52 46 43 41 48 49 35 49 58 41 37 26 55 43 54 65 44 38 46 43 52 47 49 49 45 57 44 53 50 50 46 46 40 42 46 40 43 31 51 44 49 42 42 45 47 34 48 46 52 50 65 60 65 43 62 49 40 57 46 58 45 44 61 55 52 52 43 50 47 53 45 54 54 44 48 49 49 42 59 55 49 46 60 49 47 46 34 43 41 51 53 38 46 48 48 59 50 48 51 55 41 48 49 42 41 50 52 60 44 46 45 50 50 37 52 50 56 53 50 52 42 41 45 60 54 37 47 47 43 51 54 48 49 43 41 45 42 54 37 55 52 49 43 54 56 48 56 54 55 57 39 44 50 59 51 44 56 48 47 45 52 48 53 53 56 51 48 51 43 40 53 46 47 48 50 57 41 48 52 45 61 62 37 44 41 36 39 61 45 69 30 57 46 58 60 52 52 37 52 52 43 37 38 50 55 45 51 52 68 46 43 55 46 56 42 42 42 44 40 47 48 40 43 36 30 45 48 52 37 44 50 62 37 54 57 45 42 
BTB PER SET COUNT: 5137 5460 5848 7318 5992 5381 7064 5046 3998 6138 8863 5153 4995 5675 5727 3759 3975 5724 5787 5094 5748 6245 3458 4355 6610 5658 7910 7159 6412 4807 6156 5383 5812 8398 5620 5812 5551 3441 5225 6471 6002 5279 5435 6546 4806 6744 6423 4179 4975 5062 7777 5992 5279 4942 5855 7012 4242 6676 6497 3659 7034 5358 5044 7482 6150 6907 6149 6329 7953 3474 4965 6827 5685 4833 6085 6485 5300 4768 6807 7394 6785 3731 5320 4091 4733 6802 6967 7523 7907 6817 5928 4531 7811 5067 5714 7508 4111 6364 7608 8118 7232 8135 6193 6838 5006 5166 6991 4895 5412 5751 6648 6268 6210 7656 4779 7073 7311 4237 6088 7496 6290 5366 7462 11311 6991 7356 7156 5781 6786 7250 8869 9171 7183 4684 5958 7078 5770 6633 4729 8000 6568 5599 5817 6268 6411 7361 7247 6546 4902 4080 7849 5183 5931 5386 7050 4425 6017 3525 6284 7614 5921 3872 4964 10929 4947 8380 8137 6342 3831 4464 4925 3447 6081 4471 8022 7629 7074 6470 6912 6857 4946 6972 5372 4692 5776 5379 6194 6451 6213 6507 7714 4951 5295 4959 7433 6526 8111 5341 6100 4805 7637 4397 9009 5092 4153 4568 7532 6208 5019 5897 6499 4676 7232 5417 4597 8136 5281 5886 4227 4171 5200 5893 6739 4966 6600 5115 6257 5876 8388 6253 4286 5546 8377 6675 5503 5592 4613 5377 6995 5303 4571 7993 6075 6772 5056 9424 4251 6144 7283 5374 5786 4055 7150 4078 7013 3174 7786 6625 5884 6322 7001 6092 6144 6518 5757 5368 6589 5739 7544 8060 5381 4455 7021 5780 7470 5955 5949 5212 5771 6610 5636 4023 5821 8807 5465 4272 2410 6822 5716 5994 7404 6098 3766 5742 4403 7185 6066 6220 6893 6258 7147 4944 6085 5565 5623 6313 12896 3941 5406 5460 5846 7408 4557 6612 5128 7027 4761 4897 5703 6024 4401 5665 5692 11644 4922 9973 9440 9972 4268 7577 6595 4643 6266 5678 8969 5547 5152 7403 8239 6124 7825 5155 6020 5530 7015 6093 7049 7019 5479 6431 7055 5957 5123 9629 8476 5690 5760 8378 7047 5731 4988 3869 4999 4665 8372 6370 5279 6058 5483 7089 9396 6744 5953 5775 7625 4519 7476 5354 4885 4341 6827 7313 7049 6020 4968 5335 6407 7658 3977 6758 6790 6327 5501 5305 6026 5181 5304 4841 7688 7149 4146 5441 5665 4440 6041 6647 6471 6253 4758 5774 5907 4044 6039 3620 7362 5466 5475 6248 7726 7575 6356 7477 6988 11033 7529 4149 4855 6285 8040 5390 10224 7930 6420 5949 6482 6057 6376 6429 7210 7309 6119 6489 5728 5734 5997 7003 5176 5830 6749 7015 6535 5118 7215 6525 4887 7502 8470 5169 4956 4349 4438 5565 7124 5797 13490 2912 7557 6699 6952 8189 6369 6437 3749 6200 6516 7919 6103 4366 5797 6378 7461 6719 6786 9584 4846 5538 6859 5255 7310 5015 5186 3969 5063 5179 5165 6225 4785 4760 4117 3298 5438 5306 5759 3999 5749 6639 7510 4650 7097 6229 6230 6464 
To predecode: 0
Predecoding something: 0
Predecode request dropped: 0
sizeofblock_0 0
sizeofblock_1 628823
sizeofblock_2 1595136
sizeofblock_3 0
sizeofblock_4 0
sizeofblock_5 0
sizeofblock_6 0
sizeofblock_7 0
sizeofblock_8 0
Variant_0 Correct: 745695 Incorrect: 0 Accuracy: 1
Variant_1 Correct: 3560074 Incorrect: 0 Accuracy: 1
Variant_2 Correct: 0 Incorrect: 0 Accuracy: -nan
Variant_3 Correct: 0 Incorrect: 0 Accuracy: -nan
