
*** ChampSim Multicore Out-of-Order Simulator ***

Warmup Instructions: 50000000
Simulation Instructions: 50000000
Number of CPUs: 1
LLC sets: 2048
LLC ways: 16
Off-chip DRAM Size: 4096 MB Channels: 1 Width: 64-bit Data Rate: 6400 MT/s
CPU 0 runs ./micro_traces/srv392.trace.gz
.gz
ITLB has LRU replacement policy
DTLB has LRU replacement policy
STLB has LRU replacement policy
FDIP Prefetcher at L1I
L1I has LRU replacement policy
L1D has LRU replacement policy
Initialize SRRIP state for L2C
Initialize DRRIP state for LLC
Heartbeat CPU 0 instructions: 10000000 cycles: 2797149 heartbeat IPC: 3.57507 cumulative IPC: 3.57507 (Simulation time: 0 hr 1 min 35 sec) 
Heartbeat CPU 0 instructions: 20000002 cycles: 5593840 heartbeat IPC: 3.57565 cumulative IPC: 3.57536 (Simulation time: 0 hr 3 min 9 sec) 
Heartbeat CPU 0 instructions: 30000003 cycles: 8388146 heartbeat IPC: 3.57871 cumulative IPC: 3.57648 (Simulation time: 0 hr 4 min 44 sec) 
Heartbeat CPU 0 instructions: 40000003 cycles: 11184440 heartbeat IPC: 3.57616 cumulative IPC: 3.5764 (Simulation time: 0 hr 6 min 19 sec) 
Heartbeat CPU 0 instructions: 50000002 cycles: 13981720 heartbeat IPC: 3.5749 cumulative IPC: 3.5761 (Simulation time: 0 hr 7 min 53 sec) 

Warmup complete CPU 0 instructions: 50000002 cycles: 13981720 (Simulation time: 0 hr 7 min 53 sec) 

Cycle: 20000000 FTQ IN: 58032464 FTQ occupancy: 19.1404 DECODE IN: 58032464 DECODE occupancy: 49.5799 ROB IN: 58032464 ROB occupancy: 301.801 ROB OUT: 58032337
Heartbeat CPU 0 instructions: 60000003 cycles: 21479558 heartbeat IPC: 1.33372 cumulative IPC: 1.33372 (Simulation time: 0 hr 9 min 26 sec) 
Heartbeat CPU 0 instructions: 70000003 cycles: 29040439 heartbeat IPC: 1.3226 cumulative IPC: 1.32813 (Simulation time: 0 hr 11 min 1 sec) 
Cycle: 30000000 FTQ IN: 13250070 FTQ occupancy: 10.3786 DECODE IN: 13250029 DECODE occupancy: 25.4694 ROB IN: 13250026 ROB occupancy: 191.506 ROB OUT: 13250129
Heartbeat CPU 0 instructions: 80000001 cycles: 36539485 heartbeat IPC: 1.3335 cumulative IPC: 1.32992 (Simulation time: 0 hr 12 min 32 sec) 
Cycle: 40000000 FTQ IN: 13347411 FTQ occupancy: 10.2169 DECODE IN: 13347423 DECODE occupancy: 25.3921 ROB IN: 13347401 ROB occupancy: 193.149 ROB OUT: 13347371
Heartbeat CPU 0 instructions: 90000000 cycles: 44106347 heartbeat IPC: 1.32155 cumulative IPC: 1.32782 (Simulation time: 0 hr 14 min 6 sec) 
Cycle: 50000000 FTQ IN: 13215714 FTQ occupancy: 10.4218 DECODE IN: 13215685 DECODE occupancy: 25.6598 ROB IN: 13215709 ROB occupancy: 193.159 ROB OUT: 13215709
Heartbeat CPU 0 instructions: 100000001 cycles: 51610614 heartbeat IPC: 1.33258 cumulative IPC: 1.32877 (Simulation time: 0 hr 15 min 38 sec) 
Finished CPU 0 instructions: 50000003 cycles: 37628907 cumulative IPC: 1.32877 (Simulation time: 0 hr 15 min 38 sec) 

ChampSim completed all CPUs

Region of Interest Statistics

CPU 0 cumulative IPC: 1.32877 instructions: 50000003 cycles: 37628907
 Fetch stage stalled: 61.1583  Sim cycles: 37628907 fetch stall cycle: 23013212
 Empty decode stage: 45.0988  Sim cycles: 37628907 fetch stall cycle: 16970187
ITLB TOTAL     ACCESS:    5798795  HIT:    5302686  MISS:     496109  HIT %:    91.4446  MISS %:    8.55538   MPKI: 9.92218
ITLB LOAD TRANSLATION INSTRUCTION	ACCESS:    5674113  HIT:    5178004  MISS:     496109  HIT %:    91.2566  MISS %:    8.74338  MPKI: 9.92218
ITLB TRANSLATION FROM L1D PREFETCHER INSTRUCTION	ACCESS:     124682  HIT:     124682  MISS:          0  HIT %:        100  MISS %:          0  MPKI: 0

ITLB AVERAGE MISS LATENCY: 9.04628 cycles
ITLB RQ	ACCESS:    7885503	FORWARD:          0	MERGED:    1633359	TO_CACHE:    6252144

DTLB TOTAL     ACCESS:    9040278  HIT:    8565877  MISS:     474401  HIT %:    94.7524  MISS %:    5.24764   MPKI: 9.48802
DTLB LOAD TRANSLATION DATA	ACCESS:    9040278  HIT:    8565877  MISS:     474401  HIT %:    94.7524  MISS %:    5.24764  MPKI: 9.48802

DTLB AVERAGE MISS LATENCY: 9.3191 cycles
DTLB RQ	ACCESS:   13397117	FORWARD:          0	MERGED:    4319878	TO_CACHE:    9077239

STLB TOTAL     ACCESS:    1216228  HIT:    1214195  MISS:       2033  HIT %:    99.8328  MISS %:   0.167156   MPKI: 0.04066
STLB LOAD TRANSLATION INSTRUCTION	ACCESS:     496109  HIT:     495864  MISS:        245  HIT %:    99.9506  MISS %:  0.0493843  MPKI: 0.0049
STLB LOAD TRANSLATION DATA	ACCESS:     474195  HIT:     472435  MISS:       1760  HIT %:    99.6288  MISS %:   0.371155  MPKI: 0.0352
STLB TRANSLATION FROM L1D PREFETCHER DATA	ACCESS:     245924  HIT:     245896  MISS:         28  HIT %:    99.9886  MISS %:  0.0113856  MPKI: 0.00056

STLB AVERAGE MISS LATENCY: 70.6252 cycles
STLB RQ	ACCESS:    1335544	FORWARD:          0	MERGED:     119274	TO_CACHE:    1216270

STLB Hit, L1D data hit: 0
STLB Hit, L2C data hit: 0
STLB Hit, LLC data hit: 0
STLB Hit, LLC data miss: 0
STLB STLB hints to L2: 0
L1D TOTAL     ACCESS:   13145683  HIT:   12025087  MISS:    1120596  HIT %:    91.4756  MISS %:    8.52444   MPKI: 22.4119
L1D LOAD DATA	ACCESS:    6607417  HIT:    5867806  MISS:     739611  HIT %:    88.8064  MISS %:    11.1936  MPKI: 14.7922
L1D RFO DATA	ACCESS:    6213557  HIT:    5927572  MISS:     285985  HIT %:    95.3974  MISS %:     4.6026  MPKI: 5.7197
L1D PREFETCH DATA	ACCESS:     324709  HIT:     229709  MISS:      95000  HIT %:     70.743  MISS %:     29.257  MPKI: 1.9

L1D PREFETCH  REQUESTED:     730442  ISSUED:     730442  USEFUL:      33658  USELESS:      68375
L1D USEFUL LOAD PREFETCHES:      33658 PREFETCH ISSUED TO LOWER LEVEL:     102086  ACCURACY: 32.9702
 TIMELY PREFETCHES:      33658 LATE PREFETCHES: 7036 DROPPED PREFETCHES: 4
L1D AVERAGE MISS LATENCY: 209116 cycles
L1D RQ	ACCESS:   10718190	FORWARD:          0	MERGED:    3916769	TO_CACHE:    6640385
L1D WQ	ACCESS:    6949781	FORWARD:     161410	MERGED:     193049	TO_CACHE:    6756732
L1D PQ	ACCESS:     365408	FORWARD:          0	MERGED:          0	TO_CACHE:     365034

L1D UNIQUE REGIONS ACCESSED: 0
L1D REGIONS CONFLICTS: 0
L1D Cross Page Prefetch Requests: 6906
L1D Same Page Prefetch Requests: 742456
L1D ROI Sum of L1D PQ occupancy: 4635270
L1D PREFETCHES PUSHED FROM L2C: 0
L1I TOTAL     ACCESS:    7105659  HIT:    4334680  MISS:    2770979  HIT %:    61.0032  MISS %:    38.9968   MPKI: 55.4196
L1I LOAD INSTRUCTION	ACCESS:    6470257  HIT:    3699278  MISS:    2770979  HIT %:    57.1736  MISS %:    42.8264  MPKI: 55.4196
L1I PREFETCH INSTRUCTION	ACCESS:     635402  HIT:     635402  MISS:          0  HIT %:        100  MISS %:          0  MPKI: 0

L1I PREFETCH  REQUESTED:    1509787  ISSUED:    1509787  USEFUL:          0  USELESS:          0
L1I USEFUL LOAD PREFETCHES:          0 PREFETCH ISSUED TO LOWER LEVEL:          0  ACCURACY: -nan
 TIMELY PREFETCHES:          0 LATE PREFETCHES: 0 DROPPED PREFETCHES: 0
L1I AVERAGE MISS LATENCY: 17.0528 cycles
L1I RQ	ACCESS:    9483336	FORWARD:          0	MERGED:    2694106	TO_CACHE:    6789230
L1I PQ	ACCESS:    1509787	FORWARD:          0	MERGED:     413514	TO_CACHE:    1096273

L1BTB TOTAL     ACCESS:    5671590  HIT:    2032464  MISS:    3639126  HIT %:    35.8359  MISS %:    64.1641   MPKI: 72.7825
L1BTB BRANCH_DIRECT_JUMP	ACCESS:     547869  HIT:     144016  MISS:     403853	AVERAGE STALL: 38.7535
L1BTB BRANCH_INDIRECT	ACCESS:     182376  HIT:      65594  MISS:     116782	AVERAGE STALL: 125.497
L1BTB BRANCH_CONDITIONAL	ACCESS:    2696939  HIT:    1401538  MISS:    1295401	AVERAGE STALL: 53.5262
L1BTB BRANCH_DIRECT_CALL	ACCESS:     949410  HIT:     107171  MISS:     842239	AVERAGE STALL: 52.2651
L1BTB BRANCH_INDIRECT_CALL	ACCESS:     172792  HIT:      21990  MISS:     150802	AVERAGE STALL: 141.883
L1BTB BRANCH_RETURN	ACCESS:    1122204  HIT:     292155  MISS:     830049	AVERAGE STALL: 46.3378
L1BTB BRANCH_OTHER ACCESS:          0  HIT:          0  MISS:          0	AVERAGE STALL: -nan
L1BTB TOTAL ROB OCCUPANCY AT BTB MISS: 4.9272

L2BTB1 TOTAL     ACCESS:    3613870  HIT:    3490745  MISS:     123125  HIT %:     96.593  MISS %:    3.40701   MPKI: 2.4625
L2BTB1 BRANCH_DIRECT_JUMP	ACCESS:     399756  HIT:     391595  MISS:       8161	AVERAGE STALL: 38.7535
L2BTB1 BRANCH_INDIRECT	ACCESS:     106495  HIT:      95517  MISS:      10978	AVERAGE STALL: 125.497
L2BTB1 BRANCH_CONDITIONAL	ACCESS:    1295401  HIT:    1280674  MISS:      14727	AVERAGE STALL: 53.5262
L2BTB1 BRANCH_DIRECT_CALL	ACCESS:     842239  HIT:     819639  MISS:      22600	AVERAGE STALL: 52.2651
L2BTB1 BRANCH_INDIRECT_CALL	ACCESS:     141350  HIT:     128231  MISS:      13119	AVERAGE STALL: 141.883
L2BTB1 BRANCH_RETURN	ACCESS:     828629  HIT:     775089  MISS:      53540	AVERAGE STALL: 46.3378
L2BTB1 BRANCH_OTHER ACCESS:          0  HIT:          0  MISS:          0	AVERAGE STALL: -nan
L2BTB1 TOTAL ROB OCCUPANCY AT BTB MISS: 145.63

L2C TOTAL     ACCESS:    4498872  HIT:    4045099  MISS:     453773  HIT %:    89.9136  MISS %:    10.0864   MPKI: 9.07546
L2C LOAD INSTRUCTION	ACCESS:    2770980  HIT:    2524157  MISS:     246823  HIT %:    91.0926  MISS %:    8.90743  MPKI: 4.93646
L2C LOAD TRANSLATION INSTRUCTION	ACCESS:        274  HIT:         79  MISS:        195  HIT %:    28.8321  MISS %:    71.1679  MPKI: 0.0039
L2C LOAD DATA	ACCESS:     732478  HIT:     658649  MISS:      73829  HIT %:    89.9207  MISS %:    10.0793  MPKI: 1.47658
L2C RFO DATA	ACCESS:     285902  HIT:     238482  MISS:      47420  HIT %:    83.4139  MISS %:    16.5861  MPKI: 0.9484
L2C PREFETCH DATA	ACCESS:     184748  HIT:     113090  MISS:      71658  HIT %:    61.2131  MISS %:    38.7869  MPKI: 1.43316
L2C WRITEBACK DATA	ACCESS:     522634  HIT:     510136  MISS:      12498  HIT %:    97.6087  MISS %:    2.39135  MPKI: 0.24996
L2C LOAD TRANSLATION DATA	ACCESS:       1805  HIT:        472  MISS:       1333  HIT %:    26.1496  MISS %:    73.8504  MPKI: 0.02666
L2C TRANSLATION FROM L1D PREFETCHER DATA	ACCESS:         51  HIT:         34  MISS:         17  HIT %:    66.6667  MISS %:    33.3333  MPKI: 0.00034

L2C PREFETCH  REQUESTED:      91485  ISSUED:      91485  USEFUL:       8126  USELESS:      64107
L2C USEFUL LOAD PREFETCHES:       8126 PREFETCH ISSUED TO LOWER LEVEL:      72138  ACCURACY: 11.2645
 TIMELY PREFETCHES:       8126 LATE PREFETCHES: 480 DROPPED PREFETCHES: 0
L2C AVERAGE MISS LATENCY: 38.5973 cycles
L2C RQ	ACCESS:    3791621	FORWARD:          0	MERGED:          0	TO_CACHE:    3791491
L2C WQ	ACCESS:     522634	FORWARD:        130	MERGED:          0	TO_CACHE:     522634
L2C PQ	ACCESS:     193571	FORWARD:          0	MERGED:       4046	TO_CACHE:     189525

L2C Dense regions hint from L2: 0
PSCL5 TOTAL     ACCESS:       4082  HIT:       2041  MISS:       2041  HIT %:         50  MISS %:         50   MPKI: 0.04082
PSCL5 LOAD TRANSLATION INSTRUCTION	ACCESS:       3982  HIT:       1991  MISS:       1991  HIT %:         50  MISS %:         50  MPKI: 0.03982
PSCL5 TRANSLATION FROM L1D PREFETCHER INSTRUCTION	ACCESS:        100  HIT:         50  MISS:         50  HIT %:         50  MISS %:         50  MPKI: 0.001


PSCL4 TOTAL     ACCESS:       3988  HIT:       1992  MISS:       1996  HIT %:    49.9498  MISS %:    50.0502   MPKI: 0.03992
PSCL4 LOAD TRANSLATION INSTRUCTION	ACCESS:       3339  HIT:       1942  MISS:       1397  HIT %:    58.1611  MISS %:    41.8389  MPKI: 0.02794
PSCL4 TRANSLATION FROM L1D PREFETCHER INSTRUCTION	ACCESS:         84  HIT:         50  MISS:         34  HIT %:    59.5238  MISS %:    40.4762  MPKI: 0.00068
PSCL4 LOAD TRANSLATION DATA	ACCESS:        549  HIT:          0  MISS:        549  HIT %:          0  MISS %:        100  MPKI: 0.01098
PSCL4 TRANSLATION FROM L1D PREFETCHER DATA	ACCESS:         16  HIT:          0  MISS:         16  HIT %:          0  MISS %:        100  MPKI: 0.00032


PSCL3 TOTAL     ACCESS:       4032  HIT:       2014  MISS:       2018  HIT %:    49.9504  MISS %:    50.0496   MPKI: 0.04036
PSCL3 LOAD TRANSLATION INSTRUCTION	ACCESS:       3361  HIT:       1964  MISS:       1397  HIT %:     58.435  MISS %:     41.565  MPKI: 0.02794
PSCL3 TRANSLATION FROM L1D PREFETCHER INSTRUCTION	ACCESS:         84  HIT:         50  MISS:         34  HIT %:    59.5238  MISS %:    40.4762  MPKI: 0.00068
PSCL3 LOAD TRANSLATION DATA	ACCESS:        571  HIT:          0  MISS:        571  HIT %:          0  MISS %:        100  MPKI: 0.01142
PSCL3 TRANSLATION FROM L1D PREFETCHER DATA	ACCESS:         16  HIT:          0  MISS:         16  HIT %:          0  MISS %:        100  MPKI: 0.00032


PSCL2 TOTAL     ACCESS:       4001  HIT:       1960  MISS:       2041  HIT %:    48.9878  MISS %:    51.0122   MPKI: 0.04082
PSCL2 LOAD TRANSLATION INSTRUCTION	ACCESS:       2155  HIT:       1911  MISS:        244  HIT %:    88.6775  MISS %:    11.3225  MPKI: 0.00488
PSCL2 TRANSLATION FROM L1D PREFETCHER INSTRUCTION	ACCESS:         49  HIT:         49  MISS:          0  HIT %:        100  MISS %:          0  MPKI: 0
PSCL2 LOAD TRANSLATION DATA	ACCESS:       1748  HIT:          0  MISS:       1748  HIT %:          0  MISS %:        100  MPKI: 0.03496
PSCL2 TRANSLATION FROM L1D PREFETCHER DATA	ACCESS:         49  HIT:          0  MISS:         49  HIT %:          0  MISS %:        100  MPKI: 0.00098


LLC TOTAL     ACCESS:     510238  HIT:     483106  MISS:      27132  HIT %:    94.6825  MISS %:    5.31752   MPKI: 0.54264
LLC LOAD INSTRUCTION	ACCESS:     246823  HIT:     245946  MISS:        877  HIT %:    99.6447  MISS %:   0.355315  MPKI: 0.01754
LLC LOAD TRANSLATION INSTRUCTION	ACCESS:        195  HIT:        173  MISS:         22  HIT %:    88.7179  MISS %:    11.2821  MPKI: 0.00044
LLC LOAD DATA	ACCESS:      73358  HIT:      70019  MISS:       3339  HIT %:    95.4483  MISS %:    4.55165  MPKI: 0.06678
LLC RFO DATA	ACCESS:      47394  HIT:      34561  MISS:      12833  HIT %:    72.9227  MISS %:    27.0773  MPKI: 0.25666
LLC PREFETCH DATA	ACCESS:      72138  HIT:      62430  MISS:       9708  HIT %:    86.5425  MISS %:    13.4575  MPKI: 0.19416
LLC WRITEBACK DATA	ACCESS:      68980  HIT:      68699  MISS:        281  HIT %:    99.5926  MISS %:   0.407364  MPKI: 0.00562
LLC LOAD TRANSLATION DATA	ACCESS:       1333  HIT:       1261  MISS:         72  HIT %:    94.5986  MISS %:    5.40135  MPKI: 0.00144
LLC TRANSLATION FROM L1D PREFETCHER DATA	ACCESS:         17  HIT:         17  MISS:          0  HIT %:        100  MISS %:          0  MPKI: 0

LLC AVERAGE MISS LATENCY: 156.268 cycles
LLC RQ	ACCESS:     369137	FORWARD:          0	MERGED:          0	TO_CACHE:     369120
LLC WQ	ACCESS:      68980	FORWARD:         17	MERGED:          0	TO_CACHE:      68980
LLC PQ	ACCESS:      72138	FORWARD:          0	MERGED:          0	TO_CACHE:      72138

LLC Dense regions hint to LLC: 0

RAW hits: 1910679
Loads Generated: 12628869
Loads sent to L1D: 10718190
Stores Generated: 6949757
Stores sent to L1D: 6949781
Major fault: 0 Minor fault: 2587
Allocated PAGES: 2587

stream: 
stream:times selected: 1178618
stream:pref_filled: 121026
stream:pref_useful: 23847
stream:pref_late: 6828
stream:misses: 8032
stream:misses_by_poll: 0

CS: 
CS:times selected: 178977
CS:pref_filled: 60854
CS:pref_useful: 37692
CS:pref_late: 6475
CS:misses: 15527
CS:misses_by_poll: 0

CPLX: 
CPLX:times selected: 998487
CPLX:pref_filled: 19272
CPLX:pref_useful: 4489
CPLX:pref_late: 3382
CPLX:misses: 94325
CPLX:misses_by_poll: 2

NL_L1: 
NL:times selected: 20608
NL:pref_filled: 621
NL:pref_useful: 258
NL:pref_late: 385
NL:misses: 1778
NL:misses_by_poll: 0

total selections: 2376690
total_filled: 95000
total_useful: 33658
total_late: 18196
total_polluted: 2
total_misses_after_warmup: 772579
conflicts: 5552495

test: 116126

DRAM Statistics
 CHANNEL 0
 RQ ROW_BUFFER_HIT:       9890  ROW_BUFFER_MISS:      16948
 DBUS_CONGESTED:         13
 WQ ROW_BUFFER_HIT:       1258  ROW_BUFFER_MISS:      11485  FULL:          0

 AVG_CONGESTED_CYCLE: 6

CPU 0 Branch Prediction Accuracy: 99.8269% MPKI: 0.31696 Average ROB Occupancy at Mispredict: 167.603
Branch types
NOT_BRANCH: 40846402 81.6928%
BRANCH_DIRECT_JUMP: 547869 1.09574%
BRANCH_INDIRECT: 182376 0.364752%
BRANCH_CONDITIONAL: 6178982 12.358%
BRANCH_DIRECT_CALL: 949410 1.89882%
BRANCH_INDIRECT_CALL: 172792 0.345584%
BRANCH_RETURN: 1122204 2.24441%
BRANCH_OTHER: 0 0%

DRAM PAGES: 1048576
Allocated PAGES: 2587
Average_ROB_Occupancy: 193.856
Average_Decode_Occupancy: 25.4481
Average_FTQ_Occupancy: 10.3043
Indirect max targets: 14 Average targets: 1.14527
Branch_type:  BRANCH_DIRECT_JUMP:  Count Percentage: 3.38073 5.42582 4.18493 7.86647 1.69073 5.96347 1.1486 70.3393 
Branch_type:  BRANCH_INDIRECT:  Count Percentage: 11.7572 3.41318 2.49149 9.67814 3.35227 4.01822 2.01871 63.2708 
Branch_type:  BRANCH_CONDITIONAL:  Count Percentage: 21.3705 5.35117 2.31055 4.30727 2.1385 4.44314 0.647674 59.4311 
Branch_type:  BRANCH_DIRECT_CALL:  Count Percentage: 0.256492 1.30821 1.41073 3.45064 2.85587 2.34099 0.608595 87.7685 
Branch_type:  BRANCH_INDIRECT_CALL:  Count Percentage: 9.51905 0.554184 2.98472 4.81703 1.5067 2.97342 0.991043 76.6539 
Branch_type:  BRANCH_RETURN:  Count Percentage: 3.72484 3.62119 1.61679 5.90196 4.43224 4.8696 1.02589 74.8075 
Branch_type:  BRANCH_DIRECT_JUMP:  Total Count: 36998 59379 45799 86089 18503 65263 12570 769778 
Branch_type:  BRANCH_INDIRECT:  Total Count: 42848 12439 9080 35271 12217 14644 7357 230584 
Branch_type:  BRANCH_CONDITIONAL:  Total Count: 2638941 660789 285318 531883 264073 548661 79978 7338852 
Branch_type:  BRANCH_DIRECT_CALL:  Total Count: 4861 24793 26736 65396 54124 44366 11534 1663375 
Branch_type:  BRANCH_INDIRECT_CALL:  Total Count: 32859 1913 10303 16628 5201 10264 3421 264603 
Branch_type:  BRANCH_RETURN:  Total Count: 83480 81157 36235 132273 99334 109136 22992 1676562 
Number of unique branch instructions: 9858
Upper 32 bits: 
aaaa
ffff
ffff0000
Unique upper 32 bits: 3
Unique upper 36 bits: 3
Unique upper 40 bits: 5
Unique upper 44 bits: 32
Unique upper 48 bits: 154
Offset_3 4068
Offset_4 241
Offset_5 453
Offset_6 505
Offset_7 585
Offset_8 497
Offset_9 466
Offset_10 380
Offset_11 312
Offset_12 270
Offset_13 203
Offset_14 226
Offset_15 192
Offset_16 222
Offset_17 145
Offset_18 120
Offset_19 239
Offset_20 137
Offset_21 235
Offset_22 394
Offset_23 242
Offset_24 328
Offset_25 88
Offset_47 80
Offset_64 1
decode_dispatch_called: 22591722 60.0382
Dispatch_width: 0 11823266 52.3345 31.4207
Dispatch_width: 1 706460 3.12707 1.87744
Dispatch_width: 2 694765 3.07531 1.84636
Dispatch_width: 3 431394 1.90952 1.14644
Dispatch_width: 4 3393450 15.0208 9.0182
Dispatch_width: 5 218291 0.966243 0.580115
Dispatch_width: 6 5324096 23.5666 14.149
Empty_decode_cycles: 15037185 39.9618
ROB_full_cycles: 5334125 14.1756
Starvation_cycles_per_kilo_instr: 269.707
Starvation_cycles_per_kilo_instr_3: 233.589
Starvation_cycles_per_kilo_instr_0: 215.263
Branch_type_1  (3,1)  (4,9)  (5,37)  (6,70)  (7,116)  (8,124)  (9,124)  (10,96)  (11,69)  (12,43)  (13,8)  (14,2)  (15,3)  (16,4)  (18,1)  (19,4)  (20,2)  (21,1)  (22,3)  (23,2)  (24,10)  (25,12) 
Branch_type_2  (3,1)  (5,1)  (8,3)  (9,3)  (12,1)  (13,1)  (14,1)  (16,3)  (17,2)  (20,2)  (21,2)  (23,5)  (24,1)  (47,36) 
Branch_type_3  (3,4066)  (4,232)  (5,411)  (6,420)  (7,438)  (8,308)  (9,253)  (10,156)  (11,126)  (12,50)  (13,7)  (64,1) 
Branch_type_4  (6,3)  (7,8)  (8,25)  (9,54)  (10,61)  (11,60)  (12,97)  (13,85)  (14,101)  (15,91)  (16,100)  (17,63)  (18,54)  (19,117)  (20,72)  (21,124)  (22,209)  (23,136)  (24,188)  (25,72) 
Branch_type_5  (8,2)  (9,1)  (10,3)  (11,5)  (12,3)  (13,14)  (14,16)  (15,11)  (16,20)  (17,13)  (18,16)  (19,12)  (20,10)  (21,13)  (22,42)  (23,26)  (24,37) 
Branch_type_6  (5,4)  (6,12)  (7,23)  (8,35)  (9,31)  (10,64)  (11,52)  (12,76)  (13,88)  (14,106)  (15,87)  (16,95)  (17,67)  (18,49)  (19,106)  (20,51)  (21,95)  (22,140)  (23,73)  (24,92)  (25,4)  (47,44) 
Unique trigger count: 
L2BTB1 1536 4
L2BTB2 1536 4
L2BTB3 1536 4
L2BTB4 224 4
