
*** ChampSim Multicore Out-of-Order Simulator ***

Warmup Instructions: 50000000
Simulation Instructions: 50000000
Number of CPUs: 1
LLC sets: 2048
LLC ways: 16
Off-chip DRAM Size: 4096 MB Channels: 1 Width: 64-bit Data Rate: 6400 MT/s
CPU 0 runs ./micro_traces/srv478.trace.gz
.gz
ITLB has LRU replacement policy
DTLB has LRU replacement policy
STLB has LRU replacement policy
CPU 0 L1I next line prefetcher
L1I has LRU replacement policy
L1D has LRU replacement policy
Initialize SRRIP state for L2C
Initialize DRRIP state for LLC
Heartbeat CPU 0 instructions: 10000002 cycles: 2795698 heartbeat IPC: 3.57693 cumulative IPC: 3.57693 (Simulation time: 0 hr 1 min 41 sec) 
Heartbeat CPU 0 instructions: 20000000 cycles: 5591938 heartbeat IPC: 3.57623 cumulative IPC: 3.57658 (Simulation time: 0 hr 3 min 20 sec) 
Heartbeat CPU 0 instructions: 30000003 cycles: 8386687 heartbeat IPC: 3.57814 cumulative IPC: 3.5771 (Simulation time: 0 hr 4 min 59 sec) 
Heartbeat CPU 0 instructions: 40000001 cycles: 11182162 heartbeat IPC: 3.57721 cumulative IPC: 3.57713 (Simulation time: 0 hr 6 min 39 sec) 
Heartbeat CPU 0 instructions: 50000002 cycles: 13978533 heartbeat IPC: 3.57606 cumulative IPC: 3.57691 (Simulation time: 0 hr 8 min 16 sec) 

Warmup complete CPU 0 instructions: 50000002 cycles: 13978533 (Simulation time: 0 hr 8 min 16 sec) 

Cycle: 20000000 FTQ IN: 57551764 FTQ occupancy: 17.8998 DECODE IN: 57551755 DECODE occupancy: 47.2703 ROB IN: 57551755 ROB occupancy: 297.962 ROB OUT: 57551436
Heartbeat CPU 0 instructions: 60000000 cycles: 21941748 heartbeat IPC: 1.25577 cumulative IPC: 1.25577 (Simulation time: 0 hr 9 min 42 sec) 
Heartbeat CPU 0 instructions: 70000001 cycles: 29762003 heartbeat IPC: 1.27873 cumulative IPC: 1.26715 (Simulation time: 0 hr 11 min 6 sec) 
Cycle: 30000000 FTQ IN: 12750324 FTQ occupancy: 5.89961 DECODE IN: 12750301 DECODE occupancy: 17.1394 ROB IN: 12750271 ROB occupancy: 177.945 ROB OUT: 12750524
Heartbeat CPU 0 instructions: 80000001 cycles: 37678547 heartbeat IPC: 1.26318 cumulative IPC: 1.26582 (Simulation time: 0 hr 12 min 35 sec) 
Cycle: 40000000 FTQ IN: 12648396 FTQ occupancy: 6.09001 DECODE IN: 12648390 DECODE occupancy: 17.4999 ROB IN: 12648360 ROB occupancy: 177.355 ROB OUT: 12648074
Heartbeat CPU 0 instructions: 90000002 cycles: 45540087 heartbeat IPC: 1.27202 cumulative IPC: 1.26736 (Simulation time: 0 hr 14 min 0 sec) 
Cycle: 50000000 FTQ IN: 12633790 FTQ occupancy: 6.21339 DECODE IN: 12633822 DECODE occupancy: 17.6986 ROB IN: 12633882 ROB occupancy: 175.44 ROB OUT: 12633882
Heartbeat CPU 0 instructions: 100000002 cycles: 53479363 heartbeat IPC: 1.25956 cumulative IPC: 1.2658 (Simulation time: 0 hr 15 min 34 sec) 
Finished CPU 0 instructions: 50000000 cycles: 39500830 cumulative IPC: 1.2658 (Simulation time: 0 hr 15 min 34 sec) 

ChampSim completed all CPUs

Region of Interest Statistics

CPU 0 cumulative IPC: 1.2658 instructions: 50000000 cycles: 39500830
 Fetch stage stalled: 66.1843  Sim cycles: 39500830 fetch stall cycle: 26143349
 Empty decode stage: 48.9564  Sim cycles: 39500830 fetch stall cycle: 19338197
ITLB TOTAL     ACCESS:    7559963  HIT:    6944159  MISS:     615804  HIT %:    91.8544  MISS %:     8.1456   MPKI: 12.3161
ITLB LOAD TRANSLATION INSTRUCTION	ACCESS:    5819155  HIT:    5690125  MISS:     129030  HIT %:    97.7827  MISS %:    2.21733  MPKI: 2.5806
ITLB TRANSLATION FROM L1D PREFETCHER INSTRUCTION	ACCESS:    1740808  HIT:    1254034  MISS:     486774  HIT %:    72.0375  MISS %:    27.9625  MPKI: 9.73548

ITLB AVERAGE MISS LATENCY: 157175 cycles
ITLB RQ	ACCESS:   11481890	FORWARD:          0	MERGED:    3765670	TO_CACHE:    7716220

DTLB TOTAL     ACCESS:    9072674  HIT:    8598849  MISS:     473825  HIT %:    94.7774  MISS %:    5.22255   MPKI: 9.4765
DTLB LOAD TRANSLATION DATA	ACCESS:    9072674  HIT:    8598849  MISS:     473825  HIT %:    94.7774  MISS %:    5.22255  MPKI: 9.4765

DTLB AVERAGE MISS LATENCY: 9.33268 cycles
DTLB RQ	ACCESS:   13400276	FORWARD:          0	MERGED:    4291203	TO_CACHE:    9109073

STLB TOTAL     ACCESS:    1346577  HIT:    1344552  MISS:       2025  HIT %:    99.8496  MISS %:   0.150381   MPKI: 0.0405
STLB LOAD TRANSLATION INSTRUCTION	ACCESS:     126263  HIT:     126087  MISS:        176  HIT %:    99.8606  MISS %:   0.139392  MPKI: 0.00352
STLB TRANSLATION FROM L1D PREFETCHER INSTRUCTION	ACCESS:     489541  HIT:     489476  MISS:         65  HIT %:    99.9867  MISS %:  0.0132777  MPKI: 0.0013
STLB LOAD TRANSLATION DATA	ACCESS:     473825  HIT:     472053  MISS:       1772  HIT %:     99.626  MISS %:   0.373978  MPKI: 0.03544
STLB TRANSLATION FROM L1D PREFETCHER DATA	ACCESS:     256948  HIT:     256936  MISS:         12  HIT %:    99.9953  MISS %: 0.00467021  MPKI: 0.00024

STLB AVERAGE MISS LATENCY: 74.6044 cycles
STLB RQ	ACCESS:    1496921	FORWARD:          0	MERGED:     146879	TO_CACHE:    1350042

STLB Hit, L1D data hit: 0
STLB Hit, L2C data hit: 0
STLB Hit, LLC data hit: 0
STLB Hit, LLC data miss: 0
STLB STLB hints to L2: 0
L1D TOTAL     ACCESS:   13134923  HIT:   11966026  MISS:    1168897  HIT %:    91.1008  MISS %:    8.89915   MPKI: 23.3779
L1D LOAD DATA	ACCESS:    6632675  HIT:    5859346  MISS:     773329  HIT %:    88.3406  MISS %:    11.6594  MPKI: 15.4666
L1D RFO DATA	ACCESS:    6171062  HIT:    5879795  MISS:     291267  HIT %:    95.2801  MISS %:    4.71988  MPKI: 5.82534
L1D PREFETCH DATA	ACCESS:     331186  HIT:     226885  MISS:     104301  HIT %:    68.5068  MISS %:    31.4932  MPKI: 2.08602

L1D PREFETCH  REQUESTED:     808230  ISSUED:     808230  USEFUL:      50963  USELESS:      70638
L1D USEFUL LOAD PREFETCHES:      50963 PREFETCH ISSUED TO LOWER LEVEL:     121663  ACCURACY: 41.8887
 TIMELY PREFETCHES:      50963 LATE PREFETCHES: 17273 DROPPED PREFETCHES: 5
L1D AVERAGE MISS LATENCY: 493457 cycles
L1D RQ	ACCESS:   10738097	FORWARD:          0	MERGED:    3902999	TO_CACHE:    6672485
L1D WQ	ACCESS:    6913476	FORWARD:     163091	MERGED:     185685	TO_CACHE:    6727791
L1D PQ	ACCESS:     404354	FORWARD:          0	MERGED:          0	TO_CACHE:     403876

L1D UNIQUE REGIONS ACCESSED: 0
L1D REGIONS CONFLICTS: 0
L1D Cross Page Prefetch Requests: 5945
L1D Same Page Prefetch Requests: 817078
L1D ROI Sum of L1D PQ occupancy: 5150301
L1D PREFETCHES PUSHED FROM L2C: 0
L1I TOTAL     ACCESS:   11106437  HIT:    7472667  MISS:    3633770  HIT %:    67.2823  MISS %:    32.7177   MPKI: 72.6754
L1I LOAD INSTRUCTION	ACCESS:    6566098  HIT:    5992801  MISS:     573297  HIT %:    91.2688  MISS %:    8.73117  MPKI: 11.4659
L1I PREFETCH INSTRUCTION	ACCESS:    4540339  HIT:    1479866  MISS:    3060473  HIT %:    32.5937  MISS %:    67.4063  MPKI: 61.2095

L1I PREFETCH  REQUESTED:    5224309  ISSUED:    5223629  USEFUL:    2358216  USELESS:     792503
L1I USEFUL LOAD PREFETCHES:    2358216 PREFETCH ISSUED TO LOWER LEVEL:    3150648  ACCURACY: 74.8486
 TIMELY PREFETCHES:    2358216 LATE PREFETCHES: 90176 DROPPED PREFETCHES: 9835
L1I AVERAGE MISS LATENCY: 825836 cycles
L1I RQ	ACCESS:    9452225	FORWARD:          0	MERGED:    2845862	TO_CACHE:    6606363
L1I PQ	ACCESS:    5223629	FORWARD:          0	MERGED:     348102	TO_CACHE:    4875527

L1BTB TOTAL     ACCESS:    5680705  HIT:    2064921  MISS:    3615784  HIT %:    36.3497  MISS %:    63.6503   MPKI: 72.3157
L1BTB BRANCH_DIRECT_JUMP	ACCESS:     545184  HIT:     143038  MISS:     402146	AVERAGE STALL: 26.0262
L1BTB BRANCH_INDIRECT	ACCESS:     181439  HIT:      65199  MISS:     116240	AVERAGE STALL: 112.279
L1BTB BRANCH_CONDITIONAL	ACCESS:    2732065  HIT:    1444026  MISS:    1288039	AVERAGE STALL: 27.4594
L1BTB BRANCH_DIRECT_CALL	ACCESS:     940120  HIT:     104132  MISS:     835988	AVERAGE STALL: 28.4377
L1BTB BRANCH_INDIRECT_CALL	ACCESS:     170892  HIT:      21041  MISS:     149851	AVERAGE STALL: 124.621
L1BTB BRANCH_RETURN	ACCESS:    1111005  HIT:     287485  MISS:     823520	AVERAGE STALL: 29.5491
L1BTB BRANCH_OTHER ACCESS:          0  HIT:          0  MISS:          0	AVERAGE STALL: -nan
L1BTB TOTAL ROB OCCUPANCY AT BTB MISS: 16.7104

L2BTB1 TOTAL     ACCESS:    3590622  HIT:    3187391  MISS:     403231  HIT %:    88.7699  MISS %:    11.2301   MPKI: 8.06462
L2BTB1 BRANCH_DIRECT_JUMP	ACCESS:     398053  HIT:     362104  MISS:      35949	AVERAGE STALL: 26.0262
L2BTB1 BRANCH_INDIRECT	ACCESS:     105991  HIT:      83837  MISS:      22154	AVERAGE STALL: 112.279
L2BTB1 BRANCH_CONDITIONAL	ACCESS:    1288039  HIT:    1181048  MISS:     106991	AVERAGE STALL: 27.4594
L2BTB1 BRANCH_DIRECT_CALL	ACCESS:     835988  HIT:     721746  MISS:     114242	AVERAGE STALL: 28.4377
L2BTB1 BRANCH_INDIRECT_CALL	ACCESS:     140423  HIT:     115972  MISS:      24451	AVERAGE STALL: 124.621
L2BTB1 BRANCH_RETURN	ACCESS:     822128  HIT:     722684  MISS:      99444	AVERAGE STALL: 29.5491
L2BTB1 BRANCH_OTHER ACCESS:          0  HIT:          0  MISS:          0	AVERAGE STALL: -nan
L2BTB1 TOTAL ROB OCCUPANCY AT BTB MISS: 149.843

L2C TOTAL     ACCESS:    6664300  HIT:    5649873  MISS:    1014427  HIT %:    84.7782  MISS %:    15.2218   MPKI: 20.2885
L2C LOAD INSTRUCTION	ACCESS:     483121  HIT:     397145  MISS:      85976  HIT %:     82.204  MISS %:     17.796  MPKI: 1.71952
L2C PREFETCH INSTRUCTION	ACCESS:    3150648  HIT:    2783267  MISS:     367381  HIT %:    88.3395  MISS %:    11.6605  MPKI: 7.34762
L2C LOAD TRANSLATION INSTRUCTION	ACCESS:        198  HIT:         57  MISS:        141  HIT %:    28.7879  MISS %:    71.2121  MPKI: 0.00282
L2C TRANSLATION FROM L1D PREFETCHER INSTRUCTION	ACCESS:       4760  HIT:       4567  MISS:        193  HIT %:    95.9454  MISS %:    4.05462  MPKI: 0.00386
L2C LOAD DATA	ACCESS:     756012  HIT:     591314  MISS:     164698  HIT %:    78.2149  MISS %:    21.7851  MPKI: 3.29396
L2C RFO DATA	ACCESS:     291161  HIT:     206734  MISS:      84427  HIT %:    71.0033  MISS %:    28.9967  MPKI: 1.68854
L2C PREFETCH DATA	ACCESS:    1446611  HIT:    1170487  MISS:     276124  HIT %:    80.9124  MISS %:    19.0876  MPKI: 5.52248
L2C WRITEBACK DATA	ACCESS:     529918  HIT:     495849  MISS:      34069  HIT %:    93.5709  MISS %:    6.42911  MPKI: 0.68138
L2C LOAD TRANSLATION DATA	ACCESS:       1840  HIT:        434  MISS:       1406  HIT %:     23.587  MISS %:     76.413  MPKI: 0.02812
L2C TRANSLATION FROM L1D PREFETCHER DATA	ACCESS:         31  HIT:         19  MISS:         12  HIT %:    61.2903  MISS %:    38.7097  MPKI: 0.00024

L2C PREFETCH  REQUESTED:    3265093  ISSUED:    3265093  USEFUL:      31712  USELESS:     614089
L2C USEFUL LOAD PREFETCHES:      31712 PREFETCH ISSUED TO LOWER LEVEL:     645050  ACCURACY: 4.91621
 TIMELY PREFETCHES:      31712 LATE PREFETCHES: 1545 DROPPED PREFETCHES: 0
L2C AVERAGE MISS LATENCY: 34.1565 cycles
L2C RQ	ACCESS:    1537184	FORWARD:          0	MERGED:          0	TO_CACHE:    1537123
L2C WQ	ACCESS:     529918	FORWARD:         62	MERGED:          0	TO_CACHE:     529918
L2C PQ	ACCESS:    6537404	FORWARD:          0	MERGED:    1919222	TO_CACHE:    4618181

L2C Dense regions hint from L2: 0
PSCL5 TOTAL     ACCESS:      10892  HIT:       5446  MISS:       5446  HIT %:         50  MISS %:         50   MPKI: 0.10892
PSCL5 LOAD TRANSLATION INSTRUCTION	ACCESS:       3868  HIT:       1934  MISS:       1934  HIT %:         50  MISS %:         50  MPKI: 0.03868
PSCL5 TRANSLATION FROM L1D PREFETCHER INSTRUCTION	ACCESS:       7024  HIT:       3512  MISS:       3512  HIT %:         50  MISS %:         50  MPKI: 0.07024


PSCL4 TOTAL     ACCESS:       6853  HIT:       3424  MISS:       3429  HIT %:    49.9635  MISS %:    50.0365   MPKI: 0.06858
PSCL4 LOAD TRANSLATION INSTRUCTION	ACCESS:       1443  HIT:       1290  MISS:        153  HIT %:    89.3971  MISS %:    10.6029  MPKI: 0.00306
PSCL4 TRANSLATION FROM L1D PREFETCHER INSTRUCTION	ACCESS:       2176  HIT:       2134  MISS:         42  HIT %:    98.0699  MISS %:    1.93015  MPKI: 0.00084
PSCL4 LOAD TRANSLATION DATA	ACCESS:       1142  HIT:          0  MISS:       1142  HIT %:          0  MISS %:        100  MPKI: 0.02284
PSCL4 TRANSLATION FROM L1D PREFETCHER DATA	ACCESS:       2092  HIT:          0  MISS:       2092  HIT %:          0  MISS %:        100  MPKI: 0.04184


PSCL3 TOTAL     ACCESS:      10772  HIT:       5380  MISS:       5392  HIT %:    49.9443  MISS %:    50.0557   MPKI: 0.10784
PSCL3 LOAD TRANSLATION INSTRUCTION	ACCESS:       1985  HIT:       1885  MISS:        100  HIT %:    94.9622  MISS %:    5.03778  MPKI: 0.002
PSCL3 TRANSLATION FROM L1D PREFETCHER INSTRUCTION	ACCESS:       3519  HIT:       3495  MISS:         24  HIT %:     99.318  MISS %:   0.682012  MPKI: 0.00048
PSCL3 LOAD TRANSLATION DATA	ACCESS:       1797  HIT:          0  MISS:       1797  HIT %:          0  MISS %:        100  MPKI: 0.03594
PSCL3 TRANSLATION FROM L1D PREFETCHER DATA	ACCESS:       3471  HIT:          0  MISS:       3471  HIT %:          0  MISS %:        100  MPKI: 0.06942


PSCL2 TOTAL     ACCESS:       8261  HIT:       4080  MISS:       4181  HIT %:    49.3887  MISS %:    50.6113   MPKI: 0.08362
PSCL2 LOAD TRANSLATION INSTRUCTION	ACCESS:       2037  HIT:       1847  MISS:        190  HIT %:    90.6726  MISS %:    9.32744  MPKI: 0.0038
PSCL2 TRANSLATION FROM L1D PREFETCHER INSTRUCTION	ACCESS:       4435  HIT:       2233  MISS:       2202  HIT %:    50.3495  MISS %:    49.6505  MPKI: 0.04404
PSCL2 LOAD TRANSLATION DATA	ACCESS:       1758  HIT:          0  MISS:       1758  HIT %:          0  MISS %:        100  MPKI: 0.03516
PSCL2 TRANSLATION FROM L1D PREFETCHER DATA	ACCESS:         31  HIT:          0  MISS:         31  HIT %:          0  MISS %:        100  MPKI: 0.00062


LLC TOTAL     ACCESS:    1106630  HIT:    1075170  MISS:      31460  HIT %:    97.1571  MISS %:    2.84287   MPKI: 0.6292
LLC LOAD INSTRUCTION	ACCESS:      85231  HIT:      84960  MISS:        271  HIT %:     99.682  MISS %:   0.317959  MPKI: 0.00542
LLC PREFETCH INSTRUCTION	ACCESS:     365395  HIT:     364828  MISS:        567  HIT %:    99.8448  MISS %:   0.155175  MPKI: 0.01134
LLC LOAD TRANSLATION INSTRUCTION	ACCESS:        141  HIT:        122  MISS:         19  HIT %:    86.5248  MISS %:    13.4752  MPKI: 0.00038
LLC TRANSLATION FROM L1D PREFETCHER INSTRUCTION	ACCESS:        193  HIT:        175  MISS:         18  HIT %:    90.6736  MISS %:    9.32642  MPKI: 0.00036
LLC LOAD DATA	ACCESS:     163929  HIT:     160086  MISS:       3843  HIT %:    97.6557  MISS %:    2.34431  MPKI: 0.07686
LLC RFO DATA	ACCESS:      84375  HIT:      69143  MISS:      15232  HIT %:    81.9473  MISS %:    18.0527  MPKI: 0.30464
LLC PREFETCH DATA	ACCESS:     279655  HIT:     268562  MISS:      11093  HIT %:    96.0333  MISS %:    3.96667  MPKI: 0.22186
LLC WRITEBACK DATA	ACCESS:     126293  HIT:     125960  MISS:        333  HIT %:    99.7363  MISS %:   0.263673  MPKI: 0.00666
LLC LOAD TRANSLATION DATA	ACCESS:       1406  HIT:       1322  MISS:         84  HIT %:    94.0256  MISS %:     5.9744  MPKI: 0.00168
LLC TRANSLATION FROM L1D PREFETCHER DATA	ACCESS:         12  HIT:         12  MISS:          0  HIT %:        100  MISS %:          0  MPKI: 0

LLC AVERAGE MISS LATENCY: 165.505 cycles
LLC RQ	ACCESS:     335308	FORWARD:          0	MERGED:          0	TO_CACHE:     335287
LLC WQ	ACCESS:     126293	FORWARD:         21	MERGED:          0	TO_CACHE:     126293
LLC PQ	ACCESS:     645050	FORWARD:          0	MERGED:          0	TO_CACHE:     645050

LLC Dense regions hint to LLC: 0

RAW hits: 1873740
Loads Generated: 12611837
Loads sent to L1D: 10738097
Stores Generated: 6913451
Stores sent to L1D: 6913476
Major fault: 0 Minor fault: 2585
Allocated PAGES: 2585
I-Shadow cache 408 bytes
Touched + WorthPF tables 12288 bytes 
MMA filter 174 bytes 
FNL filter 272 bytes 
TOTAL PREFETCHER STORAGE SIZE: 31318 bytes
CPU 0 L1I next line prefetcher final stats

stream: 
stream:times selected: 1258431
stream:pref_filled: 123263
stream:pref_useful: 26467
stream:pref_late: 11113
stream:misses: 10727
stream:misses_by_poll: 0

CS: 
CS:times selected: 198138
CS:pref_filled: 66693
CS:pref_useful: 42820
CS:pref_late: 18037
CS:misses: 33250
CS:misses_by_poll: 5

CPLX: 
CPLX:times selected: 1059106
CPLX:pref_filled: 25280
CPLX:pref_useful: 7223
CPLX:pref_late: 4550
CPLX:misses: 133903
CPLX:misses_by_poll: 1

NL_L1: 
NL:times selected: 13088
NL:pref_filled: 1010
NL:pref_useful: 190
NL:pref_late: 595
NL:misses: 2153
NL:misses_by_poll: 0

total selections: 2528763
total_filled: 104301
total_useful: 50963
total_late: 36750
total_polluted: 6
total_misses_after_warmup: 813143
conflicts: 5524965

test: 121351

DRAM Statistics
 CHANNEL 0
 RQ ROW_BUFFER_HIT:      10988  ROW_BUFFER_MISS:      20135
 DBUS_CONGESTED:         10
 WQ ROW_BUFFER_HIT:       1547  ROW_BUFFER_MISS:      13928  FULL:          0

 AVG_CONGESTED_CYCLE: 4

CPU 0 Branch Prediction Accuracy: 99.8163% MPKI: 0.33652 Average ROB Occupancy at Mispredict: 174.553
Branch types
NOT_BRANCH: 40839873 81.6797%
BRANCH_DIRECT_JUMP: 545184 1.09037%
BRANCH_INDIRECT: 181439 0.362878%
BRANCH_CONDITIONAL: 6211491 12.423%
BRANCH_DIRECT_CALL: 940120 1.88024%
BRANCH_INDIRECT_CALL: 170892 0.341784%
BRANCH_RETURN: 1111005 2.22201%
BRANCH_OTHER: 0 0%

DRAM PAGES: 1048576
Allocated PAGES: 2585
Average_ROB_Occupancy: 178.033
Average_Decode_Occupancy: 17.4596
Average_FTQ_Occupancy: 6.07695
Indirect max targets: 14 Average targets: 1.14576
Branch_type:  BRANCH_DIRECT_JUMP:  Count Percentage: 4.75694 6.46673 3.6247 2.7871 2.31777 12.1768 7.22519 60.6448 
Branch_type:  BRANCH_INDIRECT:  Count Percentage: 13.7132 6.26784 2.56712 0 0 33.1067 15.4983 28.8468 
Branch_type:  BRANCH_CONDITIONAL:  Count Percentage: 25.6414 4.66825 0.80188 5.22351 1.12366 9.46769 3.24346 49.8301 
Branch_type:  BRANCH_DIRECT_CALL:  Count Percentage: 0.389267 1.70195 0.432026 2.04125 1.93491 5.36646 2.48 85.6541 
Branch_type:  BRANCH_INDIRECT_CALL:  Count Percentage: 9.53455 0 2.98815 0 0 4.12983 0.997321 82.3501 
Branch_type:  BRANCH_RETURN:  Count Percentage: 9.18297 2.80993 0.531004 5.59457 1.26234 11.819 3.04498 65.7552 
Branch_type:  BRANCH_DIRECT_JUMP:  Total Count: 51874 70519 39527 30393 25275 132787 78790 661325 
Branch_type:  BRANCH_INDIRECT:  Total Count: 49925 22819 9346 0 0 120530 56424 105021 
Branch_type:  BRANCH_CONDITIONAL:  Total Count: 3185672 579980 99625 648965 139603 1176259 402965 6190855 
Branch_type:  BRANCH_DIRECT_CALL:  Total Count: 7292 31882 8093 38238 36246 100528 46457 1604529 
Branch_type:  BRANCH_INDIRECT_CALL:  Total Count: 32495 0 10184 0 0 14075 3399 280660 
Branch_type:  BRANCH_RETURN:  Total Count: 203390 62236 11761 123912 27959 261775 67442 1456385 
Number of unique branch instructions: 10010
Upper 32 bits: 
aaaa
ffff
ffff0000
Unique upper 32 bits: 3
Unique upper 36 bits: 3
Unique upper 40 bits: 5
Unique upper 44 bits: 32
Unique upper 48 bits: 157
Offset_3 4119
Offset_4 248
Offset_5 459
Offset_6 508
Offset_7 583
Offset_8 507
Offset_9 476
Offset_10 384
Offset_11 311
Offset_12 273
Offset_13 211
Offset_14 229
Offset_15 192
Offset_16 224
Offset_17 151
Offset_18 126
Offset_19 241
Offset_20 141
Offset_21 241
Offset_22 395
Offset_23 241
Offset_24 326
Offset_25 88
Offset_47 80
Offset_64 2
decode_dispatch_called: 21940736 55.545
Dispatch_width: 0 10978109 50.0353 27.7921
Dispatch_width: 1 756214 3.44662 1.91443
Dispatch_width: 2 908563 4.14099 2.30011
Dispatch_width: 3 613664 2.79692 1.55355
Dispatch_width: 4 3065149 13.9701 7.75971
Dispatch_width: 5 389150 1.77364 0.985169
Dispatch_width: 6 5229887 23.8364 13.2399
Empty_decode_cycles: 17560094 44.455
ROB_full_cycles: 4675774 11.8372
Starvation_cycles_per_kilo_instr: 295.952
Starvation_cycles_per_kilo_instr_3: 261.409
Starvation_cycles_per_kilo_instr_0: 238.624
Branch_type_1  (3,1)  (4,9)  (5,37)  (6,69)  (7,114)  (8,129)  (9,126)  (10,99)  (11,68)  (12,43)  (13,5)  (14,2)  (15,3)  (16,4)  (18,1)  (19,4)  (20,2)  (21,1)  (22,3)  (23,2)  (24,10)  (25,12) 
Branch_type_2  (3,1)  (5,1)  (8,3)  (9,3)  (12,1)  (13,1)  (14,1)  (16,3)  (17,2)  (20,2)  (21,2)  (23,5)  (24,1)  (47,36) 
Branch_type_3  (3,4117)  (4,239)  (5,417)  (6,424)  (7,439)  (8,314)  (9,261)  (10,157)  (11,126)  (12,50)  (13,4)  (64,2) 
Branch_type_4  (6,3)  (7,8)  (8,25)  (9,53)  (10,61)  (11,59)  (12,98)  (13,93)  (14,101)  (15,90)  (16,100)  (17,67)  (18,57)  (19,118)  (20,74)  (21,127)  (22,210)  (23,136)  (24,187)  (25,72) 
Branch_type_5  (8,2)  (9,1)  (10,3)  (11,5)  (12,3)  (13,14)  (14,16)  (15,11)  (16,20)  (17,12)  (18,16)  (19,12)  (20,10)  (21,13)  (22,42)  (23,26)  (24,37) 
Branch_type_6  (5,4)  (6,12)  (7,22)  (8,34)  (9,32)  (10,64)  (11,53)  (12,78)  (13,94)  (14,109)  (15,88)  (16,97)  (17,70)  (18,52)  (19,107)  (20,53)  (21,98)  (22,140)  (23,72)  (24,91)  (25,4)  (47,44) 
Unique trigger count: 
L2BTB1 768 4
L2BTB2 768 4
L2BTB3 768 4
L2BTB4 112 4
