
*** ChampSim Multicore Out-of-Order Simulator ***

Warmup Instructions: 50000000
Simulation Instructions: 50000000
Number of CPUs: 1
LLC sets: 2048
LLC ways: 16
Off-chip DRAM Size: 4096 MB Channels: 1 Width: 64-bit Data Rate: 6400 MT/s
CPU 0 runs ./micro_traces/srv428.trace.gz
.gz
ITLB has LRU replacement policy
DTLB has LRU replacement policy
STLB has LRU replacement policy
FDIP Prefetcher at L1I
L1I has LRU replacement policy
L1D has LRU replacement policy
Initialize SRRIP state for L2C
Initialize DRRIP state for LLC
Heartbeat CPU 0 instructions: 10000001 cycles: 2797161 heartbeat IPC: 3.57505 cumulative IPC: 3.57505 (Simulation time: 0 hr 1 min 33 sec) 
Heartbeat CPU 0 instructions: 20000000 cycles: 5593868 heartbeat IPC: 3.57563 cumulative IPC: 3.57534 (Simulation time: 0 hr 3 min 5 sec) 
Heartbeat CPU 0 instructions: 30000002 cycles: 8390986 heartbeat IPC: 3.57511 cumulative IPC: 3.57527 (Simulation time: 0 hr 4 min 40 sec) 
Heartbeat CPU 0 instructions: 40000001 cycles: 11187875 heartbeat IPC: 3.5754 cumulative IPC: 3.5753 (Simulation time: 0 hr 6 min 15 sec) 
Heartbeat CPU 0 instructions: 50000002 cycles: 13985110 heartbeat IPC: 3.57496 cumulative IPC: 3.57523 (Simulation time: 0 hr 7 min 48 sec) 

Warmup complete CPU 0 instructions: 50000002 cycles: 13985110 (Simulation time: 0 hr 7 min 48 sec) 

Cycle: 20000000 FTQ IN: 57865456 FTQ occupancy: 19.1889 DECODE IN: 57865372 DECODE occupancy: 49.533 ROB IN: 57865312 ROB occupancy: 301.695 ROB OUT: 57865250
Heartbeat CPU 0 instructions: 60000002 cycles: 21596298 heartbeat IPC: 1.31386 cumulative IPC: 1.31386 (Simulation time: 0 hr 9 min 24 sec) 
Heartbeat CPU 0 instructions: 70000003 cycles: 29087460 heartbeat IPC: 1.33491 cumulative IPC: 1.3243 (Simulation time: 0 hr 10 min 59 sec) 
Cycle: 30000000 FTQ IN: 13363581 FTQ occupancy: 10.1476 DECODE IN: 13363578 DECODE occupancy: 25.0325 ROB IN: 13363578 ROB occupancy: 194.319 ROB OUT: 13363288
Heartbeat CPU 0 instructions: 80000002 cycles: 36655561 heartbeat IPC: 1.32134 cumulative IPC: 1.32331 (Simulation time: 0 hr 12 min 33 sec) 
Cycle: 40000000 FTQ IN: 13039965 FTQ occupancy: 10.2408 DECODE IN: 13039944 DECODE occupancy: 24.9168 ROB IN: 13039944 ROB occupancy: 191.537 ROB OUT: 13039944
Heartbeat CPU 0 instructions: 90000000 cycles: 44294326 heartbeat IPC: 1.30911 cumulative IPC: 1.31973 (Simulation time: 0 hr 14 min 6 sec) 
Cycle: 50000000 FTQ IN: 13354021 FTQ occupancy: 10.1423 DECODE IN: 13354030 DECODE occupancy: 25.0452 ROB IN: 13354030 ROB occupancy: 194.429 ROB OUT: 13354030
Heartbeat CPU 0 instructions: 100000001 cycles: 51767569 heartbeat IPC: 1.33811 cumulative IPC: 1.32337 (Simulation time: 0 hr 15 min 39 sec) 
Finished CPU 0 instructions: 50000003 cycles: 37782460 cumulative IPC: 1.32337 (Simulation time: 0 hr 15 min 39 sec) 

ChampSim completed all CPUs

Region of Interest Statistics

CPU 0 cumulative IPC: 1.32337 instructions: 50000003 cycles: 37782460
 Fetch stage stalled: 61.2021  Sim cycles: 37782460 fetch stall cycle: 23123668
 Empty decode stage: 45.7908  Sim cycles: 37782460 fetch stall cycle: 17300894
ITLB TOTAL     ACCESS:    5804763  HIT:    5313165  MISS:     491598  HIT %:    91.5311  MISS %:    8.46887   MPKI: 9.83196
ITLB LOAD TRANSLATION INSTRUCTION	ACCESS:    5678110  HIT:    5186512  MISS:     491598  HIT %:    91.3422  MISS %:    8.65778  MPKI: 9.83196
ITLB TRANSLATION FROM L1D PREFETCHER INSTRUCTION	ACCESS:     126653  HIT:     126653  MISS:          0  HIT %:        100  MISS %:          0  MPKI: 0

ITLB AVERAGE MISS LATENCY: 9.0637 cycles
ITLB RQ	ACCESS:    7890390	FORWARD:          0	MERGED:    1634208	TO_CACHE:    6256182

DTLB TOTAL     ACCESS:    9040592  HIT:    8571082  MISS:     469510  HIT %:    94.8066  MISS %:    5.19335   MPKI: 9.3902
DTLB LOAD TRANSLATION DATA	ACCESS:    9040592  HIT:    8571082  MISS:     469510  HIT %:    94.8066  MISS %:    5.19335  MPKI: 9.3902

DTLB AVERAGE MISS LATENCY: 9.35558 cycles
DTLB RQ	ACCESS:   13393061	FORWARD:          0	MERGED:    4316510	TO_CACHE:    9076551

STLB TOTAL     ACCESS:    1212178  HIT:    1210152  MISS:       2026  HIT %:    99.8329  MISS %:   0.167137   MPKI: 0.04052
STLB LOAD TRANSLATION INSTRUCTION	ACCESS:     491598  HIT:     491346  MISS:        252  HIT %:    99.9487  MISS %:  0.0512614  MPKI: 0.00504
STLB LOAD TRANSLATION DATA	ACCESS:     469183  HIT:     467432  MISS:       1751  HIT %:    99.6268  MISS %:   0.373202  MPKI: 0.03502
STLB TRANSLATION FROM L1D PREFETCHER DATA	ACCESS:     251397  HIT:     251374  MISS:         23  HIT %:    99.9909  MISS %: 0.00914888  MPKI: 0.00046

STLB AVERAGE MISS LATENCY: 83.0133 cycles
STLB RQ	ACCESS:    1333551	FORWARD:          0	MERGED:     121338	TO_CACHE:    1212213

STLB Hit, L1D data hit: 0
STLB Hit, L2C data hit: 0
STLB Hit, LLC data hit: 0
STLB Hit, LLC data miss: 0
STLB STLB hints to L2: 0
L1D TOTAL     ACCESS:   13146175  HIT:   12034961  MISS:    1111214  HIT %:    91.5472  MISS %:    8.45276   MPKI: 22.2243
L1D LOAD DATA	ACCESS:    6608697  HIT:    5878352  MISS:     730345  HIT %:    88.9487  MISS %:    11.0513  MPKI: 14.6069
L1D RFO DATA	ACCESS:    6205816  HIT:    5919845  MISS:     285971  HIT %:    95.3919  MISS %:    4.60811  MPKI: 5.71942
L1D PREFETCH DATA	ACCESS:     331662  HIT:     236764  MISS:      94898  HIT %:    71.3871  MISS %:    28.6129  MPKI: 1.89796

L1D PREFETCH  REQUESTED:     745214  ISSUED:     745214  USEFUL:      33921  USELESS:      68682
L1D USEFUL LOAD PREFETCHES:      33921 PREFETCH ISSUED TO LOWER LEVEL:     102665  ACCURACY: 33.0405
 TIMELY PREFETCHES:      33921 LATE PREFETCHES: 7707 DROPPED PREFETCHES: 6
L1D AVERAGE MISS LATENCY: 225695 cycles
L1D RQ	ACCESS:   10735591	FORWARD:          0	MERGED:    3931376	TO_CACHE:    6644133
L1D WQ	ACCESS:    6942496	FORWARD:     160410	MERGED:     193568	TO_CACHE:    6748928
L1D PQ	ACCESS:     372771	FORWARD:          0	MERGED:          0	TO_CACHE:     372443

L1D UNIQUE REGIONS ACCESSED: 0
L1D REGIONS CONFLICTS: 0
L1D Cross Page Prefetch Requests: 7067
L1D Same Page Prefetch Requests: 755165
L1D ROI Sum of L1D PQ occupancy: 4747703
L1D PREFETCHES PUSHED FROM L2C: 0
L1I TOTAL     ACCESS:    7116965  HIT:    4364506  MISS:    2752459  HIT %:    61.3254  MISS %:    38.6746   MPKI: 55.0492
L1I LOAD INSTRUCTION	ACCESS:    6479596  HIT:    3727137  MISS:    2752459  HIT %:    57.5211  MISS %:    42.4789  MPKI: 55.0492
L1I PREFETCH INSTRUCTION	ACCESS:     637369  HIT:     637369  MISS:          0  HIT %:        100  MISS %:          0  MPKI: 0

L1I PREFETCH  REQUESTED:    1506004  ISSUED:    1506004  USEFUL:          0  USELESS:          0
L1I USEFUL LOAD PREFETCHES:          0 PREFETCH ISSUED TO LOWER LEVEL:          0  ACCURACY: -nan
 TIMELY PREFETCHES:          0 LATE PREFETCHES: 0 DROPPED PREFETCHES: 0
L1I AVERAGE MISS LATENCY: 17.2554 cycles
L1I RQ	ACCESS:    9479067	FORWARD:          0	MERGED:    2684025	TO_CACHE:    6795042
L1I PQ	ACCESS:    1506004	FORWARD:          0	MERGED:     410656	TO_CACHE:    1095348

L1BTB TOTAL     ACCESS:    5671803  HIT:    2053933  MISS:    3617870  HIT %:    36.2131  MISS %:    63.7869   MPKI: 72.3574
L1BTB BRANCH_DIRECT_JUMP	ACCESS:     549088  HIT:     145897  MISS:     403191	AVERAGE STALL: 38.5139
L1BTB BRANCH_INDIRECT	ACCESS:     183449  HIT:      66430  MISS:     117019	AVERAGE STALL: 126.677
L1BTB BRANCH_CONDITIONAL	ACCESS:    2713362  HIT:    1424525  MISS:    1288837	AVERAGE STALL: 51.5571
L1BTB BRANCH_DIRECT_CALL	ACCESS:     941978  HIT:     105580  MISS:     836398	AVERAGE STALL: 51.0025
L1BTB BRANCH_INDIRECT_CALL	ACCESS:     170971  HIT:      21074  MISS:     149897	AVERAGE STALL: 140.827
L1BTB BRANCH_RETURN	ACCESS:    1112955  HIT:     290427  MISS:     822528	AVERAGE STALL: 46.248
L1BTB BRANCH_OTHER ACCESS:          0  HIT:          0  MISS:          0	AVERAGE STALL: -nan
L1BTB TOTAL ROB OCCUPANCY AT BTB MISS: 5.0772

L2BTB1 TOTAL     ACCESS:    3592369  HIT:    3468178  MISS:     124191  HIT %:    96.5429  MISS %:    3.45708   MPKI: 2.48382
L2BTB1 BRANCH_DIRECT_JUMP	ACCESS:     398967  HIT:     390532  MISS:       8435	AVERAGE STALL: 38.5139
L2BTB1 BRANCH_INDIRECT	ACCESS:     106737  HIT:      95776  MISS:      10961	AVERAGE STALL: 126.677
L2BTB1 BRANCH_CONDITIONAL	ACCESS:    1288837  HIT:    1273434  MISS:      15403	AVERAGE STALL: 51.5571
L2BTB1 BRANCH_DIRECT_CALL	ACCESS:     836398  HIT:     813612  MISS:      22786	AVERAGE STALL: 51.0025
L2BTB1 BRANCH_INDIRECT_CALL	ACCESS:     140313  HIT:     126946  MISS:      13367	AVERAGE STALL: 140.827
L2BTB1 BRANCH_RETURN	ACCESS:     821117  HIT:     767878  MISS:      53239	AVERAGE STALL: 46.248
L2BTB1 BRANCH_OTHER ACCESS:          0  HIT:          0  MISS:          0	AVERAGE STALL: -nan
L2BTB1 TOTAL ROB OCCUPANCY AT BTB MISS: 147.906

L2C TOTAL     ACCESS:    4470487  HIT:    3974619  MISS:     495868  HIT %:     88.908  MISS %:     11.092   MPKI: 9.91736
L2C LOAD INSTRUCTION	ACCESS:    2752458  HIT:    2490405  MISS:     262053  HIT %:    90.4793  MISS %:    9.52069  MPKI: 5.24106
L2C LOAD TRANSLATION INSTRUCTION	ACCESS:        289  HIT:         71  MISS:        218  HIT %:    24.5675  MISS %:    75.4325  MPKI: 0.00436
L2C LOAD DATA	ACCESS:     722552  HIT:     644943  MISS:      77609  HIT %:     89.259  MISS %:     10.741  MPKI: 1.55218
L2C RFO DATA	ACCESS:     285861  HIT:     227154  MISS:      58707  HIT %:    79.4631  MISS %:    20.5369  MPKI: 1.17414
L2C PREFETCH DATA	ACCESS:     188265  HIT:     110772  MISS:      77493  HIT %:    58.8383  MISS %:    41.1617  MPKI: 1.54986
L2C WRITEBACK DATA	ACCESS:     519175  HIT:     500730  MISS:      18445  HIT %:    96.4472  MISS %:    3.55275  MPKI: 0.3689
L2C LOAD TRANSLATION DATA	ACCESS:       1844  HIT:        515  MISS:       1329  HIT %:    27.9284  MISS %:    72.0716  MPKI: 0.02658
L2C TRANSLATION FROM L1D PREFETCHER DATA	ACCESS:         43  HIT:         29  MISS:         14  HIT %:    67.4419  MISS %:    32.5581  MPKI: 0.00028

L2C PREFETCH  REQUESTED:      93940  ISSUED:      93940  USEFUL:       9007  USELESS:      69116
L2C USEFUL LOAD PREFETCHES:       9007 PREFETCH ISSUED TO LOWER LEVEL:      78061  ACCURACY: 11.5384
 TIMELY PREFETCHES:       9007 LATE PREFETCHES: 568 DROPPED PREFETCHES: 0
L2C AVERAGE MISS LATENCY: 38.4471 cycles
L2C RQ	ACCESS:    3763182	FORWARD:          0	MERGED:          0	TO_CACHE:    3763046
L2C WQ	ACCESS:     519175	FORWARD:        137	MERGED:          0	TO_CACHE:     519175
L2C PQ	ACCESS:     196605	FORWARD:          0	MERGED:       4113	TO_CACHE:     192491

L2C Dense regions hint from L2: 0
PSCL5 TOTAL     ACCESS:       4066  HIT:       2033  MISS:       2033  HIT %:         50  MISS %:         50   MPKI: 0.04066
PSCL5 LOAD TRANSLATION INSTRUCTION	ACCESS:       3984  HIT:       1992  MISS:       1992  HIT %:         50  MISS %:         50  MPKI: 0.03984
PSCL5 TRANSLATION FROM L1D PREFETCHER INSTRUCTION	ACCESS:         82  HIT:         41  MISS:         41  HIT %:         50  MISS %:         50  MPKI: 0.00082


PSCL4 TOTAL     ACCESS:       3971  HIT:       1981  MISS:       1990  HIT %:    49.8867  MISS %:    50.1133   MPKI: 0.0398
PSCL4 LOAD TRANSLATION INSTRUCTION	ACCESS:       2106  HIT:       1940  MISS:        166  HIT %:    92.1178  MISS %:    7.88224  MPKI: 0.00332
PSCL4 TRANSLATION FROM L1D PREFETCHER INSTRUCTION	ACCESS:         41  HIT:         41  MISS:          0  HIT %:        100  MISS %:          0  MPKI: 0
PSCL4 LOAD TRANSLATION DATA	ACCESS:       1783  HIT:          0  MISS:       1783  HIT %:          0  MISS %:        100  MPKI: 0.03566
PSCL4 TRANSLATION FROM L1D PREFETCHER DATA	ACCESS:         41  HIT:          0  MISS:         41  HIT %:          0  MISS %:        100  MPKI: 0.00082


PSCL3 TOTAL     ACCESS:       4013  HIT:       2002  MISS:       2011  HIT %:    49.8879  MISS %:    50.1121   MPKI: 0.04022
PSCL3 LOAD TRANSLATION INSTRUCTION	ACCESS:       2127  HIT:       1961  MISS:        166  HIT %:    92.1956  MISS %:    7.80442  MPKI: 0.00332
PSCL3 TRANSLATION FROM L1D PREFETCHER INSTRUCTION	ACCESS:         41  HIT:         41  MISS:          0  HIT %:        100  MISS %:          0  MPKI: 0
PSCL3 LOAD TRANSLATION DATA	ACCESS:       1804  HIT:          0  MISS:       1804  HIT %:          0  MISS %:        100  MPKI: 0.03608
PSCL3 TRANSLATION FROM L1D PREFETCHER DATA	ACCESS:         41  HIT:          0  MISS:         41  HIT %:          0  MISS %:        100  MPKI: 0.00082


PSCL2 TOTAL     ACCESS:       3936  HIT:       1904  MISS:       2032  HIT %:     48.374  MISS %:     51.626   MPKI: 0.04064
PSCL2 LOAD TRANSLATION INSTRUCTION	ACCESS:       2124  HIT:       1865  MISS:        259  HIT %:     87.806  MISS %:     12.194  MPKI: 0.00518
PSCL2 TRANSLATION FROM L1D PREFETCHER INSTRUCTION	ACCESS:         39  HIT:         39  MISS:          0  HIT %:        100  MISS %:          0  MPKI: 0
PSCL2 LOAD TRANSLATION DATA	ACCESS:       1734  HIT:          0  MISS:       1734  HIT %:          0  MISS %:        100  MPKI: 0.03468
PSCL2 TRANSLATION FROM L1D PREFETCHER DATA	ACCESS:         39  HIT:          0  MISS:         39  HIT %:          0  MISS %:        100  MPKI: 0.00078


LLC TOTAL     ACCESS:     561586  HIT:     532205  MISS:      29381  HIT %:    94.7682  MISS %:    5.23179   MPKI: 0.58762
LLC LOAD INSTRUCTION	ACCESS:     262053  HIT:     260850  MISS:       1203  HIT %:    99.5409  MISS %:   0.459067  MPKI: 0.02406
LLC LOAD TRANSLATION INSTRUCTION	ACCESS:        218  HIT:        176  MISS:         42  HIT %:    80.7339  MISS %:    19.2661  MPKI: 0.00084
LLC LOAD DATA	ACCESS:      77073  HIT:      73416  MISS:       3657  HIT %:    95.2551  MISS %:    4.74485  MPKI: 0.07314
LLC RFO DATA	ACCESS:      58651  HIT:      44519  MISS:      14132  HIT %:    75.9049  MISS %:    24.0951  MPKI: 0.28264
LLC PREFETCH DATA	ACCESS:      78060  HIT:      68169  MISS:       9891  HIT %:     87.329  MISS %:     12.671  MPKI: 0.19782
LLC WRITEBACK DATA	ACCESS:      84188  HIT:      83845  MISS:        343  HIT %:    99.5926  MISS %:   0.407421  MPKI: 0.00686
LLC LOAD TRANSLATION DATA	ACCESS:       1329  HIT:       1216  MISS:        113  HIT %:    91.4974  MISS %:    8.50263  MPKI: 0.00226
LLC TRANSLATION FROM L1D PREFETCHER DATA	ACCESS:         14  HIT:         14  MISS:          0  HIT %:        100  MISS %:          0  MPKI: 0

LLC AVERAGE MISS LATENCY: 159.962 cycles
LLC RQ	ACCESS:     399362	FORWARD:          0	MERGED:          0	TO_CACHE:     399338
LLC WQ	ACCESS:      84188	FORWARD:         25	MERGED:          0	TO_CACHE:      84188
LLC PQ	ACCESS:      78061	FORWARD:          0	MERGED:          0	TO_CACHE:      78060

LLC Dense regions hint to LLC: 0

RAW hits: 1899137
Loads Generated: 12634728
Loads sent to L1D: 10735591
Stores Generated: 6942484
Stores sent to L1D: 6942496
Major fault: 0 Minor fault: 2574
Allocated PAGES: 2574

stream: 
stream:times selected: 1204184
stream:pref_filled: 121201
stream:pref_useful: 23788
stream:pref_late: 6518
stream:misses: 8222
stream:misses_by_poll: 0

CS: 
CS:times selected: 181648
CS:pref_filled: 58701
CS:pref_useful: 35425
CS:pref_late: 6615
CS:misses: 15928
CS:misses_by_poll: 6

CPLX: 
CPLX:times selected: 1021338
CPLX:pref_filled: 19270
CPLX:pref_useful: 4502
CPLX:pref_late: 2881
CPLX:misses: 92046
CPLX:misses_by_poll: 2

NL_L1: 
NL:times selected: 21438
NL:pref_filled: 717
NL:pref_useful: 262
NL:pref_late: 375
NL:misses: 1816
NL:misses_by_poll: 0

total selections: 2428608
total_filled: 94898
total_useful: 33921
total_late: 17764
total_polluted: 8
total_misses_after_warmup: 765781
conflicts: 5533044

test: 120328

DRAM Statistics
 CHANNEL 0
 RQ ROW_BUFFER_HIT:      10565  ROW_BUFFER_MISS:      18466
 DBUS_CONGESTED:         11
 WQ ROW_BUFFER_HIT:       1603  ROW_BUFFER_MISS:      13060  FULL:          0

 AVG_CONGESTED_CYCLE: 5

CPU 0 Branch Prediction Accuracy: 99.8082% MPKI: 0.35064 Average ROB Occupancy at Mispredict: 164.763
Branch types
NOT_BRANCH: 40857393 81.7148%
BRANCH_DIRECT_JUMP: 549088 1.09818%
BRANCH_INDIRECT: 183449 0.366898%
BRANCH_CONDITIONAL: 6184037 12.3681%
BRANCH_DIRECT_CALL: 941978 1.88396%
BRANCH_INDIRECT_CALL: 170971 0.341942%
BRANCH_RETURN: 1112955 2.22591%
BRANCH_OTHER: 0 0%

DRAM PAGES: 1048576
Allocated PAGES: 2574
Average_ROB_Occupancy: 194.507
Average_Decode_Occupancy: 24.9909
Average_FTQ_Occupancy: 10.1921
Indirect max targets: 14 Average targets: 1.17778
Branch_type:  BRANCH_DIRECT_JUMP:  Count Percentage: 3.34954 4.54467 3.83773 6.80613 3.54134 2.8486 4.13158 70.9404 
Branch_type:  BRANCH_INDIRECT:  Count Percentage: 11.7114 3.50663 2.63739 9.69583 3.33104 2.79447 1.72378 64.5994 
Branch_type:  BRANCH_CONDITIONAL:  Count Percentage: 21.198 6.04101 2.17243 4.66175 2.40831 2.24656 3.12413 58.1478 
Branch_type:  BRANCH_DIRECT_CALL:  Count Percentage: 0.856707 1.24598 0.776955 3.87215 3.42395 1.95091 4.32764 83.5457 
Branch_type:  BRANCH_INDIRECT_CALL:  Count Percentage: 9.5428 0 2.98883 5.3345 0.845531 1.71071 3.84551 75.7321 
Branch_type:  BRANCH_RETURN:  Count Percentage: 4.68553 4.3117 2.39008 4.38935 4.24666 3.16821 3.60694 73.2015 
Branch_type:  BRANCH_DIRECT_JUMP:  Total Count: 36796 49925 42159 74768 38903 31293 45387 779308 
Branch_type:  BRANCH_INDIRECT:  Total Count: 43020 12881 9688 35616 12236 10265 6332 237295 
Branch_type:  BRANCH_CONDITIONAL:  Total Count: 2621692 747130 268678 576548 297851 277846 386381 7191515 
Branch_type:  BRANCH_DIRECT_CALL:  Total Count: 16081 23388 14584 72683 64270 36620 81233 1568213 
Branch_type:  BRANCH_INDIRECT_CALL:  Total Count: 32538 0 10191 18189 2883 5833 13112 258223 
Branch_type:  BRANCH_RETURN:  Total Count: 103968 95673 53034 97396 94230 70300 80035 1624282 
Number of unique branch instructions: 10885
Upper 32 bits: 
aaaa
ffff
ffff0000
Unique upper 32 bits: 3
Unique upper 36 bits: 3
Unique upper 40 bits: 5
Unique upper 44 bits: 32
Unique upper 48 bits: 158
Offset_3 4506
Offset_4 263
Offset_5 488
Offset_6 553
Offset_7 650
Offset_8 592
Offset_9 523
Offset_10 428
Offset_11 356
Offset_12 326
Offset_13 242
Offset_14 247
Offset_15 205
Offset_16 233
Offset_17 170
Offset_18 154
Offset_19 272
Offset_20 147
Offset_21 235
Offset_22 412
Offset_23 241
Offset_24 348
Offset_25 117
Offset_47 92
Offset_64 4
decode_dispatch_called: 22536998 59.6494
Dispatch_width: 0 11758583 52.1746 31.1218
Dispatch_width: 1 706649 3.13551 1.87031
Dispatch_width: 2 698835 3.10083 1.84963
Dispatch_width: 3 434915 1.92978 1.1511
Dispatch_width: 4 3406975 15.1173 9.01735
Dispatch_width: 5 223255 0.990616 0.590896
Dispatch_width: 6 5307786 23.5514 14.0483
Empty_decode_cycles: 15245462 40.3506
ROB_full_cycles: 5331481 14.111
Starvation_cycles_per_kilo_instr: 271.432
Starvation_cycles_per_kilo_instr_3: 235.13
Starvation_cycles_per_kilo_instr_0: 216.726
Branch_type_1  (3,1)  (4,9)  (5,39)  (6,76)  (7,126)  (8,153)  (9,138)  (10,111)  (11,79)  (12,55)  (13,11)  (14,2)  (15,3)  (16,4)  (18,1)  (19,5)  (20,2)  (21,1)  (22,3)  (23,2)  (24,10)  (25,12) 
Branch_type_2  (3,1)  (4,1)  (5,1)  (8,4)  (9,4)  (10,1)  (12,1)  (13,1)  (14,1)  (16,3)  (17,2)  (20,2)  (21,2)  (23,5)  (24,1)  (47,41) 
Branch_type_3  (3,4504)  (4,253)  (5,444)  (6,460)  (7,491)  (8,366)  (9,285)  (10,173)  (11,140)  (12,62)  (13,10)  (64,3) 
Branch_type_4  (6,4)  (7,8)  (8,27)  (9,58)  (10,68)  (11,71)  (12,117)  (13,103)  (14,112)  (15,98)  (16,104)  (17,77)  (18,66)  (19,132)  (20,75)  (21,124)  (22,217)  (23,136)  (24,203)  (25,101) 
Branch_type_5  (8,3)  (9,1)  (10,4)  (11,5)  (12,3)  (13,14)  (14,16)  (15,11)  (16,22)  (17,13)  (18,23)  (19,14)  (20,11)  (21,13)  (22,43)  (23,26)  (24,38) 
Branch_type_6  (5,4)  (6,13)  (7,25)  (8,39)  (9,37)  (10,71)  (11,61)  (12,88)  (13,103)  (14,116)  (15,93)  (16,100)  (17,78)  (18,64)  (19,121)  (20,57)  (21,95)  (22,149)  (23,72)  (24,96)  (25,4)  (47,51)  (64,1) 
Unique trigger count: 
L2BTB1 1536 4
L2BTB2 1536 4
L2BTB3 1536 4
L2BTB4 224 4
