
*** ChampSim Multicore Out-of-Order Simulator ***

Warmup Instructions: 50000000
Simulation Instructions: 50000000
Number of CPUs: 1
LLC sets: 2048
LLC ways: 16
Off-chip DRAM Size: 4096 MB Channels: 1 Width: 64-bit Data Rate: 6400 MT/s
CPU 0 runs ./micro_traces/srv423.trace.gz
.gz
ITLB has LRU replacement policy
DTLB has LRU replacement policy
STLB has LRU replacement policy
FDIP Prefetcher at L1I
L1I has LRU replacement policy
L1D has LRU replacement policy
Initialize SRRIP state for L2C
Initialize DRRIP state for LLC
Heartbeat CPU 0 instructions: 10000002 cycles: 2797435 heartbeat IPC: 3.5747 cumulative IPC: 3.5747 (Simulation time: 0 hr 1 min 59 sec) 
Heartbeat CPU 0 instructions: 20000001 cycles: 5594057 heartbeat IPC: 3.57574 cumulative IPC: 3.57522 (Simulation time: 0 hr 4 min 6 sec) 
Heartbeat CPU 0 instructions: 30000000 cycles: 8391266 heartbeat IPC: 3.57499 cumulative IPC: 3.57515 (Simulation time: 0 hr 6 min 3 sec) 
Heartbeat CPU 0 instructions: 40000001 cycles: 11189367 heartbeat IPC: 3.57385 cumulative IPC: 3.57482 (Simulation time: 0 hr 8 min 9 sec) 
Heartbeat CPU 0 instructions: 50000002 cycles: 13985166 heartbeat IPC: 3.5768 cumulative IPC: 3.57522 (Simulation time: 0 hr 10 min 21 sec) 

Warmup complete CPU 0 instructions: 50000002 cycles: 13985166 (Simulation time: 0 hr 10 min 21 sec) 

Cycle: 20000000 FTQ IN: 57865931 FTQ occupancy: 19.134 DECODE IN: 57865838 DECODE occupancy: 49.4936 ROB IN: 57865778 ROB occupancy: 301.934 ROB OUT: 57865599
Heartbeat CPU 0 instructions: 60000002 cycles: 21778144 heartbeat IPC: 1.28321 cumulative IPC: 1.28321 (Simulation time: 0 hr 12 min 26 sec) 
Heartbeat CPU 0 instructions: 70000000 cycles: 29431386 heartbeat IPC: 1.30664 cumulative IPC: 1.29482 (Simulation time: 0 hr 14 min 37 sec) 
Cycle: 30000000 FTQ IN: 12880202 FTQ occupancy: 10.1403 DECODE IN: 12880176 DECODE occupancy: 24.6096 ROB IN: 12880176 ROB occupancy: 190.03 ROB OUT: 12880003
Heartbeat CPU 0 instructions: 80000003 cycles: 37177958 heartbeat IPC: 1.29089 cumulative IPC: 1.29351 (Simulation time: 0 hr 16 min 47 sec) 
Cycle: 40000000 FTQ IN: 12947114 FTQ occupancy: 10.2351 DECODE IN: 12947233 DECODE occupancy: 24.8549 ROB IN: 12947280 ROB occupancy: 191.071 ROB OUT: 12947414
Heartbeat CPU 0 instructions: 90000000 cycles: 44789667 heartbeat IPC: 1.31377 cumulative IPC: 1.29851 (Simulation time: 0 hr 19 min 2 sec) 
Cycle: 50000000 FTQ IN: 13134704 FTQ occupancy: 10.157 DECODE IN: 13134630 DECODE occupancy: 24.8008 ROB IN: 13134643 ROB occupancy: 192.37 ROB OUT: 13134547
Heartbeat CPU 0 instructions: 100000001 cycles: 52512013 heartbeat IPC: 1.29494 cumulative IPC: 1.2978 (Simulation time: 0 hr 21 min 4 sec) 
Finished CPU 0 instructions: 50000003 cycles: 38526848 cumulative IPC: 1.2978 (Simulation time: 0 hr 21 min 4 sec) 

ChampSim completed all CPUs

Region of Interest Statistics

CPU 0 cumulative IPC: 1.2978 instructions: 50000003 cycles: 38526848
 Fetch stage stalled: 60.1228  Sim cycles: 38526848 fetch stall cycle: 23163437
 Empty decode stage: 45.9645  Sim cycles: 38526848 fetch stall cycle: 17708666
ITLB TOTAL     ACCESS:    5661476  HIT:    5169340  MISS:     492136  HIT %:    91.3073  MISS %:    8.69272   MPKI: 9.84272
ITLB LOAD TRANSLATION INSTRUCTION	ACCESS:    5535824  HIT:    5043688  MISS:     492136  HIT %:      91.11  MISS %:    8.89002  MPKI: 9.84272
ITLB TRANSLATION FROM L1D PREFETCHER INSTRUCTION	ACCESS:     125652  HIT:     125652  MISS:          0  HIT %:        100  MISS %:          0  MPKI: 0

ITLB AVERAGE MISS LATENCY: 9.06988 cycles
ITLB RQ	ACCESS:    7637295	FORWARD:          0	MERGED:    1480587	TO_CACHE:    6156708

DTLB TOTAL     ACCESS:    9075208  HIT:    8603125  MISS:     472083  HIT %:    94.7981  MISS %:     5.2019   MPKI: 9.44166
DTLB LOAD TRANSLATION DATA	ACCESS:    9075208  HIT:    8603125  MISS:     472083  HIT %:    94.7981  MISS %:     5.2019  MPKI: 9.44166

DTLB AVERAGE MISS LATENCY: 9.34134 cycles
DTLB RQ	ACCESS:   13421354	FORWARD:          0	MERGED:    4309949	TO_CACHE:    9111405

STLB TOTAL     ACCESS:    1213671  HIT:    1211310  MISS:       2361  HIT %:    99.8055  MISS %:   0.194534   MPKI: 0.04722
STLB LOAD TRANSLATION INSTRUCTION	ACCESS:     492136  HIT:     491677  MISS:        459  HIT %:    99.9067  MISS %:  0.0932669  MPKI: 0.00918
STLB LOAD TRANSLATION DATA	ACCESS:     472005  HIT:     470138  MISS:       1867  HIT %:    99.6045  MISS %:   0.395547  MPKI: 0.03734
STLB TRANSLATION FROM L1D PREFETCHER DATA	ACCESS:     249530  HIT:     249495  MISS:         35  HIT %:     99.986  MISS %:  0.0140264  MPKI: 0.0007

STLB AVERAGE MISS LATENCY: 71.6167 cycles
STLB RQ	ACCESS:    1333228	FORWARD:          0	MERGED:     119525	TO_CACHE:    1213703

STLB Hit, L1D data hit: 0
STLB Hit, L2C data hit: 0
STLB Hit, LLC data hit: 0
STLB Hit, LLC data miss: 0
STLB STLB hints to L2: 0
L1D TOTAL     ACCESS:   13176873  HIT:   12068009  MISS:    1108864  HIT %:    91.5848  MISS %:    8.41523   MPKI: 22.1773
L1D LOAD DATA	ACCESS:    6629833  HIT:    5900379  MISS:     729454  HIT %:    88.9974  MISS %:    11.0026  MPKI: 14.5891
L1D RFO DATA	ACCESS:    6216511  HIT:    5930269  MISS:     286242  HIT %:    95.3955  MISS %:    4.60454  MPKI: 5.72484
L1D PREFETCH DATA	ACCESS:     330529  HIT:     237361  MISS:      93168  HIT %:    71.8125  MISS %:    28.1875  MPKI: 1.86336

L1D PREFETCH  REQUESTED:     738315  ISSUED:     738315  USEFUL:      33795  USELESS:      67220
L1D USEFUL LOAD PREFETCHES:      33795 PREFETCH ISSUED TO LOWER LEVEL:     101036  ACCURACY: 33.4485
 TIMELY PREFETCHES:      33795 LATE PREFETCHES: 7829 DROPPED PREFETCHES: 4
L1D AVERAGE MISS LATENCY: 240819 cycles
L1D RQ	ACCESS:   10758259	FORWARD:          0	MERGED:    3927840	TO_CACHE:    6663450
L1D WQ	ACCESS:    6947176	FORWARD:     167266	MERGED:     189272	TO_CACHE:    6757904
L1D PQ	ACCESS:     369306	FORWARD:          0	MERGED:          0	TO_CACHE:     369009

L1D UNIQUE REGIONS ACCESSED: 0
L1D REGIONS CONFLICTS: 0
L1D Cross Page Prefetch Requests: 6268
L1D Same Page Prefetch Requests: 750458
L1D ROI Sum of L1D PQ occupancy: 4696224
L1D PREFETCHES PUSHED FROM L2C: 0
L1I TOTAL     ACCESS:    6988481  HIT:    4233688  MISS:    2754793  HIT %:    60.5809  MISS %:    39.4191   MPKI: 55.0959
L1I LOAD INSTRUCTION	ACCESS:    6401398  HIT:    3646605  MISS:    2754793  HIT %:    56.9658  MISS %:    43.0342  MPKI: 55.0959
L1I PREFETCH INSTRUCTION	ACCESS:     587083  HIT:     587083  MISS:          0  HIT %:        100  MISS %:          0  MPKI: 0

L1I PREFETCH  REQUESTED:    1365527  ISSUED:    1365527  USEFUL:          0  USELESS:          0
L1I USEFUL LOAD PREFETCHES:          0 PREFETCH ISSUED TO LOWER LEVEL:          0  ACCURACY: -nan
 TIMELY PREFETCHES:          0 LATE PREFETCHES: 0 DROPPED PREFETCHES: 0
L1I AVERAGE MISS LATENCY: 16.7646 cycles
L1I RQ	ACCESS:    9490653	FORWARD:          0	MERGED:    2832997	TO_CACHE:    6657656
L1I PQ	ACCESS:    1365527	FORWARD:          0	MERGED:     385888	TO_CACHE:     979639

L1BTB TOTAL     ACCESS:    5668012  HIT:    2048289  MISS:    3619723  HIT %:    36.1377  MISS %:    63.8623   MPKI: 72.3945
L1BTB BRANCH_DIRECT_JUMP	ACCESS:     549198 HIT:     145735 MISS:     403463 AVERAGE STALL: 41.5976 AVERAGE FETCH STALL: 18.2786 AVERAGE FETCH QUEUE STALL: 10.7492 AVERAGE DECODE STALL: 11.7363 AVERAGE EXECUTE STALL: 6.20768e+14
L1BTB BRANCH_INDIRECT	ACCESS:     183381 HIT:      66327 MISS:     117054 AVERAGE STALL: 100.197 AVERAGE FETCH STALL: 12.534 AVERAGE FETCH QUEUE STALL: 12.615 AVERAGE DECODE STALL: 11.3425 AVERAGE EXECUTE STALL: 62.7679
L1BTB BRANCH_CONDITIONAL	ACCESS:    2710991 HIT:    1420717 MISS:    1290274 AVERAGE STALL: 45.1664 AVERAGE FETCH STALL: 21.7833 AVERAGE FETCH QUEUE STALL: 12.6457 AVERAGE DECODE STALL: 9.9787 AVERAGE EXECUTE STALL: 2.56622e+14
L1BTB BRANCH_DIRECT_CALL	ACCESS:     941061 HIT:     105077 MISS:     835984 AVERAGE STALL: 44.3891 AVERAGE FETCH STALL: 21.7702 AVERAGE FETCH QUEUE STALL: 12.2536 AVERAGE DECODE STALL: 9.62518 AVERAGE EXECUTE STALL: 3.47639e+14
L1BTB BRANCH_INDIRECT_CALL	ACCESS:     171155 HIT:      21038 MISS:     150117 AVERAGE STALL: 123.164 AVERAGE FETCH STALL: 14.879 AVERAGE FETCH QUEUE STALL: 10.5519 AVERAGE DECODE STALL: 8.46636 AVERAGE EXECUTE STALL: 88.7443
L1BTB BRANCH_RETURN	ACCESS:    1112226 HIT:     289395 MISS:     822831 AVERAGE STALL: 42.8012 AVERAGE FETCH STALL: 18.0105 AVERAGE FETCH QUEUE STALL: 7.14282 AVERAGE DECODE STALL: 6.61531 AVERAGE EXECUTE STALL: 2.65776e+14
L1BTB BRANCH_OTHER ACCESS:          0 HIT:          0 MISS:          0 AVERAGE STALL: -nan AVERAGE FETCH STALL: -nan AVERAGE FETCH QUEUE STALL: -nan AVERAGE DECODE STALL: -nan AVERAGE EXECUTE STALL: -nan
L1BTB TOTAL ROB OCCUPANCY AT BTB MISS: 9.79317

L2BTB TOTAL     ACCESS:    3594241  HIT:    3355297  MISS:     238944  HIT %:     93.352  MISS %:    6.64797   MPKI: 4.77888
L2BTB BRANCH_DIRECT_JUMP	ACCESS:     399238 HIT:     373737 MISS:      25501 AVERAGE STALL: 41.5976 AVERAGE FETCH STALL: 18.2786 AVERAGE FETCH QUEUE STALL: 10.7492 AVERAGE DECODE STALL: 11.7363 AVERAGE EXECUTE STALL: 6.20768e+14
L2BTB BRANCH_INDIRECT	ACCESS:     106820 HIT:     102203 MISS:       4617 AVERAGE STALL: 100.197 AVERAGE FETCH STALL: 12.534 AVERAGE FETCH QUEUE STALL: 12.615 AVERAGE DECODE STALL: 11.3425 AVERAGE EXECUTE STALL: 62.7679
L2BTB BRANCH_CONDITIONAL	ACCESS:    1290274 HIT:    1217990 MISS:      72284 AVERAGE STALL: 45.1664 AVERAGE FETCH STALL: 21.7833 AVERAGE FETCH QUEUE STALL: 12.6457 AVERAGE DECODE STALL: 9.9787 AVERAGE EXECUTE STALL: 2.56622e+14
L2BTB BRANCH_DIRECT_CALL	ACCESS:     835984 HIT:     782874 MISS:      53110 AVERAGE STALL: 44.3891 AVERAGE FETCH STALL: 21.7702 AVERAGE FETCH QUEUE STALL: 12.2536 AVERAGE DECODE STALL: 9.62518 AVERAGE EXECUTE STALL: 3.47639e+14
L2BTB BRANCH_INDIRECT_CALL	ACCESS:     140498 HIT:     125103 MISS:      15395 AVERAGE STALL: 123.164 AVERAGE FETCH STALL: 14.879 AVERAGE FETCH QUEUE STALL: 10.5519 AVERAGE DECODE STALL: 8.46636 AVERAGE EXECUTE STALL: 88.7443
L2BTB BRANCH_RETURN	ACCESS:     821427 HIT:     753390 MISS:      68037 AVERAGE STALL: 42.8012 AVERAGE FETCH STALL: 18.0105 AVERAGE FETCH QUEUE STALL: 7.14282 AVERAGE DECODE STALL: 6.61531 AVERAGE EXECUTE STALL: 2.65776e+14
L2BTB BRANCH_OTHER ACCESS:          0 HIT:          0 MISS:          0 AVERAGE STALL: -nan AVERAGE FETCH STALL: -nan AVERAGE FETCH QUEUE STALL: -nan AVERAGE DECODE STALL: -nan AVERAGE EXECUTE STALL: -nan
L2BTB TOTAL ROB OCCUPANCY AT BTB MISS: 148.355

L2C TOTAL     ACCESS:    4468827  HIT:    4043474  MISS:     425353  HIT %:    90.4818  MISS %:    9.51822   MPKI: 8.50706
L2C LOAD INSTRUCTION	ACCESS:    2754793  HIT:    2542346  MISS:     212447  HIT %:    92.2881  MISS %:     7.7119  MPKI: 4.24894
L2C LOAD TRANSLATION INSTRUCTION	ACCESS:        504  HIT:        153  MISS:        351  HIT %:    30.3571  MISS %:    69.6429  MPKI: 0.00702
L2C LOAD DATA	ACCESS:     721602  HIT:     649303  MISS:      72299  HIT %:    89.9808  MISS %:    10.0192  MPKI: 1.44598
L2C RFO DATA	ACCESS:     286169  HIT:     231952  MISS:      54217  HIT %:    81.0542  MISS %:    18.9458  MPKI: 1.08434
L2C PREFETCH DATA	ACCESS:     182932  HIT:     113223  MISS:      69709  HIT %:    61.8935  MISS %:    38.1065  MPKI: 1.39418
L2C WRITEBACK DATA	ACCESS:     520827  HIT:     505947  MISS:      14880  HIT %:     97.143  MISS %:    2.85699  MPKI: 0.2976
L2C LOAD TRANSLATION DATA	ACCESS:       1945  HIT:        512  MISS:       1433  HIT %:    26.3239  MISS %:    73.6761  MPKI: 0.02866
L2C TRANSLATION FROM L1D PREFETCHER DATA	ACCESS:         55  HIT:         38  MISS:         17  HIT %:    69.0909  MISS %:    30.9091  MPKI: 0.00034

L2C PREFETCH  REQUESTED:      89624  ISSUED:      89624  USEFUL:       8836  USELESS:      61575
L2C USEFUL LOAD PREFETCHES:       8836 PREFETCH ISSUED TO LOWER LEVEL:      70198  ACCURACY: 12.5873
 TIMELY PREFETCHES:       8836 LATE PREFETCHES: 489 DROPPED PREFETCHES: 0
L2C AVERAGE MISS LATENCY: 40.2865 cycles
L2C RQ	ACCESS:    3765125	FORWARD:          0	MERGED:          0	TO_CACHE:    3765069
L2C WQ	ACCESS:     520827	FORWARD:         57	MERGED:          0	TO_CACHE:     520827
L2C PQ	ACCESS:     190660	FORWARD:          0	MERGED:       3483	TO_CACHE:     187176

L2C Dense regions hint from L2: 0
PSCL5 TOTAL     ACCESS:       4740  HIT:       2370  MISS:       2370  HIT %:         50  MISS %:         50   MPKI: 0.0474
PSCL5 LOAD TRANSLATION INSTRUCTION	ACCESS:       4632  HIT:       2316  MISS:       2316  HIT %:         50  MISS %:         50  MPKI: 0.04632
PSCL5 TRANSLATION FROM L1D PREFETCHER INSTRUCTION	ACCESS:        108  HIT:         54  MISS:         54  HIT %:         50  MISS %:         50  MPKI: 0.00108


PSCL4 TOTAL     ACCESS:       4291  HIT:       2144  MISS:       2147  HIT %:     49.965  MISS %:     50.035   MPKI: 0.04294
PSCL4 LOAD TRANSLATION INSTRUCTION	ACCESS:       2304  HIT:       2090  MISS:        214  HIT %:    90.7118  MISS %:    9.28819  MPKI: 0.00428
PSCL4 TRANSLATION FROM L1D PREFETCHER INSTRUCTION	ACCESS:         54  HIT:         54  MISS:          0  HIT %:        100  MISS %:          0  MPKI: 0
PSCL4 LOAD TRANSLATION DATA	ACCESS:       1879  HIT:          0  MISS:       1879  HIT %:          0  MISS %:        100  MPKI: 0.03758
PSCL4 TRANSLATION FROM L1D PREFETCHER DATA	ACCESS:         54  HIT:          0  MISS:         54  HIT %:          0  MISS %:        100  MPKI: 0.00108


PSCL3 TOTAL     ACCESS:       4428  HIT:       2208  MISS:       2220  HIT %:    49.8645  MISS %:    50.1355   MPKI: 0.0444
PSCL3 LOAD TRANSLATION INSTRUCTION	ACCESS:       3824  HIT:       2161  MISS:       1663  HIT %:    56.5115  MISS %:    43.4885  MPKI: 0.03326
PSCL3 TRANSLATION FROM L1D PREFETCHER INSTRUCTION	ACCESS:         91  HIT:         47  MISS:         44  HIT %:    51.6484  MISS %:    48.3516  MPKI: 0.00088
PSCL3 LOAD TRANSLATION DATA	ACCESS:        510  HIT:          0  MISS:        510  HIT %:          0  MISS %:        100  MPKI: 0.0102
PSCL3 TRANSLATION FROM L1D PREFETCHER DATA	ACCESS:          3  HIT:          0  MISS:          3  HIT %:          0  MISS %:        100  MPKI: 6e-05


PSCL2 TOTAL     ACCESS:       4618  HIT:       2248  MISS:       2370  HIT %:    48.6791  MISS %:    51.3209   MPKI: 0.0474
PSCL2 LOAD TRANSLATION INSTRUCTION	ACCESS:       2654  HIT:       2195  MISS:        459  HIT %:    82.7054  MISS %:    17.2946  MPKI: 0.00918
PSCL2 TRANSLATION FROM L1D PREFETCHER INSTRUCTION	ACCESS:         53  HIT:         53  MISS:          0  HIT %:        100  MISS %:          0  MPKI: 0
PSCL2 LOAD TRANSLATION DATA	ACCESS:       1858  HIT:          0  MISS:       1858  HIT %:          0  MISS %:        100  MPKI: 0.03716
PSCL2 TRANSLATION FROM L1D PREFETCHER DATA	ACCESS:         53  HIT:          0  MISS:         53  HIT %:          0  MISS %:        100  MPKI: 0.00106


LLC TOTAL     ACCESS:     487077  HIT:     457019  MISS:      30058  HIT %:    93.8289  MISS %:     6.1711   MPKI: 0.60116
LLC LOAD INSTRUCTION	ACCESS:     212447  HIT:     211383  MISS:       1064  HIT %:    99.4992  MISS %:   0.500831  MPKI: 0.02128
LLC LOAD TRANSLATION INSTRUCTION	ACCESS:        351  HIT:        316  MISS:         35  HIT %:    90.0285  MISS %:    9.97151  MPKI: 0.0007
LLC LOAD DATA	ACCESS:      71828  HIT:      68449  MISS:       3379  HIT %:    95.2957  MISS %:    4.70429  MPKI: 0.06758
LLC RFO DATA	ACCESS:      54198  HIT:      39054  MISS:      15144  HIT %:     72.058  MISS %:     27.942  MPKI: 0.30288
LLC PREFETCH DATA	ACCESS:      70198  HIT:      60199  MISS:       9999  HIT %:     85.756  MISS %:     14.244  MPKI: 0.19998
LLC WRITEBACK DATA	ACCESS:      76605  HIT:      76261  MISS:        344  HIT %:    99.5509  MISS %:   0.449057  MPKI: 0.00688
LLC LOAD TRANSLATION DATA	ACCESS:       1433  HIT:       1340  MISS:         93  HIT %:    93.5101  MISS %:    6.48988  MPKI: 0.00186
LLC TRANSLATION FROM L1D PREFETCHER DATA	ACCESS:         17  HIT:         17  MISS:          0  HIT %:        100  MISS %:          0  MPKI: 0

LLC AVERAGE MISS LATENCY: 158.925 cycles
LLC RQ	ACCESS:     340275	FORWARD:          0	MERGED:          0	TO_CACHE:     340274
LLC WQ	ACCESS:      76605	FORWARD:          1	MERGED:          0	TO_CACHE:      76605
LLC PQ	ACCESS:      70198	FORWARD:          0	MERGED:          0	TO_CACHE:      70198

LLC Dense regions hint to LLC: 0

RAW hits: 1885395
Loads Generated: 12643654
Loads sent to L1D: 10758259
Stores Generated: 6947174
Stores sent to L1D: 6947176
Major fault: 0 Minor fault: 2653
Allocated PAGES: 2653

stream: 
stream:times selected: 1195893
stream:pref_filled: 120488
stream:pref_useful: 23230
stream:pref_late: 6342
stream:misses: 6952
stream:misses_by_poll: 0

CS: 
CS:times selected: 182056
CS:pref_filled: 60075
CS:pref_useful: 37404
CS:pref_late: 6899
CS:misses: 16411
CS:misses_by_poll: 5

CPLX: 
CPLX:times selected: 1012683
CPLX:pref_filled: 19223
CPLX:pref_useful: 4689
CPLX:pref_late: 2979
CPLX:misses: 90490
CPLX:misses_by_poll: 2

NL_L1: 
NL:times selected: 20764
NL:pref_filled: 683
NL:pref_useful: 283
NL:pref_late: 199
NL:misses: 1068
NL:misses_by_poll: 0

total selections: 2411396
total_filled: 93168
total_useful: 33795
total_late: 17791
total_polluted: 7
total_misses_after_warmup: 763072
conflicts: 5548703

test: 116880

DRAM Statistics
 CHANNEL 0
 RQ ROW_BUFFER_HIT:      11067  ROW_BUFFER_MISS:      18642
 DBUS_CONGESTED:         18
 WQ ROW_BUFFER_HIT:       1550  ROW_BUFFER_MISS:      13299  FULL:          0

 AVG_CONGESTED_CYCLE: 6

CPU 0 Branch Prediction Accuracy: 99.8157% MPKI: 0.3369 Average ROB Occupancy at Mispredict: 178.885
Branch types
NOT_BRANCH: 40861345 81.7227%
BRANCH_DIRECT_JUMP: 549198 1.0984%
BRANCH_INDIRECT: 183381 0.366762%
BRANCH_CONDITIONAL: 6181489 12.363%
BRANCH_DIRECT_CALL: 941061 1.88212%
BRANCH_INDIRECT_CALL: 171155 0.34231%
BRANCH_RETURN: 1112226 2.22445%
BRANCH_OTHER: 0 0%

DRAM PAGES: 1048576
Allocated PAGES: 2653
Average_ROB_Occupancy: 192.785
Average_Decode_Occupancy: 24.8199
Average_FTQ_Occupancy: 10.1979
Indirect max targets: 14 Average targets: 1.15738
Branch_type:  BRANCH_DIRECT_JUMP:  Count Percentage: 3.34439 6.98323 3.78774 7.91682 2.23539 2.84804 1.35517 71.5292 
Branch_type:  BRANCH_INDIRECT:  Count Percentage: 11.7335 3.45989 2.61841 9.68719 3.33676 2.8012 0.933551 65.4295 
Branch_type:  BRANCH_CONDITIONAL:  Count Percentage: 21.8829 2.46926 2.27677 4.72196 1.5427 2.99531 0.710986 63.4001 
Branch_type:  BRANCH_DIRECT_CALL:  Count Percentage: 0.861398 1.24925 0.762813 4.44555 1.96473 2.12837 0.863581 87.7243 
Branch_type:  BRANCH_INDIRECT_CALL:  Count Percentage: 9.56193 0 2.99422 0.0055671 0.00058601 2.19344 1.00413 84.2401 
Branch_type:  BRANCH_RETURN:  Count Percentage: 4.6991 1.3955 1.46746 4.45098 3.37438 4.65627 0.812175 79.1441 
Branch_type:  BRANCH_DIRECT_JUMP:  Total Count: 36722 76677 41590 86928 24545 31272 14880 785403 
Branch_type:  BRANCH_INDIRECT:  Total Count: 43073 12701 9612 35561 12249 10283 3427 240187 
Branch_type:  BRANCH_CONDITIONAL:  Total Count: 2704214 305142 281355 583522 190641 370150 87861 7834747 
Branch_type:  BRANCH_DIRECT_CALL:  Total Count: 16182 23468 14330 83513 36909 39983 16223 1647966 
Branch_type:  BRANCH_INDIRECT_CALL:  Total Count: 32634 0 10219 19 2 7486 3427 287504 
Branch_type:  BRANCH_RETURN:  Total Count: 104353 30990 32588 98843 74935 103402 18036 1757557 
Number of unique branch instructions: 10380
Upper 32 bits: 
aaaa
ffff
ffff0000
Unique upper 32 bits: 3
Unique upper 36 bits: 3
Unique upper 40 bits: 5
Unique upper 44 bits: 32
Unique upper 48 bits: 158
Offset_3 4289
Offset_4 268
Offset_5 474
Offset_6 521
Offset_7 613
Offset_8 534
Offset_9 490
Offset_10 398
Offset_11 324
Offset_12 291
Offset_13 223
Offset_14 241
Offset_15 190
Offset_16 226
Offset_17 170
Offset_18 122
Offset_19 252
Offset_20 141
Offset_21 261
Offset_22 404
Offset_23 241
Offset_24 355
Offset_25 92
Offset_47 88
Offset_64 1
decode_dispatch_called: 22553152 58.5388
Dispatch_width: 0 11646723 51.6412 30.2301
Dispatch_width: 1 742257 3.29115 1.9266
Dispatch_width: 2 744738 3.30215 1.93304
Dispatch_width: 3 440357 1.95253 1.14299
Dispatch_width: 4 3600645 15.9652 9.34581
Dispatch_width: 5 225973 1.00196 0.586534
Dispatch_width: 6 5152459 22.8458 13.3737
Empty_decode_cycles: 15973696 41.4612
ROB_full_cycles: 5761263 14.9539
Starvation_cycles_per_kilo_instr: 276.131
Starvation_cycles_per_kilo_instr_3: 237.865
Starvation_cycles_per_kilo_instr_0: 218.592
Branch_type_1  (3,1)  (4,10)  (5,39)  (6,70)  (7,121)  (8,134)  (9,129)  (10,102)  (11,69)  (12,43)  (13,8)  (14,2)  (15,3)  (16,4)  (18,1)  (19,4)  (20,2)  (21,1)  (22,3)  (23,2)  (24,10)  (25,12)  (64,1) 
Branch_type_2  (3,1)  (4,1)  (5,1)  (8,3)  (9,3)  (12,1)  (13,1)  (14,1)  (16,3)  (17,2)  (20,2)  (21,2)  (23,5)  (24,1)  (47,41) 
Branch_type_3  (3,4287)  (4,257)  (5,430)  (6,436)  (7,461)  (8,336)  (9,267)  (10,160)  (11,126)  (12,50)  (13,7) 
Branch_type_4  (6,3)  (7,8)  (8,25)  (9,54)  (10,64)  (11,65)  (12,108)  (13,96)  (14,108)  (15,90)  (16,101)  (17,79)  (18,55)  (19,124)  (20,72)  (21,141)  (22,215)  (23,136)  (24,205)  (25,76) 
Branch_type_5  (8,2)  (9,1)  (10,4)  (11,6)  (12,3)  (13,14)  (14,16)  (15,11)  (16,20)  (17,11)  (18,16)  (19,13)  (20,12)  (21,13)  (22,42)  (23,26)  (24,41) 
Branch_type_6  (5,4)  (6,12)  (7,23)  (8,34)  (9,36)  (10,68)  (11,58)  (12,86)  (13,97)  (14,114)  (15,86)  (16,98)  (17,78)  (18,50)  (19,111)  (20,53)  (21,104)  (22,144)  (23,72)  (24,98)  (25,4)  (47,47) 
aaaaab1fc620: 2ac9e77e 2aca717c 2aca8eff 2acaf6bc 2acaf9aa 2acaf9f1 2acb1abc 2acb1b7f 2acd4e22 2acdb712 2acf5f9e 2ad0ef44 2ad3f15c 2ad414e6 2ad60e42 2ad8609c 2ad99830 2ada35cc 2ada4676 2ada6612 2adf183e 2adf30e5 2adf5602 2adf785c 2ae11572 2aeb2dcf 2aee101b 2aee1ae1 2aee9456 2b156a8c 2b156b61 2b156bea 2b167f35 2b177656 2b17feec 2b1a3e5a 
aaaaab1fc740: 2aca1fb0 2aca45b3 2aca5aa1 2aca5c69 2aca66f9 2aca9426 2acaeecb 2acf3d2d 2acf3d64 2acf6089 2ad017ea 2ad5e7ef 2ad61064 2ad87373 2ad9bf84 2ad9c093 2ae9b606 2aea9ffa 2aee99f5 2aee9a2c 2aeece4b 
aaaaac68f310: 2ac9ec8c 2ac9fb44 2ac9fbd2 2aca59ab 2acac04c 2acaf6e0 2acaf6ec 2acaf6f9 2acaf700 2acaf708 2acf2d90 2ad3cfbd 2ad3cfc4 2ad3d000 2ad3f35f 2ad4955d 2ad49571 2ad4f3f2 2ad4f400 2ad5f240 2ad5f37c 2ad5f86a 2ad5f86f 2ad5f880 2ad5fc0d 2ad5fc14 2ad5fc21 2ad5fe1b 2ad873bb 2ad873e3 2ad8a6b2 2ad9086e 2ad93096 2ad9bbb2 2ada152c 2ada1554 2ada3332 2ada5522 2adf3130 2adf313c 2adf3a3f 2adf3bd9 2adf5788 2adf7a8d 2ae07f6b 2ae0857a 2ae0857e 2ae08630 2ae08634 2ae08637 2ae08642 2ae0866f 2ae086e4 2ae086ec 2ae08717 2ae0871b 2aee0170 2aee1d38 2aee75f4 2aee7662 2aee85ca 2aee85e4 2aee8eef 2aee9a0a 2af70b84 2af74e8f 2b17d843 
aaaaac690ef0: 2aca598b 2acb111b 2acb175f 2acb1772 2acbfaf4 2acbfb00 2acf374f 2acf6d43 2acfa5c8 2ad3baf1 2ad3d4ac 2ad3d4b8 2ad3f1cf 2ad486b2 2ad5a59b 2ad5fc64 2ad5fcf9 2ad6121c 2ad906e9 2ad907bf 2ad9bada 2ada16ce 2ada1ad5 2ada43df 2ada64c0 2ada72ee 2adeb71a 2adf3bcb 2adf7a38 2adf7c6a 2adf8872 2adf8880 2adf9959 2adf9abe 2ae07f78 2ae08503 2ae08754 2ae12e80 2aea3bea 2aecb509 2aee00b0 2aee2bdd 2aee5467 2aee5601 2aee8f20 2af703fd 2af7048b 2af74e74 2dfba627 
Unique trigger count: 
1 9881
2 542
3 87
4 34
5 13
6 7
7 8
9 3
10 2
11 1
12 1
13 4
16 2
19 4
21 1
36 1
49 1
67 1
BTB PER SET UNIQUE ADDR: 6 7 7 5 3 4 8 10 10 2 6 2 8 5 5 4 6 4 7 9 5 8 7 8 8 11 1 7 6 6 11 10 6 4 9 4 4 7 8 4 8 5 6 10 9 8 6 11 11 7 6 3 13 4 4 8 5 5 9 9 4 12 5 8 6 11 8 7 5 7 6 2 6 4 6 7 6 14 5 4 9 7 8 6 6 8 7 9 8 10 10 9 9 6 6 4 10 8 5 8 8 6 9 9 5 8 7 8 7 5 7 4 4 8 7 11 3 7 6 2 7 9 4 2 6 4 5 6 10 5 10 3 11 5 8 6 5 2 6 8 8 7 6 6 5 10 4 8 10 6 7 11 6 11 5 8 6 8 7 10 11 6 10 5 10 5 3 5 15 5 6 3 7 6 3 2 5 6 9 4 6 6 9 7 7 10 6 6 7 9 6 8 6 6 6 10 11 4 10 5 4 6 9 3 8 4 5 8 7 2 3 6 9 9 6 6 4 9 9 6 6 3 7 7 6 8 13 7 2 10 14 8 4 3 6 8 9 5 3 5 5 3 10 9 14 11 2 5 5 5 8 10 6 7 5 13 4 7 9 5 8 5 7 4 9 15 6 4 7 5 7 6 4 8 10 9 5 3 4 8 7 5 10 5 9 9 7 7 9 4 6 7 5 10 6 5 6 10 6 6 6 6 4 4 6 5 6 4 12 9 6 3 8 3 6 4 10 14 7 4 6 12 5 8 5 5 6 9 4 2 7 2 6 7 10 5 7 7 7 1 5 6 3 8 6 8 3 7 9 5 5 10 9 6 8 6 7 3 7 5 6 10 6 8 12 8 4 3 4 4 8 5 6 5 7 4 11 7 6 10 9 7 7 12 6 4 8 5 5 3 10 5 8 4 7 3 6 5 2 8 6 4 7 5 5 6 8 5 5 3 4 4 10 6 2 5 10 4 2 6 3 5 5 7 12 8 3 2 5 7 4 4 16 6 8 11 7 6 6 4 5 6 8 4 7 8 4 7 6 3 6 4 7 3 9 4 5 8 10 6 5 5 6 10 5 5 13 3 5 8 2 6 9 7 5 3 10 5 4 4 5 3 3 4 3 7 10 3 7 2 11 5 4 9 1 13 5 7 5 4 11 3 3 3 2 5 6 3 4 7 7 4 7 10 3 4 2 12 6 9 6 5 7 5 11 11 4 10 9 7 8 6 5 9 5 7 5 1 6 4 4 8 9 4 8 5 11 12 12 11 6 8 7 8 2 6 8 3 6 4 10 5 8 5 5 5 9 8 10 7 9 3 9 12 8 7 6 11 3 10 14 5 2 6 4 3 3 13 8 6 7 9 4 5 5 5 8 6 5 5 9 5 9 12 8 7 5 9 8 5 9 6 8 5 8 6 7 6 5 7 8 6 10 3 5 10 7 8 4 6 8 7 6 7 7 6 5 5 5 4 11 8 5 6 2 3 6 7 9 8 8 4 11 4 6 2 10 5 6 8 12 3 6 11 8 8 7 6 5 10 7 7 6 6 11 9 8 6 8 6 7 12 10 7 8 8 7 8 8 6 3 8 2 4 4 8 10 8 7 9 3 11 4 5 7 12 4 4 5 5 7 7 6 5 5 7 9 6 1 8 4 3 6 4 4 1 3 10 2 12 7 9 7 2 6 7 7 3 6 4 4 8 5 10 4 4 6 3 7 6 6 3 4 6 2 5 4 11 9 4 6 6 6 7 7 6 14 5 6 4 9 6 0 6 8 5 6 10 3 4 8 6 4 6 10 9 9 7 4 9 3 10 4 6 6 12 11 4 5 4 12 4 9 3 7 6 7 9 4 5 4 4 6 3 4 6 1 5 5 10 6 4 10 4 5 4 5 3 6 6 8 3 7 4 10 5 4 4 6 4 5 4 7 5 4 9 9 5 7 4 8 7 7 9 6 10 7 4 9 5 7 7 4 4 14 5 6 8 9 8 4 6 6 10 8 2 3 6 7 4 5 7 6 6 10 5 7 4 6 7 8 4 5 8 6 3 10 10 4 3 12 8 5 5 8 6 5 10 6 8 10 6 4 4 2 7 4 4 7 6 9 7 10 7 8 9 7 4 5 12 5 4 11 10 5 8 10 10 2 8 8 8 5 4 6 7 9 7 8 3 9 2 13 7 3 6 9 11 6 9 6 7 11 5 3 9 10 8 9 4 3 5 3 9 11 5 8 5 4 7 12 6 5 5 5 6 4 6 9 6 8 8 7 11 5 11 6 11 5 6 3 6 6 5 7 7 7 6 6 5 8 4 9 6 10 5 9 5 3 7 10 6 15 5 
BTB PER SET COUNT: 6 7 8 5 3 4 9 33 3042 8 6 2 8 5 5 6 6 4 7 1472 5 8 7 8 8 2545 1 7 1466 6 4498 411 6 4 9 5 2926 7 12 4 10 5 6 41 1932 11 6 5567 3318 7 6 3 11643 4 4 8 6 5 15 107 5 2650 5 8 6 1362 9 7 5 7 6 2 7 4 8 7 512 3684 5 4 14 7 8 6 512 9 7 11 8 474 2154 461 38 6 7 5 3524 9 5 8 8 6 17 2235 6 9 7 8 7 5 7 6 4 9 7 4105 3 7 6 2 8 13 4 2 512 4 5 6 2039 5 583 4 4755 6 8 7 5 2 6 9 8 8 7 6 6 29 5 8 3179 6 7 3415 6 3551 5 11 6 8 8 869 1746 6 3045 6 47 1914 3 6 9600 5 6 3 8 128 4 2 6 511 963 4 6 6 14 7 7 2031 6 7 7 10 7 9 6 6 6 42 988 4 18 5 4 6 11 4 10 4 5 2480 9 2 3 7 17 12 6 6 4 66 11 6 6 3 8 8 8 8 5596 1949 3 3996 8066 8 4 3 7 8 3543 5 3 5 7 3 1531 9 12139 398 2 5 5 5 8 569 6 8 5 3028 4 8 30 5 9 5 7 4 2180 9643 959 5 8 5 11 7 5 8 34 15 5 3 4 9 9 5 22 5 1464 3547 7 7 11 4 6 7 512 3043 6 13 8 4625 6 6 6 6 4 5 6 5 6 4 1473 1463 7 3 8 3 6 5 21 4808 10 4 6 418 5 8 5 5 9 15 4 2 1019 3 8 7 975 5 1022 7 7 1 5 6 5 1019 1019 8 4 8 11 6 5 109 16 959 8 9 13 3 7 48 7 23 6 8 47 9 4 3 4 4 9 5 6 5 9 4 3458 7 6 2219 55 7 7 5826 8 4 8 5 5 3 35 6 8 6 8 5 1465 5 4 8 6 4 7 9 5 7 2926 6 5 2291 4 4 520 8 955 5 141 4 5 1431 5 5 5 8 58 13 6 2 5 9 141 4 5831 6 8 2095 8 6 6 4 7 7 9 4 11 8 4 960 6 3 6 4 9 4 362 4 5 8 526 6 1016 5 11 76 30 6 1284 3 5 8 2 9 44 515 145 3 20774 5 4 4 6 3 3 509 5 7 285 403 7 2 32 6 4 11 1 2564 5 8 5 4 4039 12 3 3 2 5 7 3 4 7 7 5 7 37 5 4 2 6580 6 515 8 1465 8 435 265 18 4 18 44 7 8 7 6 15 5 513 7 1 8 4 4 8 23 6 10 6 18 4299 5070 5054 6 8 9 9 2 6 963 3 6 4 4158 5 8 5 5 5 50 11 3045 7 9 4 1461 3562 8 7 6 3548 5 33 7247 50 3 6 1464 3 3 5565 8 7 7 13 4 958 959 5 9 6 6 5 14 7 1219 56 9 3041 5 1811 10 5 13 9 8 5 8 7 908 6 5 7 9 765 3041 3 1464 46 7 252 8 6 513 1466 7 9 7 6 6 5 5 4 2548 8 5 6 2 3 7 8 517 9 9 4 1043 4 6 3 2534 5 1523 8 11478 3 6 5655 8 1021 2927 1019 5 32 515 7 8 7 4051 1023 514 6 655 6 7 1286 13 1018 14608 1022 8 1849 1467 8 6 1022 2 4 4 9 3044 8 9 44 3 2041 4 5 166 4561 4 1463 5 1464 216 7 8 5 1016 7 1481 729 1 8 4 4 6 4 4 1 3 682 2 3561 8 1291 960 2 6 7 7 5 6 4 5 9 6 6180 4 5 512 3 9 1017 7 3 4 561 2 5 4 3027 2534 957 9 6 960 7 7 6 8183 5 8 4 17 7 0 101 8 1464 6 3706 3 4 9 8 4 6 1930 33 39 7 458 16 3 2967 4 6 230 3820 3565 4 5 4 2876 6 206 5 2034 1466 8 23 4 8 4 5 6 451 5 8 1 5 7 1272 8 4 1229 374 5 8 958 3 6 56 8 3 7 4 1098 6 4 4 6 4 197 4 7 1466 4 16 15 5 9 4 8 7 8 10 6 6121 7 4 10 8 7 8 5 4 6177 958 6 1021 2534 10 4 6 6 28 10 2 3 7 9 5 5 7 7 6 118 12 7 4 6 7 9 4 5 8 6 4 17 1465 9 3 5695 9 134 49 8 8 5 1831 6 9 96 7 4 6 3 7 4 1016 7 6 15 8 37 8 10 12 7 5 5 164 7 512 3531 2394 5 8 5109 1230 2 9 9 13 5 958 9 8 20 260 8 3 19 2 5741 7 3 6 45 4561 8 2798 6 513 3042 5 3 17 30 8 10 4 3 5 3 392 64 5 963 5 4 7 3564 6 511 6 5 8 4 6 10 7 9 9 7 3547 5 64 6 4053 11 8 3 6 6 5 12 7 8 7 6 7 2033 4 2433 387 1278 7 42 7 3 9 1495 6 4026 5 
