
*** ChampSim Multicore Out-of-Order Simulator ***

Warmup Instructions: 50000000
Simulation Instructions: 50000000
Number of CPUs: 1
LLC sets: 2048
LLC ways: 16
Off-chip DRAM Size: 4096 MB Channels: 1 Width: 64-bit Data Rate: 6400 MT/s
CPU 0 runs ./micro_traces/srv445.trace.gz
.gz
ITLB has LRU replacement policy
DTLB has LRU replacement policy
STLB has LRU replacement policy
FDIP Prefetcher at L1I
L1I has LRU replacement policy
L1D has LRU replacement policy
Initialize SRRIP state for L2C
Initialize DRRIP state for LLC
Heartbeat CPU 0 instructions: 10000001 cycles: 2796546 heartbeat IPC: 3.57584 cumulative IPC: 3.57584 (Simulation time: 0 hr 1 min 40 sec) 
Heartbeat CPU 0 instructions: 20000001 cycles: 5592215 heartbeat IPC: 3.57696 cumulative IPC: 3.5764 (Simulation time: 0 hr 3 min 16 sec) 
Heartbeat CPU 0 instructions: 30000003 cycles: 8387288 heartbeat IPC: 3.57772 cumulative IPC: 3.57684 (Simulation time: 0 hr 4 min 51 sec) 
Heartbeat CPU 0 instructions: 40000002 cycles: 11183539 heartbeat IPC: 3.57622 cumulative IPC: 3.57669 (Simulation time: 0 hr 6 min 22 sec) 
Heartbeat CPU 0 instructions: 50000003 cycles: 13980860 heartbeat IPC: 3.57485 cumulative IPC: 3.57632 (Simulation time: 0 hr 7 min 59 sec) 

Warmup complete CPU 0 instructions: 50000003 cycles: 13980860 (Simulation time: 0 hr 7 min 59 sec) 

Cycle: 20000000 FTQ IN: 58318096 FTQ occupancy: 20.0471 DECODE IN: 58318096 DECODE occupancy: 52.394 ROB IN: 58318096 ROB occupancy: 316.124 ROB OUT: 58318092
Heartbeat CPU 0 instructions: 60000001 cycles: 21218368 heartbeat IPC: 1.38169 cumulative IPC: 1.38169 (Simulation time: 0 hr 9 min 45 sec) 
Heartbeat CPU 0 instructions: 70000001 cycles: 28487758 heartbeat IPC: 1.37563 cumulative IPC: 1.37865 (Simulation time: 0 hr 11 min 33 sec) 
Cycle: 30000000 FTQ IN: 13782201 FTQ occupancy: 13.4554 DECODE IN: 13782070 DECODE occupancy: 35.015 ROB IN: 13782010 ROB occupancy: 243.372 ROB OUT: 13781662
Heartbeat CPU 0 instructions: 80000001 cycles: 35683398 heartbeat IPC: 1.38973 cumulative IPC: 1.38233 (Simulation time: 0 hr 13 min 22 sec) 
Cycle: 40000000 FTQ IN: 13843723 FTQ occupancy: 13.3814 DECODE IN: 13843712 DECODE occupancy: 34.8314 ROB IN: 13843712 ROB occupancy: 241.413 ROB OUT: 13843712
Heartbeat CPU 0 instructions: 90000000 cycles: 42954897 heartbeat IPC: 1.37523 cumulative IPC: 1.38055 (Simulation time: 0 hr 15 min 9 sec) 
Cycle: 50000000 FTQ IN: 13886309 FTQ occupancy: 13.3749 DECODE IN: 13886382 DECODE occupancy: 34.7027 ROB IN: 13886382 ROB occupancy: 242.092 ROB OUT: 13886553
Heartbeat CPU 0 instructions: 100000000 cycles: 50121469 heartbeat IPC: 1.39537 cumulative IPC: 1.38349 (Simulation time: 0 hr 16 min 55 sec) 
Finished CPU 0 instructions: 50000001 cycles: 36140610 cumulative IPC: 1.38349 (Simulation time: 0 hr 16 min 55 sec) 

ChampSim completed all CPUs

Region of Interest Statistics

CPU 0 cumulative IPC: 1.38349 instructions: 50000001 cycles: 36140610
 Fetch stage stalled: 52.5828  Sim cycles: 36140610 fetch stall cycle: 19003755
 Empty decode stage: 33.4992  Sim cycles: 36140610 fetch stall cycle: 12106800
ITLB TOTAL     ACCESS:    5868058  HIT:    5372963  MISS:     495095  HIT %:    91.5629  MISS %:    8.43712   MPKI: 9.9019
ITLB LOAD TRANSLATION INSTRUCTION	ACCESS:    5744649  HIT:    5249554  MISS:     495095  HIT %:    91.3816  MISS %:    8.61837  MPKI: 9.9019
ITLB TRANSLATION FROM L1D PREFETCHER INSTRUCTION	ACCESS:     123409  HIT:     123409  MISS:          0  HIT %:        100  MISS %:          0  MPKI: 0

ITLB AVERAGE MISS LATENCY: 9.06367 cycles
ITLB RQ	ACCESS:    8022313	FORWARD:          0	MERGED:    1709896	TO_CACHE:    6312417

DTLB TOTAL     ACCESS:    8974251  HIT:    8503820  MISS:     470431  HIT %:     94.758  MISS %:    5.24201   MPKI: 9.40862
DTLB LOAD TRANSLATION DATA	ACCESS:    8974251  HIT:    8503820  MISS:     470431  HIT %:     94.758  MISS %:    5.24201  MPKI: 9.40862

DTLB AVERAGE MISS LATENCY: 9.31327 cycles
DTLB RQ	ACCESS:   13347401	FORWARD:          0	MERGED:    4337041	TO_CACHE:    9010360

STLB TOTAL     ACCESS:    1213270  HIT:    1211289  MISS:       1981  HIT %:    99.8367  MISS %:   0.163278   MPKI: 0.03962
STLB LOAD TRANSLATION INSTRUCTION	ACCESS:     495095  HIT:     494861  MISS:        234  HIT %:    99.9527  MISS %:  0.0472637  MPKI: 0.00468
STLB LOAD TRANSLATION DATA	ACCESS:     470431  HIT:     468706  MISS:       1725  HIT %:    99.6333  MISS %:   0.366685  MPKI: 0.0345
STLB TRANSLATION FROM L1D PREFETCHER DATA	ACCESS:     247744  HIT:     247722  MISS:         22  HIT %:    99.9911  MISS %: 0.00888013  MPKI: 0.00044

STLB AVERAGE MISS LATENCY: 75.0767 cycles
STLB RQ	ACCESS:    1334563	FORWARD:          0	MERGED:     121254	TO_CACHE:    1213309

STLB Hit, L1D data hit: 0
STLB Hit, L2C data hit: 0
STLB Hit, LLC data hit: 0
STLB Hit, LLC data miss: 0
STLB STLB hints to L2: 0
L1D TOTAL     ACCESS:   13100835  HIT:   11981560  MISS:    1119275  HIT %:    91.4565  MISS %:    8.54354   MPKI: 22.3855
L1D LOAD DATA	ACCESS:    6560796  HIT:    5822097  MISS:     738699  HIT %:    88.7407  MISS %:    11.2593  MPKI: 14.774
L1D RFO DATA	ACCESS:    6211520  HIT:    5925524  MISS:     285996  HIT %:    95.3957  MISS %:    4.60428  MPKI: 5.71992
L1D PREFETCH DATA	ACCESS:     328519  HIT:     233939  MISS:      94580  HIT %:    71.2102  MISS %:    28.7898  MPKI: 1.8916

L1D PREFETCH  REQUESTED:     738477  ISSUED:     738477  USEFUL:      33614  USELESS:      68492
L1D USEFUL LOAD PREFETCHES:      33614 PREFETCH ISSUED TO LOWER LEVEL:     102159  ACCURACY: 32.9036
 TIMELY PREFETCHES:      33614 LATE PREFETCHES: 7530 DROPPED PREFETCHES: 7
L1D AVERAGE MISS LATENCY: 215694 cycles
L1D RQ	ACCESS:   10689806	FORWARD:          0	MERGED:    3930005	TO_CACHE:    6595438
L1D WQ	ACCESS:    6950180	FORWARD:     164766	MERGED:     198217	TO_CACHE:    6751963
L1D PQ	ACCESS:     369440	FORWARD:          0	MERGED:          0	TO_CACHE:     369037

L1D UNIQUE REGIONS ACCESSED: 0
L1D REGIONS CONFLICTS: 0
L1D Cross Page Prefetch Requests: 6854
L1D Same Page Prefetch Requests: 746505
L1D ROI Sum of L1D PQ occupancy: 4680182
L1D PREFETCHES PUSHED FROM L2C: 0
L1I TOTAL     ACCESS:    7169906  HIT:    4399670  MISS:    2770236  HIT %:     61.363  MISS %:     38.637   MPKI: 55.4047
L1I LOAD INSTRUCTION	ACCESS:    6498454  HIT:    3728218  MISS:    2770236  HIT %:    57.3708  MISS %:    42.6292  MPKI: 55.4047
L1I PREFETCH INSTRUCTION	ACCESS:     671452  HIT:     671452  MISS:          0  HIT %:        100  MISS %:          0  MPKI: 0

L1I PREFETCH  REQUESTED:    1628282  ISSUED:    1628282  USEFUL:          0  USELESS:          0
L1I USEFUL LOAD PREFETCHES:          0 PREFETCH ISSUED TO LOWER LEVEL:          0  ACCURACY: -nan
 TIMELY PREFETCHES:          0 LATE PREFETCHES: 0 DROPPED PREFETCHES: 0
L1I AVERAGE MISS LATENCY: 17.4314 cycles
L1I RQ	ACCESS:    9508606	FORWARD:          0	MERGED:    2679655	TO_CACHE:    6828951
L1I PQ	ACCESS:    1628282	FORWARD:          0	MERGED:     434920	TO_CACHE:    1193362

L1BTB TOTAL     ACCESS:    5671295  HIT:    2034553  MISS:    3636742  HIT %:    35.8746  MISS %:    64.1254   MPKI: 72.7348
L1BTB BRANCH_DIRECT_JUMP	ACCESS:     548968  HIT:     143859  MISS:     405109	AVERAGE STALL: 53.4685
L1BTB BRANCH_INDIRECT	ACCESS:     182924  HIT:      65970  MISS:     116954	AVERAGE STALL: 105.641
L1BTB BRANCH_CONDITIONAL	ACCESS:    2707107  HIT:    1410740  MISS:    1296367	AVERAGE STALL: 90.3762
L1BTB BRANCH_DIRECT_CALL	ACCESS:     944414  HIT:     104227  MISS:     840187	AVERAGE STALL: 116.065
L1BTB BRANCH_INDIRECT_CALL	ACCESS:     171739  HIT:      21005  MISS:     150734	AVERAGE STALL: 132.807
L1BTB BRANCH_RETURN	ACCESS:    1116143  HIT:     288752  MISS:     827391	AVERAGE STALL: 47.908
L1BTB BRANCH_OTHER ACCESS:          0  HIT:          0  MISS:          0	AVERAGE STALL: -nan
L1BTB TOTAL ROB OCCUPANCY AT BTB MISS: 1.91065

L2BTB TOTAL     ACCESS:    3611330  HIT:    3556250  MISS:      55080  HIT %:    98.4748  MISS %:     1.5252   MPKI: 1.1016
L2BTB BRANCH_DIRECT_JUMP	ACCESS:     400947  HIT:     398219  MISS:       2728	AVERAGE STALL: 53.4685
L2BTB BRANCH_INDIRECT	ACCESS:     106655  HIT:     103967  MISS:       2688	AVERAGE STALL: 105.641
L2BTB BRANCH_CONDITIONAL	ACCESS:    1296367  HIT:    1296216  MISS:        151	AVERAGE STALL: 90.3762
L2BTB BRANCH_DIRECT_CALL	ACCESS:     840187  HIT:     840067  MISS:        120	AVERAGE STALL: 116.065
L2BTB BRANCH_INDIRECT_CALL	ACCESS:     141193  HIT:     131135  MISS:      10058	AVERAGE STALL: 132.807
L2BTB BRANCH_RETURN	ACCESS:     825981  HIT:     786646  MISS:      39335	AVERAGE STALL: 47.908
L2BTB BRANCH_OTHER ACCESS:          0  HIT:          0  MISS:          0	AVERAGE STALL: -nan
L2BTB TOTAL ROB OCCUPANCY AT BTB MISS: 126.153

L2C TOTAL     ACCESS:    4500238  HIT:    3983289  MISS:     516949  HIT %:    88.5129  MISS %:    11.4871   MPKI: 10.339
L2C LOAD INSTRUCTION	ACCESS:    2770236  HIT:    2488102  MISS:     282134  HIT %:    89.8155  MISS %:    10.1845  MPKI: 5.64268
L2C LOAD TRANSLATION INSTRUCTION	ACCESS:        270  HIT:         64  MISS:        206  HIT %:    23.7037  MISS %:    76.2963  MPKI: 0.00412
L2C LOAD DATA	ACCESS:     731141  HIT:     654022  MISS:      77119  HIT %:    89.4522  MISS %:    10.5478  MPKI: 1.54238
L2C RFO DATA	ACCESS:     285924  HIT:     225594  MISS:      60330  HIT %:       78.9  MISS %:       21.1  MPKI: 1.2066
L2C PREFETCH DATA	ACCESS:     188313  HIT:     112118  MISS:      76195  HIT %:    59.5381  MISS %:    40.4619  MPKI: 1.5239
L2C WRITEBACK DATA	ACCESS:     522523  HIT:     502778  MISS:      19745  HIT %:    96.2212  MISS %:    3.77878  MPKI: 0.3949
L2C LOAD TRANSLATION DATA	ACCESS:       1792  HIT:        581  MISS:       1211  HIT %:    32.4219  MISS %:    67.5781  MPKI: 0.02422
L2C TRANSLATION FROM L1D PREFETCHER DATA	ACCESS:         39  HIT:         30  MISS:          9  HIT %:    76.9231  MISS %:    23.0769  MPKI: 0.00018

L2C PREFETCH  REQUESTED:      93077  ISSUED:      93077  USEFUL:       8699  USELESS:      67766
L2C USEFUL LOAD PREFETCHES:       8699 PREFETCH ISSUED TO LOWER LEVEL:      76557  ACCURACY: 11.3628
 TIMELY PREFETCHES:       8699 LATE PREFETCHES: 362 DROPPED PREFETCHES: 0
L2C AVERAGE MISS LATENCY: 37.0796 cycles
L2C RQ	ACCESS:    3789453	FORWARD:          0	MERGED:          0	TO_CACHE:    3789403
L2C WQ	ACCESS:     522523	FORWARD:         50	MERGED:          0	TO_CACHE:     522523
L2C PQ	ACCESS:     195236	FORWARD:          0	MERGED:       3070	TO_CACHE:     192166

L2C Dense regions hint from L2: 0
PSCL5 TOTAL     ACCESS:       3976  HIT:       1988  MISS:       1988  HIT %:         50  MISS %:         50   MPKI: 0.03976
PSCL5 LOAD TRANSLATION INSTRUCTION	ACCESS:       3898  HIT:       1949  MISS:       1949  HIT %:         50  MISS %:         50  MPKI: 0.03898
PSCL5 TRANSLATION FROM L1D PREFETCHER INSTRUCTION	ACCESS:         78  HIT:         39  MISS:         39  HIT %:         50  MISS %:         50  MPKI: 0.00078


PSCL4 TOTAL     ACCESS:       3729  HIT:       1861  MISS:       1868  HIT %:    49.9061  MISS %:    50.0939   MPKI: 0.03736
PSCL4 LOAD TRANSLATION INSTRUCTION	ACCESS:       2219  HIT:       1822  MISS:        397  HIT %:    82.1091  MISS %:    17.8909  MPKI: 0.00794
PSCL4 TRANSLATION FROM L1D PREFETCHER INSTRUCTION	ACCESS:         44  HIT:         39  MISS:          5  HIT %:    88.6364  MISS %:    11.3636  MPKI: 0.0001
PSCL4 LOAD TRANSLATION DATA	ACCESS:       1432  HIT:          0  MISS:       1432  HIT %:          0  MISS %:        100  MPKI: 0.02864
PSCL4 TRANSLATION FROM L1D PREFETCHER DATA	ACCESS:         34  HIT:          0  MISS:         34  HIT %:          0  MISS %:        100  MPKI: 0.00068


PSCL3 TOTAL     ACCESS:       3735  HIT:       1864  MISS:       1871  HIT %:    49.9063  MISS %:    50.0937   MPKI: 0.03742
PSCL3 LOAD TRANSLATION INSTRUCTION	ACCESS:       2222  HIT:       1825  MISS:        397  HIT %:    82.1332  MISS %:    17.8668  MPKI: 0.00794
PSCL3 TRANSLATION FROM L1D PREFETCHER INSTRUCTION	ACCESS:         44  HIT:         39  MISS:          5  HIT %:    88.6364  MISS %:    11.3636  MPKI: 0.0001
PSCL3 LOAD TRANSLATION DATA	ACCESS:       1435  HIT:          0  MISS:       1435  HIT %:          0  MISS %:        100  MPKI: 0.0287
PSCL3 TRANSLATION FROM L1D PREFETCHER DATA	ACCESS:         34  HIT:          0  MISS:         34  HIT %:          0  MISS %:        100  MPKI: 0.00068


PSCL2 TOTAL     ACCESS:       3876  HIT:       1888  MISS:       1988  HIT %:      48.71  MISS %:      51.29   MPKI: 0.03976
PSCL2 LOAD TRANSLATION INSTRUCTION	ACCESS:       2082  HIT:       1849  MISS:        233  HIT %:    88.8088  MISS %:    11.1912  MPKI: 0.00466
PSCL2 TRANSLATION FROM L1D PREFETCHER INSTRUCTION	ACCESS:         39  HIT:         39  MISS:          0  HIT %:        100  MISS %:          0  MPKI: 0
PSCL2 LOAD TRANSLATION DATA	ACCESS:       1716  HIT:          0  MISS:       1716  HIT %:          0  MISS %:        100  MPKI: 0.03432
PSCL2 TRANSLATION FROM L1D PREFETCHER DATA	ACCESS:         39  HIT:          0  MISS:         39  HIT %:          0  MISS %:        100  MPKI: 0.00078


LLC TOTAL     ACCESS:     582963  HIT:     555436  MISS:      27527  HIT %:    95.2781  MISS %:    4.72191   MPKI: 0.55054
LLC LOAD INSTRUCTION	ACCESS:     282134  HIT:     281299  MISS:        835  HIT %:     99.704  MISS %:   0.295959  MPKI: 0.0167
LLC LOAD TRANSLATION INSTRUCTION	ACCESS:        206  HIT:        162  MISS:         44  HIT %:    78.6408  MISS %:    21.3592  MPKI: 0.00088
LLC LOAD DATA	ACCESS:      76810  HIT:      73345  MISS:       3465  HIT %:    95.4889  MISS %:    4.51113  MPKI: 0.0693
LLC RFO DATA	ACCESS:      60260  HIT:      47234  MISS:      13026  HIT %:    78.3837  MISS %:    21.6163  MPKI: 0.26052
LLC PREFETCH DATA	ACCESS:      76557  HIT:      66784  MISS:       9773  HIT %:    87.2343  MISS %:    12.7657  MPKI: 0.19546
LLC WRITEBACK DATA	ACCESS:      85776  HIT:      85465  MISS:        311  HIT %:    99.6374  MISS %:   0.362572  MPKI: 0.00622
LLC LOAD TRANSLATION DATA	ACCESS:       1211  HIT:       1139  MISS:         72  HIT %:    94.0545  MISS %:     5.9455  MPKI: 0.00144
LLC TRANSLATION FROM L1D PREFETCHER DATA	ACCESS:          9  HIT:          8  MISS:          1  HIT %:    88.8889  MISS %:    11.1111  MPKI: 2e-05

LLC AVERAGE MISS LATENCY: 153.227 cycles
LLC RQ	ACCESS:     420647	FORWARD:          0	MERGED:          0	TO_CACHE:     420630
LLC WQ	ACCESS:      85776	FORWARD:         17	MERGED:          0	TO_CACHE:      85776
LLC PQ	ACCESS:      76557	FORWARD:          0	MERGED:          0	TO_CACHE:      76557

LLC Dense regions hint to LLC: 0

RAW hits: 1943898
Loads Generated: 12633702
Loads sent to L1D: 10689806
Stores Generated: 6950187
Stores sent to L1D: 6950180
Major fault: 0 Minor fault: 2491
Allocated PAGES: 2491

stream: 
stream:times selected: 1175909
stream:pref_filled: 122217
stream:pref_useful: 24684
stream:pref_late: 7041
stream:misses: 8014
stream:misses_by_poll: 0

CS: 
CS:times selected: 173655
CS:pref_filled: 58712
CS:pref_useful: 35543
CS:pref_late: 6663
CS:misses: 15671
CS:misses_by_poll: 1

CPLX: 
CPLX:times selected: 1001170
CPLX:pref_filled: 19790
CPLX:pref_useful: 4647
CPLX:pref_late: 3108
CPLX:misses: 94036
CPLX:misses_by_poll: 0

NL_L1: 
NL:times selected: 20919
NL:pref_filled: 807
NL:pref_useful: 352
NL:pref_late: 267
NL:misses: 1772
NL:misses_by_poll: 0

total selections: 2371653
total_filled: 94580
total_useful: 33614
total_late: 18312
total_polluted: 1
total_misses_after_warmup: 773346
conflicts: 5531502

test: 115462

DRAM Statistics
 CHANNEL 0
 RQ ROW_BUFFER_HIT:      10172  ROW_BUFFER_MISS:      17037
 DBUS_CONGESTED:         10
 WQ ROW_BUFFER_HIT:       1340  ROW_BUFFER_MISS:      11472  FULL:          0

 AVG_CONGESTED_CYCLE: 3

CPU 0 Branch Prediction Accuracy: 99.8189% MPKI: 0.33126 Average ROB Occupancy at Mispredict: 187.944
Branch types
NOT_BRANCH: 40853075 81.7061%
BRANCH_DIRECT_JUMP: 548968 1.09794%
BRANCH_INDIRECT: 182924 0.365848%
BRANCH_CONDITIONAL: 6182715 12.3654%
BRANCH_DIRECT_CALL: 944414 1.88883%
BRANCH_INDIRECT_CALL: 171739 0.343478%
BRANCH_RETURN: 1116143 2.23229%
BRANCH_OTHER: 0 0%

DRAM PAGES: 1048576
Allocated PAGES: 2491
Average_ROB_Occupancy: 243.212
Average_Decode_Occupancy: 34.7899
Average_FTQ_Occupancy: 13.3623
Indirect max targets: 14 Average targets: 1.14052
Branch_type:  BRANCH_DIRECT_JUMP:  Count Percentage: 2.88069 6.67639 2.91154 8.00547 1.69086 5.9593 1.61759 70.2582 
Branch_type:  BRANCH_INDIRECT:  Count Percentage: 11.7692 3.43179 2.5083 17.6376 3.34906 4.01586 2.01546 55.2727 
Branch_type:  BRANCH_CONDITIONAL:  Count Percentage: 20.897 3.2797 1.77323 5.96189 1.43742 4.69425 0.910011 61.0465 
Branch_type:  BRANCH_DIRECT_CALL:  Count Percentage: 0.256879 1.79493 1.11621 3.76137 2.22977 3.03899 0.774705 87.0272 
Branch_type:  BRANCH_INDIRECT_CALL:  Count Percentage: 9.5416 0.558367 2.99161 4.83134 0 4.07117 0.993911 77.012 
Branch_type:  BRANCH_RETURN:  Count Percentage: 3.42122 1.43758 1.62572 8.88923 2.86556 5.36284 1.44621 74.9516 
Branch_type:  BRANCH_DIRECT_JUMP:  Total Count: 31571 73170 31909 87736 18531 65311 17728 769995 
Branch_type:  BRANCH_INDIRECT:  Total Count: 42961 12527 9156 64382 12225 14659 7357 201761 
Branch_type:  BRANCH_CONDITIONAL:  Total Count: 2581989 405232 219096 736638 177604 580011 112439 7542769 
Branch_type:  BRANCH_DIRECT_CALL:  Total Count: 4860 33959 21118 71163 42186 57496 14657 1646506 
Branch_type:  BRANCH_INDIRECT_CALL:  Total Count: 32861 1923 10303 16639 0 14021 3423 265227 
Branch_type:  BRANCH_RETURN:  Total Count: 76538 32161 36370 198866 64107 119975 32354 1676785 
Number of unique branch instructions: 9964
Upper 32 bits: 
aaaa
ffff
ffff0000
Unique upper 32 bits: 3
Unique upper 36 bits: 3
Unique upper 40 bits: 5
Unique upper 44 bits: 32
Unique upper 48 bits: 154
Offset_3 4102
Offset_4 248
Offset_5 453
Offset_6 511
Offset_7 581
Offset_8 506
Offset_9 474
Offset_10 383
Offset_11 314
Offset_12 286
Offset_13 202
Offset_14 227
Offset_15 184
Offset_16 220
Offset_17 147
Offset_18 118
Offset_19 236
Offset_20 142
Offset_21 239
Offset_22 396
Offset_23 241
Offset_24 351
Offset_25 91
Offset_47 85
decode_dispatch_called: 25732378 71.2007
Dispatch_width: 0 13738872 53.3914 38.0151
Dispatch_width: 1 995781 3.86976 2.7553
Dispatch_width: 2 843796 3.27912 2.33476
Dispatch_width: 3 509395 1.97959 1.40948
Dispatch_width: 4 5964844 23.1803 16.5045
Dispatch_width: 5 149073 0.579321 0.412481
Dispatch_width: 6 3530617 13.7205 9.76911
Empty_decode_cycles: 10408232 28.7993
ROB_full_cycles: 9435137 26.1067
Starvation_cycles_per_kilo_instr: 231.749
Starvation_cycles_per_kilo_instr_3: 170.609
Starvation_cycles_per_kilo_instr_0: 147.12
Branch_type_1  (3,1)  (4,9)  (5,37)  (6,70)  (7,115)  (8,127)  (9,123)  (10,98)  (11,69)  (12,45)  (13,5)  (14,2)  (15,3)  (16,4)  (18,1)  (19,4)  (20,2)  (21,1)  (22,3)  (23,2)  (24,10)  (25,12) 
Branch_type_2  (3,1)  (5,1)  (8,3)  (9,3)  (12,1)  (13,1)  (14,1)  (16,3)  (17,2)  (20,2)  (21,2)  (23,5)  (24,1)  (47,39) 
Branch_type_3  (3,4100)  (4,239)  (5,411)  (6,424)  (7,436)  (8,315)  (9,263)  (10,155)  (11,124)  (12,55)  (13,4) 
Branch_type_4  (6,4)  (7,8)  (8,24)  (9,54)  (10,62)  (11,61)  (12,102)  (13,88)  (14,100)  (15,86)  (16,97)  (17,66)  (18,53)  (19,116)  (20,73)  (21,127)  (22,210)  (23,136)  (24,206)  (25,75) 
Branch_type_5  (8,2)  (9,1)  (10,3)  (11,5)  (12,3)  (13,14)  (14,16)  (15,11)  (16,22)  (17,11)  (18,16)  (19,12)  (20,11)  (21,13)  (22,42)  (23,26)  (24,43) 
Branch_type_6  (5,4)  (6,13)  (7,22)  (8,35)  (9,30)  (10,65)  (11,55)  (12,80)  (13,90)  (14,108)  (15,84)  (16,94)  (17,68)  (18,48)  (19,104)  (20,54)  (21,96)  (22,141)  (23,72)  (24,91)  (25,4)  (47,46) 
Unique trigger count: 
BTB PER SET UNIQUE ADDR: 3 2 3 4 3 2 3 2 2 4 4 3 5 4 4 5 3 4 3 3 2 2 3 3 3 2 4 5 3 4 4 3 2 4 4 3 3 2 3 3 3 3 3 4 2 2 2 4 4 3 3 3 3 2 3 3 4 2 3 6 3 3 3 3 4 1 3 3 3 3 3 2 5 5 3 4 4 2 4 4 3 4 3 3 2 3 4 4 5 3 4 3 4 3 3 1 4 4 3 4 4 3 4 3 5 4 2 3 3 3 4 3 4 2 4 2 4 3 2 5 4 5 2 3 4 3 3 4 4 3 3 3 4 3 4 4 3 2 3 5 3 4 4 3 4 3 3 3 4 4 5 3 3 4 3 4 4 3 4 4 4 3 3 4 3 2 2 3 5 4 4 6 5 4 3 4 2 3 2 2 2 2 3 3 3 3 2 4 4 3 3 4 4 3 3 3 4 2 3 3 3 4 5 3 2 3 3 2 4 2 3 3 3 4 4 4 4 3 3 5 3 3 4 2 3 3 2 2 3 4 1 6 4 2 2 4 3 4 4 4 3 4 3 3 3 3 2 3 4 2 2 3 3 3 3 5 4 4 5 3 4 5 4 4 2 3 3 4 4 4 4 2 3 3 5 3 5 2 3 4 5 2 2 4 3 5 5 5 3 4 3 4 5 2 4 5 4 3 3 3 4 3 3 2 4 2 4 4 5 3 3 4 5 4 3 3 5 3 2 3 6 4 5 4 5 5 1 3 5 5 2 3 3 3 2 3 4 3 4 4 4 3 4 2 5 4 1 2 3 4 4 3 5 3 2 4 5 3 3 4 5 4 3 3 4 6 4 4 3 2 5 4 3 3 3 3 3 5 5 3 3 4 2 4 3 4 5 4 5 4 4 4 3 4 3 3 2 3 2 3 3 4 2 2 3 4 5 3 4 2 4 3 4 5 4 4 4 3 4 2 3 3 2 5 3 3 3 4 1 4 3 3 3 3 3 2 3 2 1 4 4 3 3 2 4 2 3 2 5 4 4 1 4 3 3 4 3 3 3 3 3 5 3 3 2 3 3 5 4 4 4 3 5 3 4 4 3 2 4 5 3 4 3 4 3 3 3 4 4 5 4 3 2 3 3 6 4 3 3 2 4 4 2 3 4 3 2 4 3 3 4 3 3 4 3 5 4 3 4 4 2 3 2 2 5 5 1 3 4 4 2 4 3 3 3 3 3 2 3 2 3 4 4 6 3 3 3 4 3 3 4 4 3 4 3 4 4 1 4 2 3 3 4 4 2 3 3 4 4 3 3 3 1 3 4 5 3 5 3 3 3 4 3 3 4 3 2 2 3 3 3 2 4 4 3 4 2 3 5 3 3 3 4 4 2 3 4 2 4 3 3 4 5 3 2 3 3 4 5 3 5 1 5 3 5 4 2 3 2 5 2 4 3 4 3 2 3 4 3 3 2 4 2 2 3 3 2 2 2 2 4 3 2 3 3 4 3 4 3 4 5 2 3 4 3 3 3 2 3 5 4 3 3 4 3 3 4 6 4 3 2 3 3 5 3 3 2 4 3 3 2 2 3 3 3 4 3 3 3 5 4 4 2 4 3 5 3 2 3 4 3 3 3 4 4 4 3 2 2 3 4 4 4 3 4 3 4 4 2 4 3 4 3 4 4 5 3 4 4 6 3 4 4 3 3 3 4 4 3 2 5 6 4 3 2 4 3 2 3 3 4 3 4 3 3 4 3 2 4 4 4 3 2 4 5 5 2 5 2 5 3 2 3 5 4 3 3 3 2 3 5 4 4 3 4 4 4 2 3 3 3 3 5 2 3 4 3 3 4 4 3 2 1 4 4 4 4 3 3 4 3 4 4 5 4 2 4 2 3 4 4 3 3 3 4 3 4 5 3 5 3 4 3 4 3 4 2 4 2 4 3 3 2 4 4 2 3 4 2 5 2 4 4 3 6 3 4 3 4 5 4 3 4 4 3 4 3 3 4 3 3 4 5 4 3 4 4 4 2 1 4 2 1 2 2 3 4 3 3 4 4 1 3 3 3 4 4 3 3 4 3 2 5 4 5 3 3 3 3 2 2 3 4 4 3 4 3 4 4 3 3 4 3 4 3 3 4 3 2 3 3 3 3 5 4 2 3 3 6 4 6 5 4 3 2 3 3 4 3 2 5 4 4 3 4 2 3 4 2 5 2 4 1 4 4 4 2 3 2 4 3 5 3 3 5 4 4 3 5 3 3 3 4 4 4 4 3 3 2 3 4 3 4 4 5 4 3 4 2 4 5 4 4 3 3 4 3 3 3 3 2 4 3 3 4 2 3 5 5 2 4 4 3 3 4 5 3 3 2 3 3 3 3 5 6 3 4 3 3 3 5 3 4 4 4 2 4 3 3 3 5 2 5 2 3 2 2 5 5 3 4 2 4 3 5 4 4 4 4 3 3 4 4 2 3 4 5 2 3 4 5 3 2 6 4 3 4 4 3 4 5 3 4 3 2 5 3 4 4 3 4 5 3 4 3 2 5 4 3 5 3 3 1 4 4 3 4 3 3 3 2 4 6 2 4 3 4 2 3 2 4 5 4 3 4 3 3 3 4 5 4 3 3 5 4 1 5 3 4 3 4 5 3 2 3 3 3 4 3 4 4 2 5 2 1 3 4 3 3 5 4 2 3 3 3 4 7 3 5 2 5 3 3 3 3 4 4 4 5 1 4 4 1 3 5 3 5 3 3 2 4 4 5 3 3 5 4 3 3 4 5 2 3 4 2 3 2 4 3 2 5 2 2 2 3 3 3 3 4 3 3 3 4 4 3 3 4 4 4 3 2 3 4 3 5 4 2 4 2 4 4 4 5 4 3 2 5 4 2 4 4 4 3 3 2 4 4 3 5 3 4 3 3 3 3 4 4 3 3 3 3 4 5 2 3 2 5 3 3 5 5 3 3 3 4 4 3 2 3 4 2 3 4 2 3 4 3 3 3 4 4 3 3 4 5 4 4 2 5 3 3 4 3 4 2 4 3 3 5 3 3 3 2 4 4 3 2 2 6 3 4 4 4 3 3 4 5 2 4 4 3 4 2 2 3 2 4 4 5 3 2 4 3 2 3 3 4 4 2 4 3 3 3 3 3 3 2 4 2 3 2 5 2 2 2 3 5 4 2 3 3 3 4 2 2 4 4 4 4 3 2 4 4 3 3 4 2 4 4 3 5 2 4 4 4 3 3 4 4 4 6 3 2 4 5 4 3 3 3 2 3 3 2 3 3 4 5 3 3 3 2 4 1 2 4 3 5 1 3 4 4 3 4 3 4 2 4 3 3 5 4 1 3 3 4 4 3 3 3 5 4 4 2 4 5 4 3 3 3 4 3 2 4 2 4 5 4 3 3 5 3 3 2 5 4 3 4 4 4 3 4 3 5 2 2 4 4 3 3 3 3 2 3 5 3 3 2 3 4 3 3 3 5 1 4 4 5 2 2 4 3 2 4 3 4 3 3 3 3 2 3 3 4 4 3 2 3 4 3 2 4 5 2 3 2 2 2 5 4 4 4 4 5 3 2 3 4 3 4 3 2 2 2 6 3 5 3 3 3 2 3 3 3 2 3 2 2 3 3 3 4 5 2 3 3 3 2 4 3 2 4 4 4 4 4 3 5 3 4 4 3 4 3 2 3 4 3 3 3 4 5 3 3 5 4 3 4 2 4 4 3 3 3 2 4 4 4 3 4 5 5 3 1 2 4 3 5 2 3 4 3 3 4 4 4 3 2 4 3 2 3 4 3 3 3 4 2 2 5 3 4 2 4 5 3 2 5 3 3 3 2 3 2 3 2 4 2 4 3 3 2 4 3 3 3 4 4 3 3 3 2 4 5 3 3 4 3 2 4 5 3 3 5 2 3 4 4 3 2 2 4 2 4 3 4 5 2 4 3 5 4 5 5 5 2 5 3 4 3 3 3 3 3 2 4 5 2 3 3 3 3 3 3 3 3 3 4 4 3 3 3 4 3 6 1 4 4 3 3 4 3 5 3 4 2 4 5 2 4 3 4 4 3 3 3 4 4 3 3 4 3 3 4 3 2 5 5 3 2 2 3 5 5 3 4 4 5 3 2 4 3 4 4 3 3 3 3 3 3 3 3 4 2 2 6 3 5 3 4 3 3 3 3 4 4 3 2 4 2 3 2 3 5 3 3 3 4 4 3 4 3 4 4 3 2 2 1 4 3 2 4 2 4 3 4 2 3 4 4 5 3 3 3 2 3 4 3 3 2 2 2 4 2 5 5 3 2 4 4 3 5 2 3 2 3 4 2 2 3 4 4 3 2 3 3 3 3 4 3 2 4 3 3 4 3 4 3 3 3 4 3 3 2 4 3 3 4 4 4 3 4 3 2 3 4 3 4 2 3 3 3 4 2 3 4 3 4 2 1 3 4 3 4 2 5 4 6 4 3 2 2 4 3 3 3 4 5 4 2 5 2 3 3 3 4 3 4 2 3 3 3 3 4 4 4 3 4 3 3 3 4 4 4 3 3 4 3 2 4 3 1 4 6 5 3 2 4 3 4 4 4 4 3 4 4 2 5 4 3 4 4 4 3 4 5 3 4 4 4 4 3 4 3 4 3 3 4 4 
BTB PER SET COUNT: 3 1474 1475 4 3 2 3 2 2 485 60 3 5 967 4 5 3 4 3 3 2 2 3 3 485 2 4 6 3 512 4 3 2 5 484 3 3 2 3 3 3 3 3 5 2 2 2 4 4 3 966 3 3 2 3 3 6 966 3 9 994 3 4 3 4 1 4 3 4 3 3 2 5 5 3 4 4 2 7 4 3 4 4 3 2 3 4 4 485 964 94 3 5 3 3 1 5 4 3 4 6 3 4 4 6 4 2 3 3 3 4 4 4 2 6 2 4 4 2 5 4 6 3 3 4 3 3 5 454 3 4 3 4 3 4 5 3 2 3 5 3 5 4 3 5 3 3 3 6 4 5 512 4 92 4 996 5 3 4 4 4 4 3 4 3 2 2 3 6 4 4 8 5 5 4 4 2 3 2 2 2 2 3 3 3 3 2 4 4 3 3 4 4 3 3 3 4 2 1474 4 3 1477 6 3 2 3 3 2 37 2 6 4 3 4 4 4 5 484 3 5 3 3 4 2 3 3 2 2 668 5 282 7 4 2 2 4 3 5 4 4 3 4 3 3 3 3 2 3 4 2 2 3 3 4 3 5 1477 5 6 3 5 6 6 4 2 3 3 5 4 4 4 2 5 3 5 3 5 2 3 4 5 2 2 4 3 5 5 5 3 4 3 5 6 2 490 9 5 3 3 3 4 3 1477 2 7 2 4 4 6 3 3 5 5 4 3 3 5 3 2 3 6 6 5 4 5 7 2 3 6 5 2 4 3 3 2 3 4 3 4 4 4 3 4 2 5 4 1 2 3 4 5 3 5 3 2 372 7 3 3 4 8 274 3 6 4 10 6 4 993 2 5 5 4 3 3 3 3 7 5 3 6 5 2 4 3 4 7 4 5 4 5 4 3 4 3 4 1362 3 2 4 3 4 2 2 3 4 1992 3 4 2 5 3 4 5 4 6 4 3 4 2 3 3 2 5 3 3 3 4 1 5 3 4 4 3 3 2 3 3 1 4 5 3 3 2 4 3 1475 21 5 4 5 1 5 4 3 4 3 3 3 3 3 6 3 3 11 3 3 12 994 4 4 3 5 3 1092 4 4 2 4 5 3 5 3 4 55 3 4 5 4 5 994 3 495 3 3 996 4 8 3 2 4 5 2 3 5 3 2 4 3 3 4 4 965 1927 3 5 4 484 4 4 3 3 2 3 5 5 1 4 4 4 2 4 3 4 3 4 3 2 3 2 4 4 5 6 3 3 3 4 3 3 4 4 964 4 3 4 484 1 4 2 964 7783 4 5 2 4 964 5 4 6 3 3 1 4 4 5 3 5 3 3 4 4 3 3 7 3 2 2 3 3 3 2 4 966 5 1475 2 3 7 4 4 3 965 5 5 4 965 2 4 3 3 4 995 3 2 3 1474 4 14727 3 6 1 365 5 6 4 3 3 2 5 963 4 3 4 3 2 3 4 3 3 2 4 2 3 3 4 2 2 2 2 5 993 2 3 4 4 3 5 3 4 6 1473 4 6 3 3 4 2 3 6 4 3 3 2947 3 1474 4 6 4 3 2 3 3 7 3 3 2 1475 3 3 2 2 3 3 3 4 3 3 3 5 4 5 2 4 4 8 3 2 3 4 5 3 3 4 4 485 964 2 2 3 4 4 5 3 4 3 4 4 2 4 3 5 3 6 4 7 3 5 4 9 3 4 4 3 3 4 4 4 3 4 6 7 4 3 2 4 3 2 96 4 7 3 4 39 4 4 3 483 4 5 4 3 2 4 5 5 2 6 2 5 5 2 3 7 482 3 3 3 2 3 6 4 4 3 4 997 4 2 4 3 3 3 6 2 3 5 3 4 2466 4 3 3 1 4 4 4 4 3 4 6 3 4 994 6 4 2 4 2 3 6 4 4 3 3 4 3 4 7 3 5 10 4 3 4 4 7 2 4 4 994 3 3 2 6 5 2 3 6 2 5 2 5 4 3 9 3 4 3 6 5 4 3 128 4 3 5 3 3 4 3 3 5 5 4 3 4 4 4 2 1 1475 2 1 2 2 3 372 3 3 4 4 1 3 965 4 4 5 3 3 5 3 2 5 4 5 3 4 3 3 2 482 993 4 4 3 5 1474 4 6 3 3 12 3 4 3 5 4 3 2 5 3 3 4 10 4 2 3 3 6 4 7 5 5 3 483 3 3 4 1926 2 13 4 5 3 4 2 483 4 2 10 2 5 1 7 5 5 3 4 2 7 3 5 3 3 5 7 5 45 5 3 4 3 4 4 5 4 3 3 2 3 4 3 4 4 5 4 3 8 2 484 6 4 4 3 3 4 4 3 3 3 2 4 4 3 5 2 3 7 5 2 4 4 3 3 4 5 3 3 2 4 3 3 3 5 6 3 485 3 3 4 5 3 4 4 6 2 5 221 1474 3 5 2 5 2 3 2 2 5 7 3 4 2 4 3 101 4 5 4 4 3 3 4 4 2 4 4 7 2 3 4 5 4 2 8 4 3 4 4 3 4 6 3 5 3 370 234 4 4 4 3 4 6 3 5 3 2 6 4 3 5 199 3 1 4 4 3 4 3 3 4 2 4 6 2 4 3 4 2 4 2 5 20612 4 3 4 5 3 4 5 5 4 3 3 5 4 1 5 4 7 3 4 7 4 2 3 3 3 4 3 4 485 2 5 2 2 3 4 3 3 5 1475 2 3 3 3 4 10 3 5 2 6 3 3 3 3 484 4 4 5 1 4 4 1 4 6 3 37 3 3 370 1476 4 5 3 3 5 4 3 4 4 5 2 4 5 2 3 2 4 3 2 8 2 2 2 4 3 3 4 4 3 4 11 4 5 3 3 4 4 4 3 2 3 10 512 5 4 2 4 2 4 5 47 6 5 3 2 5 6 2 4 4 4 3 3 2 4 5 3 7 3 5 3 3 3 3 4 5 3 3 3 3 5 5 2 3 2 5 3 3 5 7 3 3 3 4 10 3 2 3 4 2 3 4 2 3 4 6 3 3 4 5 3 3 4 513 4 4 1473 6 3 4 619 3 8 2 4 4 3 5 371 3 3 2 4 5 3 2 2 6 4 2948 5 4 371 3 4 5 2 6 4 3 485 2 2 3 2 5 6 5 3 2 4 4 3 3 993 4 7 2 486 3 3 3 3 3 4 3 4 2 3 9 7 2 2 2 3 5 4 2 3 3 3 5 2 3 5 4 4 4 47 2 6 4 3 3 4 2 6 4 3 5 2 4 4 994 5 4 5 4 1986 51 4 2 1986 5 4 4 3 3 2 3 3 2 3 3 4 6 3 3 3 2 31 1 2 4 3 6 2 3 4 4 3 4 3 4 2 5 3 3 5 6 1 3 3 4 4 3 3 7 6 4 4 2 4 7 5 1019 4 3 4 3 2 6 6 4 5 4 4 3 6 247 3 3 5 4 4 5 5 4 3 5 3 6 2 2 4 5 3 3 3 3 2 3 6 3 3 3 3 994 3 3 4 5 1 4 4 5 2 2 5 3 2 4 3 4 3 3 3 4 2 3 3 5 5 5 2 3 4 3 2 5 6 2 4 2 2 2 5 4 5 4 8 7 3 2 3 6 3 4 1474 2 2 38 8 12 5 4 4 3 2 3 4 3 2 3 3 2 4 3 4 4 5 3 4 3 3 2 4 3 2 201 4 4 4 4 3 6 3 4 4 3 4 3 2 3 5 3 3 3 4 8 3 3 5 4 3 4 2 484 4 3 3 3 4 4 4 4 3 4 5 6 3 1 2 6 3 5 2 4 6 3 3 4 5 4 5 2 8 3 2 3 4 3 3 3 4 2 2 5 3 5 2 5 5 3 2 6 3 223 3 2 3 2 3 2 5 2 4 3 3 2 4 3 3 3 4 199 3 3 3 2 5 5 3 3 4 3 2 5 5 4 3 5 2 3 4 5 3 2 2 5 2 11 3 4 5 2 6 3 5 4 10 5 7 2 5 127 4 3 4 3 4 3 2 4 5 2 3 3 5 3 3 3 6 3 3 5 4 3 4 5 4 4 7 1 4 4 4 3 485 3 5 3 4 2 4 114 2 4 3 4 4 3 3 5 5 4 3 3 4 4 3 997 3 2 8 5 3 2 2 3 5 6 4 6 4 5 4 2 4 3 4 4 993 3 4 1474 3 3 4 483 4 2 2 8 4 5 3 4 115 3 3 3 4 4 1474 2 4 2 3 2 994 6 3 3 3 4 4 87 4 4 4 4 3 2 2 1 5 3 2 4 2 6 3 4 2 3 995 4 5 3 3 4 2 3 4 3 3 2 2 2 6 405 6 12 124 2 5 1476 3 5 2 3 2 5 4 2 2 3 4 4 3 1474 3 3 3 4 5 3 2 5 3 4 4 3 4 3 3 3 5 5 543 2 4 4 3 6 4 5 3 4 3 2 13 6 3 4 2 3 3 3 4 2 3 4 3 4 2 1 3 4 3 4 2 5 4 8 965 3 963 2 28 3 3 3848 4 5 5 2 5 2 967 3 5 4 4 4 2 3 3 3 3 19 4 4 3 4 4 3 4 4 4 5 3 5 4 1362 2 4 3 1 5 7 5 3 2 4 3 14 1475 5 154 3 1954 5 2 968 4 3 4 7 5 967 4 6 3 4 4 4 4 3 4 3 4 4 3 6 806 
