
*** ChampSim Multicore Out-of-Order Simulator ***

Warmup Instructions: 50000000
Simulation Instructions: 50000000
Number of CPUs: 1
LLC sets: 2048
LLC ways: 16
Off-chip DRAM Size: 4096 MB Channels: 1 Width: 64-bit Data Rate: 6400 MT/s
CPU 0 runs ./micro_traces/srv414.trace.gz
.gz
ITLB has LRU replacement policy
DTLB has LRU replacement policy
STLB has LRU replacement policy
FDIP Prefetcher at L1I
L1I has LRU replacement policy
L1D has LRU replacement policy
Initialize SRRIP state for L2C
Initialize DRRIP state for LLC
Heartbeat CPU 0 instructions: 10000003 cycles: 2797036 heartbeat IPC: 3.57521 cumulative IPC: 3.57521 (Simulation time: 0 hr 2 min 44 sec) 
Heartbeat CPU 0 instructions: 20000000 cycles: 5592683 heartbeat IPC: 3.57699 cumulative IPC: 3.5761 (Simulation time: 0 hr 4 min 52 sec) 
Heartbeat CPU 0 instructions: 30000000 cycles: 8389081 heartbeat IPC: 3.57603 cumulative IPC: 3.57608 (Simulation time: 0 hr 6 min 50 sec) 
Heartbeat CPU 0 instructions: 40000000 cycles: 11186146 heartbeat IPC: 3.57518 cumulative IPC: 3.57585 (Simulation time: 0 hr 8 min 58 sec) 
Heartbeat CPU 0 instructions: 50000000 cycles: 13982861 heartbeat IPC: 3.57562 cumulative IPC: 3.57581 (Simulation time: 0 hr 10 min 57 sec) 

Warmup complete CPU 0 instructions: 50000004 cycles: 13982862 (Simulation time: 0 hr 10 min 57 sec) 

Cycle: 20000000 FTQ IN: 58296724 FTQ occupancy: 17.7247 DECODE IN: 58296695 DECODE occupancy: 47.6078 ROB IN: 58296695 ROB occupancy: 308.178 ROB OUT: 58296661
Heartbeat CPU 0 instructions: 60000001 cycles: 21227768 heartbeat IPC: 1.38028 cumulative IPC: 1.38028 (Simulation time: 0 hr 12 min 48 sec) 
Heartbeat CPU 0 instructions: 70000001 cycles: 28544027 heartbeat IPC: 1.36682 cumulative IPC: 1.37352 (Simulation time: 0 hr 14 min 30 sec) 
Cycle: 30000000 FTQ IN: 13719375 FTQ occupancy: 5.67586 DECODE IN: 13719404 DECODE occupancy: 19.2031 ROB IN: 13719393 ROB occupancy: 216.296 ROB OUT: 13719075
Heartbeat CPU 0 instructions: 80000000 cycles: 35798038 heartbeat IPC: 1.37855 cumulative IPC: 1.37519 (Simulation time: 0 hr 16 min 11 sec) 
Cycle: 40000000 FTQ IN: 13822949 FTQ occupancy: 5.6165 DECODE IN: 13822949 DECODE occupancy: 19.2227 ROB IN: 13822960 ROB occupancy: 217.36 ROB OUT: 13823299
Heartbeat CPU 0 instructions: 90000000 cycles: 43113676 heartbeat IPC: 1.36693 cumulative IPC: 1.37312 (Simulation time: 0 hr 17 min 56 sec) 
Cycle: 50000000 FTQ IN: 13649335 FTQ occupancy: 5.7029 DECODE IN: 13649240 DECODE occupancy: 19.514 ROB IN: 13649180 ROB occupancy: 219.269 ROB OUT: 13648843
Heartbeat CPU 0 instructions: 100000003 cycles: 50371339 heartbeat IPC: 1.37785 cumulative IPC: 1.37406 (Simulation time: 0 hr 19 min 36 sec) 
Finished CPU 0 instructions: 50000003 cycles: 36388478 cumulative IPC: 1.37406 (Simulation time: 0 hr 19 min 36 sec) 

ChampSim completed all CPUs

Region of Interest Statistics

CPU 0 cumulative IPC: 1.37406 instructions: 50000003 cycles: 36388478
 Fetch stage stalled: 64.0998  Sim cycles: 36388478 fetch stall cycle: 23324935
 Empty decode stage: 48.5576  Sim cycles: 36388478 fetch stall cycle: 17669389
ITLB TOTAL     ACCESS:    5573870  HIT:    5080812  MISS:     493058  HIT %:    91.1541  MISS %:    8.84588   MPKI: 9.86116
ITLB LOAD TRANSLATION INSTRUCTION	ACCESS:    5457904  HIT:    4964846  MISS:     493058  HIT %:    90.9662  MISS %:    9.03383  MPKI: 9.86116
ITLB TRANSLATION FROM L1D PREFETCHER INSTRUCTION	ACCESS:     115966  HIT:     115966  MISS:          0  HIT %:        100  MISS %:          0  MPKI: 0

ITLB AVERAGE MISS LATENCY: 9.04843 cycles
ITLB RQ	ACCESS:    7416353	FORWARD:          0	MERGED:    1354994	TO_CACHE:    6061359

DTLB TOTAL     ACCESS:    8991959  HIT:    8520939  MISS:     471020  HIT %:    94.7618  MISS %:    5.23824   MPKI: 9.4204
DTLB LOAD TRANSLATION DATA	ACCESS:    8991959  HIT:    8520939  MISS:     471020  HIT %:    94.7618  MISS %:    5.23824  MPKI: 9.4204

DTLB AVERAGE MISS LATENCY: 9.3182 cycles
DTLB RQ	ACCESS:   13356442	FORWARD:          0	MERGED:    4328752	TO_CACHE:    9027690

STLB TOTAL     ACCESS:    1212358  HIT:    1210283  MISS:       2075  HIT %:    99.8288  MISS %:   0.171154   MPKI: 0.0415
STLB LOAD TRANSLATION INSTRUCTION	ACCESS:     493058  HIT:     492792  MISS:        266  HIT %:    99.9461  MISS %:   0.053949  MPKI: 0.00532
STLB LOAD TRANSLATION DATA	ACCESS:     470923  HIT:     469137  MISS:       1786  HIT %:    99.6207  MISS %:   0.379255  MPKI: 0.03572
STLB TRANSLATION FROM L1D PREFETCHER DATA	ACCESS:     248377  HIT:     248354  MISS:         23  HIT %:    99.9907  MISS %: 0.00926012  MPKI: 0.00046

STLB AVERAGE MISS LATENCY: 70.4935 cycles
STLB RQ	ACCESS:    1334205	FORWARD:          0	MERGED:     121811	TO_CACHE:    1212394

STLB Hit, L1D data hit: 0
STLB Hit, L2C data hit: 0
STLB Hit, LLC data hit: 0
STLB Hit, LLC data miss: 0
STLB STLB hints to L2: 0
L1D TOTAL     ACCESS:   13111735  HIT:   12000023  MISS:    1111712  HIT %:    91.5212  MISS %:    8.47876   MPKI: 22.2342
L1D LOAD DATA	ACCESS:    6571516  HIT:    5838117  MISS:     733399  HIT %:    88.8397  MISS %:    11.1603  MPKI: 14.668
L1D RFO DATA	ACCESS:    6210320  HIT:    5926544  MISS:     283776  HIT %:    95.4306  MISS %:    4.56943  MPKI: 5.67552
L1D PREFETCH DATA	ACCESS:     329899  HIT:     235362  MISS:      94537  HIT %:    71.3437  MISS %:    28.6563  MPKI: 1.89074

L1D PREFETCH  REQUESTED:     740616  ISSUED:     740616  USEFUL:      33462  USELESS:      68119
L1D USEFUL LOAD PREFETCHES:      33462 PREFETCH ISSUED TO LOWER LEVEL:     101615  ACCURACY: 32.9302
 TIMELY PREFETCHES:      33462 LATE PREFETCHES: 7048 DROPPED PREFETCHES: 9
L1D AVERAGE MISS LATENCY: 208519 cycles
L1D RQ	ACCESS:   10710579	FORWARD:          0	MERGED:    3941033	TO_CACHE:    6606293
L1D WQ	ACCESS:    6943953	FORWARD:     163615	MERGED:     193804	TO_CACHE:    6750149
L1D PQ	ACCESS:     370489	FORWARD:          0	MERGED:          0	TO_CACHE:     370127

L1D UNIQUE REGIONS ACCESSED: 0
L1D REGIONS CONFLICTS: 0
L1D Cross Page Prefetch Requests: 6964
L1D Same Page Prefetch Requests: 751805
L1D ROI Sum of L1D PQ occupancy: 4705045
L1D PREFETCHES PUSHED FROM L2C: 0
L1I TOTAL     ACCESS:    6840365  HIT:    4080116  MISS:    2760249  HIT %:    59.6476  MISS %:    40.3524   MPKI: 55.205
L1I LOAD INSTRUCTION	ACCESS:    6332106  HIT:    3571857  MISS:    2760249  HIT %:    56.4087  MISS %:    43.5913  MPKI: 55.205
L1I PREFETCH INSTRUCTION	ACCESS:     508259  HIT:     508259  MISS:          0  HIT %:        100  MISS %:          0  MPKI: 0

L1I PREFETCH  REQUESTED:    1116330  ISSUED:    1116330  USEFUL:          0  USELESS:          0
L1I USEFUL LOAD PREFETCHES:          0 PREFETCH ISSUED TO LOWER LEVEL:          0  ACCURACY: -nan
 TIMELY PREFETCHES:          0 LATE PREFETCHES: 0 DROPPED PREFETCHES: 0
L1I AVERAGE MISS LATENCY: 17.8381 cycles
L1I RQ	ACCESS:    9437031	FORWARD:          0	MERGED:    2820921	TO_CACHE:    6616110
L1I PQ	ACCESS:    1116330	FORWARD:          0	MERGED:     316087	TO_CACHE:     800243

L1BTB TOTAL     ACCESS:    5672215  HIT:    2047458  MISS:    3624757  HIT %:    36.0963  MISS %:    63.9037   MPKI: 72.4951
L1BTB BRANCH_DIRECT_JUMP	ACCESS:     549120  HIT:     145120  MISS:     404000	AVERAGE STALL: 25.0299
L1BTB BRANCH_INDIRECT	ACCESS:     183529  HIT:      66298  MISS:     117231	AVERAGE STALL: 89.5422
L1BTB BRANCH_CONDITIONAL	ACCESS:    2714468  HIT:    1422372  MISS:    1292096	AVERAGE STALL: 22.736
L1BTB BRANCH_DIRECT_CALL	ACCESS:     941489  HIT:     104383  MISS:     837106	AVERAGE STALL: 25.5541
L1BTB BRANCH_INDIRECT_CALL	ACCESS:     171058  HIT:      20733  MISS:     150325	AVERAGE STALL: 125.258
L1BTB BRANCH_RETURN	ACCESS:    1112551  HIT:     288552  MISS:     823999	AVERAGE STALL: 25.3817
L1BTB BRANCH_OTHER ACCESS:          0  HIT:          0  MISS:          0	AVERAGE STALL: -nan
L1BTB TOTAL ROB OCCUPANCY AT BTB MISS: 23.2982

L2BTB TOTAL     ACCESS:    3599252  HIT:    3163331  MISS:     435921  HIT %:    87.8886  MISS %:    12.1114   MPKI: 8.71842
L2BTB BRANCH_DIRECT_JUMP	ACCESS:     399798  HIT:     350953  MISS:      48845	AVERAGE STALL: 25.0299
L2BTB BRANCH_INDIRECT	ACCESS:     106922  HIT:     101779  MISS:       5143	AVERAGE STALL: 89.5422
L2BTB BRANCH_CONDITIONAL	ACCESS:    1292096  HIT:    1148398  MISS:     143698	AVERAGE STALL: 22.736
L2BTB BRANCH_DIRECT_CALL	ACCESS:     837106  HIT:     720561  MISS:     116545	AVERAGE STALL: 25.5541
L2BTB BRANCH_INDIRECT_CALL	ACCESS:     140736  HIT:     119153  MISS:      21583	AVERAGE STALL: 125.258
L2BTB BRANCH_RETURN	ACCESS:     822594  HIT:     722487  MISS:     100107	AVERAGE STALL: 25.3817
L2BTB BRANCH_OTHER ACCESS:          0  HIT:          0  MISS:          0	AVERAGE STALL: -nan
L2BTB TOTAL ROB OCCUPANCY AT BTB MISS: 193.729

L2C TOTAL     ACCESS:    4483303  HIT:    3928086  MISS:     555217  HIT %:    87.6159  MISS %:    12.3841   MPKI: 11.1043
L2C LOAD INSTRUCTION	ACCESS:    2760249  HIT:    2447918  MISS:     312331  HIT %:    88.6847  MISS %:    11.3153  MPKI: 6.24662
L2C LOAD TRANSLATION INSTRUCTION	ACCESS:        297  HIT:         63  MISS:        234  HIT %:    21.2121  MISS %:    78.7879  MPKI: 0.00468
L2C LOAD DATA	ACCESS:     726332  HIT:     638388  MISS:      87944  HIT %:     87.892  MISS %:     12.108  MPKI: 1.75888
L2C RFO DATA	ACCESS:     283700  HIT:     226763  MISS:      56937  HIT %:    79.9306  MISS %:    20.0694  MPKI: 1.13874
L2C PREFETCH DATA	ACCESS:     191333  HIT:     115464  MISS:      75869  HIT %:    60.3471  MISS %:    39.6529  MPKI: 1.51738
L2C WRITEBACK DATA	ACCESS:     519479  HIT:     498846  MISS:      20633  HIT %:    96.0281  MISS %:    3.97186  MPKI: 0.41266
L2C LOAD TRANSLATION DATA	ACCESS:       1867  HIT:        613  MISS:       1254  HIT %:    32.8334  MISS %:    67.1666  MPKI: 0.02508
L2C TRANSLATION FROM L1D PREFETCHER DATA	ACCESS:         46  HIT:         31  MISS:         15  HIT %:    67.3913  MISS %:    32.6087  MPKI: 0.0003

L2C PREFETCH  REQUESTED:      99168  ISSUED:      99168  USEFUL:       9463  USELESS:      67123
L2C USEFUL LOAD PREFETCHES:       9463 PREFETCH ISSUED TO LOWER LEVEL:      76589  ACCURACY: 12.3556
 TIMELY PREFETCHES:       9463 LATE PREFETCHES: 720 DROPPED PREFETCHES: 0
L2C AVERAGE MISS LATENCY: 36.8187 cycles
L2C RQ	ACCESS:    3772555	FORWARD:          0	MERGED:          0	TO_CACHE:    3772491
L2C WQ	ACCESS:     519479	FORWARD:         64	MERGED:          0	TO_CACHE:     519479
L2C PQ	ACCESS:     200783	FORWARD:          0	MERGED:       3400	TO_CACHE:     197383

L2C Dense regions hint from L2: 0
PSCL5 TOTAL     ACCESS:       4172  HIT:       2086  MISS:       2086  HIT %:         50  MISS %:         50   MPKI: 0.04172
PSCL5 LOAD TRANSLATION INSTRUCTION	ACCESS:       4082  HIT:       2041  MISS:       2041  HIT %:         50  MISS %:         50  MPKI: 0.04082
PSCL5 TRANSLATION FROM L1D PREFETCHER INSTRUCTION	ACCESS:         90  HIT:         45  MISS:         45  HIT %:         50  MISS %:         50  MPKI: 0.0009


PSCL4 TOTAL     ACCESS:       3954  HIT:       1972  MISS:       1982  HIT %:    49.8735  MISS %:    50.1265   MPKI: 0.03964
PSCL4 LOAD TRANSLATION INSTRUCTION	ACCESS:       2531  HIT:       1928  MISS:        603  HIT %:    76.1754  MISS %:    23.8246  MPKI: 0.01206
PSCL4 TRANSLATION FROM L1D PREFETCHER INSTRUCTION	ACCESS:         58  HIT:         44  MISS:         14  HIT %:    75.8621  MISS %:    24.1379  MPKI: 0.00028
PSCL4 LOAD TRANSLATION DATA	ACCESS:       1335  HIT:          0  MISS:       1335  HIT %:          0  MISS %:        100  MPKI: 0.0267
PSCL4 TRANSLATION FROM L1D PREFETCHER DATA	ACCESS:         30  HIT:          0  MISS:         30  HIT %:          0  MISS %:        100  MPKI: 0.0006


PSCL3 TOTAL     ACCESS:       3958  HIT:       1974  MISS:       1984  HIT %:    49.8737  MISS %:    50.1263   MPKI: 0.03968
PSCL3 LOAD TRANSLATION INSTRUCTION	ACCESS:       2533  HIT:       1930  MISS:        603  HIT %:    76.1942  MISS %:    23.8058  MPKI: 0.01206
PSCL3 TRANSLATION FROM L1D PREFETCHER INSTRUCTION	ACCESS:         58  HIT:         44  MISS:         14  HIT %:    75.8621  MISS %:    24.1379  MPKI: 0.00028
PSCL3 LOAD TRANSLATION DATA	ACCESS:       1337  HIT:          0  MISS:       1337  HIT %:          0  MISS %:        100  MPKI: 0.02674
PSCL3 TRANSLATION FROM L1D PREFETCHER DATA	ACCESS:         30  HIT:          0  MISS:         30  HIT %:          0  MISS %:        100  MPKI: 0.0006


PSCL2 TOTAL     ACCESS:       4066  HIT:       1980  MISS:       2086  HIT %:    48.6965  MISS %:    51.3035   MPKI: 0.04172
PSCL2 LOAD TRANSLATION INSTRUCTION	ACCESS:       2202  HIT:       1936  MISS:        266  HIT %:    87.9201  MISS %:    12.0799  MPKI: 0.00532
PSCL2 TRANSLATION FROM L1D PREFETCHER INSTRUCTION	ACCESS:         44  HIT:         44  MISS:          0  HIT %:        100  MISS %:          0  MPKI: 0
PSCL2 LOAD TRANSLATION DATA	ACCESS:       1776  HIT:          0  MISS:       1776  HIT %:          0  MISS %:        100  MPKI: 0.03552
PSCL2 TRANSLATION FROM L1D PREFETCHER DATA	ACCESS:         44  HIT:          0  MISS:         44  HIT %:          0  MISS %:        100  MPKI: 0.00088


LLC TOTAL     ACCESS:     621275  HIT:     593508  MISS:      27767  HIT %:    95.5306  MISS %:    4.46936   MPKI: 0.55534
LLC LOAD INSTRUCTION	ACCESS:     312331  HIT:     311439  MISS:        892  HIT %:    99.7144  MISS %:   0.285594  MPKI: 0.01784
LLC LOAD TRANSLATION INSTRUCTION	ACCESS:        234  HIT:        200  MISS:         34  HIT %:    85.4701  MISS %:    14.5299  MPKI: 0.00068
LLC LOAD DATA	ACCESS:      87315  HIT:      83839  MISS:       3476  HIT %:     96.019  MISS %:    3.98099  MPKI: 0.06952
LLC RFO DATA	ACCESS:      56817  HIT:      43536  MISS:      13281  HIT %:     76.625  MISS %:     23.375  MPKI: 0.26562
LLC PREFETCH DATA	ACCESS:      76585  HIT:      66885  MISS:       9700  HIT %:    87.3343  MISS %:    12.6657  MPKI: 0.194
LLC WRITEBACK DATA	ACCESS:      86724  HIT:      86424  MISS:        300  HIT %:    99.6541  MISS %:   0.345925  MPKI: 0.006
LLC LOAD TRANSLATION DATA	ACCESS:       1254  HIT:       1170  MISS:         84  HIT %:    93.3014  MISS %:    6.69856  MPKI: 0.00168
LLC TRANSLATION FROM L1D PREFETCHER DATA	ACCESS:         15  HIT:         15  MISS:          0  HIT %:        100  MISS %:          0  MPKI: 0

LLC AVERAGE MISS LATENCY: 157.568 cycles
LLC RQ	ACCESS:     457995	FORWARD:          0	MERGED:          0	TO_CACHE:     457966
LLC WQ	ACCESS:      86724	FORWARD:         33	MERGED:          0	TO_CACHE:      86724
LLC PQ	ACCESS:      76589	FORWARD:          0	MERGED:          0	TO_CACHE:      76585

LLC Dense regions hint to LLC: 0

RAW hits: 1924625
Loads Generated: 12635204
Loads sent to L1D: 10710579
Stores Generated: 6943942
Stores sent to L1D: 6943953
Major fault: 0 Minor fault: 2570
Allocated PAGES: 2570

stream: 
stream:times selected: 1192437
stream:pref_filled: 122284
stream:pref_useful: 24229
stream:pref_late: 6784
stream:misses: 8125
stream:misses_by_poll: 0

CS: 
CS:times selected: 178586
CS:pref_filled: 61539
CS:pref_useful: 37622
CS:pref_late: 6319
CS:misses: 15131
CS:misses_by_poll: 15

CPLX: 
CPLX:times selected: 1012543
CPLX:pref_filled: 19224
CPLX:pref_useful: 4513
CPLX:pref_late: 3153
CPLX:misses: 92188
CPLX:misses_by_poll: 2

NL_L1: 
NL:times selected: 21518
NL:pref_filled: 644
NL:pref_useful: 301
NL:pref_late: 334
NL:misses: 1829
NL:misses_by_poll: 0

total selections: 2405084
total_filled: 94537
total_useful: 33462
total_late: 17702
total_polluted: 17
total_misses_after_warmup: 768177
conflicts: 5525074

test: 118589

DRAM Statistics
 CHANNEL 0
 RQ ROW_BUFFER_HIT:       9946  ROW_BUFFER_MISS:      17517
 DBUS_CONGESTED:         14
 WQ ROW_BUFFER_HIT:       1257  ROW_BUFFER_MISS:      12644  FULL:          0

 AVG_CONGESTED_CYCLE: 4

CPU 0 Branch Prediction Accuracy: 99.8127% MPKI: 0.34248 Average ROB Occupancy at Mispredict: 181.962
Branch types
NOT_BRANCH: 40854756 81.7095%
BRANCH_DIRECT_JUMP: 549120 1.09824%
BRANCH_INDIRECT: 183529 0.367058%
BRANCH_CONDITIONAL: 6186993 12.374%
BRANCH_DIRECT_CALL: 941489 1.88298%
BRANCH_INDIRECT_CALL: 171058 0.342116%
BRANCH_RETURN: 1112551 2.2251%
BRANCH_OTHER: 0 0%

DRAM PAGES: 1048576
Allocated PAGES: 2570
Average_ROB_Occupancy: 218.357
Average_Decode_Occupancy: 19.2141
Average_FTQ_Occupancy: 5.63385
Indirect max targets: 14 Average targets: 1.16054
Branch_type:  BRANCH_DIRECT_JUMP:  Count Percentage: 3.67714 5.37838 4.25626 8.92568 5.66069 3.12611 1.70654 67.2692 
Branch_type:  BRANCH_INDIRECT:  Count Percentage: 11.7384 3.47967 2.59012 3.7202 3.33814 2.80501 1.99481 70.3336 
Branch_type:  BRANCH_CONDITIONAL:  Count Percentage: 21.7072 2.46025 1.9316 4.05815 2.97081 6.20143 0.904932 59.7656 
Branch_type:  BRANCH_DIRECT_CALL:  Count Percentage: 0.390629 1.74031 0.752653 3.8897 3.52927 2.36212 0.609896 86.7254 
Branch_type:  BRANCH_INDIRECT_CALL:  Count Percentage: 9.56145 0 2.99768 4.27258 0.000292542 2.04282 1.00137 80.1238 
Branch_type:  BRANCH_RETURN:  Count Percentage: 3.9125 1.99007 1.04197 3.16921 4.59426 6.99059 1.23621 77.0652 
Branch_type:  BRANCH_DIRECT_JUMP:  Total Count: 40300 58945 46647 97822 62039 34261 18703 737244 
Branch_type:  BRANCH_INDIRECT:  Total Count: 43045 12760 9498 13642 12241 10286 7315 257914 
Branch_type:  BRANCH_CONDITIONAL:  Total Count: 2683836 304180 238819 501741 367305 766732 111884 7389299 
Branch_type:  BRANCH_DIRECT_CALL:  Total Count: 7347 32732 14156 73158 66379 44427 11471 1631143 
Branch_type:  BRANCH_INDIRECT_CALL:  Total Count: 32684 0 10247 14605 1 6983 3423 273888 
Branch_type:  BRANCH_RETURN:  Total Count: 86994 44249 23168 70467 102153 155435 27487 1713537 
Number of unique branch instructions: 10261
Upper 32 bits: 
aaaa
ffff
ffff0000
Unique upper 32 bits: 3
Unique upper 36 bits: 3
Unique upper 40 bits: 5
Unique upper 44 bits: 32
Unique upper 48 bits: 154
Offset_3 4234
Offset_4 256
Offset_5 477
Offset_6 526
Offset_7 610
Offset_8 531
Offset_9 493
Offset_10 400
Offset_11 331
Offset_12 293
Offset_13 217
Offset_14 236
Offset_15 192
Offset_16 232
Offset_17 152
Offset_18 127
Offset_19 243
Offset_20 142
Offset_21 249
Offset_22 406
Offset_23 242
Offset_24 350
Offset_25 96
Offset_47 85
Offset_64 1
decode_dispatch_called: 22940148 63.0423
Dispatch_width: 0 11439464 49.8666 31.437
Dispatch_width: 1 897493 3.91232 2.46642
Dispatch_width: 2 1034725 4.51054 2.84355
Dispatch_width: 3 685700 2.98908 1.88439
Dispatch_width: 4 3954929 17.2402 10.8686
Dispatch_width: 5 411104 1.79207 1.12976
Dispatch_width: 6 4516733 19.6892 12.4125
Empty_decode_cycles: 13448330 36.9577
ROB_full_cycles: 6033351 16.5804
Starvation_cycles_per_kilo_instr: 258.384
Starvation_cycles_per_kilo_instr_3: 214.724
Starvation_cycles_per_kilo_instr_0: 188.544
Branch_type_1  (3,1)  (4,9)  (5,38)  (6,73)  (7,121)  (8,134)  (9,130)  (10,102)  (11,77)  (12,51)  (13,9)  (14,2)  (15,3)  (16,4)  (18,1)  (19,4)  (20,2)  (21,1)  (22,3)  (23,2)  (24,10)  (25,13)  (64,1) 
Branch_type_2  (3,1)  (5,1)  (8,3)  (9,3)  (12,1)  (13,1)  (14,1)  (16,3)  (17,2)  (20,2)  (21,2)  (23,5)  (24,1)  (47,39) 
Branch_type_3  (3,4232)  (4,247)  (5,434)  (6,437)  (7,459)  (8,331)  (9,273)  (10,162)  (11,138)  (12,58)  (13,8)  (24,1) 
Branch_type_4  (6,3)  (7,8)  (8,25)  (9,53)  (10,64)  (11,60)  (12,100)  (13,92)  (14,105)  (15,91)  (16,104)  (17,67)  (18,59)  (19,120)  (20,74)  (21,135)  (22,217)  (23,137)  (24,204)  (25,79) 
Branch_type_5  (8,2)  (9,1)  (10,4)  (11,5)  (12,3)  (13,14)  (14,16)  (15,11)  (16,20)  (17,13)  (18,16)  (19,12)  (20,11)  (21,13)  (22,42)  (23,26)  (24,37) 
Branch_type_6  (5,4)  (6,13)  (7,22)  (8,36)  (9,33)  (10,68)  (11,51)  (12,80)  (13,93)  (14,112)  (15,87)  (16,101)  (17,70)  (18,51)  (19,107)  (20,53)  (21,98)  (22,144)  (23,72)  (24,97)  (25,4)  (47,46) 
aaaaab1fc620: 2ac9e77e 2aca25ac 2aca717c 2aca8eff 2acaf6bc 2acaf9aa 2acaf9f1 2acb1abc 2acb1b7f 2acd4e22 2acdb712 2acf2c20 2acf5f9e 2ad0ef44 2ad3f15c 2ad414e6 2ad60e42 2ad8609c 2ad99830 2ada35cc 2ada4676 2ada6612 2adf183e 2adf30e5 2adf5602 2adf785c 2ae11572 2aeb2dcf 2aee101b 2aee1ae1 2aee9456 2b156a8c 2b156b61 2b156bea 2b167f35 2b177656 2b17feec 2b1a3e5a 
aaaaab1fc740: 2aca1fb0 2aca45b3 2aca5aa1 2aca5c69 2aca66f9 2aca9426 2acaeecb 2acf3d2d 2acf3d64 2acf6089 2ad017ea 2ad5e7ef 2ad61064 2ad87373 2ad9bf84 2ad9c093 2ae9b606 2aea9ffa 2aee99f5 2aee9a2c 2aeece4b 
aaaaab1fcb00: 2acf2d72 2acf3277 2acf32fe 2acf3734 2acf604c 2acfa5b7 2ad397b5 2ad3b800 2ae8af7d 2ae8aff0 2ae9aaba 2aea9fc6 2aeaa358 2aee910b 2aee91cf 2aee99de 2af6fe87 2af70dfe 2b16850c 2b178094 
aaaaab1fcb10: 2acf2d95 2acf32a8 2acf331b 2acf3758 2acf6052 2acfa5f4 2ad397c3 2ad3b81c 2ae8af88 2ae8affe 2ae9aacf 2aeaa017 2aeaa36d 2aee9114 2aee91d8 2aee9a14 2af6fe8c 2af70e22 2b168526 2b1780a3 
aaaaac68f310: 2ac9ec8c 2ac9fb44 2ac9fbd2 2aca29c5 2aca59ab 2acac04c 2acaf6e0 2acaf6ec 2acaf6f9 2acaf700 2acaf708 2acf2d90 2acf3361 2acf338f 2acf3396 2ad3cfbd 2ad3cfc4 2ad3d000 2ad3f35f 2ad3f39d 2ad3f3da 2ad41585 2ad4955d 2ad49571 2ad4f3f2 2ad4f400 2ad5f240 2ad5f37c 2ad5f86a 2ad5f86f 2ad5f880 2ad5fc0d 2ad5fc14 2ad5fc21 2ad5fe1b 2ad873bb 2ad873e3 2ad8a6b2 2ad9086e 2ad93096 2ad9bbb2 2ada152c 2ada1554 2ada3332 2ada5522 2adf3130 2adf313c 2adf3a3f 2adf3bd9 2adf5788 2adf7a8d 2ae07f6b 2ae0857a 2ae0857e 2ae08630 2ae08634 2ae08637 2ae08642 2ae0866f 2ae086e4 2ae086ec 2ae08717 2ae0871b 2aee0170 2aee1d38 2aee75f4 2aee7662 2aee85ca 2aee85e4 2aee8eef 2aee9a0a 2af70b84 2af74e8f 2b17d843 
aaaaac690ef0: 2aca298e 2aca598b 2acb111b 2acb175f 2acb1772 2acbfaf4 2acbfb00 2acf374f 2acf6d43 2acfa5c8 2ad3baf1 2ad3d4ac 2ad3d4b8 2ad3f1cf 2ad486b2 2ad5a59b 2ad5fc64 2ad5fcf9 2ad6121c 2ad906e9 2ad907bf 2ad9bada 2ada16ce 2ada1ad5 2ada43df 2ada64c0 2ada72ee 2adeb71a 2adf3bcb 2adf7a38 2adf7c6a 2adf8872 2adf8880 2adf9959 2adf9abe 2ae07f78 2ae08503 2ae08754 2ae12e80 2aea3bea 2aecb509 2aee00b0 2aee2bdd 2aee5467 2aee5601 2aee8f20 2af703fd 2af7048b 2af74e74 2dfba627 
Unique trigger count: 
1 9768
2 542
3 99
4 32
5 12
6 6
7 8
8 1
9 3
10 2
11 2
12 1
13 2
14 1
16 2
19 2
20 2
21 1
38 1
50 1
74 1
BTB PER SET UNIQUE ADDR: 3 4 3 2 1 0 3 2 4 0 2 0 5 4 1 3 3 2 5 4 3 4 3 3 4 5 2 4 3 3 6 6 4 3 4 2 1 6 6 3 4 4 3 7 6 2 4 3 6 3 3 2 4 1 0 4 4 3 3 3 1 4 2 3 1 4 6 2 3 5 5 1 1 4 2 3 3 7 2 3 2 2 1 4 3 3 2 5 3 4 6 4 4 6 3 0 3 5 1 3 5 3 3 3 4 2 1 2 4 2 2 3 3 7 2 6 2 5 4 1 5 4 2 0 1 2 3 1 6 6 5 2 4 2 5 3 2 1 4 3 5 3 3 2 1 4 2 5 4 4 3 9 4 5 3 1 3 4 3 2 4 5 4 4 5 4 2 2 9 1 3 2 4 2 1 2 3 6 5 2 3 4 6 3 4 6 3 1 2 3 6 3 3 4 5 4 3 3 3 6 3 2 4 1 3 3 2 4 2 1 4 4 5 4 3 2 3 5 4 0 1 1 2 4 3 2 3 3 0 3 8 4 3 3 3 3 3 2 1 2 1 0 6 3 10 7 1 1 4 3 3 2 1 4 3 6 3 4 4 3 4 4 4 2 3 6 3 1 4 2 3 2 3 3 4 2 1 1 3 3 4 2 6 2 5 5 3 3 1 1 0 3 1 5 1 1 5 3 2 2 3 3 1 2 3 2 4 2 6 5 3 1 3 2 5 2 6 6 2 2 3 7 3 5 2 2 1 6 1 1 4 1 2 5 5 2 2 3 5 0 4 0 1 4 4 2 1 3 3 3 3 6 4 3 5 3 2 0 4 1 2 5 2 4 6 5 1 1 2 1 3 2 2 4 4 4 3 3 3 4 5 3 1 5 3 2 5 2 5 2 5 4 4 2 3 1 5 0 1 4 5 2 4 2 3 4 4 3 1 1 1 3 5 3 2 3 6 3 1 3 1 1 3 4 3 3 2 0 2 4 2 2 9 3 5 5 3 3 3 0 2 4 5 4 4 6 2 4 3 2 5 3 1 3 5 1 1 4 7 2 3 3 5 6 1 3 4 2 3 3 0 4 5 2 2 1 4 5 1 1 2 1 2 2 0 5 3 0 5 1 4 2 3 4 1 6 3 3 3 1 5 1 1 1 2 2 3 2 2 3 4 2 2 6 2 1 2 5 4 5 3 5 4 2 6 6 0 6 6 3 5 3 3 6 3 4 1 2 4 1 2 5 7 2 5 2 7 3 6 9 3 6 4 6 1 3 3 1 3 3 8 2 5 2 2 1 4 2 2 8 4 3 4 8 3 2 3 3 1 5 4 2 1 0 1 0 0 9 5 3 5 7 1 1 2 3 4 3 4 2 5 3 4 7 4 4 4 4 3 2 5 2 3 3 2 2 2 0 3 1 5 4 6 2 2 3 2 5 2 3 5 4 4 2 5 2 2 3 2 2 8 1 4 4 0 0 4 3 3 5 4 2 5 2 3 1 4 3 2 3 5 3 5 4 6 4 5 4 1 4 5 3 5 3 5 7 3 4 4 3 4 2 5 2 5 3 5 4 5 3 1 5 2 2 2 3 6 4 5 4 0 6 0 3 3 2 3 1 3 1 3 4 3 1 2 1 7 2 0 3 2 0 1 1 1 1 1 4 2 4 6 5 2 1 2 5 4 3 2 2 1 4 2 4 2 2 3 3 3 3 0 2 1 4 2 2 2 6 5 1 4 3 1 5 5 4 9 2 2 2 4 3 0 3 3 4 5 2 2 3 5 4 0 3 8 6 3 4 0 2 2 4 2 1 4 7 7 2 3 2 6 3 5 3 4 4 3 5 2 3 1 3 4 0 4 3 1 2 0 4 4 2 4 2 2 2 2 3 4 4 3 1 3 2 5 3 2 2 5 2 2 1 3 3 1 5 6 4 5 2 6 2 5 4 4 5 4 2 4 5 2 6 2 1 9 3 3 4 5 4 2 4 3 6 4 0 2 3 5 4 3 6 4 5 5 3 2 2 2 4 4 2 3 4 3 1 6 3 1 1 5 2 2 3 4 5 4 5 3 5 5 4 0 3 1 6 0 2 6 2 6 5 5 3 4 1 3 2 5 9 4 4 9 7 6 4 6 5 1 5 4 2 0 4 4 5 5 5 3 3 6 1 5 4 3 3 6 6 4 2 2 3 4 5 2 6 9 4 6 4 2 3 0 4 5 1 7 5 1 3 7 5 4 5 2 2 2 3 3 3 5 4 2 7 4 4 4 5 3 5 1 2 4 3 2 5 4 3 4 2 5 3 4 3 5 2 5 2 2 4 5 2 9 5 2 3 3 2 2 3 4 7 6 2 3 2 3 2 3 1 3 2 4 4 1 4 5 5 4 6 0 3 3 3 3 4 2 1 3 2 3 1 2 1 4 1 3 3 3 5 2 8 5 3 2 1 10 1 2 4 1 2 5 5 3 7 3 5 5 5 2 5 2 2 1 1 5 0 4 4 3 7 5 1 7 4 6 2 3 4 5 3 5 7 4 4 6 1 5 4 7 4 3 3 4 3 6 6 3 6 6 6 4 3 5 3 1 2 4 5 1 3 2 1 3 4 2 2 5 2 2 5 4 1 5 1 8 3 3 2 3 1 3 5 3 4 3 4 2 6 2 3 6 3 4 3 3 5 2 8 4 5 3 8 6 1 6 1 5 2 1 2 4 4 3 1 3 4 2 1 2 2 4 3 3 3 3 4 2 5 2 5 4 5 0 5 3 2 2 6 8 0 7 1 1 4 5 2 5 1 3 3 4 1 1 2 4 5 3 4 1 4 4 6 5 1 4 3 3 7 10 4 2 6 6 5 1 1 3 5 6 3 2 2 4 3 4 4 5 3 1 4 2 3 6 8 5 3 3 6 1 3 6 2 4 1 3 2 6 9 4 3 3 3 4 4 2 5 6 6 5 2 1 5 4 2 4 3 4 4 4 4 7 3 5 4 3 5 5 3 1 7 4 4 3 3 3 2 3 3 2 2 5 4 3 2 5 1 1 3 3 8 5 2 3 4 2 3 3 3 4 3 2 1 3 2 4 2 5 3 4 4 2 1 2 6 1 4 2 4 2 4 5 2 1 4 5 4 3 4 5 2 3 4 4 5 4 4 4 3 3 2 2 3 5 2 4 1 3 0 8 3 2 6 4 4 5 7 3 2 3 3 2 2 4 1 4 2 4 3 0 5 1 5 2 2 3 4 3 2 4 2 4 2 3 1 5 1 0 3 4 1 1 3 1 4 2 3 6 3 1 2 2 3 2 2 6 2 3 6 3 3 3 4 2 2 3 0 2 2 2 3 2 2 2 0 4 0 4 2 4 4 3 3 2 1 2 4 4 2 7 1 3 4 2 2 4 5 2 2 5 0 1 2 3 1 1 2 3 3 5 3 1 1 7 3 1 4 1 7 1 4 3 3 6 2 3 2 1 3 3 1 2 3 5 2 3 3 1 2 0 5 1 3 3 0 3 2 5 3 4 3 3 4 1 3 1 2 1 3 3 0 2 3 2 3 3 1 3 3 2 11 6 2 2 3 4 2 1 3 5 2 3 0 3 2 3 2 3 4 5 6 7 0 4 2 6 4 4 5 3 8 2 4 8 3 0 6 3 3 3 5 3 3 2 1 2 4 2 2 2 4 2 4 5 3 5 4 6 1 1 5 6 3 3 4 4 4 6 2 5 5 2 6 3 3 4 2 3 7 5 3 2 3 4 3 3 4 2 3 3 1 3 1 3 7 0 2 3 3 4 4 5 3 4 4 6 1 3 3 6 2 4 5 7 1 1 7 2 4 2 3 4 6 2 3 2 4 8 3 4 3 5 3 4 9 4 4 4 5 2 5 4 3 2 3 1 2 2 3 4 3 4 3 3 6 6 4 4 8 0 3 2 4 4 4 3 4 3 6 2 4 1 5 2 3 4 2 3 1 2 5 0 7 2 5 5 1 4 3 3 0 5 3 3 6 3 6 2 3 2 1 3 4 7 1 3 3 0 3 2 4 7 3 1 4 5 2 3 2 6 3 4 1 5 3 0 2 4 1 1 8 2 0 4 1 4 3 2 3 6 3 3 6 1 5 3 5 2 5 5 2 4 2 7 1 4 0 3 3 5 4 3 3 2 2 2 3 0 3 0 3 5 6 2 2 5 3 3 3 4 1 3 2 4 2 4 2 5 3 2 3 1 2 3 3 3 2 3 4 2 1 1 2 2 5 1 4 1 5 4 2 3 1 4 1 2 3 5 2 3 4 4 5 3 3 3 5 3 2 0 3 3 0 2 1 2 2 4 3 5 2 2 3 4 2 2 4 3 2 3 8 3 2 7 6 4 2 4 1 2 6 3 4 5 2 4 0 1 2 5 3 2 4 3 2 5 3 5 7 4 2 0 4 1 0 2 3 0 4 4 6 1 3 4 6 4 0 3 2 4 2 4 1 3 2 8 3 1 2 3 7 2 7 3 4 7 0 1 3 2 4 2 1 0 2 3 4 5 5 1 0 3 5 5 1 2 1 3 6 2 1 5 4 3 3 5 4 1 6 2 6 2 1 2 2 2 2 5 1 3 1 3 2 3 1 5 2 5 3 4 2 1 3 5 4 4 0 
BTB PER SET COUNT: 3 4 3 2 2 0 4 2 4 0 2 0 2500 6 1 3 4 2 6 1466 3 5 3 3 4 19 2 4 1465 3 3002 34 5 3 4 2 2930 681 681 3 4 5 3 2231 5298 2 4 3 1662 3 3 2 4 1 0 4 5 3 3 3 1 6 2 3 1 388 637 2 3 916 680 1 1 4 2 3 504 696 2 3 2 3 4 4 3 6 2 13 3 5 2553 466 4 3817 3 0 3 6 1 3 9 3 7 3 4 2 1 3 6 3 4 4 3 1955 2 1707 2 7 4 1 7 5 2 0 1 2 3 1 2050 12 2002 4 4 3 1004 3 2 1 4 3 1502 5 3 2 1 7 2 4316 4 4 4 6720 4 2504 3 1 5 4 3 2 4 902 6 4 6 1929 2 4 8249 1 3 2 5 2 1 3 3 13 970 2 3 4 6851 3 7 14 4 1 2 3 49 3 3 4 8 7 3 3 3 10 3 2 4 1 6 3 2 1466 2 1 4 5 17 4 6 2 3 670 4 0 1 1 2 4 4 2 3 17 0 3 5815 5 3 4 3 3 3 3 1 2 2 0 2503 3 9238 2203 1 1 4 3 4 2 1 4 4 2398 4 4 4 3 6 4 4 2 1466 1380 3 1 6 2 3 2 3 3 4 3 1 1 5 3 7 2 2006 2 678 2503 3 3 1 1 0 3 1 19 1 1 16 3 2 2 3 4 1 2 3 2 4 2 2008 902 3 1 4 2 902 3 2504 1144 2 2 3 2181 3 9 2 2 1 132 1 1 1003 4 2 18 1521 4 1002 3 24 0 9 0 1 1004 1004 2 1 3 6 5 3 115 5 4 54 4 3 0 4 1 2 12 2 4 2528 2001 1 1 2 1 3 2 2 4 5 5 5 3 3 5 24 3 1 370 3 2 13 2 7 3 27 4 4 2 3 1 3067 0 1 4 10 2 4 2 3 4 1467 3 1 963 1 3 10 3 964 3 144 3 1 91 1 1 3 5 3 3 7 0 2 7 130 2 2739 3 890 2501 3 3 3 0 3 4 1126 4 4 920 2 4 3 2 9 3 1 3 2004 1 1 4 1525 2 3 3 9 2014 1 3 4 2 3 3 0 5 36 501 2 1 6 903 1 1 2 1 2 500 0 8 3 0 23 1 4 2 4 4 1 25 4 4 9 1 2003 8 1 1 2 2 3 2 2 3 4 2 2 34 4 1 3 2504 4 514 3 1470 4 2 22 1505 0 2008 4820 3 7 3 3 24 4 504 2 3 6 1 2 1503 181 4 19 2 71 4 1024 9308 3 1520 7 3007 1 3 6 1 3 4 6819 2 2005 3 2 1 4 2 2 3039 4 3 4 5326 3 2 3 4 2 24 4 52 1 0 1 0 0 4011 6 3 2003 3005 1 1 964 3 4 3 4 2 7 3 6 1355 4 6 4 4 5 2 2503 2 3 3 2 3 931 0 4 1 8 503 3504 2 2 3 2 21 2 3 2003 1466 4 4 1004 2 2 3 2 2 3017 1 4 4 0 0 5 3 3 5 4 2 15 2 3 1 5 3 2 3 7901 6 24 4 2007 5 2951 1005 1 4 680 3 6 4 1503 3079 3 5 6 3 4 4 7 1002 1504 3 32 1466 8 3 1 1008 2 4 2 3 2009 4 24 44 0 2508 0 3 3 1002 3 1 3 1 3 5 6 1 1002 1 2484 2 0 4 2 0 1 1 1 1 1 5 2 4 1507 10 964 1 2 7 4 4 2 2 1 5 3 5 2 3 503 3 3 1003 0 2 1 6 2 2 2 3004 9 1 5 3 1 22 6 4 5836 2 5 2 6 4 0 114 4 4 2852 4 2 3 5 5 0 4 3208 4819 3 4 0 2 2 49 2 1 5 2221 2054 2 5 2 13 4 5 5 2004 5 4 22 3 7 1 3 4 0 5 6 2 2 0 4 5 2 4 2 2 2 2 4 4 50 3 1 3 2 2004 3 2 3 1504 2 2 1 3 1472 1 13 2022 4 10 3 2503 2 2004 6 4 8 4 2 6 9 2 4853 2 1 6264 965 4 6 1503 4 2 4 3 2341 4 0 3 4 24 4 3 4822 4 8 79 3 2 2 2 4 6 2 3 4 3 2 605 3 1 1 1807 2 2 52 4 2316 5 902 3 8 43 4 0 4 1 1507 0 2 1008 2 51 12 1504 3 6 1 3 2 2003 111 4 503 5369 3867 1506 4 2127 9 2 24 4 3 0 966 4 2502 32 1503 5 3 710 1 334 5 3 3 1419 2005 4 2 2 503 4 4813 3 26 1152 4 2009 5 2 3 0 386 24 1 7278 19 1 3 2013 21 504 9 2 3 3 3 7 3 1750 4 2 3503 4 5 4 2001 3 31 1 3 5 3 2 23 4 4 4 2 2020 3 2428 384 1677 2 25 5 2 5 1809 5 5153 24 2 3 4 2 2 3 4 3008 2013 4 3 2 4 2 3 2 3 2 4 4 1 4 9 2004 4 1514 0 3 3 3 1466 389 2 1 3 2 4 1 2 1 4 1 3 3 3 6 2 4003 1504 4 2 2 11206 1 2 4 1 2 2003 92 3 5313 3 24 5 2503 2 28 3 2 1 1 27 0 6 4 4 2018 9 1 2089 4 2507 2 503 4 14 3 2503 1893 4 4 2506 1 9 7 4866 4 3 3 6 3 1511 1993 4 2504 1507 2154 5 3 9 6 1 2 4 2004 1 3 2 2 3 5 2 3 515 3 2 26 4 1 12 1 5428 4 3 3 4 1 4 12 3 7 3 4 2 31 3 3 1818 3 4 3 3 2004 2 5889 4 1503 3 2669 7276 1 5316 1 19 2 1 2 504 5 4 1 4 161 2 1 2 501 4 3 3 3 3 4 2 1504 2 10 4 16 0 2003 3 2 2 55 7296 0 47 3 1 4 5 2 23 3 3 1005 5 1 1 2 4 17 3 4 1 4 5 7314 20 1 4 3 3 2907 10280 1943 4 7277 29 2003 1 1 5 2004 2503 3 3 2 4 3 4 5 20 3 1 4 2 4 3406 7925 3813 3 3 480 1 3 27 2 4 1 3 2 3002 6597 966 5 3 3 5 4 2 2001 2009 2503 8 2 1 26 4 2 5 4 4 4 4 4 2014 3 2002 4 504 2003 2501 18 1 3093 4 4 3 4 3 4 3 3 2 2 17 4 3 2 901 1 1 5 3 3009 12 2 4 4 2 3 4 3 5 3 3 1 3 2 4 2 13 3 6 4 3 1 2 914 1 4 2 4 2 4 356 2 1 5 9 966 3 4 2506 2 3 50 4 17 4 4 4 3 5 2 3 3 2002 2 5 1 3 0 5689 3 2 3002 4 4 2501 6788 3 2 4 3 2 2 5 2 4 5 4 6 0 3850 1 8 2 2 4 5 3 2 1466 2 4 1347 3 1 491 1 0 3 5 1 1 1349 1 6 2 3 2006 5 1 2 2 3 2 2 3003 4 3 75 4 3 3 5 2 2 4 0 5 2 2 965 2 2 2 0 4 0 4 2 4 4 3 3 1002 1 10 4 30 2 2506 1 3 4 2 2 7 14 110 2 21503 0 1 2 3 1 1 2 3 3 2091 390 1 1 1472 3 1 4 1 2510 1 4 3 3 1974 4 3 2 1 3 4 1 2 3 7 2 3 3 1 2 0 3811 1 3 4 0 5 438 2005 3 4 3 3 5 1 5 1 2 1 3 3 0 2 3 2 3 8 1 3 3 2 3736 3003 2 3 3 4 2 1 3 1640 2 3 0 3 2 3 2 3 4 2503 18 5813 0 5 3 2227 4 4 33 3 3510 2 4 8319 3 0 3003 1465 5 3 6 3 4 2 1 2 966 3 2 2 4 2 4 1754 6 2003 4 1016 2999 2 1305 6815 3 5 6 4 4 3315 2 1689 2003 2 2009 3 274 387 2 1465 1521 13 140 3 3 4 4 5 4 2 3 4 1 3 1 3 2547 0 2 3 4 4 5 524 3 4 4 3856 1 3 3 1506 2 1503 1503 3005 1 1 6227 2 1004 2 4 5 2008 502 4 2 4 3006 3 505 3 4445 3 4 8748 5 4 14635 3001 2 2005 1466 4 2 3 2 2 2 3 4 3 4 3 3 9 10 4 165 3506 0 1466 2 1466 194 4 5 4 4 2384 2 793 1 2502 2 4 4 2 3 1 2 3037 0 5318 3 1305 2503 1 4 3 4 0 9 3 3 1993 3 4855 2 3 2 1 3 4 7316 1 3 530 0 3 2 5 2009 965 1 4 1966 2 3 2 2228 4 4 1 25 4 0 2 4 1463 1 3964 2 0 4 1 4 3 2 3 2463 3 441 2503 1 2502 3 2004 213 2003 103 3 4 2 4008 1 224 0 4 1465 8 5 3 3 2 3 2 465 0 3 0 3 8 3156 2 2 693 356 3 4 968 1 3 2 4 2 4 2 95 4 2 3 1 2 223 3 3 3 3 4 2 1 2 2 2 1571 1 4 1 3814 4 2 3 8 4 1 2 3 9 2 4 1004 4 1004 4 3 3 7 3 2 0 3 5 0 2 1 2 2 5 11 2502 2 2 3 9 2 2 4 3 2 3 3181 4 2 3227 2504 106 2 5 2 2 24 3 5 8 2 4 0 1 2 9 1003 2 4 3 2 5 4 8 2582 4 3 0 4 1 0 2 3 0 5 1467 1026 1 3 4 2471 4 0 3 2 5 2 5 1 6 2 3965 3 1 2 3 2513 6 3504 3 6 5092 0 1 3 2 5 2 1 0 2 3 5 20 9 3 0 3 9 1504 1 2 1 3 2503 2 1 26 4 3 3 2002 4 1 2506 2 2008 6 1 2 2 2 2 9 1 3 1 3 2 3 1 19 2 226 3 4 2 1 4 1488 4 4 0 
