
*** ChampSim Multicore Out-of-Order Simulator ***

Warmup Instructions: 50000000
Simulation Instructions: 50000000
Number of CPUs: 1
LLC sets: 2048
LLC ways: 16
Off-chip DRAM Size: 4096 MB Channels: 1 Width: 64-bit Data Rate: 6400 MT/s
CPU 0 runs ./micro_traces/srv428.trace.gz
.gz
ITLB has LRU replacement policy
DTLB has LRU replacement policy
STLB has LRU replacement policy
FDIP Prefetcher at L1I
L1I has LRU replacement policy
L1D has LRU replacement policy
Initialize SRRIP state for L2C
Initialize DRRIP state for LLC
Heartbeat_Variant_0 : 1329 0.324463 per_variant_size: 0 1329 0 0 0 0 0 0 0 
Heartbeat_Variant_1 : 2545 0.621338 per_variant_size: 0 558 1987 0 0 0 0 0 0 
Heartbeat_Variant_2 : 0 0 per_variant_size: 0 0 0 0 0 0 0 0 0 
Heartbeat_Variant_3 : 0 0 per_variant_size: 0 0 0 0 0 0 0 0 0 
Heartbeat_Variant_0_evicts 0 : 5962 1 : 467 2 : 0 3 : 0 
Heartbeat_Variant_1_evicts 0 : 390 1 : 0 2 : 0 3 : 0 
Heartbeat_Variant_2_evicts 0 : 0 1 : 0 2 : 0 3 : 0 
Heartbeat_Variant_3_evicts 0 : 0 1 : 0 2 : 0 3 : 0 
Heartbeat CPU 0 instructions: 10000001 cycles: 2799890 heartbeat IPC: 3.57157 cumulative IPC: 3.57157 (Simulation time: 0 hr 3 min 13 sec) 
Heartbeat_Variant_0 : 1341 0.327393 per_variant_size: 0 1341 0 0 0 0 0 0 0 
Heartbeat_Variant_1 : 2597 0.634033 per_variant_size: 0 508 2089 0 0 0 0 0 0 
Heartbeat_Variant_2 : 0 0 per_variant_size: 0 0 0 0 0 0 0 0 0 
Heartbeat_Variant_3 : 0 0 per_variant_size: 0 0 0 0 0 0 0 0 0 
Heartbeat_Variant_0_evicts 0 : 5729 1 : 234 2 : 0 3 : 0 
Heartbeat_Variant_1_evicts 0 : 232 1 : 0 2 : 0 3 : 0 
Heartbeat_Variant_2_evicts 0 : 0 1 : 0 2 : 0 3 : 0 
Heartbeat_Variant_3_evicts 0 : 0 1 : 0 2 : 0 3 : 0 
Heartbeat CPU 0 instructions: 20000000 cycles: 5599554 heartbeat IPC: 3.57186 cumulative IPC: 3.57171 (Simulation time: 0 hr 5 min 16 sec) 
Heartbeat_Variant_0 : 1350 0.32959 per_variant_size: 0 1350 0 0 0 0 0 0 0 
Heartbeat_Variant_1 : 2615 0.638428 per_variant_size: 0 492 2123 0 0 0 0 0 0 
Heartbeat_Variant_2 : 0 0 per_variant_size: 0 0 0 0 0 0 0 0 0 
Heartbeat_Variant_3 : 0 0 per_variant_size: 0 0 0 0 0 0 0 0 0 
Heartbeat_Variant_0_evicts 0 : 5748 1 : 144 2 : 0 3 : 0 
Heartbeat_Variant_1_evicts 0 : 143 1 : 0 2 : 0 3 : 0 
Heartbeat_Variant_2_evicts 0 : 0 1 : 0 2 : 0 3 : 0 
Heartbeat_Variant_3_evicts 0 : 0 1 : 0 2 : 0 3 : 0 
Heartbeat CPU 0 instructions: 30000001 cycles: 8399389 heartbeat IPC: 3.57164 cumulative IPC: 3.57169 (Simulation time: 0 hr 7 min 21 sec) 
Heartbeat_Variant_0 : 1368 0.333984 per_variant_size: 0 1368 0 0 0 0 0 0 0 
Heartbeat_Variant_1 : 2635 0.643311 per_variant_size: 0 489 2146 0 0 0 0 0 0 
Heartbeat_Variant_2 : 0 0 per_variant_size: 0 0 0 0 0 0 0 0 0 
Heartbeat_Variant_3 : 0 0 per_variant_size: 0 0 0 0 0 0 0 0 0 
Heartbeat_Variant_0_evicts 0 : 5802 1 : 339 2 : 0 3 : 0 
Heartbeat_Variant_1_evicts 0 : 333 1 : 0 2 : 0 3 : 0 
Heartbeat_Variant_2_evicts 0 : 0 1 : 0 2 : 0 3 : 0 
Heartbeat_Variant_3_evicts 0 : 0 1 : 0 2 : 0 3 : 0 
Heartbeat CPU 0 instructions: 40000001 cycles: 11199232 heartbeat IPC: 3.57163 cumulative IPC: 3.57167 (Simulation time: 0 hr 9 min 37 sec) 
Heartbeat_Variant_0 : 1370 0.334473 per_variant_size: 0 1370 0 0 0 0 0 0 0 
Heartbeat_Variant_1 : 2643 0.645264 per_variant_size: 0 497 2146 0 0 0 0 0 0 
Heartbeat_Variant_2 : 0 0 per_variant_size: 0 0 0 0 0 0 0 0 0 
Heartbeat_Variant_3 : 0 0 per_variant_size: 0 0 0 0 0 0 0 0 0 
Heartbeat_Variant_0_evicts 0 : 5664 1 : 84 2 : 0 3 : 0 
Heartbeat_Variant_1_evicts 0 : 82 1 : 0 2 : 0 3 : 0 
Heartbeat_Variant_2_evicts 0 : 0 1 : 0 2 : 0 3 : 0 
Heartbeat_Variant_3_evicts 0 : 0 1 : 0 2 : 0 3 : 0 
Heartbeat CPU 0 instructions: 50000002 cycles: 13999062 heartbeat IPC: 3.57165 cumulative IPC: 3.57167 (Simulation time: 0 hr 11 min 43 sec) 

Warmup complete CPU 0 instructions: 50000002 cycles: 13999062 (Simulation time: 0 hr 11 min 43 sec) 

Cycle: 20000000 FTQ IN: 58157913 FTQ occupancy: 20.4855 DECODE IN: 58157903 DECODE occupancy: 52.8884 ROB IN: 58157903 ROB occupancy: 315.821 ROB OUT: 58157903
Heartbeat_Variant_0 : 1374 0.335449 per_variant_size: 0 1374 0 0 0 0 0 0 0 
Heartbeat_Variant_1 : 2665 0.650635 per_variant_size: 0 494 2171 0 0 0 0 0 0 
Heartbeat_Variant_2 : 0 0 per_variant_size: 0 0 0 0 0 0 0 0 0 
Heartbeat_Variant_3 : 0 0 per_variant_size: 0 0 0 0 0 0 0 0 0 
Heartbeat_Variant_0_evicts 0 : 5816 1 : 312 2 : 0 3 : 0 
Heartbeat_Variant_1_evicts 0 : 315 1 : 0 2 : 0 3 : 0 
Heartbeat_Variant_2_evicts 0 : 0 1 : 0 2 : 0 3 : 0 
Heartbeat_Variant_3_evicts 0 : 0 1 : 0 2 : 0 3 : 0 
Heartbeat CPU 0 instructions: 60000002 cycles: 21317977 heartbeat IPC: 1.36632 cumulative IPC: 1.36632 (Simulation time: 0 hr 14 min 24 sec) 
Heartbeat_Variant_0 : 1376 0.335938 per_variant_size: 0 1376 0 0 0 0 0 0 0 
Heartbeat_Variant_1 : 2664 0.650391 per_variant_size: 0 483 2181 0 0 0 0 0 0 
Heartbeat_Variant_2 : 0 0 per_variant_size: 0 0 0 0 0 0 0 0 0 
Heartbeat_Variant_3 : 0 0 per_variant_size: 0 0 0 0 0 0 0 0 0 
Heartbeat_Variant_0_evicts 0 : 5599 1 : 37 2 : 0 3 : 0 
Heartbeat_Variant_1_evicts 0 : 35 1 : 0 2 : 0 3 : 0 
Heartbeat_Variant_2_evicts 0 : 0 1 : 0 2 : 0 3 : 0 
Heartbeat_Variant_3_evicts 0 : 0 1 : 0 2 : 0 3 : 0 
Heartbeat CPU 0 instructions: 70000003 cycles: 28513157 heartbeat IPC: 1.38982 cumulative IPC: 1.37797 (Simulation time: 0 hr 16 min 53 sec) 
Cycle: 30000000 FTQ IN: 13935831 FTQ occupancy: 14.9424 DECODE IN: 13935820 DECODE occupancy: 37.5118 ROB IN: 13935760 ROB occupancy: 247.42 ROB OUT: 13935412
Heartbeat_Variant_0 : 1384 0.337891 per_variant_size: 0 1384 0 0 0 0 0 0 0 
Heartbeat_Variant_1 : 2670 0.651855 per_variant_size: 0 459 2211 0 0 0 0 0 0 
Heartbeat_Variant_2 : 0 0 per_variant_size: 0 0 0 0 0 0 0 0 0 
Heartbeat_Variant_3 : 0 0 per_variant_size: 0 0 0 0 0 0 0 0 0 
Heartbeat_Variant_0_evicts 0 : 5839 1 : 236 2 : 0 3 : 0 
Heartbeat_Variant_1_evicts 0 : 230 1 : 0 2 : 0 3 : 0 
Heartbeat_Variant_2_evicts 0 : 0 1 : 0 2 : 0 3 : 0 
Heartbeat_Variant_3_evicts 0 : 0 1 : 0 2 : 0 3 : 0 
Heartbeat CPU 0 instructions: 80000002 cycles: 35796368 heartbeat IPC: 1.37302 cumulative IPC: 1.37632 (Simulation time: 0 hr 19 min 29 sec) 
Cycle: 40000000 FTQ IN: 13487746 FTQ occupancy: 14.4012 DECODE IN: 13487754 DECODE occupancy: 35.6283 ROB IN: 13487807 ROB occupancy: 237.455 ROB OUT: 13487912
Heartbeat_Variant_0 : 1390 0.339355 per_variant_size: 0 1390 0 0 0 0 0 0 0 
Heartbeat_Variant_1 : 2681 0.654541 per_variant_size: 0 404 2277 0 0 0 0 0 0 
Heartbeat_Variant_2 : 0 0 per_variant_size: 0 0 0 0 0 0 0 0 0 
Heartbeat_Variant_3 : 0 0 per_variant_size: 0 0 0 0 0 0 0 0 0 
Heartbeat_Variant_0_evicts 0 : 5943 1 : 778 2 : 0 3 : 0 
Heartbeat_Variant_1_evicts 0 : 776 1 : 0 2 : 0 3 : 0 
Heartbeat_Variant_2_evicts 0 : 0 1 : 0 2 : 0 3 : 0 
Heartbeat_Variant_3_evicts 0 : 0 1 : 0 2 : 0 3 : 0 
Heartbeat CPU 0 instructions: 90000000 cycles: 43190252 heartbeat IPC: 1.35247 cumulative IPC: 1.37028 (Simulation time: 0 hr 21 min 56 sec) 
Cycle: 50000000 FTQ IN: 13902292 FTQ occupancy: 14.7671 DECODE IN: 13902224 DECODE occupancy: 37.123 ROB IN: 13902171 ROB occupancy: 247.11 ROB OUT: 13902318
Heartbeat_Variant_0 : 1387 0.338623 per_variant_size: 0 1387 0 0 0 0 0 0 0 
Heartbeat_Variant_1 : 2685 0.655518 per_variant_size: 0 412 2273 0 0 0 0 0 0 
Heartbeat_Variant_2 : 0 0 per_variant_size: 0 0 0 0 0 0 0 0 0 
Heartbeat_Variant_3 : 0 0 per_variant_size: 0 0 0 0 0 0 0 0 0 
Heartbeat_Variant_0_evicts 0 : 5591 1 : 32 2 : 0 3 : 0 
Heartbeat_Variant_1_evicts 0 : 35 1 : 0 2 : 0 3 : 0 
Heartbeat_Variant_2_evicts 0 : 0 1 : 0 2 : 0 3 : 0 
Heartbeat_Variant_3_evicts 0 : 0 1 : 0 2 : 0 3 : 0 
Heartbeat CPU 0 instructions: 100000001 cycles: 50368702 heartbeat IPC: 1.39306 cumulative IPC: 1.37477 (Simulation time: 0 hr 24 min 31 sec) 
Finished CPU 0 instructions: 50000003 cycles: 36369641 cumulative IPC: 1.37477 (Simulation time: 0 hr 24 min 31 sec) 

ChampSim completed all CPUs

Region of Interest Statistics

CPU 0 cumulative IPC: 1.37477 instructions: 50000003 cycles: 36369641
 Fetch stage stalled: 47.0936  Sim cycles: 36369641 fetch stall cycle: 17127786
 Empty decode stage: 27.8327  Sim cycles: 36369641 fetch stall cycle: 10122639
ITLB TOTAL     ACCESS:    5855646  HIT:    5363917  MISS:     491729  HIT %:    91.6025  MISS %:    8.39752   MPKI: 9.83458
ITLB LOAD TRANSLATION INSTRUCTION	ACCESS:    5718717  HIT:    5226988  MISS:     491729  HIT %:    91.4014  MISS %:    8.59859  MPKI: 9.83458
ITLB TRANSLATION FROM L1D PREFETCHER INSTRUCTION	ACCESS:     136929  HIT:     136929  MISS:          0  HIT %:        100  MISS %:          0  MPKI: 0

ITLB AVERAGE MISS LATENCY: 9.05892 cycles
ITLB RQ	ACCESS:    7953206	FORWARD:          0	MERGED:    1614923	TO_CACHE:    6338283

DTLB TOTAL     ACCESS:    8969422  HIT:    8500201  MISS:     469221  HIT %:    94.7687  MISS %:    5.23134   MPKI: 9.38442
DTLB LOAD TRANSLATION DATA	ACCESS:    8969422  HIT:    8500201  MISS:     469221  HIT %:    94.7687  MISS %:    5.23134  MPKI: 9.38442

DTLB AVERAGE MISS LATENCY: 9.34913 cycles
DTLB RQ	ACCESS:   13334216	FORWARD:          0	MERGED:    4328456	TO_CACHE:    9005760

STLB TOTAL     ACCESS:    1209764  HIT:    1207739  MISS:       2025  HIT %:    99.8326  MISS %:   0.167388   MPKI: 0.0405
STLB LOAD TRANSLATION INSTRUCTION	ACCESS:     491729  HIT:     491477  MISS:        252  HIT %:    99.9488  MISS %:  0.0512477  MPKI: 0.00504
STLB LOAD TRANSLATION DATA	ACCESS:     469221  HIT:     467456  MISS:       1765  HIT %:    99.6238  MISS %:   0.376155  MPKI: 0.0353
STLB TRANSLATION FROM L1D PREFETCHER DATA	ACCESS:     248814  HIT:     248806  MISS:          8  HIT %:    99.9968  MISS %: 0.00321525  MPKI: 0.00016

STLB AVERAGE MISS LATENCY: 80.4528 cycles
STLB RQ	ACCESS:    1330502	FORWARD:          0	MERGED:     120707	TO_CACHE:    1209795

STLB Hit, L1D data hit: 0
STLB Hit, L2C data hit: 0
STLB Hit, LLC data hit: 0
STLB Hit, LLC data miss: 0
STLB STLB hints to L2: 0
L1D TOTAL     ACCESS:   13080935  HIT:   11970154  MISS:    1110781  HIT %:    91.5084  MISS %:     8.4916   MPKI: 22.2156
L1D LOAD DATA	ACCESS:    6553235  HIT:    5822063  MISS:     731172  HIT %:    88.8426  MISS %:    11.1574  MPKI: 14.6234
L1D RFO DATA	ACCESS:    6198403  HIT:    5913241  MISS:     285162  HIT %:    95.3994  MISS %:    4.60057  MPKI: 5.70324
L1D PREFETCH DATA	ACCESS:     329297  HIT:     234850  MISS:      94447  HIT %:    71.3186  MISS %:    28.6814  MPKI: 1.88894

L1D PREFETCH  REQUESTED:     739434  ISSUED:     739434  USEFUL:      33803  USELESS:      68406
L1D USEFUL LOAD PREFETCHES:      33803 PREFETCH ISSUED TO LOWER LEVEL:     102295  ACCURACY: 33.0446
 TIMELY PREFETCHES:      33803 LATE PREFETCHES: 7764 DROPPED PREFETCHES: 4
L1D AVERAGE MISS LATENCY: 222966 cycles
L1D RQ	ACCESS:   10695708	FORWARD:          0	MERGED:    3940490	TO_CACHE:    6589407
L1D WQ	ACCESS:    6942496	FORWARD:     166141	MERGED:     197687	TO_CACHE:    6744809
L1D PQ	ACCESS:     369882	FORWARD:          0	MERGED:          0	TO_CACHE:     369552

L1D UNIQUE REGIONS ACCESSED: 0
L1D REGIONS CONFLICTS: 0
L1D Cross Page Prefetch Requests: 5475
L1D Same Page Prefetch Requests: 755676
L1D ROI Sum of L1D PQ occupancy: 4704593
L1D PREFETCHES PUSHED FROM L2C: 0
L1I TOTAL     ACCESS:    6777678  HIT:    2597227  MISS:    4180451  HIT %:    38.3203  MISS %:    61.6797   MPKI: 83.609
L1I LOAD INSTRUCTION	ACCESS:    6364424  HIT:    2198804  MISS:    4165620  HIT %:    34.5484  MISS %:    65.4516  MPKI: 83.3124
L1I PREFETCH INSTRUCTION	ACCESS:     413254  HIT:     398423  MISS:      14831  HIT %:    96.4112  MISS %:    3.58883  MPKI: 0.29662

L1I PREFETCH  REQUESTED:    1601691  ISSUED:    1601691  USEFUL:       3750  USELESS:      14828
L1I USEFUL LOAD PREFETCHES:       3750 PREFETCH ISSUED TO LOWER LEVEL:      18581  ACCURACY: 20.1819
 TIMELY PREFETCHES:       3750 LATE PREFETCHES: 3750 DROPPED PREFETCHES: 0
L1I AVERAGE MISS LATENCY: 29089.5 cycles
L1I RQ	ACCESS:    9557930	FORWARD:          0	MERGED:    2786932	TO_CACHE:    6770998
L1I PQ	ACCESS:    1601691	FORWARD:          0	MERGED:     419483	TO_CACHE:    1182208

L1BTB TOTAL     ACCESS:    5671816  HIT:    2053934  MISS:    3617882  HIT %:     36.213  MISS %:     63.787   MPKI: 72.3576
L1BTB BRANCH_DIRECT_JUMP	ACCESS:     549090 HIT:     145894 MISS:     403196 AVERAGE STALL: 54.599 AVERAGE FETCH STALL: 17.2583 AVERAGE FETCH QUEUE STALL: 16.7999 AVERAGE DECODE STALL: 19.6244 AVERAGE EXECUTE STALL: 1.98352e+15
L1BTB BRANCH_INDIRECT	ACCESS:     183449 HIT:      66429 MISS:     117020 AVERAGE STALL: 112.636 AVERAGE FETCH STALL: 11.4823 AVERAGE FETCH QUEUE STALL: 17.6226 AVERAGE DECODE STALL: 13.4183 AVERAGE EXECUTE STALL: 69.1522
L1BTB BRANCH_CONDITIONAL	ACCESS:    2713365 HIT:    1424529 MISS:    1288836 AVERAGE STALL: 61.272 AVERAGE FETCH STALL: 23.7039 AVERAGE FETCH QUEUE STALL: 22.991 AVERAGE DECODE STALL: 13.8656 AVERAGE EXECUTE STALL: 2.23434e+15
L1BTB BRANCH_DIRECT_CALL	ACCESS:     941982 HIT:     105581 MISS:     836401 AVERAGE STALL: 67.1405 AVERAGE FETCH STALL: 26.2577 AVERAGE FETCH QUEUE STALL: 20.2252 AVERAGE DECODE STALL: 19.844 AVERAGE EXECUTE STALL: 4.90997e+15
L1BTB BRANCH_INDIRECT_CALL	ACCESS:     170972 HIT:      21072 MISS:     149900 AVERAGE STALL: 144.608 AVERAGE FETCH STALL: 18.6765 AVERAGE FETCH QUEUE STALL: 14.6766 AVERAGE DECODE STALL: 12.679 AVERAGE EXECUTE STALL: 98.0877
L1BTB BRANCH_RETURN	ACCESS:    1112958 HIT:     290429 MISS:     822529 AVERAGE STALL: 52.8134 AVERAGE FETCH STALL: 20.4839 AVERAGE FETCH QUEUE STALL: 5.73883 AVERAGE DECODE STALL: 6.23681 AVERAGE EXECUTE STALL: 4.19597e+14
L1BTB BRANCH_OTHER ACCESS:          0 HIT:          0 MISS:          0 AVERAGE STALL: -nan AVERAGE FETCH STALL: -nan AVERAGE FETCH QUEUE STALL: -nan AVERAGE DECODE STALL: -nan AVERAGE EXECUTE STALL: -nan
L1BTB TOTAL ROB OCCUPANCY AT BTB MISS: 3.04793

L2BTB TOTAL     ACCESS:    3592395  HIT:    3519167  MISS:      73228  HIT %:    97.9616  MISS %:    2.03842   MPKI: 1.46456
L2BTB BRANCH_DIRECT_JUMP	ACCESS:     398972 HIT:     393852 MISS:       5120 AVERAGE STALL: 54.599 AVERAGE FETCH STALL: 17.2583 AVERAGE FETCH QUEUE STALL: 16.7999 AVERAGE DECODE STALL: 19.6244 AVERAGE EXECUTE STALL: 1.98352e+15
L2BTB BRANCH_INDIRECT	ACCESS:     106754 HIT:     103961 MISS:       2793 AVERAGE STALL: 112.636 AVERAGE FETCH STALL: 11.4823 AVERAGE FETCH QUEUE STALL: 17.6226 AVERAGE DECODE STALL: 13.4183 AVERAGE EXECUTE STALL: 69.1522
L2BTB BRANCH_CONDITIONAL	ACCESS:    1288836 HIT:    1280415 MISS:       8421 AVERAGE STALL: 61.272 AVERAGE FETCH STALL: 23.7039 AVERAGE FETCH QUEUE STALL: 22.991 AVERAGE DECODE STALL: 13.8656 AVERAGE EXECUTE STALL: 2.23434e+15
L2BTB BRANCH_DIRECT_CALL	ACCESS:     836401 HIT:     832567 MISS:       3834 AVERAGE STALL: 67.1405 AVERAGE FETCH STALL: 26.2577 AVERAGE FETCH QUEUE STALL: 20.2252 AVERAGE DECODE STALL: 19.844 AVERAGE EXECUTE STALL: 4.90997e+15
L2BTB BRANCH_INDIRECT_CALL	ACCESS:     140314 HIT:     129878 MISS:      10436 AVERAGE STALL: 144.608 AVERAGE FETCH STALL: 18.6765 AVERAGE FETCH QUEUE STALL: 14.6766 AVERAGE DECODE STALL: 12.679 AVERAGE EXECUTE STALL: 98.0877
L2BTB BRANCH_RETURN	ACCESS:     821118 HIT:     778494 MISS:      42624 AVERAGE STALL: 52.8134 AVERAGE FETCH STALL: 20.4839 AVERAGE FETCH QUEUE STALL: 5.73883 AVERAGE DECODE STALL: 6.23681 AVERAGE EXECUTE STALL: 4.19597e+14
L2BTB BRANCH_OTHER ACCESS:          0 HIT:          0 MISS:          0 AVERAGE STALL: -nan AVERAGE FETCH STALL: -nan AVERAGE FETCH QUEUE STALL: -nan AVERAGE DECODE STALL: -nan AVERAGE EXECUTE STALL: -nan
L2BTB TOTAL ROB OCCUPANCY AT BTB MISS: 150.585

L2C TOTAL     ACCESS:    5914224  HIT:    5424046  MISS:     490178  HIT %:    91.7119  MISS %:    8.28812   MPKI: 9.80356
L2C LOAD INSTRUCTION	ACCESS:    4161870  HIT:    3901597  MISS:     260273  HIT %:    93.7462  MISS %:    6.25375  MPKI: 5.20546
L2C PREFETCH INSTRUCTION	ACCESS:      18581  HIT:      18581  MISS:          0  HIT %:        100  MISS %:          0  MPKI: 0
L2C LOAD TRANSLATION INSTRUCTION	ACCESS:        289  HIT:         66  MISS:        223  HIT %:    22.8374  MISS %:    77.1626  MPKI: 0.00446
L2C LOAD DATA	ACCESS:     722955  HIT:     644157  MISS:      78798  HIT %:    89.1006  MISS %:    10.8994  MPKI: 1.57596
L2C RFO DATA	ACCESS:     285035  HIT:     230708  MISS:      54327  HIT %:    80.9402  MISS %:    19.0598  MPKI: 1.08654
L2C PREFETCH DATA	ACCESS:     204454  HIT:     125887  MISS:      78567  HIT %:    61.5723  MISS %:    38.4277  MPKI: 1.57134
L2C WRITEBACK DATA	ACCESS:     519157  HIT:     502509  MISS:      16648  HIT %:    96.7933  MISS %:    3.20674  MPKI: 0.33296
L2C LOAD TRANSLATION DATA	ACCESS:       1863  HIT:        530  MISS:       1333  HIT %:    28.4487  MISS %:    71.5513  MPKI: 0.02666
L2C TRANSLATION FROM L1D PREFETCHER DATA	ACCESS:         20  HIT:         11  MISS:          9  HIT %:         55  MISS %:         45  MPKI: 0.00018

L2C PREFETCH  REQUESTED:     111737  ISSUED:     111737  USEFUL:       9784  USELESS:      69571
L2C USEFUL LOAD PREFETCHES:       9784 PREFETCH ISSUED TO LOWER LEVEL:      79257  ACCURACY: 12.3447
 TIMELY PREFETCHES:       9784 LATE PREFETCHES: 690 DROPPED PREFETCHES: 0
L2C AVERAGE MISS LATENCY: 38.6245 cycles
L2C RQ	ACCESS:    5172529	FORWARD:          0	MERGED:        428	TO_CACHE:    5172034
L2C WQ	ACCESS:     519157	FORWARD:         68	MERGED:          0	TO_CACHE:     519157
L2C PQ	ACCESS:     232613	FORWARD:          0	MERGED:       4842	TO_CACHE:     227770

L2C Dense regions hint from L2: 0
PSCL5 TOTAL     ACCESS:       4060  HIT:       2030  MISS:       2030  HIT %:         50  MISS %:         50   MPKI: 0.0406
PSCL5 LOAD TRANSLATION INSTRUCTION	ACCESS:       4020  HIT:       2010  MISS:       2010  HIT %:         50  MISS %:         50  MPKI: 0.0402
PSCL5 TRANSLATION FROM L1D PREFETCHER INSTRUCTION	ACCESS:         40  HIT:         20  MISS:         20  HIT %:         50  MISS %:         50  MPKI: 0.0004


PSCL4 TOTAL     ACCESS:       3963  HIT:       1977  MISS:       1986  HIT %:    49.8864  MISS %:    50.1136   MPKI: 0.03972
PSCL4 LOAD TRANSLATION INSTRUCTION	ACCESS:       2123  HIT:       1957  MISS:        166  HIT %:    92.1809  MISS %:    7.81912  MPKI: 0.00332
PSCL4 TRANSLATION FROM L1D PREFETCHER INSTRUCTION	ACCESS:         20  HIT:         20  MISS:          0  HIT %:        100  MISS %:          0  MPKI: 0
PSCL4 LOAD TRANSLATION DATA	ACCESS:       1800  HIT:          0  MISS:       1800  HIT %:          0  MISS %:        100  MPKI: 0.036
PSCL4 TRANSLATION FROM L1D PREFETCHER DATA	ACCESS:         20  HIT:          0  MISS:         20  HIT %:          0  MISS %:        100  MPKI: 0.0004


PSCL3 TOTAL     ACCESS:       4005  HIT:       1998  MISS:       2007  HIT %:    49.8876  MISS %:    50.1124   MPKI: 0.04014
PSCL3 LOAD TRANSLATION INSTRUCTION	ACCESS:       2144  HIT:       1978  MISS:        166  HIT %:    92.2575  MISS %:    7.74254  MPKI: 0.00332
PSCL3 TRANSLATION FROM L1D PREFETCHER INSTRUCTION	ACCESS:         20  HIT:         20  MISS:          0  HIT %:        100  MISS %:          0  MPKI: 0
PSCL3 LOAD TRANSLATION DATA	ACCESS:       1821  HIT:          0  MISS:       1821  HIT %:          0  MISS %:        100  MPKI: 0.03642
PSCL3 TRANSLATION FROM L1D PREFETCHER DATA	ACCESS:         20  HIT:          0  MISS:         20  HIT %:          0  MISS %:        100  MPKI: 0.0004


PSCL2 TOTAL     ACCESS:       3932  HIT:       1902  MISS:       2030  HIT %:    48.3723  MISS %:    51.6277   MPKI: 0.0406
PSCL2 LOAD TRANSLATION INSTRUCTION	ACCESS:       2141  HIT:       1882  MISS:        259  HIT %:    87.9028  MISS %:    12.0972  MPKI: 0.00518
PSCL2 TRANSLATION FROM L1D PREFETCHER INSTRUCTION	ACCESS:         20  HIT:         20  MISS:          0  HIT %:        100  MISS %:          0  MPKI: 0
PSCL2 LOAD TRANSLATION DATA	ACCESS:       1751  HIT:          0  MISS:       1751  HIT %:          0  MISS %:        100  MPKI: 0.03502
PSCL2 TRANSLATION FROM L1D PREFETCHER DATA	ACCESS:         20  HIT:          0  MISS:         20  HIT %:          0  MISS %:        100  MPKI: 0.0004


LLC TOTAL     ACCESS:     555862  HIT:     526475  MISS:      29387  HIT %:    94.7133  MISS %:    5.28674   MPKI: 0.58774
LLC LOAD INSTRUCTION	ACCESS:     260209  HIT:     259033  MISS:       1176  HIT %:    99.5481  MISS %:   0.451944  MPKI: 0.02352
LLC LOAD TRANSLATION INSTRUCTION	ACCESS:        223  HIT:        184  MISS:         39  HIT %:    82.5112  MISS %:    17.4888  MPKI: 0.00078
LLC LOAD DATA	ACCESS:      78184  HIT:      74504  MISS:       3680  HIT %:    95.2932  MISS %:    4.70685  MPKI: 0.0736
LLC RFO DATA	ACCESS:      54302  HIT:      40167  MISS:      14135  HIT %:    73.9697  MISS %:    26.0303  MPKI: 0.2827
LLC PREFETCH DATA	ACCESS:      79257  HIT:      69350  MISS:       9907  HIT %:    87.5002  MISS %:    12.4998  MPKI: 0.19814
LLC WRITEBACK DATA	ACCESS:      82345  HIT:      82007  MISS:        338  HIT %:    99.5895  MISS %:   0.410468  MPKI: 0.00676
LLC LOAD TRANSLATION DATA	ACCESS:       1333  HIT:       1221  MISS:        112  HIT %:    91.5979  MISS %:     8.4021  MPKI: 0.00224
LLC TRANSLATION FROM L1D PREFETCHER DATA	ACCESS:          9  HIT:          9  MISS:          0  HIT %:        100  MISS %:          0  MPKI: 0

LLC AVERAGE MISS LATENCY: 159.644 cycles
LLC RQ	ACCESS:     394273	FORWARD:          0	MERGED:          0	TO_CACHE:     394260
LLC WQ	ACCESS:      82345	FORWARD:         13	MERGED:          0	TO_CACHE:      82345
LLC PQ	ACCESS:      79257	FORWARD:          0	MERGED:          0	TO_CACHE:      79257

LLC Dense regions hint to LLC: 0

RAW hits: 1939020
Loads Generated: 12634728
Loads sent to L1D: 10695708
Stores Generated: 6942484
Stores sent to L1D: 6942496
Major fault: 0 Minor fault: 2574
Allocated PAGES: 2574

stream: 
stream:times selected: 1200151
stream:pref_filled: 120101
stream:pref_useful: 22642
stream:pref_late: 7607
stream:misses: 8274
stream:misses_by_poll: 0

CS: 
CS:times selected: 179157
CS:pref_filled: 51966
CS:pref_useful: 28585
CS:pref_late: 13450
CS:misses: 22741
CS:misses_by_poll: 5

CPLX: 
CPLX:times selected: 1019793
CPLX:pref_filled: 18805
CPLX:pref_useful: 3930
CPLX:pref_late: 3499
CPLX:misses: 94555
CPLX:misses_by_poll: 2

NL_L1: 
NL:times selected: 14775
NL:pref_filled: 444
NL:pref_useful: 143
NL:pref_late: 402
NL:misses: 1187
NL:misses_by_poll: 0

total selections: 2413876
total_filled: 94447
total_useful: 33803
total_late: 26426
total_polluted: 7
total_misses_after_warmup: 767344
conflicts: 5510331

test: 120283

DRAM Statistics
 CHANNEL 0
 RQ ROW_BUFFER_HIT:      10524  ROW_BUFFER_MISS:      18517
 DBUS_CONGESTED:          9
 WQ ROW_BUFFER_HIT:       1587  ROW_BUFFER_MISS:      13103  FULL:          0

 AVG_CONGESTED_CYCLE: 6

CPU 0 Branch Prediction Accuracy: 99.8082% MPKI: 0.35064 Average ROB Occupancy at Mispredict: 183.639
Branch types
NOT_BRANCH: 40857541 81.7151%
BRANCH_DIRECT_JUMP: 549090 1.09818%
BRANCH_INDIRECT: 183449 0.366898%
BRANCH_CONDITIONAL: 6184052 12.3681%
BRANCH_DIRECT_CALL: 941982 1.88396%
BRANCH_INDIRECT_CALL: 170972 0.341944%
BRANCH_RETURN: 1112958 2.22592%
BRANCH_OTHER: 0 0%

DRAM PAGES: 1048576
Allocated PAGES: 2574
Average_ROB_Occupancy: 244.373
Average_Decode_Occupancy: 36.6395
Average_FTQ_Occupancy: 14.6799
Indirect max targets: 14 Average targets: 1.17778
Branch_type:  BRANCH_DIRECT_JUMP:  Count Percentage: 3.34953 4.54466 3.83773 6.80612 3.54133 2.8486 4.13157 70.9405 
Branch_type:  BRANCH_INDIRECT:  Count Percentage: 11.7114 3.50663 2.63739 9.69583 3.33104 2.79447 1.72378 64.5994 
Branch_type:  BRANCH_CONDITIONAL:  Count Percentage: 21.198 6.04106 2.17242 4.66174 2.40831 2.24655 3.12412 58.1478 
Branch_type:  BRANCH_DIRECT_CALL:  Count Percentage: 0.856705 1.24598 0.776953 3.87214 3.42394 1.95091 4.32764 83.5457 
Branch_type:  BRANCH_INDIRECT_CALL:  Count Percentage: 9.54278 0 2.98883 5.33449 0.845529 1.71071 3.8455 75.7322 
Branch_type:  BRANCH_RETURN:  Count Percentage: 4.68552 4.31174 2.39008 4.38934 4.24666 3.16821 3.60693 73.2015 
Branch_type:  BRANCH_DIRECT_JUMP:  Total Count: 36796 49925 42159 74768 38903 31293 45387 779310 
Branch_type:  BRANCH_INDIRECT:  Total Count: 43020 12881 9688 35616 12236 10265 6332 237295 
Branch_type:  BRANCH_CONDITIONAL:  Total Count: 2621692 747138 268678 576548 297851 277846 386381 7191522 
Branch_type:  BRANCH_DIRECT_CALL:  Total Count: 16081 23388 14584 72683 64270 36620 81233 1568217 
Branch_type:  BRANCH_INDIRECT_CALL:  Total Count: 32538 0 10191 18189 2883 5833 13112 258224 
Branch_type:  BRANCH_RETURN:  Total Count: 103968 95674 53034 97396 94230 70300 80035 1624284 
Number of unique branch instructions: 10885
Upper 32 bits: 
aaaa
ffff
ffff0000
Unique upper 32 bits: 3
Unique upper 36 bits: 3
Unique upper 40 bits: 5
Unique upper 44 bits: 32
Unique upper 48 bits: 158
Variant_0 : 1387 0.338623
Variant_1 : 2685 0.655518
Variant_2 : 0 0
Variant_3 : 0 0
Offset_3 4506
Offset_4 263
Offset_5 488
Offset_6 553
Offset_7 650
Offset_8 592
Offset_9 523
Offset_10 428
Offset_11 356
Offset_12 326
Offset_13 242
Offset_14 247
Offset_15 205
Offset_16 233
Offset_17 170
Offset_18 154
Offset_19 272
Offset_20 147
Offset_21 235
Offset_22 412
Offset_23 241
Offset_24 348
Offset_25 117
Offset_47 92
Offset_64 4
decode_dispatch_called: 26124591 71.8308
Dispatch_width: 0 14098402 53.966 38.7642
Dispatch_width: 1 999766 3.82692 2.7489
Dispatch_width: 2 830851 3.18034 2.28446
Dispatch_width: 3 497162 1.90304 1.36697
Dispatch_width: 4 6111582 23.394 16.8041
Dispatch_width: 5 120247 0.460283 0.330625
Dispatch_width: 6 3466581 13.2694 9.53152
Empty_decode_cycles: 10245050 28.1692
ROB_full_cycles: 9772114 26.8689
Starvation_cycles_per_kilo_instr: 231.309
Starvation_cycles_per_kilo_instr_3: 168.991
Starvation_cycles_per_kilo_instr_0: 145.713
Branch_type_1  (3,1)  (4,9)  (5,39)  (6,76)  (7,126)  (8,153)  (9,138)  (10,111)  (11,79)  (12,55)  (13,11)  (14,2)  (15,3)  (16,4)  (18,1)  (19,5)  (20,2)  (21,1)  (22,3)  (23,2)  (24,10)  (25,12) 
Branch_type_2  (3,1)  (4,1)  (5,1)  (8,4)  (9,4)  (10,1)  (12,1)  (13,1)  (14,1)  (16,3)  (17,2)  (20,2)  (21,2)  (23,5)  (24,1)  (47,41) 
Branch_type_3  (3,4504)  (4,253)  (5,444)  (6,460)  (7,491)  (8,366)  (9,285)  (10,173)  (11,140)  (12,62)  (13,10)  (64,3) 
Branch_type_4  (6,4)  (7,8)  (8,27)  (9,58)  (10,68)  (11,71)  (12,117)  (13,103)  (14,112)  (15,98)  (16,104)  (17,77)  (18,66)  (19,132)  (20,75)  (21,124)  (22,217)  (23,136)  (24,203)  (25,101) 
Branch_type_5  (8,3)  (9,1)  (10,4)  (11,5)  (12,3)  (13,14)  (14,16)  (15,11)  (16,22)  (17,13)  (18,23)  (19,14)  (20,11)  (21,13)  (22,43)  (23,26)  (24,38) 
Branch_type_6  (5,4)  (6,13)  (7,25)  (8,39)  (9,37)  (10,71)  (11,61)  (12,88)  (13,103)  (14,116)  (15,93)  (16,100)  (17,78)  (18,64)  (19,121)  (20,57)  (21,95)  (22,149)  (23,72)  (24,96)  (25,4)  (47,51)  (64,1) 
Unique trigger count: 
Variant_0_evicts_0 : 0
Variant_0_evicts_1 : 0
Variant_0_evicts_2 : 0
Variant_0_evicts_3 : 0
Variant_1_evicts_0 : 0
Variant_1_evicts_1 : 0
Variant_1_evicts_2 : 0
Variant_1_evicts_3 : 0
Variant_2_evicts_0 : 0
Variant_2_evicts_1 : 0
Variant_2_evicts_2 : 0
Variant_2_evicts_3 : 0
Variant_3_evicts_0 : 0
Variant_3_evicts_1 : 0
Variant_3_evicts_2 : 0
Variant_3_evicts_3 : 0
BTB PER SET UNIQUE ADDR: 14 15 11 11 14 9 9 14 8 16 11 12 12 9 7 10 11 9 10 16 11 12 10 15 9 15 10 11 11 15 15 13 14 7 10 9 12 15 8 9 8 10 13 15 9 11 13 8 10 14 14 7 13 10 8 5 8 14 14 14 12 14 10 12 9 14 14 10 16 11 12 15 15 15 9 9 7 18 12 19 13 10 10 13 14 17 17 12 9 13 12 5 11 13 9 15 12 12 15 12 12 11 13 11 14 12 9 14 8 13 6 19 16 14 13 6 14 14 11 11 17 11 12 13 12 17 7 17 15 9 8 12 12 17 9 13 10 15 13 19 10 8 13 13 9 16 14 11 8 11 11 12 10 13 9 14 11 14 13 10 10 13 18 16 9 14 13 8 12 11 10 20 10 16 13 11 10 7 10 9 13 10 16 13 12 16 7 10 15 13 13 12 9 11 17 9 10 10 7 12 16 15 11 15 10 11 9 14 13 12 7 13 10 12 10 11 14 16 9 20 10 16 8 14 8 16 15 13 8 14 13 10 12 15 11 12 16 9 9 9 12 16 14 13 10 10 10 11 11 17 17 15 12 8 15 16 9 12 9 14 15 11 9 12 15 11 12 9 11 9 12 15 8 7 10 11 8 15 11 16 10 11 12 11 18 9 11 15 14 11 12 9 11 15 9 13 11 13 12 11 9 14 9 15 15 14 13 11 19 12 10 16 11 14 15 13 14 12 11 16 11 12 11 10 14 16 10 10 11 10 14 20 10 12 11 14 10 16 9 15 7 17 12 15 13 14 13 14 11 12 14 11 9 13 14 16 9 14 9 9 9 16 8 18 9 15 10 8 17 10 13 9 14 12 9 18 14 15 11 14 14 12 9 12 13 12 16 16 14 11 11 10 11 20 10 12 8 10 18 12 9 10 9 12 15 11 18 18 14 12 13 10 12 16 13 10 12 13 16 21 15 15 13 9 11 12 12 10 11 12 20 10 16 10 17 15 16 9 12 15 18 13 11 15 22 11 13 18 12 11 13 14 15 12 12 13 16 15 11 12 12 14 12 18 18 12 15 13 12 15 14 12 13 12 12 17 12 16 11 9 15 11 13 12 9 16 15 12 14 14 9 14 8 12 9 12 8 17 10 19 10 20 12 19 10 6 11 9 14 12 17 14 11 10 10 16 11 13 10 11 11 8 15 10 12 15 17 11 11 19 21 13 14 8 16 15 13 15 13 17 13 13 14 11 18 17 10 19 11 11 9 14 18 11 15 11 11 18 17 13 8 16 11 17 18 13 9 12 18 15 12 11 16 15 12 12 16 17 10 14 13 9 9 10 18 15 12 11 14 16 11 10 13 10 10 13 9 14 10 11 15 12 12 11 10 12 17 11 12 16 19 19 12 12 7 17 11 15 13 13 16 19 9 6 10 16 13 17 13 12 11 14 16 11 10 11 13 14 9 13 11 12 14 14 10 9 11 11 15 11 15 12 8 10 11 10 16 13 15 11 12 11 14 19 12 12 11 12 13 9 12 15 12 12 15 7 10 13 14 16 7 10 14 16 15 10 7 15 17 17 11 15 15 10 9 14 13 17 12 17 8 14 15 18 10 14 13 12 17 11 11 14 12 12 9 11 20 15 9 15 11 11 14 11 9 15 12 12 15 14 16 13 14 15 9 16 14 14 16 12 13 9 11 13 16 19 9 16 14 10 16 10 13 16 16 10 17 18 12 9 12 10 9 10 18 15 13 15 12 16 11 14 15 9 12 14 12 10 14 15 6 16 16 12 14 8 13 13 13 7 7 9 12 11 13 14 11 11 15 11 20 14 13 16 14 10 17 11 16 11 14 15 12 14 13 14 13 12 7 12 16 15 7 11 14 15 11 13 15 15 9 13 10 9 11 18 11 13 17 11 14 12 15 10 17 13 11 21 12 14 11 9 9 12 15 15 22 15 15 12 12 10 12 15 12 10 14 12 16 11 14 16 16 10 13 9 12 9 9 11 16 10 14 14 14 14 13 12 16 10 14 11 15 9 11 16 16 12 9 9 14 16 11 18 8 15 12 13 14 19 11 15 10 12 13 17 13 12 13 13 16 14 13 16 12 11 7 15 14 9 11 18 19 8 13 17 10 12 13 18 8 18 12 11 11 14 16 17 15 12 11 12 11 15 8 11 12 15 16 10 9 13 7 10 14 15 15 9 11 20 16 9 11 12 14 10 17 17 21 15 13 13 12 17 9 18 18 18 10 9 15 13 13 17 11 14 11 15 17 11 14 19 16 17 15 15 11 12 15 15 15 13 9 9 9 10 8 13 10 11 11 20 13 10 
BTB PER SET COUNT: 25 22 2064 18 18 11 9 21 1467 24 12 221 22 20 9 14 2212 14 13 30 16 202 198 18 21 19 13 14 400 263 173 18 21 9 15 11 17 24 8 10 10 12 16 53 1269 23 20 8 801 276 14 110 21 13 10 388 15 27 458 18 15 638 303 19 9 253 18 2434 27 11 15 18 24 26 18 11 8 705 21 33 19 21 23 180 17 26 38 20 14 38 13 5 449 485 13 22 19 960 24 16 16 12 15 90 2597 15 18 17 1416 2031 8 30 878 20 16 8 15 30 1390 12 34 22 15 18 13 36 9 24 25 1030 14 15 18 19 14 16 826 25 18 25 16 16 16 15 28 24 20 15 14 32 15 242 908 18 10 19 959 23 14 613 11 18 79 18 10 26 22 10 16 1183 20 30 11 29 24 13 13 8 959 722 20 131 1110 21 17 38 11 13 28 15 23 18 14 12 27 11 10 1044 10 15 23 199 913 22 10 14 11 19 22 411 8 24 15 15 13 569 18 32 1539 26 16 19 58 20 10 29 18 23 762 20 18 12 21 21 14 3302 73 19 12 13 15 27 20 28 15 874 13 15 14 22 21 30 16 8 22 56 13 22 11 24 73 13 12 531 25 11 16 10 15 12 16 25 670 8 448 12 9 19 21 31 22 12 19 16 31 13 11 21 25 13 13 9 13 28 12 17 12 24 18 28 14 18 10 23 20 21 17 21 56 171 13 21 15 27 1923 14 19 17 13 24 17 2306 15 11 15 95 13 19 15 12 21 36 42 20 13 22 15 182 11 22 11 1565 15 18 14 26 16 26 19 15 479 216 14 23 17 22 11 20 10 11 20 19 12 27 11 173 10 11 29 12 21 393 18 14 814 27 14 21 17 1273 26 13 452 15 19 18 491 22 20 205 12 12 22 354 10 168 8 12 362 738 9 12 1465 15 24 21 31 617 15 17 1190 15 16 31 19 16 16 63 164 32 19 16 22 12 13 18 27 14 19 14 48 12 18 14 58 45 34 1032 12 21 779 17 42 22 1832 14 890 22 13 17 325 22 25 20 17 18 24 21 11 18 41 20 19 902 24 105 4619 17 14 19 21 22 17 14 14 44 21 41 15 12 25 438 15 15 10 22 17 16 17 33 616 25 175 219 11 24 1635 701 13 33 19 31 16 30 16 8 14 10 15 20 376 116 586 13 10 31 17 17 11 15 13 9 21 456 16 755 31 795 15 2285 38 21 465 8 31 19 250 1053 22 28 17 17 38 17 37 28 11 26 20 1313 13 19 813 41 32 17 19 35 31 17 15 113 15 20 29 16 11 24 24 19 17 13 27 21 1471 17 36 545 16 17 20 11 12 914 35 22 19 13 18 21 28 22 15 13 13 20 14 23 38 12 17 30 13 14 21 14 23 242 19 20 25 37 25 15 8 21 270 17 19 531 23 31 14 1017 12 18 18 26 209 17 17 231 186 154 12 14 20 834 9 18 15 28 31 16 15 18 287 14 23 14 25 17 8 12 478 524 30 19 74 14 18 13 17 31 17108 17 15 960 1971 14 21 23 14 14 22 10 10 20 20 28 13 19 23 798 1629 13 10 25 248 26 14 20 19 14 2395 20 21 3503 14 28 15 20 21 24 31 252 19 20 50 21 18 537 1175 13 13 133 272 28 13 26 105 961 24 526 12 19 18 19 743 21 25 9970 71 22 12 1911 16 21 25 17 571 13 17 91 178 29 518 22 22 13 269 13 1845 1908 1484 11 25 1470 18 9 17 10 9 362 34 18 20 478 19 309 45 132 23 12 17 17 21 681 18 19 1642 32 20 14 20 8 17 17 26 7 508 173 25 16 13 172 18 15 22 20 28 18 25 119 19 15 33 14 29 63 15 7980 23 17 17 334 17 2854 12 23 21 1105 11 14 19 18 18 14 25 24 12 21 17 16 43 1906 17 815 317 24 24 518 23 13 1209 17 25 38 19 36 18 958 9 22 292 27 55 23 23 15 23 17 941 29 425 20 22 14 22 15 622 33 26 14 19 10 15 12 3064 16 27 15 116 16 17 452 20 13 25 14 21 1430 27 11 21 24 28 21 14 15 18 22 17 445 9 18 19 15 127 33 95 937 14 16 27 26 449 446 17 23 25 571 14 24 16 15 7 16 21 28 22 22 414 9 19 38 17 18 19 24 9 902 17 13 13 21 21 25 19 13 22 15 17 23 11 13 18 21 19 16 14 19 870 10 24 18 1213 11 38 168 77 2113 16 14 20 13 32 22 29 104 882 19 16 23 10 608 33 504 15 11 19 262 15 1106 22 18 14 1480 25 14 26 661 23 25 23 17 16 25 20 18 591 14 10 13 10 26 10 30 12 13 15 256 22 13 
To predecode: 0
Predecoding something: 0
Predecode request dropped: 0
sizeofblock_0 0
sizeofblock_1 51772
sizeofblock_2 94067
sizeofblock_3 0
sizeofblock_4 0
sizeofblock_5 0
sizeofblock_6 0
sizeofblock_7 0
sizeofblock_8 0
Variant_0 Correct: 1605273 Incorrect: 0 Accuracy: 1
Variant_1 Correct: 5699387 Incorrect: 0 Accuracy: 1
Variant_2 Correct: 0 Incorrect: 0 Accuracy: -nan
Variant_3 Correct: 0 Incorrect: 0 Accuracy: -nan
