
*** ChampSim Multicore Out-of-Order Simulator ***

Warmup Instructions: 50000000
Simulation Instructions: 50000000
Number of CPUs: 1
LLC sets: 2048
LLC ways: 16
Off-chip DRAM Size: 4096 MB Channels: 1 Width: 64-bit Data Rate: 6400 MT/s
CPU 0 runs ./micro_traces/srv428.trace.gz
.gz
ITLB has LRU replacement policy
DTLB has LRU replacement policy
STLB has LRU replacement policy
FDIP Prefetcher at L1I
L1I has LRU replacement policy
L1D has LRU replacement policy
Initialize SRRIP state for L2C
Initialize DRRIP state for LLC
Heartbeat_Variant_0 : 1078 0.263184 per_variant_size: 0 1078 0 0 0 0 0 0 0 
Heartbeat_Variant_1 : 2272 0.554688 per_variant_size: 0 425 1847 0 0 0 0 0 0 
Heartbeat_Variant_2 : 0 0 per_variant_size: 0 0 0 0 0 0 0 0 0 
Heartbeat_Variant_3 : 0 0 per_variant_size: 0 0 0 0 0 0 0 0 0 
Heartbeat_Variant_0_evicts 0 : 22170 1 : 19365 2 : 0 3 : 0 
Heartbeat_Variant_1_evicts 0 : 19404 1 : 0 2 : 0 3 : 0 
Heartbeat_Variant_2_evicts 0 : 0 1 : 0 2 : 0 3 : 0 
Heartbeat_Variant_3_evicts 0 : 0 1 : 0 2 : 0 3 : 0 
Heartbeat CPU 0 instructions: 10000001 cycles: 2797161 heartbeat IPC: 3.57505 cumulative IPC: 3.57505 (Simulation time: 0 hr 1 min 56 sec) 
Heartbeat_Variant_0 : 1100 0.268555 per_variant_size: 0 1100 0 0 0 0 0 0 0 
Heartbeat_Variant_1 : 2323 0.567139 per_variant_size: 0 422 1901 0 0 0 0 0 0 
Heartbeat_Variant_2 : 0 0 per_variant_size: 0 0 0 0 0 0 0 0 0 
Heartbeat_Variant_3 : 0 0 per_variant_size: 0 0 0 0 0 0 0 0 0 
Heartbeat_Variant_0_evicts 0 : 22106 1 : 18699 2 : 0 3 : 0 
Heartbeat_Variant_1_evicts 0 : 18692 1 : 0 2 : 0 3 : 0 
Heartbeat_Variant_2_evicts 0 : 0 1 : 0 2 : 0 3 : 0 
Heartbeat_Variant_3_evicts 0 : 0 1 : 0 2 : 0 3 : 0 
Heartbeat CPU 0 instructions: 20000000 cycles: 5593868 heartbeat IPC: 3.57563 cumulative IPC: 3.57534 (Simulation time: 0 hr 3 min 56 sec) 
Heartbeat_Variant_0 : 1078 0.263184 per_variant_size: 0 1078 0 0 0 0 0 0 0 
Heartbeat_Variant_1 : 2368 0.578125 per_variant_size: 0 438 1930 0 0 0 0 0 0 
Heartbeat_Variant_2 : 0 0 per_variant_size: 0 0 0 0 0 0 0 0 0 
Heartbeat_Variant_3 : 0 0 per_variant_size: 0 0 0 0 0 0 0 0 0 
Heartbeat_Variant_0_evicts 0 : 22472 1 : 18778 2 : 0 3 : 0 
Heartbeat_Variant_1_evicts 0 : 18804 1 : 0 2 : 0 3 : 0 
Heartbeat_Variant_2_evicts 0 : 0 1 : 0 2 : 0 3 : 0 
Heartbeat_Variant_3_evicts 0 : 0 1 : 0 2 : 0 3 : 0 
Heartbeat CPU 0 instructions: 30000002 cycles: 8390986 heartbeat IPC: 3.57511 cumulative IPC: 3.57527 (Simulation time: 0 hr 6 min 6 sec) 
Heartbeat_Variant_0 : 1107 0.270264 per_variant_size: 0 1107 0 0 0 0 0 0 0 
Heartbeat_Variant_1 : 2357 0.575439 per_variant_size: 0 397 1960 0 0 0 0 0 0 
Heartbeat_Variant_2 : 0 0 per_variant_size: 0 0 0 0 0 0 0 0 0 
Heartbeat_Variant_3 : 0 0 per_variant_size: 0 0 0 0 0 0 0 0 0 
Heartbeat_Variant_0_evicts 0 : 22162 1 : 18923 2 : 0 3 : 0 
Heartbeat_Variant_1_evicts 0 : 18899 1 : 0 2 : 0 3 : 0 
Heartbeat_Variant_2_evicts 0 : 0 1 : 0 2 : 0 3 : 0 
Heartbeat_Variant_3_evicts 0 : 0 1 : 0 2 : 0 3 : 0 
Heartbeat CPU 0 instructions: 40000001 cycles: 11187875 heartbeat IPC: 3.5754 cumulative IPC: 3.5753 (Simulation time: 0 hr 8 min 20 sec) 
Heartbeat_Variant_0 : 1094 0.26709 per_variant_size: 0 1094 0 0 0 0 0 0 0 
Heartbeat_Variant_1 : 2375 0.579834 per_variant_size: 0 402 1973 0 0 0 0 0 0 
Heartbeat_Variant_2 : 0 0 per_variant_size: 0 0 0 0 0 0 0 0 0 
Heartbeat_Variant_3 : 0 0 per_variant_size: 0 0 0 0 0 0 0 0 0 
Heartbeat_Variant_0_evicts 0 : 22275 1 : 18794 2 : 0 3 : 0 
Heartbeat_Variant_1_evicts 0 : 18807 1 : 0 2 : 0 3 : 0 
Heartbeat_Variant_2_evicts 0 : 0 1 : 0 2 : 0 3 : 0 
Heartbeat_Variant_3_evicts 0 : 0 1 : 0 2 : 0 3 : 0 
Heartbeat CPU 0 instructions: 50000002 cycles: 13985110 heartbeat IPC: 3.57496 cumulative IPC: 3.57523 (Simulation time: 0 hr 10 min 43 sec) 

Warmup complete CPU 0 instructions: 50000002 cycles: 13985110 (Simulation time: 0 hr 10 min 43 sec) 

Cycle: 20000000 FTQ IN: 56730278 FTQ occupancy: 18.2039 DECODE IN: 56730261 DECODE occupancy: 46.5636 ROB IN: 56730241 ROB occupancy: 282.369 ROB OUT: 56730241
Heartbeat_Variant_0 : 1104 0.269531 per_variant_size: 0 1104 0 0 0 0 0 0 0 
Heartbeat_Variant_1 : 2383 0.581787 per_variant_size: 0 414 1969 0 0 0 0 0 0 
Heartbeat_Variant_2 : 0 0 per_variant_size: 0 0 0 0 0 0 0 0 0 
Heartbeat_Variant_3 : 0 0 per_variant_size: 0 0 0 0 0 0 0 0 0 
Heartbeat_Variant_0_evicts 0 : 22363 1 : 18645 2 : 0 3 : 0 
Heartbeat_Variant_1_evicts 0 : 18641 1 : 0 2 : 0 3 : 0 
Heartbeat_Variant_2_evicts 0 : 0 1 : 0 2 : 0 3 : 0 
Heartbeat_Variant_3_evicts 0 : 0 1 : 0 2 : 0 3 : 0 
Heartbeat CPU 0 instructions: 60000002 cycles: 22855370 heartbeat IPC: 1.12736 cumulative IPC: 1.12736 (Simulation time: 0 hr 12 min 49 sec) 
Cycle: 30000000 FTQ IN: 11483688 FTQ occupancy: 6.87775 DECODE IN: 11483628 DECODE occupancy: 15.0521 ROB IN: 11483635 ROB occupancy: 129.254 ROB OUT: 11483334
Heartbeat_Variant_0 : 1106 0.27002 per_variant_size: 0 1106 0 0 0 0 0 0 0 
Heartbeat_Variant_1 : 2381 0.581299 per_variant_size: 0 408 1973 0 0 0 0 0 0 
Heartbeat_Variant_2 : 0 0 per_variant_size: 0 0 0 0 0 0 0 0 0 
Heartbeat_Variant_3 : 0 0 per_variant_size: 0 0 0 0 0 0 0 0 0 
Heartbeat_Variant_0_evicts 0 : 22463 1 : 18292 2 : 0 3 : 0 
Heartbeat_Variant_1_evicts 0 : 18290 1 : 0 2 : 0 3 : 0 
Heartbeat_Variant_2_evicts 0 : 0 1 : 0 2 : 0 3 : 0 
Heartbeat_Variant_3_evicts 0 : 0 1 : 0 2 : 0 3 : 0 
Heartbeat CPU 0 instructions: 70000003 cycles: 31513815 heartbeat IPC: 1.15494 cumulative IPC: 1.14099 (Simulation time: 0 hr 14 min 47 sec) 
Cycle: 40000000 FTQ IN: 11403660 FTQ occupancy: 7.04374 DECODE IN: 11403600 DECODE occupancy: 15.3505 ROB IN: 11403553 ROB occupancy: 129.763 ROB OUT: 11403506
Heartbeat_Variant_0 : 1116 0.272461 per_variant_size: 0 1116 0 0 0 0 0 0 0 
Heartbeat_Variant_1 : 2400 0.585938 per_variant_size: 0 405 1995 0 0 0 0 0 0 
Heartbeat_Variant_2 : 0 0 per_variant_size: 0 0 0 0 0 0 0 0 0 
Heartbeat_Variant_3 : 0 0 per_variant_size: 0 0 0 0 0 0 0 0 0 
Heartbeat_Variant_0_evicts 0 : 22763 1 : 18694 2 : 0 3 : 0 
Heartbeat_Variant_1_evicts 0 : 18690 1 : 0 2 : 0 3 : 0 
Heartbeat_Variant_2_evicts 0 : 0 1 : 0 2 : 0 3 : 0 
Heartbeat_Variant_3_evicts 0 : 0 1 : 0 2 : 0 3 : 0 
Heartbeat CPU 0 instructions: 80000002 cycles: 40329678 heartbeat IPC: 1.13432 cumulative IPC: 1.13875 (Simulation time: 0 hr 16 min 50 sec) 
Heartbeat_Variant_0 : 1157 0.282471 per_variant_size: 0 1157 0 0 0 0 0 0 0 
Heartbeat_Variant_1 : 2477 0.604736 per_variant_size: 0 409 2068 0 0 0 0 0 0 
Heartbeat_Variant_2 : 0 0 per_variant_size: 0 0 0 0 0 0 0 0 0 
Heartbeat_Variant_3 : 0 0 per_variant_size: 0 0 0 0 0 0 0 0 0 
Heartbeat_Variant_0_evicts 0 : 22237 1 : 18224 2 : 0 3 : 0 
Heartbeat_Variant_1_evicts 0 : 18218 1 : 0 2 : 0 3 : 0 
Heartbeat_Variant_2_evicts 0 : 0 1 : 0 2 : 0 3 : 0 
Heartbeat_Variant_3_evicts 0 : 0 1 : 0 2 : 0 3 : 0 
Heartbeat CPU 0 instructions: 90000000 cycles: 49164572 heartbeat IPC: 1.13188 cumulative IPC: 1.13703 (Simulation time: 0 hr 18 min 45 sec) 
Cycle: 50000000 FTQ IN: 11344349 FTQ occupancy: 6.84917 DECODE IN: 11344410 DECODE occupancy: 15.006 ROB IN: 11344410 ROB occupancy: 128.335 ROB OUT: 11344496
Heartbeat_Variant_0 : 1151 0.281006 per_variant_size: 0 1151 0 0 0 0 0 0 0 
Heartbeat_Variant_1 : 2483 0.606201 per_variant_size: 0 413 2070 0 0 0 0 0 0 
Heartbeat_Variant_2 : 0 0 per_variant_size: 0 0 0 0 0 0 0 0 0 
Heartbeat_Variant_3 : 0 0 per_variant_size: 0 0 0 0 0 0 0 0 0 
Heartbeat_Variant_0_evicts 0 : 22025 1 : 18225 2 : 0 3 : 0 
Heartbeat_Variant_1_evicts 0 : 18231 1 : 0 2 : 0 3 : 0 
Heartbeat_Variant_2_evicts 0 : 0 1 : 0 2 : 0 3 : 0 
Heartbeat_Variant_3_evicts 0 : 0 1 : 0 2 : 0 3 : 0 
Heartbeat CPU 0 instructions: 100000001 cycles: 57819592 heartbeat IPC: 1.1554 cumulative IPC: 1.14065 (Simulation time: 0 hr 20 min 48 sec) 
Finished CPU 0 instructions: 50000003 cycles: 43834483 cumulative IPC: 1.14065 (Simulation time: 0 hr 20 min 48 sec) 

ChampSim completed all CPUs

Region of Interest Statistics

CPU 0 cumulative IPC: 1.14065 instructions: 50000003 cycles: 43834483
 Fetch stage stalled: 70.2547  Sim cycles: 43834483 fetch stall cycle: 30795777
 Empty decode stage: 58.7778  Sim cycles: 43834483 fetch stall cycle: 25764939
ITLB TOTAL     ACCESS:    5605030  HIT:    5113435  MISS:     491595  HIT %:    91.2294  MISS %:     8.7706   MPKI: 9.8319
ITLB LOAD TRANSLATION INSTRUCTION	ACCESS:    5497641  HIT:    5006046  MISS:     491595  HIT %:    91.0581  MISS %:    8.94193  MPKI: 9.8319
ITLB TRANSLATION FROM L1D PREFETCHER INSTRUCTION	ACCESS:     107389  HIT:     107389  MISS:          0  HIT %:        100  MISS %:          0  MPKI: 0

ITLB AVERAGE MISS LATENCY: 9.05412 cycles
ITLB RQ	ACCESS:    7434703	FORWARD:          0	MERGED:    1337008	TO_CACHE:    6097695

DTLB TOTAL     ACCESS:    9278859  HIT:    8808552  MISS:     470307  HIT %:    94.9314  MISS %:    5.06859   MPKI: 9.40614
DTLB LOAD TRANSLATION DATA	ACCESS:    9278859  HIT:    8808552  MISS:     470307  HIT %:    94.9314  MISS %:    5.06859  MPKI: 9.40614

DTLB AVERAGE MISS LATENCY: 9.34559 cycles
DTLB RQ	ACCESS:   13562981	FORWARD:          0	MERGED:    4249448	TO_CACHE:    9313533

STLB TOTAL     ACCESS:    1211151  HIT:    1209123  MISS:       2028  HIT %:    99.8326  MISS %:   0.167444   MPKI: 0.04056
STLB LOAD TRANSLATION INSTRUCTION	ACCESS:     491595  HIT:     491343  MISS:        252  HIT %:    99.9487  MISS %:  0.0512617  MPKI: 0.00504
STLB LOAD TRANSLATION DATA	ACCESS:     470188  HIT:     468437  MISS:       1751  HIT %:    99.6276  MISS %:   0.372404  MPKI: 0.03502
STLB TRANSLATION FROM L1D PREFETCHER DATA	ACCESS:     249368  HIT:     249343  MISS:         25  HIT %:      99.99  MISS %:  0.0100253  MPKI: 0.0005

STLB AVERAGE MISS LATENCY: 80.5888 cycles
STLB RQ	ACCESS:    1332920	FORWARD:          0	MERGED:     121738	TO_CACHE:    1211182

STLB Hit, L1D data hit: 0
STLB Hit, L2C data hit: 0
STLB Hit, LLC data hit: 0
STLB Hit, LLC data miss: 0
STLB STLB hints to L2: 0
L1D TOTAL     ACCESS:   13327698  HIT:   12217414  MISS:    1110284  HIT %:    91.6693  MISS %:    8.33065   MPKI: 22.2057
L1D LOAD DATA	ACCESS:    6764936  HIT:    6034426  MISS:     730510  HIT %:    89.2015  MISS %:    10.7985  MPKI: 14.6102
L1D RFO DATA	ACCESS:    6231928  HIT:    5946197  MISS:     285731  HIT %:     95.415  MISS %:    4.58495  MPKI: 5.71462
L1D PREFETCH DATA	ACCESS:     330834  HIT:     236791  MISS:      94043  HIT %:     71.574  MISS %:     28.426  MPKI: 1.88086

L1D PREFETCH  REQUESTED:     742349  ISSUED:     742349  USEFUL:      33648  USELESS:      68092
L1D USEFUL LOAD PREFETCHES:      33648 PREFETCH ISSUED TO LOWER LEVEL:     101791  ACCURACY: 33.056
 TIMELY PREFETCHES:      33648 LATE PREFETCHES: 7696 DROPPED PREFETCHES: 5
L1D AVERAGE MISS LATENCY: 244699 cycles
L1D RQ	ACCESS:   10866262	FORWARD:          0	MERGED:    3906118	TO_CACHE:    6797519
L1D WQ	ACCESS:    6942496	FORWARD:     162938	MERGED:     177034	TO_CACHE:    6765462
L1D PQ	ACCESS:     371331	FORWARD:          0	MERGED:          0	TO_CACHE:     371018

L1D UNIQUE REGIONS ACCESSED: 0
L1D REGIONS CONFLICTS: 0
L1D Cross Page Prefetch Requests: 7228
L1D Same Page Prefetch Requests: 753564
L1D ROI Sum of L1D PQ occupancy: 4720359
L1D PREFETCHES PUSHED FROM L2C: 0
L1I TOTAL     ACCESS:    6927719  HIT:    4174465  MISS:    2753254  HIT %:    60.2574  MISS %:    39.7426   MPKI: 55.0651
L1I LOAD INSTRUCTION	ACCESS:    6437293  HIT:    3684039  MISS:    2753254  HIT %:    57.2296  MISS %:    42.7704  MPKI: 55.0651
L1I PREFETCH INSTRUCTION	ACCESS:     490426  HIT:     490426  MISS:          0  HIT %:        100  MISS %:          0  MPKI: 0

L1I PREFETCH  REQUESTED:    1101955  ISSUED:    1101955  USEFUL:          0  USELESS:          0
L1I USEFUL LOAD PREFETCHES:          0 PREFETCH ISSUED TO LOWER LEVEL:          0  ACCURACY: -nan
 TIMELY PREFETCHES:          0 LATE PREFETCHES: 0 DROPPED PREFETCHES: 0
L1I AVERAGE MISS LATENCY: 17.3026 cycles
L1I RQ	ACCESS:    9450693	FORWARD:          0	MERGED:    2799260	TO_CACHE:    6651433
L1I PQ	ACCESS:    1101955	FORWARD:          0	MERGED:     318685	TO_CACHE:     783270

L1BTB TOTAL     ACCESS:    5671765  HIT:    2053902  MISS:    3617863  HIT %:    36.2127  MISS %:    63.7873   MPKI: 72.3573
L1BTB BRANCH_DIRECT_JUMP	ACCESS:     549084 HIT:     145898 MISS:     403186 AVERAGE STALL: 37.8946 AVERAGE FETCH STALL: 19.5831 AVERAGE FETCH QUEUE STALL: 9.18486 AVERAGE DECODE STALL: 8.335 AVERAGE EXECUTE STALL: 3.85222e+14
L1BTB BRANCH_INDIRECT	ACCESS:     183449 HIT:      66430 MISS:     117019 AVERAGE STALL: 92.9294 AVERAGE FETCH STALL: 15.4768 AVERAGE FETCH QUEUE STALL: 8.83769 AVERAGE DECODE STALL: 7.40658 AVERAGE EXECUTE STALL: 60.2678
L1BTB BRANCH_CONDITIONAL	ACCESS:    2713342 HIT:    1424502 MISS:    1288840 AVERAGE STALL: 36.8878 AVERAGE FETCH STALL: 22.4497 AVERAGE FETCH QUEUE STALL: 6.80066 AVERAGE DECODE STALL: 6.88687 AVERAGE EXECUTE STALL: 1.65687e+14
L1BTB BRANCH_DIRECT_CALL	ACCESS:     941972 HIT:     105580 MISS:     836392 AVERAGE STALL: 38.0938 AVERAGE FETCH STALL: 21.9936 AVERAGE FETCH QUEUE STALL: 7.42906 AVERAGE DECODE STALL: 7.91618 AVERAGE EXECUTE STALL: 1.08269e+14
L1BTB BRANCH_INDIRECT_CALL	ACCESS:     170971 HIT:      21075 MISS:     149896 AVERAGE STALL: 115.727 AVERAGE FETCH STALL: 17.7617 AVERAGE FETCH QUEUE STALL: 6.51099 AVERAGE DECODE STALL: 6.8513 AVERAGE EXECUTE STALL: 84.081
L1BTB BRANCH_RETURN	ACCESS:    1112947 HIT:     290417 MISS:     822530 AVERAGE STALL: 37.5733 AVERAGE FETCH STALL: 18.1748 AVERAGE FETCH QUEUE STALL: 5.97662 AVERAGE DECODE STALL: 6.44372 AVERAGE EXECUTE STALL: 1.95125e+14
L1BTB BRANCH_OTHER ACCESS:          0 HIT:          0 MISS:          0 AVERAGE STALL: -nan AVERAGE FETCH STALL: -nan AVERAGE FETCH QUEUE STALL: -nan AVERAGE DECODE STALL: -nan AVERAGE EXECUTE STALL: -nan
L1BTB TOTAL ROB OCCUPANCY AT BTB MISS: 13.8696

L2BTB TOTAL     ACCESS:    3592368  HIT:    3130089  MISS:     462279  HIT %:    87.1316  MISS %:    12.8684   MPKI: 9.24558
L2BTB BRANCH_DIRECT_JUMP	ACCESS:     398962 HIT:     355241 MISS:      43721 AVERAGE STALL: 37.8946 AVERAGE FETCH STALL: 19.5831 AVERAGE FETCH QUEUE STALL: 9.18486 AVERAGE DECODE STALL: 8.335 AVERAGE EXECUTE STALL: 3.85222e+14
L2BTB BRANCH_INDIRECT	ACCESS:     106743 HIT:      97362 MISS:       9381 AVERAGE STALL: 92.9294 AVERAGE FETCH STALL: 15.4768 AVERAGE FETCH QUEUE STALL: 8.83769 AVERAGE DECODE STALL: 7.40658 AVERAGE EXECUTE STALL: 60.2678
L2BTB BRANCH_CONDITIONAL	ACCESS:    1288840 HIT:    1176971 MISS:     111869 AVERAGE STALL: 36.8878 AVERAGE FETCH STALL: 22.4497 AVERAGE FETCH QUEUE STALL: 6.80066 AVERAGE DECODE STALL: 6.88687 AVERAGE EXECUTE STALL: 1.65687e+14
L2BTB BRANCH_DIRECT_CALL	ACCESS:     836392 HIT:     665903 MISS:     170489 AVERAGE STALL: 38.0938 AVERAGE FETCH STALL: 21.9936 AVERAGE FETCH QUEUE STALL: 7.42906 AVERAGE DECODE STALL: 7.91618 AVERAGE EXECUTE STALL: 1.08269e+14
L2BTB BRANCH_INDIRECT_CALL	ACCESS:     140312 HIT:     106701 MISS:      33611 AVERAGE STALL: 115.727 AVERAGE FETCH STALL: 17.7617 AVERAGE FETCH QUEUE STALL: 6.51099 AVERAGE DECODE STALL: 6.8513 AVERAGE EXECUTE STALL: 84.081
L2BTB BRANCH_RETURN	ACCESS:     821119 HIT:     727911 MISS:      93208 AVERAGE STALL: 37.5733 AVERAGE FETCH STALL: 18.1748 AVERAGE FETCH QUEUE STALL: 5.97662 AVERAGE DECODE STALL: 6.44372 AVERAGE EXECUTE STALL: 1.95125e+14
L2BTB BRANCH_OTHER ACCESS:          0 HIT:          0 MISS:          0 AVERAGE STALL: -nan AVERAGE FETCH STALL: -nan AVERAGE FETCH QUEUE STALL: -nan AVERAGE DECODE STALL: -nan AVERAGE EXECUTE STALL: -nan
L2BTB TOTAL ROB OCCUPANCY AT BTB MISS: 108.545

L2C TOTAL     ACCESS:    4469700  HIT:    3974839  MISS:     494861  HIT %:    88.9285  MISS %:    11.0715   MPKI: 9.89722
L2C LOAD INSTRUCTION	ACCESS:    2753253  HIT:    2491402  MISS:     261851  HIT %:    90.4894  MISS %:     9.5106  MPKI: 5.23702
L2C LOAD TRANSLATION INSTRUCTION	ACCESS:        289  HIT:         75  MISS:        214  HIT %:    25.9516  MISS %:    74.0484  MPKI: 0.00428
L2C LOAD DATA	ACCESS:     722779  HIT:     645619  MISS:      77160  HIT %:    89.3245  MISS %:    10.6755  MPKI: 1.5432
L2C RFO DATA	ACCESS:     285642  HIT:     227239  MISS:      58403  HIT %:    79.5538  MISS %:    20.4462  MPKI: 1.16806
L2C PREFETCH DATA	ACCESS:     186825  HIT:     109355  MISS:      77470  HIT %:    58.5334  MISS %:    41.4666  MPKI: 1.5494
L2C WRITEBACK DATA	ACCESS:     519025  HIT:     500604  MISS:      18421  HIT %:    96.4508  MISS %:    3.54915  MPKI: 0.36842
L2C LOAD TRANSLATION DATA	ACCESS:       1845  HIT:        515  MISS:       1330  HIT %:    27.9133  MISS %:    72.0867  MPKI: 0.0266
L2C TRANSLATION FROM L1D PREFETCHER DATA	ACCESS:         42  HIT:         30  MISS:         12  HIT %:    71.4286  MISS %:    28.5714  MPKI: 0.00024

L2C PREFETCH  REQUESTED:      92978  ISSUED:      92978  USEFUL:       8739  USELESS:      69162
L2C USEFUL LOAD PREFETCHES:       8739 PREFETCH ISSUED TO LOWER LEVEL:      77858  ACCURACY: 11.2243
 TIMELY PREFETCHES:       8739 LATE PREFETCHES: 388 DROPPED PREFETCHES: 0
L2C AVERAGE MISS LATENCY: 38.2571 cycles
L2C RQ	ACCESS:    3763923	FORWARD:          0	MERGED:          0	TO_CACHE:    3763851
L2C WQ	ACCESS:     519025	FORWARD:         72	MERGED:          0	TO_CACHE:     519025
L2C PQ	ACCESS:     194769	FORWARD:          0	MERGED:       4162	TO_CACHE:     190607

L2C Dense regions hint from L2: 0
PSCL5 TOTAL     ACCESS:       4066  HIT:       2033  MISS:       2033  HIT %:         50  MISS %:         50   MPKI: 0.04066
PSCL5 LOAD TRANSLATION INSTRUCTION	ACCESS:       3986  HIT:       1993  MISS:       1993  HIT %:         50  MISS %:         50  MPKI: 0.03986
PSCL5 TRANSLATION FROM L1D PREFETCHER INSTRUCTION	ACCESS:         80  HIT:         40  MISS:         40  HIT %:         50  MISS %:         50  MPKI: 0.0008


PSCL4 TOTAL     ACCESS:       3969  HIT:       1980  MISS:       1989  HIT %:    49.8866  MISS %:    50.1134   MPKI: 0.03978
PSCL4 LOAD TRANSLATION INSTRUCTION	ACCESS:       2106  HIT:       1940  MISS:        166  HIT %:    92.1178  MISS %:    7.88224  MPKI: 0.00332
PSCL4 TRANSLATION FROM L1D PREFETCHER INSTRUCTION	ACCESS:         40  HIT:         40  MISS:          0  HIT %:        100  MISS %:          0  MPKI: 0
PSCL4 LOAD TRANSLATION DATA	ACCESS:       1783  HIT:          0  MISS:       1783  HIT %:          0  MISS %:        100  MPKI: 0.03566
PSCL4 TRANSLATION FROM L1D PREFETCHER DATA	ACCESS:         40  HIT:          0  MISS:         40  HIT %:          0  MISS %:        100  MPKI: 0.0008


PSCL3 TOTAL     ACCESS:       4011  HIT:       2001  MISS:       2010  HIT %:    49.8878  MISS %:    50.1122   MPKI: 0.0402
PSCL3 LOAD TRANSLATION INSTRUCTION	ACCESS:       2127  HIT:       1961  MISS:        166  HIT %:    92.1956  MISS %:    7.80442  MPKI: 0.00332
PSCL3 TRANSLATION FROM L1D PREFETCHER INSTRUCTION	ACCESS:         40  HIT:         40  MISS:          0  HIT %:        100  MISS %:          0  MPKI: 0
PSCL3 LOAD TRANSLATION DATA	ACCESS:       1804  HIT:          0  MISS:       1804  HIT %:          0  MISS %:        100  MPKI: 0.03608
PSCL3 TRANSLATION FROM L1D PREFETCHER DATA	ACCESS:         40  HIT:          0  MISS:         40  HIT %:          0  MISS %:        100  MPKI: 0.0008


PSCL2 TOTAL     ACCESS:       3936  HIT:       1904  MISS:       2032  HIT %:     48.374  MISS %:     51.626   MPKI: 0.04064
PSCL2 LOAD TRANSLATION INSTRUCTION	ACCESS:       2125  HIT:       1866  MISS:        259  HIT %:    87.8118  MISS %:    12.1882  MPKI: 0.00518
PSCL2 TRANSLATION FROM L1D PREFETCHER INSTRUCTION	ACCESS:         38  HIT:         38  MISS:          0  HIT %:        100  MISS %:          0  MPKI: 0
PSCL2 LOAD TRANSLATION DATA	ACCESS:       1735  HIT:          0  MISS:       1735  HIT %:          0  MISS %:        100  MPKI: 0.0347
PSCL2 TRANSLATION FROM L1D PREFETCHER DATA	ACCESS:         38  HIT:          0  MISS:         38  HIT %:          0  MISS %:        100  MPKI: 0.00076


LLC TOTAL     ACCESS:     560325  HIT:     531003  MISS:      29322  HIT %:     94.767  MISS %:    5.23303   MPKI: 0.58644
LLC LOAD INSTRUCTION	ACCESS:     261851  HIT:     260635  MISS:       1216  HIT %:    99.5356  MISS %:   0.464386  MPKI: 0.02432
LLC LOAD TRANSLATION INSTRUCTION	ACCESS:        214  HIT:        175  MISS:         39  HIT %:    81.7757  MISS %:    18.2243  MPKI: 0.00078
LLC LOAD DATA	ACCESS:      76792  HIT:      73180  MISS:       3612  HIT %:    95.2964  MISS %:    4.70361  MPKI: 0.07224
LLC RFO DATA	ACCESS:      58376  HIT:      44225  MISS:      14151  HIT %:    75.7589  MISS %:    24.2411  MPKI: 0.28302
LLC PREFETCH DATA	ACCESS:      77858  HIT:      67997  MISS:       9861  HIT %:    87.3346  MISS %:    12.6654  MPKI: 0.19722
LLC WRITEBACK DATA	ACCESS:      83892  HIT:      83564  MISS:        328  HIT %:     99.609  MISS %:   0.390979  MPKI: 0.00656
LLC LOAD TRANSLATION DATA	ACCESS:       1330  HIT:       1215  MISS:        115  HIT %:    91.3534  MISS %:    8.64662  MPKI: 0.0023
LLC TRANSLATION FROM L1D PREFETCHER DATA	ACCESS:         12  HIT:         12  MISS:          0  HIT %:        100  MISS %:          0  MPKI: 0

LLC AVERAGE MISS LATENCY: 156.65 cycles
LLC RQ	ACCESS:     398582	FORWARD:          0	MERGED:          0	TO_CACHE:     398575
LLC WQ	ACCESS:      83892	FORWARD:          7	MERGED:          0	TO_CACHE:      83892
LLC PQ	ACCESS:      77858	FORWARD:          0	MERGED:          0	TO_CACHE:      77858

LLC Dense regions hint to LLC: 0

RAW hits: 1768462
Loads Generated: 12634724
Loads sent to L1D: 10866262
Stores Generated: 6942481
Stores sent to L1D: 6942496
Major fault: 0 Minor fault: 2574
Allocated PAGES: 2574

stream: 
stream:times selected: 1198846
stream:pref_filled: 120227
stream:pref_useful: 23355
stream:pref_late: 6519
stream:misses: 8199
stream:misses_by_poll: 0

CS: 
CS:times selected: 177586
CS:pref_filled: 58883
CS:pref_useful: 35629
CS:pref_late: 6580
CS:misses: 15915
CS:misses_by_poll: 8

CPLX: 
CPLX:times selected: 1020149
CPLX:pref_filled: 19237
CPLX:pref_useful: 4452
CPLX:pref_late: 2918
CPLX:misses: 91935
CPLX:misses_by_poll: 0

NL_L1: 
NL:times selected: 21508
NL:pref_filled: 689
NL:pref_useful: 263
NL:pref_late: 374
NL:misses: 1832
NL:misses_by_poll: 0

total selections: 2418089
total_filled: 94043
total_useful: 33648
total_late: 17753
total_polluted: 8
total_misses_after_warmup: 763093
conflicts: 5611913

test: 119970

DRAM Statistics
 CHANNEL 0
 RQ ROW_BUFFER_HIT:      10610  ROW_BUFFER_MISS:      18381
 DBUS_CONGESTED:          8
 WQ ROW_BUFFER_HIT:       1575  ROW_BUFFER_MISS:      13089  FULL:          0

 AVG_CONGESTED_CYCLE: 5

CPU 0 Branch Prediction Accuracy: 99.8082% MPKI: 0.35064 Average ROB Occupancy at Mispredict: 134.676
Branch types
NOT_BRANCH: 40857105 81.7142%
BRANCH_DIRECT_JUMP: 549084 1.09817%
BRANCH_INDIRECT: 183449 0.366898%
BRANCH_CONDITIONAL: 6184001 12.368%
BRANCH_DIRECT_CALL: 941972 1.88394%
BRANCH_INDIRECT_CALL: 170971 0.341942%
BRANCH_RETURN: 1112947 2.22589%
BRANCH_OTHER: 0 0%

DRAM PAGES: 1048576
Allocated PAGES: 2574
Average_ROB_Occupancy: 130.089
Average_Decode_Occupancy: 15.1131
Average_FTQ_Occupancy: 6.92616
Indirect max targets: 14 Average targets: 1.17778
Branch_type:  BRANCH_DIRECT_JUMP:  Count Percentage: 3.34955 4.54469 3.83775 6.80616 3.54135 2.84861 4.13159 70.9403 
Branch_type:  BRANCH_INDIRECT:  Count Percentage: 11.7114 3.50663 2.63739 9.69583 3.33104 2.79447 1.72378 64.5994 
Branch_type:  BRANCH_CONDITIONAL:  Count Percentage: 21.1981 2.89417 2.17243 4.66176 2.40832 2.24656 3.12414 61.2946 
Branch_type:  BRANCH_DIRECT_CALL:  Count Percentage: 0.856709 1.24599 0.776957 3.87216 3.42396 1.95092 4.32766 83.5457 
Branch_type:  BRANCH_INDIRECT_CALL:  Count Percentage: 9.5428 0 2.98883 5.3345 0.845531 1.71071 3.84551 75.7321 
Branch_type:  BRANCH_RETURN:  Count Percentage: 4.68554 1.38843 2.39009 4.38936 4.24668 3.16822 3.60695 76.1247 
Branch_type:  BRANCH_DIRECT_JUMP:  Total Count: 36796 49925 42159 74768 38903 31293 45387 779304 
Branch_type:  BRANCH_INDIRECT:  Total Count: 43020 12881 9688 35616 12236 10265 6332 237295 
Branch_type:  BRANCH_CONDITIONAL:  Total Count: 2621692 357940 268678 576548 297851 277846 386381 7580669 
Branch_type:  BRANCH_DIRECT_CALL:  Total Count: 16081 23388 14584 72683 64270 36620 81233 1568207 
Branch_type:  BRANCH_INDIRECT_CALL:  Total Count: 32538 0 10191 18189 2883 5833 13112 258223 
Branch_type:  BRANCH_RETURN:  Total Count: 103968 30808 53034 97396 94230 70300 80035 1689139 
Number of unique branch instructions: 10885
Upper 32 bits: 
aaaa
ffff
ffff0000
Unique upper 32 bits: 3
Unique upper 36 bits: 3
Unique upper 40 bits: 5
Unique upper 44 bits: 32
Unique upper 48 bits: 158
Variant_0 : 1151 0.281006
Variant_1 : 2483 0.606201
Variant_2 : 0 0
Variant_3 : 0 0
Offset_3 4506
Offset_4 263
Offset_5 488
Offset_6 553
Offset_7 650
Offset_8 592
Offset_9 523
Offset_10 428
Offset_11 356
Offset_12 326
Offset_13 242
Offset_14 247
Offset_15 205
Offset_16 233
Offset_17 170
Offset_18 154
Offset_19 272
Offset_20 147
Offset_21 235
Offset_22 412
Offset_23 241
Offset_24 348
Offset_25 117
Offset_47 92
Offset_64 4
decode_dispatch_called: 19940546 45.4905
Dispatch_width: 0 9803780 49.1651 22.3655
Dispatch_width: 1 566529 2.84109 1.29243
Dispatch_width: 2 674740 3.38376 1.53929
Dispatch_width: 3 426754 2.14013 0.973558
Dispatch_width: 4 1849215 9.27364 4.21863
Dispatch_width: 5 310631 1.55779 0.708645
Dispatch_width: 6 6308897 31.6385 14.3925
Empty_decode_cycles: 23893937 54.5095
ROB_full_cycles: 2719969 6.20509
Starvation_cycles_per_kilo_instr: 348.056
Starvation_cycles_per_kilo_instr_3: 326.458
Starvation_cycles_per_kilo_instr_0: 309.777
Branch_type_1  (3,1)  (4,9)  (5,39)  (6,76)  (7,126)  (8,153)  (9,138)  (10,111)  (11,79)  (12,55)  (13,11)  (14,2)  (15,3)  (16,4)  (18,1)  (19,5)  (20,2)  (21,1)  (22,3)  (23,2)  (24,10)  (25,12) 
Branch_type_2  (3,1)  (4,1)  (5,1)  (8,4)  (9,4)  (10,1)  (12,1)  (13,1)  (14,1)  (16,3)  (17,2)  (20,2)  (21,2)  (23,5)  (24,1)  (47,41) 
Branch_type_3  (3,4504)  (4,253)  (5,444)  (6,460)  (7,491)  (8,366)  (9,285)  (10,173)  (11,140)  (12,62)  (13,10)  (64,3) 
Branch_type_4  (6,4)  (7,8)  (8,27)  (9,58)  (10,68)  (11,71)  (12,117)  (13,103)  (14,112)  (15,98)  (16,104)  (17,77)  (18,66)  (19,132)  (20,75)  (21,124)  (22,217)  (23,136)  (24,203)  (25,101) 
Branch_type_5  (8,3)  (9,1)  (10,4)  (11,5)  (12,3)  (13,14)  (14,16)  (15,11)  (16,22)  (17,13)  (18,23)  (19,14)  (20,11)  (21,13)  (22,43)  (23,26)  (24,38) 
Branch_type_6  (5,4)  (6,13)  (7,25)  (8,39)  (9,37)  (10,71)  (11,61)  (12,88)  (13,103)  (14,116)  (15,93)  (16,100)  (17,78)  (18,64)  (19,121)  (20,57)  (21,95)  (22,149)  (23,72)  (24,96)  (25,4)  (47,51)  (64,1) 
Unique trigger count: 
Variant_0_evicts_0 : 0
Variant_0_evicts_1 : 0
Variant_0_evicts_2 : 0
Variant_0_evicts_3 : 0
Variant_1_evicts_0 : 0
Variant_1_evicts_1 : 0
Variant_1_evicts_2 : 0
Variant_1_evicts_3 : 0
Variant_2_evicts_0 : 0
Variant_2_evicts_1 : 0
Variant_2_evicts_2 : 0
Variant_2_evicts_3 : 0
Variant_3_evicts_0 : 0
Variant_3_evicts_1 : 0
Variant_3_evicts_2 : 0
Variant_3_evicts_3 : 0
BTB PER SET UNIQUE ADDR: 6 7 6 5 3 4 7 9 10 2 5 2 8 5 4 4 6 4 8 9 6 8 8 8 8 11 2 7 6 7 10 10 6 5 8 4 4 7 8 3 8 5 7 10 9 9 6 12 11 6 5 3 13 2 2 7 5 5 9 8 4 11 5 8 6 10 8 9 6 7 6 2 6 5 6 7 6 15 7 5 9 7 7 6 6 7 7 8 8 11 10 9 9 6 7 5 11 8 5 6 8 7 9 9 7 8 8 8 7 5 7 7 4 8 6 11 3 8 6 2 8 9 4 3 6 4 4 7 11 8 11 3 11 6 9 7 5 3 6 8 8 8 7 7 5 11 5 8 12 7 8 14 7 10 6 9 7 9 8 11 11 8 12 5 12 7 3 4 13 7 6 4 8 8 4 3 6 8 10 5 6 7 10 8 9 12 6 6 6 8 5 8 6 7 6 10 12 4 11 6 4 6 9 4 8 4 5 8 7 2 3 6 9 9 7 6 4 9 8 6 6 4 6 7 7 8 14 7 3 11 14 9 4 5 7 9 11 6 4 5 5 3 11 8 16 11 2 7 6 7 9 10 6 7 5 13 4 7 10 6 8 5 7 4 9 15 6 5 7 5 7 7 4 9 11 9 7 4 4 8 8 5 10 5 9 9 8 7 8 4 5 7 4 12 7 4 6 10 6 6 6 6 5 4 7 5 6 4 13 9 7 5 8 4 6 5 10 14 7 6 7 11 5 9 5 6 6 10 3 3 9 2 6 7 10 5 8 9 8 1 6 6 2 10 7 7 3 10 12 6 5 13 11 6 8 7 7 2 8 5 7 11 6 8 11 8 4 4 4 5 8 4 7 5 8 4 11 8 7 10 10 7 7 13 6 5 9 5 8 5 9 6 8 4 7 4 5 5 2 10 7 5 7 7 5 6 8 5 4 3 5 4 11 7 2 6 10 4 2 7 2 6 7 8 11 9 5 2 4 9 3 4 15 5 8 10 6 6 7 4 5 6 10 3 7 9 6 6 5 5 6 3 5 3 9 3 6 7 10 6 5 4 6 12 6 5 13 4 6 7 2 6 10 8 5 3 10 5 3 3 5 2 3 4 3 7 8 4 8 2 13 5 4 9 3 12 4 7 5 5 11 3 5 4 3 5 5 3 5 6 9 4 8 11 3 4 2 10 6 9 7 5 8 6 11 9 6 10 9 8 7 6 6 8 5 8 7 2 6 4 5 8 10 4 9 5 10 13 14 11 7 8 7 7 2 6 9 3 7 4 10 5 9 5 5 6 10 9 11 7 8 4 11 12 7 7 7 12 3 9 13 5 2 6 5 3 3 14 7 5 8 8 4 7 5 5 9 6 7 6 12 6 11 12 8 5 5 9 8 5 8 8 7 6 8 5 7 5 5 7 9 7 11 4 5 12 8 8 4 6 8 7 8 7 7 8 6 7 6 4 11 9 4 6 3 3 7 8 8 7 8 4 11 3 5 2 11 5 6 8 14 3 7 11 8 8 8 6 6 11 7 8 6 8 14 9 8 6 8 6 9 12 9 6 10 8 7 8 8 6 3 8 3 5 5 7 10 7 7 9 3 11 4 6 7 12 4 4 5 5 7 7 6 6 5 7 12 7 1 8 5 3 5 4 4 3 4 9 2 11 8 11 8 3 7 7 11 3 7 5 5 9 5 10 4 6 6 4 6 7 7 3 5 7 2 5 5 10 10 4 5 7 6 7 7 6 14 7 6 3 10 7 0 5 7 5 6 10 3 3 8 6 4 6 10 9 9 7 3 9 3 9 6 7 7 13 12 5 5 6 12 4 10 4 8 6 7 9 5 7 3 5 6 6 5 7 1 5 5 10 7 4 10 4 5 5 7 3 7 6 7 3 7 4 10 5 4 5 6 5 5 5 7 6 5 9 9 6 6 4 8 8 6 9 6 11 7 5 7 7 7 7 4 4 14 7 6 8 10 9 5 6 6 10 7 2 2 6 8 4 5 7 7 7 10 5 7 5 5 8 9 4 6 8 6 4 9 13 6 4 12 9 4 6 9 7 8 11 6 9 9 7 5 4 3 9 6 6 8 6 9 7 10 6 9 8 7 5 5 12 6 4 11 10 6 8 10 11 3 10 8 9 6 4 6 8 9 8 9 6 10 4 13 8 4 7 9 14 6 9 6 7 10 5 3 9 10 9 10 5 3 6 3 10 13 6 8 5 4 7 13 6 5 6 5 8 4 6 9 7 8 7 7 11 5 11 7 11 5 6 5 5 6 5 8 6 7 6 6 6 9 4 9 7 11 4 9 5 3 8 11 6 14 5 
BTB PER SET COUNT: 8 7 7 6 3 5 8 2046 5304 2 5 2 1542 5 4 6 6 5 38 3507 6 9 9 71 4806 2533 2 8 1461 7 5497 1384 1546 5 9 6 2916 8 17 3 27 6 13 2840 2594 12 6 5061 3036 6 5 5 10366 2 2 1536 10 5 1033 1345 6 3105 7 24 7 1340 418 27 6 768 768 2 7 6 9 7 517 6939 19 5 943 13 1025 6 886 11 7 137 8084 2219 1848 466 2046 8 8 5 2703 15 5 6 18 12 24 3280 10 52 14 2358 2048 10 2042 8 4 1783 6 4601 3 8 6 2 8 23 8 4 525 4 4 9 7451 15 2081 3 8545 10 3037 10 5 3 6 2023 22 15 8 7 6 795 7 8 1467 2535 10 6016 7 9925 11 858 7 2034 11 1602 4839 14 4803 5 1420 2843 3 5 10329 7 7 4 17 127 5 5 6 524 2556 5 6 8 5411 12 11 6792 11 6 2832 19 5 3663 6 10 6 35 980 5 33 6 4 7 12 5 9 4 5 2943 10 2 3 12 126 17 10 8 4 615 22 6 6 4 7 8 7 2034 5780 3270 5 4355 7938 945 4 7 15 2533 2425 8 4 5 5 3 6398 9 7010 3518 2 7 6 10 181 3988 7 11 6 3154 4 10 1651 9 2254 5 7 6 2199 6963 1896 5 2054 5 1919 15 5 2024 1051 863 7 5 4 2560 10 5 1332 5 2897 3066 11 514 28 4 5 7 514 2555 3064 9 12 4187 7 7 6 6 5 8 9 5 6 4 4422 1657 18 5 2205 4 8 9 1034 4035 2046 9 8 1176 6 13 5 6 6 1476 3 3 2310 3 9 8 5365 9 1541 16 13 1 6 6 2 2457 1030 839 3 14 358 9 7 758 414 1503 8 11 11 3 2084 48 9 660 9 1916 982 1466 4 5 4 5 11 6 14 5 30 4 5775 14 9 2203 2556 2529 7 7207 9 6 48 5 12 5 1516 6 2546 5 11 6 1462 11 4 19 10 5 1525 13 751 7 2921 6 4 2718 13 4 1510 10 1452 6 141 4 5 1426 3 6 7 18 1081 14 11 2 4 26 145 4 6659 6 1586 2202 7 6 15 6 7 7 1448 4 13 34 6 1969 5 6 6 3 5 4 1641 4 6 13 557 6 1016 4 14 814 37 6 4952 4 8 8 2 20 1942 521 191 3 25700 5 3 3 5 2 3 513 3 86 1796 380 15 2 1160 5 6 1274 3 4752 8 25 6 6 3021 9 12 4 3 10 5 3 6 6 28 6 10 34 4 4 2 11176 7 986 13 1460 12 770 134 2030 8 1035 1800 22 8 7 6 17 5 934 12 2 16 4 6 2045 120 8 28 5 53 2335 4270 8147 10 3807 8 8 3 6 1562 3 7 5 4730 5 2044 7 5 6 1849 25 2700 43 3323 7 2567 5705 1523 1522 13 5477 3 4416 10006 42 2 1537 1460 3 3 6720 15 7 11 2559 5 952 1894 5 12 6 8 6 1687 8 4743 1043 9 3053 6 3022 10 6 3074 13 16 6 9 7 2545 5 7 7 24 1285 4579 4 1462 1125 40 1267 11 1537 1541 1462 11 10 7 11 8 10 11 4 7276 1050 4 7 3 3 12 10 753 7 12 4 8213 4 5 5 1030 5 1536 3065 13105 3 8 6370 9 1819 2935 1027 24 2054 1046 10 11 12 6980 3260 521 6 2513 6 17 6420 24 1025 17489 1548 26 4517 1522 14 5 1290 3 7 5 12 6840 7 8 95 3 2593 4 6 196 4364 4 1461 5 1461 150 7 7 8 1026 7 2198 1097 1 2034 9 4 5 5 4 5 4 1029 2 6051 1536 4097 957 3 8 8 22 4 11 6 12 938 6 8193 4 8 724 5 6 1018 18 3 5 896 2 5 5 2291 6177 949 5 10 951 18 2748 6 9237 7 8 4 502 9 0 130 7 1462 12 3117 3 3 2551 9 4 6 1936 1921 1043 19 471 1037 4 1882 6 11 396 7661 3228 5 6 6 4302 6 823 4 2069 2420 11 38 5 11 3 6 6 452 5 7 3 5 9 2404 10 4 527 374 5 8 953 3 1522 53 529 3 514 4 8027 5 11 5 6 5 402 5 10 1465 5 25 1163 6 8 6 3569 1592 8 10 9 9188 31 6 1531 16 9 7 4 4 8747 1001 9 2055 2560 217 5 6 6 1504 7 2 3 7 10 4 7 11 9 7 2773 11 1727 5 5 10 13 4 6 50 6 4 21 3987 8 4 5368 1902 146 64 784 10 11 3488 7 20 2072 7 7 5 6 171 7 1018 5082 2042 38 46 2043 6 1361 1633 12 7 5 1095 7 515 4072 1945 8 1024 5008 3038 3 3579 24 180 9 949 12 1543 21 257 25 8 3663 4 7146 10 5 8 2097 8388 12 3566 6 523 7386 5 7 1125 163 734 41 6 3 6 3 395 2614 6 965 5 5 7 2812 6 515 7 5 17 4 7 36 9 3087 13 2549 3134 5 1967 9 5594 5 9 6 7 9 5 13 6 1018 14 8 9 3077 4 7156 390 3010 5 1070 6 3 12 1501 9 3589 5 
To predecode: 0
Predecoding something: 0
Predecode request dropped: 0
sizeofblock_0 0
sizeofblock_1 224728
sizeofblock_2 355199
sizeofblock_3 0
sizeofblock_4 0
sizeofblock_5 0
sizeofblock_6 0
sizeofblock_7 0
sizeofblock_8 0
Variant_0 Correct: 0 Incorrect: 0 Accuracy: -nan
Variant_1 Correct: 0 Incorrect: 0 Accuracy: -nan
Variant_2 Correct: 0 Incorrect: 0 Accuracy: -nan
Variant_3 Correct: 0 Incorrect: 0 Accuracy: -nan
