
*** ChampSim Multicore Out-of-Order Simulator ***

Warmup Instructions: 50000000
Simulation Instructions: 50000000
Number of CPUs: 1
LLC sets: 2048
LLC ways: 16
Off-chip DRAM Size: 4096 MB Channels: 1 Width: 64-bit Data Rate: 6400 MT/s
CPU 0 runs ./micro_traces/srv423.trace.gz
.gz
ITLB has LRU replacement policy
DTLB has LRU replacement policy
STLB has LRU replacement policy
FDIP Prefetcher at L1I
L1I has LRU replacement policy
L1D has LRU replacement policy
Initialize SRRIP state for L2C
Initialize DRRIP state for LLC
Heartbeat CPU 0 instructions: 10000002 cycles: 2797411 heartbeat IPC: 3.57473 cumulative IPC: 3.57473 (Simulation time: 0 hr 1 min 37 sec) 
Heartbeat CPU 0 instructions: 20000001 cycles: 5593984 heartbeat IPC: 3.5758 cumulative IPC: 3.57527 (Simulation time: 0 hr 3 min 14 sec) 
Heartbeat CPU 0 instructions: 30000000 cycles: 8390950 heartbeat IPC: 3.5753 cumulative IPC: 3.57528 (Simulation time: 0 hr 4 min 52 sec) 
Heartbeat CPU 0 instructions: 40000001 cycles: 11189034 heartbeat IPC: 3.57387 cumulative IPC: 3.57493 (Simulation time: 0 hr 6 min 30 sec) 
Heartbeat CPU 0 instructions: 50000002 cycles: 13984779 heartbeat IPC: 3.57686 cumulative IPC: 3.57532 (Simulation time: 0 hr 8 min 3 sec) 

Warmup complete CPU 0 instructions: 50000002 cycles: 13984779 (Simulation time: 0 hr 8 min 3 sec) 

Cycle: 20000000 FTQ IN: 55313221 FTQ occupancy: 17.3919 DECODE IN: 55313216 DECODE occupancy: 44.5159 ROB IN: 55313216 ROB occupancy: 265.643 ROB OUT: 55313155
Heartbeat CPU 0 instructions: 60000002 cycles: 25375072 heartbeat IPC: 0.877941 cumulative IPC: 0.877941 (Simulation time: 0 hr 9 min 19 sec) 
Cycle: 30000000 FTQ IN: 8736696 FTQ occupancy: 4.5578 DECODE IN: 8736614 DECODE occupancy: 8.86375 ROB IN: 8736614 ROB occupancy: 76.6247 ROB OUT: 8736670
Heartbeat CPU 0 instructions: 70000000 cycles: 36568736 heartbeat IPC: 0.893362 cumulative IPC: 0.885584 (Simulation time: 0 hr 10 min 34 sec) 
Cycle: 40000000 FTQ IN: 8963829 FTQ occupancy: 4.54389 DECODE IN: 8963790 DECODE occupancy: 8.99126 ROB IN: 8963790 ROB occupancy: 78.0617 ROB OUT: 8963740
Heartbeat CPU 0 instructions: 80000003 cycles: 47954303 heartbeat IPC: 0.878305 cumulative IPC: 0.883145 (Simulation time: 0 hr 11 min 52 sec) 
Cycle: 50000000 FTQ IN: 8782955 FTQ occupancy: 4.6486 DECODE IN: 8783043 DECODE occupancy: 9.10356 ROB IN: 8783043 ROB occupancy: 77.0616 ROB OUT: 8783027
Heartbeat CPU 0 instructions: 90000000 cycles: 59172892 heartbeat IPC: 0.891377 cumulative IPC: 0.885189 (Simulation time: 0 hr 13 min 7 sec) 
Cycle: 60000000 FTQ IN: 8927005 FTQ occupancy: 4.50098 DECODE IN: 8926960 DECODE occupancy: 8.78231 ROB IN: 8926958 ROB occupancy: 75.3163 ROB OUT: 8926776
Cycle: 70000000 FTQ IN: 8775618 FTQ occupancy: 4.58229 DECODE IN: 8775674 DECODE occupancy: 8.93361 ROB IN: 8775676 ROB occupancy: 76.0224 ROB OUT: 8775837
Heartbeat CPU 0 instructions: 100000002 cycles: 70585181 heartbeat IPC: 0.876249 cumulative IPC: 0.883386 (Simulation time: 0 hr 14 min 21 sec) 
Finished CPU 0 instructions: 50000000 cycles: 56600402 cumulative IPC: 0.883386 (Simulation time: 0 hr 14 min 21 sec) 

ChampSim completed all CPUs

Region of Interest Statistics

CPU 0 cumulative IPC: 0.883386 instructions: 50000000 cycles: 56600402
 Fetch stage stalled: 78.313  Sim cycles: 56600402 fetch stall cycle: 44325488
 Empty decode stage: 67.7351  Sim cycles: 56600402 fetch stall cycle: 38338317
ITLB TOTAL     ACCESS:    5659920  HIT:    5167633  MISS:     492287  HIT %:    91.3022  MISS %:    8.69777   MPKI: 9.84574
ITLB LOAD TRANSLATION INSTRUCTION	ACCESS:    5571836  HIT:    5079549  MISS:     492287  HIT %:    91.1647  MISS %:    8.83527  MPKI: 9.84574
ITLB TRANSLATION FROM L1D PREFETCHER INSTRUCTION	ACCESS:      88084  HIT:      88084  MISS:          0  HIT %:        100  MISS %:          0  MPKI: 0

ITLB AVERAGE MISS LATENCY: 9.05991 cycles
ITLB RQ	ACCESS:    7233260	FORWARD:          0	MERGED:    1135691	TO_CACHE:    6097569

DTLB TOTAL     ACCESS:    9764316  HIT:    9290054  MISS:     474262  HIT %:    95.1429  MISS %:    4.85709   MPKI: 9.48524
DTLB LOAD TRANSLATION DATA	ACCESS:    9764316  HIT:    9290054  MISS:     474262  HIT %:    95.1429  MISS %:    4.85709  MPKI: 9.48524

DTLB AVERAGE MISS LATENCY: 9.32049 cycles
DTLB RQ	ACCESS:   13934820	FORWARD:          0	MERGED:    4140236	TO_CACHE:    9794584

STLB TOTAL     ACCESS:    1217581  HIT:    1215219  MISS:       2362  HIT %:     99.806  MISS %:   0.193991   MPKI: 0.04724
STLB LOAD TRANSLATION INSTRUCTION	ACCESS:     492287  HIT:     491828  MISS:        459  HIT %:    99.9068  MISS %:  0.0932383  MPKI: 0.00918
STLB LOAD TRANSLATION DATA	ACCESS:     473966  HIT:     472096  MISS:       1870  HIT %:    99.6055  MISS %:   0.394543  MPKI: 0.0374
STLB TRANSLATION FROM L1D PREFETCHER DATA	ACCESS:     251328  HIT:     251295  MISS:         33  HIT %:    99.9869  MISS %:  0.0131303  MPKI: 0.00066

STLB AVERAGE MISS LATENCY: 68.5724 cycles
STLB RQ	ACCESS:    1336559	FORWARD:          0	MERGED:     118944	TO_CACHE:    1217615

STLB Hit, L1D data hit: 0
STLB Hit, L2C data hit: 0
STLB Hit, LLC data hit: 0
STLB Hit, LLC data miss: 0
STLB STLB hints to L2: 0
L1D TOTAL     ACCESS:   13717670  HIT:   12609524  MISS:    1108146  HIT %:    91.9218  MISS %:    8.07824   MPKI: 22.1629
L1D LOAD DATA	ACCESS:    7107716  HIT:    6380281  MISS:     727435  HIT %:    89.7656  MISS %:    10.2344  MPKI: 14.5487
L1D RFO DATA	ACCESS:    6278175  HIT:    5990353  MISS:     287822  HIT %:    95.4155  MISS %:    4.58449  MPKI: 5.75644
L1D PREFETCH DATA	ACCESS:     331779  HIT:     238890  MISS:      92889  HIT %:    72.0027  MISS %:    27.9973  MPKI: 1.85778

L1D PREFETCH  REQUESTED:     740247  ISSUED:     740247  USEFUL:      33603  USELESS:      66838
L1D USEFUL LOAD PREFETCHES:      33603 PREFETCH ISSUED TO LOWER LEVEL:     100484  ACCURACY: 33.4411
 TIMELY PREFETCHES:      33603 LATE PREFETCHES: 7536 DROPPED PREFETCHES: 4
L1D AVERAGE MISS LATENCY: 296091 cycles
L1D RQ	ACCESS:   11125080	FORWARD:          0	MERGED:    3826048	TO_CACHE:    7136387
L1D WQ	ACCESS:    6947175	FORWARD:     162874	MERGED:     148742	TO_CACHE:    6798433
L1D PQ	ACCESS:     370238	FORWARD:          0	MERGED:          0	TO_CACHE:     370009

L1D UNIQUE REGIONS ACCESSED: 0
L1D REGIONS CONFLICTS: 0
L1D Cross Page Prefetch Requests: 6254
L1D Same Page Prefetch Requests: 752208
L1D ROI Sum of L1D PQ occupancy: 4697981
L1D PREFETCHES PUSHED FROM L2C: 0
L1I TOTAL     ACCESS:    6971602  HIT:    4216733  MISS:    2754869  HIT %:    60.4844  MISS %:    39.5156   MPKI: 55.0974
L1I LOAD INSTRUCTION	ACCESS:    6593477  HIT:    3838608  MISS:    2754869  HIT %:    58.2183  MISS %:    41.7817  MPKI: 55.0974
L1I PREFETCH INSTRUCTION	ACCESS:     378125  HIT:     378125  MISS:          0  HIT %:        100  MISS %:          0  MPKI: 0

L1I PREFETCH  REQUESTED:     724283  ISSUED:     724283  USEFUL:          0  USELESS:          0
L1I USEFUL LOAD PREFETCHES:          0 PREFETCH ISSUED TO LOWER LEVEL:          0  ACCURACY: -nan
 TIMELY PREFETCHES:          0 LATE PREFETCHES: 0 DROPPED PREFETCHES: 0
L1I AVERAGE MISS LATENCY: 17.2937 cycles
L1I RQ	ACCESS:    9439863	FORWARD:          0	MERGED:    2711426	TO_CACHE:    6728437
L1I PQ	ACCESS:     724283	FORWARD:          0	MERGED:     219460	TO_CACHE:     504823

L1BTB TOTAL     ACCESS:    5667935  HIT:    2048234  MISS:    3619701  HIT %:    36.1372  MISS %:    63.8628   MPKI: 72.394
L1BTB BRANCH_DIRECT_JUMP	ACCESS:     549193  HIT:     145736  MISS:     403457	AVERAGE STALL: 31.0324
L1BTB BRANCH_INDIRECT	ACCESS:     183380  HIT:      66330  MISS:     117050	AVERAGE STALL: 71.8998
L1BTB BRANCH_CONDITIONAL	ACCESS:    2710934  HIT:    1420650  MISS:    1290284	AVERAGE STALL: 31.8252
L1BTB BRANCH_DIRECT_CALL	ACCESS:     941055  HIT:     105076  MISS:     835979	AVERAGE STALL: 33.0222
L1BTB BRANCH_INDIRECT_CALL	ACCESS:     171155  HIT:      21035  MISS:     150120	AVERAGE STALL: 95.109
L1BTB BRANCH_RETURN	ACCESS:    1112218  HIT:     289407  MISS:     822811	AVERAGE STALL: 32.2416
L1BTB BRANCH_OTHER ACCESS:          0  HIT:          0  MISS:          0	AVERAGE STALL: -nan
L1BTB TOTAL ROB OCCUPANCY AT BTB MISS: 18.1925

L2BTB TOTAL     ACCESS:    3594198  HIT:    2560591  MISS:    1033607  HIT %:    71.2423  MISS %:    28.7577   MPKI: 20.6721
L2BTB BRANCH_DIRECT_JUMP	ACCESS:     399234  HIT:     282117  MISS:     117117	AVERAGE STALL: 31.0324
L2BTB BRANCH_INDIRECT	ACCESS:     106796  HIT:      93549  MISS:      13247	AVERAGE STALL: 71.8998
L2BTB BRANCH_CONDITIONAL	ACCESS:    1290284  HIT:     917765  MISS:     372519	AVERAGE STALL: 31.8252
L2BTB BRANCH_DIRECT_CALL	ACCESS:     835979  HIT:     569365  MISS:     266614	AVERAGE STALL: 33.0222
L2BTB BRANCH_INDIRECT_CALL	ACCESS:     140498  HIT:      91802  MISS:      48696	AVERAGE STALL: 95.109
L2BTB BRANCH_RETURN	ACCESS:     821407  HIT:     605993  MISS:     215414	AVERAGE STALL: 32.2416
L2BTB BRANCH_OTHER ACCESS:          0  HIT:          0  MISS:          0	AVERAGE STALL: -nan
L2BTB TOTAL ROB OCCUPANCY AT BTB MISS: 63.7105

L2C TOTAL     ACCESS:    4470075  HIT:    3984362  MISS:     485713  HIT %:    89.1341  MISS %:    10.8659   MPKI: 9.71426
L2C LOAD INSTRUCTION	ACCESS:    2754869  HIT:    2487450  MISS:     267419  HIT %:    90.2929  MISS %:    9.70714  MPKI: 5.34838
L2C LOAD TRANSLATION INSTRUCTION	ACCESS:        504  HIT:        183  MISS:        321  HIT %:    36.3095  MISS %:    63.6905  MPKI: 0.00642
L2C LOAD DATA	ACCESS:     719890  HIT:     645855  MISS:      74035  HIT %:    89.7158  MISS %:    10.2842  MPKI: 1.4807
L2C RFO DATA	ACCESS:     287741  HIT:     233976  MISS:      53765  HIT %:    81.3148  MISS %:    18.6852  MPKI: 1.0753
L2C PREFETCH DATA	ACCESS:     184532  HIT:     110562  MISS:      73970  HIT %:    59.9148  MISS %:    40.0852  MPKI: 1.4794
L2C WRITEBACK DATA	ACCESS:     520539  HIT:     505758  MISS:      14781  HIT %:    97.1604  MISS %:    2.83956  MPKI: 0.29562
L2C LOAD TRANSLATION DATA	ACCESS:       1952  HIT:        543  MISS:       1409  HIT %:    27.8176  MISS %:    72.1824  MPKI: 0.02818
L2C TRANSLATION FROM L1D PREFETCHER DATA	ACCESS:         48  HIT:         35  MISS:         13  HIT %:    72.9167  MISS %:    27.0833  MPKI: 0.00026

L2C PREFETCH  REQUESTED:      91846  ISSUED:      91846  USEFUL:       8099  USELESS:      66508
L2C USEFUL LOAD PREFETCHES:       8099 PREFETCH ISSUED TO LOWER LEVEL:      74425  ACCURACY: 10.8821
 TIMELY PREFETCHES:       8099 LATE PREFETCHES: 455 DROPPED PREFETCHES: 0
L2C AVERAGE MISS LATENCY: 38.9082 cycles
L2C RQ	ACCESS:    3765035	FORWARD:          0	MERGED:          0	TO_CACHE:    3765004
L2C WQ	ACCESS:     520539	FORWARD:         31	MERGED:          0	TO_CACHE:     520539
L2C PQ	ACCESS:     192330	FORWARD:          0	MERGED:       3703	TO_CACHE:     188627

L2C Dense regions hint from L2: 0
PSCL5 TOTAL     ACCESS:       4740  HIT:       2370  MISS:       2370  HIT %:         50  MISS %:         50   MPKI: 0.0474
PSCL5 LOAD TRANSLATION INSTRUCTION	ACCESS:       4644  HIT:       2322  MISS:       2322  HIT %:         50  MISS %:         50  MPKI: 0.04644
PSCL5 TRANSLATION FROM L1D PREFETCHER INSTRUCTION	ACCESS:         96  HIT:         48  MISS:         48  HIT %:         50  MISS %:         50  MPKI: 0.00096


PSCL4 TOTAL     ACCESS:       4291  HIT:       2144  MISS:       2147  HIT %:     49.965  MISS %:     50.035   MPKI: 0.04294
PSCL4 LOAD TRANSLATION INSTRUCTION	ACCESS:       2309  HIT:       2096  MISS:        213  HIT %:    90.7752  MISS %:    9.22477  MPKI: 0.00426
PSCL4 TRANSLATION FROM L1D PREFETCHER INSTRUCTION	ACCESS:         48  HIT:         48  MISS:          0  HIT %:        100  MISS %:          0  MPKI: 0
PSCL4 LOAD TRANSLATION DATA	ACCESS:       1886  HIT:          0  MISS:       1886  HIT %:          0  MISS %:        100  MPKI: 0.03772
PSCL4 TRANSLATION FROM L1D PREFETCHER DATA	ACCESS:         48  HIT:          0  MISS:         48  HIT %:          0  MISS %:        100  MPKI: 0.00096


PSCL3 TOTAL     ACCESS:       4428  HIT:       2208  MISS:       2220  HIT %:    49.8645  MISS %:    50.1355   MPKI: 0.0444
PSCL3 LOAD TRANSLATION INSTRUCTION	ACCESS:       3831  HIT:       2165  MISS:       1666  HIT %:    56.5127  MISS %:    43.4873  MPKI: 0.03332
PSCL3 TRANSLATION FROM L1D PREFETCHER INSTRUCTION	ACCESS:         82  HIT:         43  MISS:         39  HIT %:     52.439  MISS %:     47.561  MPKI: 0.00078
PSCL3 LOAD TRANSLATION DATA	ACCESS:        511  HIT:          0  MISS:        511  HIT %:          0  MISS %:        100  MPKI: 0.01022
PSCL3 TRANSLATION FROM L1D PREFETCHER DATA	ACCESS:          4  HIT:          0  MISS:          4  HIT %:          0  MISS %:        100  MPKI: 8e-05


PSCL2 TOTAL     ACCESS:       4618  HIT:       2248  MISS:       2370  HIT %:    48.6791  MISS %:    51.3209   MPKI: 0.0474
PSCL2 LOAD TRANSLATION INSTRUCTION	ACCESS:       2659  HIT:       2200  MISS:        459  HIT %:    82.7379  MISS %:    17.2621  MPKI: 0.00918
PSCL2 TRANSLATION FROM L1D PREFETCHER INSTRUCTION	ACCESS:         48  HIT:         48  MISS:          0  HIT %:        100  MISS %:          0  MPKI: 0
PSCL2 LOAD TRANSLATION DATA	ACCESS:       1863  HIT:          0  MISS:       1863  HIT %:          0  MISS %:        100  MPKI: 0.03726
PSCL2 TRANSLATION FROM L1D PREFETCHER DATA	ACCESS:         48  HIT:          0  MISS:         48  HIT %:          0  MISS %:        100  MPKI: 0.00096


LLC TOTAL     ACCESS:     546155  HIT:     516027  MISS:      30128  HIT %:    94.4836  MISS %:    5.51638   MPKI: 0.60256
LLC LOAD INSTRUCTION	ACCESS:     267419  HIT:     266333  MISS:       1086  HIT %:    99.5939  MISS %:   0.406104  MPKI: 0.02172
LLC LOAD TRANSLATION INSTRUCTION	ACCESS:        321  HIT:        290  MISS:         31  HIT %:    90.3427  MISS %:    9.65732  MPKI: 0.00062
LLC LOAD DATA	ACCESS:      73593  HIT:      70209  MISS:       3384  HIT %:    95.4017  MISS %:    4.59826  MPKI: 0.06768
LLC RFO DATA	ACCESS:      53752  HIT:      38632  MISS:      15120  HIT %:    71.8708  MISS %:    28.1292  MPKI: 0.3024
LLC PREFETCH DATA	ACCESS:      74425  HIT:      64353  MISS:      10072  HIT %:    86.4669  MISS %:    13.5331  MPKI: 0.20144
LLC WRITEBACK DATA	ACCESS:      75223  HIT:      74870  MISS:        353  HIT %:    99.5307  MISS %:   0.469271  MPKI: 0.00706
LLC LOAD TRANSLATION DATA	ACCESS:       1409  HIT:       1327  MISS:         82  HIT %:    94.1803  MISS %:    5.81973  MPKI: 0.00164
LLC TRANSLATION FROM L1D PREFETCHER DATA	ACCESS:         13  HIT:         13  MISS:          0  HIT %:        100  MISS %:          0  MPKI: 0

LLC AVERAGE MISS LATENCY: 156.994 cycles
LLC RQ	ACCESS:     396507	FORWARD:          0	MERGED:          0	TO_CACHE:     396507
LLC WQ	ACCESS:      75223	FORWARD:          0	MERGED:          0	TO_CACHE:      75223
LLC PQ	ACCESS:      74425	FORWARD:          0	MERGED:          0	TO_CACHE:      74425

LLC Dense regions hint to LLC: 0

RAW hits: 1518570
Loads Generated: 12643650
Loads sent to L1D: 11125080
Stores Generated: 6947169
Stores sent to L1D: 6947175
Major fault: 0 Minor fault: 2653
Allocated PAGES: 2653

stream: 
stream:times selected: 1194902
stream:pref_filled: 118971
stream:pref_useful: 23083
stream:pref_late: 6247
stream:misses: 6916
stream:misses_by_poll: 0

CS: 
CS:times selected: 180574
CS:pref_filled: 60506
CS:pref_useful: 37566
CS:pref_late: 6863
CS:misses: 16266
CS:misses_by_poll: 3

CPLX: 
CPLX:times selected: 1013239
CPLX:pref_filled: 19647
CPLX:pref_useful: 4678
CPLX:pref_late: 3157
CPLX:misses: 90009
CPLX:misses_by_poll: 0

NL_L1: 
NL:times selected: 20546
NL:pref_filled: 707
NL:pref_useful: 286
NL:pref_late: 209
NL:misses: 1042
NL:misses_by_poll: 0

total selections: 2409261
total_filled: 92889
total_useful: 33603
total_late: 17663
total_polluted: 3
total_misses_after_warmup: 756105
conflicts: 5776012

test: 115864

DRAM Statistics
 CHANNEL 0
 RQ ROW_BUFFER_HIT:      11041  ROW_BUFFER_MISS:      18724
 DBUS_CONGESTED:          5
 WQ ROW_BUFFER_HIT:       1471  ROW_BUFFER_MISS:      13403  FULL:          0

 AVG_CONGESTED_CYCLE: 7

CPU 0 Branch Prediction Accuracy: 99.8157% MPKI: 0.3369 Average ROB Occupancy at Mispredict: 100.877
Branch types
NOT_BRANCH: 40861059 81.7221%
BRANCH_DIRECT_JUMP: 549193 1.09839%
BRANCH_INDIRECT: 183380 0.36676%
BRANCH_CONDITIONAL: 6181449 12.3629%
BRANCH_DIRECT_CALL: 941055 1.88211%
BRANCH_INDIRECT_CALL: 171155 0.34231%
BRANCH_RETURN: 1112218 2.22444%
BRANCH_OTHER: 0 0%

DRAM PAGES: 1048576
Allocated PAGES: 2653
Average_ROB_Occupancy: 77.0088
Average_Decode_Occupancy: 8.87267
Average_FTQ_Occupancy: 4.54232
Indirect max targets: 14 Average targets: 1.15738
Branch_type:  BRANCH_DIRECT_JUMP:  Count Percentage: 3.34441 6.98326 3.78775 7.91685 2.2354 2.84806 1.35518 71.5291 
Branch_type:  BRANCH_INDIRECT:  Count Percentage: 11.7336 3.4599 2.61842 9.68722 3.33677 2.80121 0.933553 65.4294 
Branch_type:  BRANCH_CONDITIONAL:  Count Percentage: 21.883 2.46927 2.27678 4.72197 1.5427 2.99532 3.86709 60.2438 
Branch_type:  BRANCH_DIRECT_CALL:  Count Percentage: 0.861401 1.24925 0.762815 4.44557 1.96474 2.12838 0.863583 87.7243 
Branch_type:  BRANCH_INDIRECT_CALL:  Count Percentage: 9.56193 0 2.99422 0.0055671 0.00058601 2.19344 1.00413 84.2401 
Branch_type:  BRANCH_RETURN:  Count Percentage: 4.69911 1.39551 1.46747 4.45099 3.37439 4.65629 3.73932 76.2169 
Branch_type:  BRANCH_DIRECT_JUMP:  Total Count: 36722 76677 41590 86928 24545 31272 14880 785398 
Branch_type:  BRANCH_INDIRECT:  Total Count: 43073 12701 9612 35561 12249 10283 3427 240186 
Branch_type:  BRANCH_CONDITIONAL:  Total Count: 2704214 305142 281355 583522 190641 370150 477879 7444689 
Branch_type:  BRANCH_DIRECT_CALL:  Total Count: 16182 23468 14330 83513 36909 39983 16223 1647960 
Branch_type:  BRANCH_INDIRECT_CALL:  Total Count: 32634 0 10219 19 2 7486 3427 287504 
Branch_type:  BRANCH_RETURN:  Total Count: 104353 30990 32588 98843 74935 103402 83039 1692546 
Number of unique branch instructions: 10380
Upper 32 bits: 
aaaa
ffff
ffff0000
Unique upper 32 bits: 3
Unique upper 36 bits: 3
Unique upper 40 bits: 5
Unique upper 44 bits: 32
Unique upper 48 bits: 158
Offset_3 4289
Offset_4 268
Offset_5 474
Offset_6 521
Offset_7 613
Offset_8 534
Offset_9 490
Offset_10 398
Offset_11 324
Offset_12 291
Offset_13 223
Offset_14 241
Offset_15 190
Offset_16 226
Offset_17 170
Offset_18 122
Offset_19 252
Offset_20 141
Offset_21 261
Offset_22 404
Offset_23 241
Offset_24 355
Offset_25 92
Offset_47 88
Offset_64 1
decode_dispatch_called: 20127532 35.5608
Dispatch_width: 0 9902657 49.1996 17.4957
Dispatch_width: 1 596398 2.9631 1.0537
Dispatch_width: 2 820645 4.07723 1.44989
Dispatch_width: 3 558799 2.77629 0.98727
Dispatch_width: 4 1493767 7.42151 2.63915
Dispatch_width: 5 421086 2.09209 0.743963
Dispatch_width: 6 6334180 31.4702 11.1911
Empty_decode_cycles: 36472870 64.4392
ROB_full_cycles: 1535829 2.71346
Starvation_cycles_per_kilo_instr: 487.304
Starvation_cycles_per_kilo_instr_3: 468.155
Starvation_cycles_per_kilo_instr_0: 448.397
Branch_type_1  (3,1)  (4,10)  (5,39)  (6,70)  (7,121)  (8,134)  (9,129)  (10,102)  (11,69)  (12,43)  (13,8)  (14,2)  (15,3)  (16,4)  (18,1)  (19,4)  (20,2)  (21,1)  (22,3)  (23,2)  (24,10)  (25,12)  (64,1) 
Branch_type_2  (3,1)  (4,1)  (5,1)  (8,3)  (9,3)  (12,1)  (13,1)  (14,1)  (16,3)  (17,2)  (20,2)  (21,2)  (23,5)  (24,1)  (47,41) 
Branch_type_3  (3,4287)  (4,257)  (5,430)  (6,436)  (7,461)  (8,336)  (9,267)  (10,160)  (11,126)  (12,50)  (13,7) 
Branch_type_4  (6,3)  (7,8)  (8,25)  (9,54)  (10,64)  (11,65)  (12,108)  (13,96)  (14,108)  (15,90)  (16,101)  (17,79)  (18,55)  (19,124)  (20,72)  (21,141)  (22,215)  (23,136)  (24,205)  (25,76) 
Branch_type_5  (8,2)  (9,1)  (10,4)  (11,6)  (12,3)  (13,14)  (14,16)  (15,11)  (16,20)  (17,11)  (18,16)  (19,13)  (20,12)  (21,13)  (22,42)  (23,26)  (24,41) 
Branch_type_6  (5,4)  (6,12)  (7,23)  (8,34)  (9,36)  (10,68)  (11,58)  (12,86)  (13,97)  (14,114)  (15,86)  (16,98)  (17,78)  (18,50)  (19,111)  (20,53)  (21,104)  (22,144)  (23,72)  (24,98)  (25,4)  (47,47) 
Unique trigger count: 
BTB PER SET UNIQUE ADDR: 23 27 20 28 27 26 18 25 14 26 20 27 26 21 24 16 21 22 21 25 22 21 23 27 21 26 25 25 25 22 22 24 27 16 17 22 22 27 17 18 21 22 23 29 19 14 27 17 25 21 29 20 23 28 21 12 20 19 18 28 23 34 25 22 24 26 25 15 28 25 22 22 28 19 19 14 14 24 19 35 26 16 21 28 26 23 27 21 17 39 20 15 26 20 13 27 21 23 28 28 36 30 24 18 24 19 22 25 14 18 20 32 25 19 21 14 26 27 24 24 24 17 22 15 23 22 13 25 32 20 19 30 21 30 21 32 15 29 21 33 22 29 20 22 25 24 28 20 15 23 26 27 16 25 18 31 26 29 29 27 25 23 29 28 20 26 26 17 28 20 23 27 24 26 25 21 23 23 22 26 18 23 21 29 33 31 17 25 27 21 24 18 16 30 24 17 17 23 21 24 28 25 19 20 17 22 23 24 22 24 21 28 22 22 24 26 21 24 17 38 15 26 18 22 19 27 31 26 16 30 22 12 24 28 21 27 29 21 22 20 24 23 30 29 22 23 21 22 26 21 28 29 26 18 27 27 21 18 17 20 25 19 9 23 21 17 20 19 23 20 21 24 18 14 16 17 23 27 22 23 17 24 19 19 26 18 19 35 33 27 26 18 25 27 17 29 23 27 26 24 21 22 20 36 23 29 28 22 33 25 23 28 21 36 28 13 29 23 22 29 22 29 19 23 27 30 25 18 22 17 22 30 18 21 21 25 18 19 19 37 26 26 16 26 27 28 19 24 22 23 25 23 27 25 23 28 24 27 18 17 18 30 21 31 25 27 13 23 28 22 26 16 25 26 16 32 24 32 21 25 24 23 17 16 21 22 28 29 25 25 30 16 26 31 16 19 21 19 31 25 21 27 24 25 29 26 25 24 25 22 26 20 18 28 22 21 21 31 38 32 19 26 25 26 29 19 27 20 24 22 29 21 20 24 29 29 25 20 21 25 27 19 20 31 32 19 18 26 29 23 28 39 26 18 27 32 27 28 20 30 17 22 19 29 35 21 23 25 28 27 24 27 28 24 25 35 26 34 20 26 33 28 20 25 18 28 37 31 27 25 20 26 21 18 19 21 28 25 21 26 20 30 19 35 22 22 19 31 30 28 24 33 24 22 21 27 22 32 18 18 19 22 25 18 24 33 36 15 16 33 27 27 26 23 27 30 21 25 26 26 28 20 28 24 28 31 15 25 17 23 25 32 25 23 19 25 23 25 31 25 22 34 22 24 23 30 22 29 25 29 29 26 30 36 23 29 29 30 21 25 26 26 15 24 26 25 20 24 35 29 21 23 25 17 28 18 16 22 25 22 23 21 22 13 24 25 30 25 22 22 31 27 21 17 10 32 16 29 22 28 30 25 20 21 21 31 20 29 17 25 21 29 32 23 23 22 26 30 22 27 23 26 28 32 26 27 20 24 35 21 17 25 19 20 30 24 23 24 28 23 23 14 28 32 21 26 18 23 18 20 26 22 18 27 34 21 25 27 29 30 22 30 23 30 27 21 23 25 26 29 23 25 23 16 15 22 17 26 19 28 16 25 28 36 12 30 22 19 17 14 23 22 17 23 18 20 34 25 20 28 27 24 21 20 21 22 25 23 21 18 25 21 21 19 24 26 25 31 38 21 20 22 22 26 34 29 22 24 23 19 23 21 24 22 18 22 33 24 20 19 26 13 15 24 23 28 16 26 25 26 24 30 19 17 25 20 30 22 22 30 13 25 20 22 27 23 20 28 21 15 17 15 29 26 23 31 21 18 29 23 35 27 33 29 35 19 26 23 24 20 19 36 30 31 19 26 37 29 13 27 26 31 18 27 26 22 21 26 27 26 22 28 26 22 19 27 25 23 25 23 27 24 22 24 26 28 21 39 20 27 25 22 18 23 31 30 32 29 27 29 25 25 19 28 30 16 24 18 30 19 18 29 27 25 25 14 21 21 19 24 28 16 22 29 26 28 31 22 24 23 25 18 23 22 23 28 31 23 20 19 23 22 22 26 14 28 22 27 23 33 19 23 24 25 26 26 36 22 23 26 24 24 19 26 20 19 14 30 19 19 29 32 28 23 23 32 23 20 25 28 17 31 24 22 23 24 24 30 23 27 23 23 18 26 21 26 25 23 26 24 25 25 22 33 30 23 29 25 19 28 22 28 29 22 28 19 37 32 30 35 19 31 26 24 22 31 37 21 27 22 26 26 27 22 23 19 20 24 30 23 31 30 19 22 28 28 18 32 21 28 28 26 27 17 19 22 14 20 10 15 19 30 24 17 
BTB PER SET COUNT: 2340 2500 2972 2186 2735 2079 1713 1782 1609 2092 1328 2647 11684 1919 1841 1159 2326 2253 1599 2289 1844 1716 2102 2290 1215 1976 2208 2079 2239 1988 1930 2506 2021 868 1249 1838 2011 2413 1062 2215 1669 1624 2418 2482 2022 678 2057 1529 2132 1766 2455 1378 2039 2308 1803 915 1632 1562 1430 2159 1777 2994 2014 1968 2395 2318 1724 1505 2298 1898 2449 2082 2668 1406 1261 791 893 2101 1532 2559 2392 1058 2017 2670 2179 1807 2233 2194 1804 3944 1477 1390 2321 2032 790 2131 1581 1592 2294 3855 3563 2820 2159 1813 3685 1430 1656 2265 1570 2965 1823 2935 2458 1615 1795 1165 2146 2396 2613 1949 2420 1387 1685 1067 1900 1660 765 2746 3408 1791 1431 3121 1498 2446 1752 2195 1448 2285 1618 2743 1713 2239 1803 1754 1897 1676 2740 1429 1065 1781 1814 2106 1323 1717 943 2967 2672 2308 2267 2456 2159 1942 2612 2307 1644 2104 1966 1468 2308 1558 1558 2402 2017 1727 2157 1815 1670 1565 1722 2490 1522 2033 1826 2107 2887 3104 1085 1988 2354 2373 1876 1279 1179 2525 2157 1291 1200 1828 1705 1586 2143 2128 1770 1630 1064 2040 1773 1924 1986 2467 1528 2302 1352 3395 2086 2310 1653 2354 1669 3456 1091 2250 1359 1808 1707 2112 2713 2246 1357 3408 1697 550 1781 2380 1497 6807 2291 1570 2181 1196 1960 2034 3096 2735 1748 2165 1395 1960 2123 1578 1900 2150 2125 1602 2104 2477 1505 1396 1400 1724 2308 1486 344 1947 2192 858 1782 1538 2277 1923 1603 1820 1143 920 1468 1322 2134 2353 1792 1955 1017 2270 1366 2010 2046 1603 1308 3058 3115 2457 1967 1225 1939 2473 1132 2803 2309 2043 1800 2183 1566 1541 1926 3050 2040 2935 1972 1714 2930 2373 2543 2370 1266 3180 3188 1426 2599 1698 1743 2814 1617 3161 1170 1603 2567 2331 2332 1341 1684 1155 1785 2882 1270 1486 1884 1825 1400 1784 1160 3586 1976 2880 1259 2093 2350 1942 1407 1670 1822 2116 2263 1913 2398 1772 1714 2647 2073 2607 1594 1314 1395 2891 1504 2779 1855 3002 716 1612 1850 1650 2079 1333 2199 2300 1235 2895 1868 2504 1683 2520 2370 2044 1510 1019 1093 1771 3039 2569 2133 2365 2208 1010 2203 2513 1275 1265 1408 1522 2979 2159 1674 2208 2132 1664 2166 2211 2180 2179 1384 2085 2092 1405 1418 2662 1552 1836 1883 5240 3361 2621 1431 2218 2437 1980 2571 1804 2744 1456 1620 2100 2677 2111 1363 1686 2749 2453 1917 1678 1771 2096 2748 1431 1320 2840 3077 1803 1400 2015 2384 1906 2330 3920 1955 1685 2530 3138 2067 2762 1262 2290 1350 1891 1480 2442 2841 1788 8335 2017 2579 2230 2156 2025 1799 1846 2001 3125 1938 3474 1292 2025 2744 2443 1584 2321 1572 1971 3438 2539 2565 1883 1840 2279 4773 1137 1014 1842 2763 2604 1608 2222 1499 2933 1398 3412 1543 1286 1261 2878 2648 2059 1810 3323 2625 2651 1646 2637 1461 2948 1202 1358 893 1965 2229 1248 1929 2977 3468 2235 1084 4190 3132 2141 2019 1785 2475 2557 2250 2407 2076 1960 2360 1706 2441 1977 2321 2795 1001 2181 1247 2483 1859 2899 2178 2130 1499 1449 1867 1923 2387 2263 1312 3073 1726 1979 2298 2708 1807 2197 1782 2647 2714 2217 3097 2833 1931 2592 2680 2732 1776 2015 2340 2150 1080 3126 2156 2306 1791 2161 3093 2843 2055 1785 2215 964 1802 1382 1849 2226 2110 1535 1433 1825 1809 1024 2022 2145 2733 2699 1376 1669 2902 2694 2228 1112 731 2535 1117 2433 2202 2409 2875 1794 1095 1512 1654 2816 1570 2894 2147 1961 1718 3182 3410 1848 1996 1776 2305 2597 1587 2426 2162 2213 2546 2595 3137 2423 1433 2475 3670 1220 1081 2184 1221 1772 3483 1936 1607 1672 2340 2082 2133 702 2541 2763 5765 2651 1398 1876 2103 1832 1670 1858 1458 2291 2915 2078 2018 2706 2397 2970 1912 2638 1904 2466 2847 2134 1873 1953 2276 2543 1675 2514 2173 936 1434 1740 1713 2557 1766 2002 1441 2344 2481 2944 832 2192 1739 1459 1148 1094 1890 2239 1195 1929 1685 1624 3217 2105 1528 2666 2371 2295 1609 1923 1706 1728 1832 2384 1794 2105 2214 4764 1707 1792 1800 1991 2318 3073 3876 1667 2037 1504 1836 2338 3095 2674 2277 1744 2013 1728 2589 1518 2731 1959 1306 1925 2673 2221 1795 1192 2174 1030 731 1782 2854 2991 1200 2005 1226 2214 1774 2457 1842 1349 2216 1262 2321 1870 1490 2612 1785 2375 2000 1747 1952 1987 1493 2232 1537 1055 1305 1378 2238 2317 1724 2828 1697 1364 1752 2226 3340 1997 2591 2540 2899 1611 1912 2000 1764 1546 1528 5116 2765 2525 1727 2933 2863 3064 1095 2833 1841 2726 1215 2530 2650 1996 1485 2064 2258 2629 2162 2986 2171 2136 1208 2762 1934 1967 2501 1879 2455 2051 1977 1892 2122 2298 1699 3402 1528 5176 2632 2035 1505 1650 2713 2661 2920 2300 2526 2241 2534 2024 1862 2116 2767 1140 1982 1069 2868 1498 1670 2730 2294 1616 1867 957 1675 1897 2526 1888 2218 944 1469 2899 2351 2382 2361 1994 1820 1929 2391 1214 2969 2521 1501 2488 2925 1699 1610 1575 2102 1671 1813 2236 782 2301 1645 2651 1805 2892 1745 1849 1914 2480 2565 2465 3678 2039 2199 2286 1991 2103 1434 2452 1393 1631 712 2635 1290 1197 2333 2756 3110 1474 1799 3288 1981 1724 2353 2395 1365 3224 2010 1502 1917 2125 1721 2514 2139 2295 2211 2443 1906 3610 1675 2155 2452 1846 2025 2260 2034 2263 1707 2738 2404 1477 2788 2243 1343 2145 1993 2819 2481 1835 2724 1576 3354 2433 2717 3371 1961 2272 2314 2141 1573 3407 4158 1482 2353 2130 2247 2628 1878 1862 2356 1838 1388 2625 2225 2310 2626 3227 1629 1955 2375 2174 1499 3084 1665 2356 2529 2463 2392 1338 1322 1879 976 1722 507 1270 1548 3048 2082 1076 
