
*** ChampSim Multicore Out-of-Order Simulator ***

Warmup Instructions: 50000000
Simulation Instructions: 50000000
Number of CPUs: 1
LLC sets: 2048
LLC ways: 16
Off-chip DRAM Size: 4096 MB Channels: 1 Width: 64-bit Data Rate: 6400 MT/s
CPU 0 runs ./micro_traces/srv423.trace.gz
.gz
ITLB has LRU replacement policy
DTLB has LRU replacement policy
STLB has LRU replacement policy
FDIP Prefetcher at L1I
L1I has LRU replacement policy
L1D has LRU replacement policy
Initialize SRRIP state for L2C
Initialize DRRIP state for LLC
Heartbeat CPU 0 instructions: 10000002 cycles: 2797435 heartbeat IPC: 3.5747 cumulative IPC: 3.5747 (Simulation time: 0 hr 2 min 8 sec) 
Heartbeat CPU 0 instructions: 20000001 cycles: 5594057 heartbeat IPC: 3.57574 cumulative IPC: 3.57522 (Simulation time: 0 hr 4 min 2 sec) 
Heartbeat CPU 0 instructions: 30000000 cycles: 8391266 heartbeat IPC: 3.57499 cumulative IPC: 3.57515 (Simulation time: 0 hr 6 min 6 sec) 
Heartbeat CPU 0 instructions: 40000001 cycles: 11189367 heartbeat IPC: 3.57385 cumulative IPC: 3.57482 (Simulation time: 0 hr 8 min 9 sec) 
Heartbeat CPU 0 instructions: 50000002 cycles: 13985166 heartbeat IPC: 3.5768 cumulative IPC: 3.57522 (Simulation time: 0 hr 10 min 5 sec) 

Warmup complete CPU 0 instructions: 50000002 cycles: 13985166 (Simulation time: 0 hr 10 min 5 sec) 

Cycle: 20000000 FTQ IN: 54571115 FTQ occupancy: 17.1298 DECODE IN: 54571114 DECODE occupancy: 43.9704 ROB IN: 54571114 ROB occupancy: 260.819 ROB OUT: 54570934
Heartbeat CPU 0 instructions: 60000002 cycles: 27299523 heartbeat IPC: 0.751069 cumulative IPC: 0.751069 (Simulation time: 0 hr 11 min 44 sec) 
Cycle: 30000000 FTQ IN: 7457011 FTQ occupancy: 3.59495 DECODE IN: 7457009 DECODE occupancy: 6.83534 ROB IN: 7457009 ROB occupancy: 58.2783 ROB OUT: 7457189
Cycle: 40000000 FTQ IN: 7636614 FTQ occupancy: 3.49894 DECODE IN: 7636615 DECODE occupancy: 6.6514 ROB IN: 7636615 ROB occupancy: 57.6656 ROB OUT: 7636589
Heartbeat CPU 0 instructions: 70000000 cycles: 40439422 heartbeat IPC: 0.761041 cumulative IPC: 0.756022 (Simulation time: 0 hr 13 min 15 sec) 
Cycle: 50000000 FTQ IN: 7612838 FTQ occupancy: 3.52008 DECODE IN: 7612840 DECODE occupancy: 6.724 ROB IN: 7612828 ROB occupancy: 57.8698 ROB OUT: 7612854
Heartbeat CPU 0 instructions: 80000003 cycles: 53712470 heartbeat IPC: 0.753407 cumulative IPC: 0.755148 (Simulation time: 0 hr 14 min 46 sec) 
Cycle: 60000000 FTQ IN: 7506904 FTQ occupancy: 3.65344 DECODE IN: 7506904 DECODE occupancy: 6.997 ROB IN: 7506906 ROB occupancy: 59.0975 ROB OUT: 7506900
Heartbeat CPU 0 instructions: 90000000 cycles: 66821621 heartbeat IPC: 0.762826 cumulative IPC: 0.757053 (Simulation time: 0 hr 16 min 21 sec) 
Cycle: 70000000 FTQ IN: 7627058 FTQ occupancy: 3.51226 DECODE IN: 7627035 DECODE occupancy: 6.67739 ROB IN: 7627024 ROB occupancy: 57.5219 ROB OUT: 7626945
Cycle: 80000000 FTQ IN: 7506749 FTQ occupancy: 3.64323 DECODE IN: 7506771 DECODE occupancy: 6.971 ROB IN: 7506792 ROB occupancy: 58.6193 ROB OUT: 7506875
Heartbeat CPU 0 instructions: 100000002 cycles: 80102089 heartbeat IPC: 0.752986 cumulative IPC: 0.756236 (Simulation time: 0 hr 17 min 46 sec) 
Finished CPU 0 instructions: 50000000 cycles: 66116923 cumulative IPC: 0.756236 (Simulation time: 0 hr 17 min 46 sec) 

ChampSim completed all CPUs

Region of Interest Statistics

CPU 0 cumulative IPC: 0.756236 instructions: 50000000 cycles: 66116923
 Fetch stage stalled: 81.6694  Sim cycles: 66116923 fetch stall cycle: 53997275
 Empty decode stage: 69.193  Sim cycles: 66116923 fetch stall cycle: 45748258
ITLB TOTAL     ACCESS:    5737167  HIT:    5244834  MISS:     492333  HIT %:    91.4185  MISS %:    8.58147   MPKI: 9.84666
ITLB LOAD TRANSLATION INSTRUCTION	ACCESS:    5656187  HIT:    5163854  MISS:     492333  HIT %:    91.2957  MISS %:    8.70433  MPKI: 9.84666
ITLB TRANSLATION FROM L1D PREFETCHER INSTRUCTION	ACCESS:      80980  HIT:      80980  MISS:          0  HIT %:        100  MISS %:          0  MPKI: 0

ITLB AVERAGE MISS LATENCY: 9.06295 cycles
ITLB RQ	ACCESS:    7206283	FORWARD:          0	MERGED:    1064644	TO_CACHE:    6141639

DTLB TOTAL     ACCESS:   10087135  HIT:    9612135  MISS:     475000  HIT %:     95.291  MISS %:    4.70897   MPKI: 9.5
DTLB LOAD TRANSLATION DATA	ACCESS:   10087135  HIT:    9612135  MISS:     475000  HIT %:     95.291  MISS %:    4.70897  MPKI: 9.5

DTLB AVERAGE MISS LATENCY: 9.32239 cycles
DTLB RQ	ACCESS:   14157313	FORWARD:          0	MERGED:    4041411	TO_CACHE:   10115902

STLB TOTAL     ACCESS:    1217848  HIT:    1215488  MISS:       2360  HIT %:    99.8062  MISS %:   0.193784   MPKI: 0.0472
STLB LOAD TRANSLATION INSTRUCTION	ACCESS:     492333  HIT:     491874  MISS:        459  HIT %:    99.9068  MISS %:  0.0932296  MPKI: 0.00918
STLB LOAD TRANSLATION DATA	ACCESS:     474930  HIT:     473053  MISS:       1877  HIT %:    99.6048  MISS %:   0.395216  MPKI: 0.03754
STLB TRANSLATION FROM L1D PREFETCHER DATA	ACCESS:     250585  HIT:     250561  MISS:         24  HIT %:    99.9904  MISS %: 0.00957759  MPKI: 0.00048

STLB AVERAGE MISS LATENCY: 70.3737 cycles
STLB RQ	ACCESS:    1340643	FORWARD:          0	MERGED:     122754	TO_CACHE:    1217889

STLB Hit, L1D data hit: 0
STLB Hit, L2C data hit: 0
STLB Hit, LLC data hit: 0
STLB Hit, LLC data miss: 0
STLB STLB hints to L2: 0
L1D TOTAL     ACCESS:   13952724  HIT:   12844501  MISS:    1108223  HIT %:    92.0573  MISS %:     7.9427   MPKI: 22.1645
L1D LOAD DATA	ACCESS:    7314782  HIT:    6587515  MISS:     727267  HIT %:    90.0576  MISS %:    9.94243  MPKI: 14.5453
L1D RFO DATA	ACCESS:    6303765  HIT:    6015316  MISS:     288449  HIT %:    95.4242  MISS %:    4.57582  MPKI: 5.76898
L1D PREFETCH DATA	ACCESS:     334177  HIT:     241670  MISS:      92507  HIT %:     72.318  MISS %:     27.682  MPKI: 1.85014

L1D PREFETCH  REQUESTED:     746767  ISSUED:     746767  USEFUL:      32826  USELESS:      66836
L1D USEFUL LOAD PREFETCHES:      32826 PREFETCH ISSUED TO LOWER LEVEL:      99698  ACCURACY: 32.9254
 TIMELY PREFETCHES:      32826 LATE PREFETCHES: 7135 DROPPED PREFETCHES: 2
L1D AVERAGE MISS LATENCY: 314746 cycles
L1D RQ	ACCESS:   11275340	FORWARD:          0	MERGED:    3770151	TO_CACHE:    7341130
L1D WQ	ACCESS:    6947175	FORWARD:     164206	MERGED:     130992	TO_CACHE:    6816183
L1D PQ	ACCESS:     373457	FORWARD:          0	MERGED:          0	TO_CACHE:     373310

L1D UNIQUE REGIONS ACCESSED: 0
L1D REGIONS CONFLICTS: 0
L1D Cross Page Prefetch Requests: 6275
L1D Same Page Prefetch Requests: 754602
L1D ROI Sum of L1D PQ occupancy: 4746974
L1D PREFETCHES PUSHED FROM L2C: 0
L1I TOTAL     ACCESS:    7053669  HIT:    4298445  MISS:    2755224  HIT %:    60.9391  MISS %:    39.0609   MPKI: 55.1045
L1I LOAD INSTRUCTION	ACCESS:    6718110  HIT:    3962886  MISS:    2755224  HIT %:    58.9881  MISS %:    41.0119  MPKI: 55.1045
L1I PREFETCH INSTRUCTION	ACCESS:     335559  HIT:     335559  MISS:          0  HIT %:        100  MISS %:          0  MPKI: 0

L1I PREFETCH  REQUESTED:     586216  ISSUED:     586216  USEFUL:          0  USELESS:          0
L1I USEFUL LOAD PREFETCHES:          0 PREFETCH ISSUED TO LOWER LEVEL:          0  ACCURACY: -nan
 TIMELY PREFETCHES:          0 LATE PREFETCHES: 0 DROPPED PREFETCHES: 0
L1I AVERAGE MISS LATENCY: 16.6393 cycles
L1I RQ	ACCESS:    9461453	FORWARD:          0	MERGED:    2658365	TO_CACHE:    6803088
L1I PQ	ACCESS:     586216	FORWARD:          0	MERGED:     183021	TO_CACHE:     403195

L1BTB TOTAL     ACCESS:    5667678  HIT:    2047994  MISS:    3619684  HIT %:    36.1346  MISS %:    63.8654   MPKI: 72.3937
L1BTB BRANCH_DIRECT_JUMP	ACCESS:     549193  HIT:     145737  MISS:     403456	AVERAGE STALL: 27.1079
L1BTB BRANCH_INDIRECT	ACCESS:     183380  HIT:      66327  MISS:     117053	AVERAGE STALL: 65.7537
L1BTB BRANCH_CONDITIONAL	ACCESS:    2710677  HIT:    1420412  MISS:    1290265	AVERAGE STALL: 28.9026
L1BTB BRANCH_DIRECT_CALL	ACCESS:     941055  HIT:     105076  MISS:     835979	AVERAGE STALL: 30.1708
L1BTB BRANCH_INDIRECT_CALL	ACCESS:     171155  HIT:      21036  MISS:     150119	AVERAGE STALL: 86.8131
L1BTB BRANCH_RETURN	ACCESS:    1112218  HIT:     289406  MISS:     822812	AVERAGE STALL: 28.8899
L1BTB BRANCH_OTHER ACCESS:          0  HIT:          0  MISS:          0	AVERAGE STALL: -nan
L1BTB TOTAL ROB OCCUPANCY AT BTB MISS: 20.5757

L2BTB TOTAL     ACCESS:    3594190  HIT:    2082485  MISS:    1511705  HIT %:    57.9403  MISS %:    42.0597   MPKI: 30.2341
L2BTB BRANCH_DIRECT_JUMP	ACCESS:     399242  HIT:     220463  MISS:     178779	AVERAGE STALL: 27.1079
L2BTB BRANCH_INDIRECT	ACCESS:     106799  HIT:      90302  MISS:      16497	AVERAGE STALL: 65.7537
L2BTB BRANCH_CONDITIONAL	ACCESS:    1290265  HIT:     752390  MISS:     537875	AVERAGE STALL: 28.9026
L2BTB BRANCH_DIRECT_CALL	ACCESS:     835979  HIT:     431973  MISS:     404006	AVERAGE STALL: 30.1708
L2BTB BRANCH_INDIRECT_CALL	ACCESS:     140497  HIT:      75458  MISS:      65039	AVERAGE STALL: 86.8131
L2BTB BRANCH_RETURN	ACCESS:     821408  HIT:     511899  MISS:     309509	AVERAGE STALL: 28.8899
L2BTB BRANCH_OTHER ACCESS:          0  HIT:          0  MISS:          0	AVERAGE STALL: -nan
L2BTB TOTAL ROB OCCUPANCY AT BTB MISS: 49.2672

L2C TOTAL     ACCESS:    4469220  HIT:    4045080  MISS:     424140  HIT %:    90.5098  MISS %:    9.49025   MPKI: 8.4828
L2C LOAD INSTRUCTION	ACCESS:    2755225  HIT:    2543704  MISS:     211521  HIT %:    92.3229  MISS %:    7.67709  MPKI: 4.23042
L2C LOAD TRANSLATION INSTRUCTION	ACCESS:        504  HIT:        152  MISS:        352  HIT %:    30.1587  MISS %:    69.8413  MPKI: 0.00704
L2C LOAD DATA	ACCESS:     720124  HIT:     647670  MISS:      72454  HIT %:    89.9387  MISS %:    10.0613  MPKI: 1.44908
L2C RFO DATA	ACCESS:     288382  HIT:     234282  MISS:      54100  HIT %:    81.2402  MISS %:    18.7598  MPKI: 1.082
L2C PREFETCH DATA	ACCESS:     182378  HIT:     112987  MISS:      69391  HIT %:    61.9521  MISS %:    38.0479  MPKI: 1.38782
L2C WRITEBACK DATA	ACCESS:     520613  HIT:     505746  MISS:      14867  HIT %:    97.1443  MISS %:    2.85567  MPKI: 0.29734
L2C LOAD TRANSLATION DATA	ACCESS:       1960  HIT:        515  MISS:       1445  HIT %:    26.2755  MISS %:    73.7245  MPKI: 0.0289
L2C TRANSLATION FROM L1D PREFETCHER DATA	ACCESS:         34  HIT:         24  MISS:         10  HIT %:    70.5882  MISS %:    29.4118  MPKI: 0.0002

L2C PREFETCH  REQUESTED:      90069  ISSUED:      90069  USEFUL:       9236  USELESS:      61098
L2C USEFUL LOAD PREFETCHES:       9236 PREFETCH ISSUED TO LOWER LEVEL:      70112  ACCURACY: 13.1732
 TIMELY PREFETCHES:       9236 LATE PREFETCHES: 721 DROPPED PREFETCHES: 0
L2C AVERAGE MISS LATENCY: 40.2519 cycles
L2C RQ	ACCESS:    3766250	FORWARD:          0	MERGED:          0	TO_CACHE:    3766232
L2C WQ	ACCESS:     520613	FORWARD:         18	MERGED:          0	TO_CACHE:     520613
L2C PQ	ACCESS:     189767	FORWARD:          0	MERGED:       3471	TO_CACHE:     186296

L2C Dense regions hint from L2: 0
PSCL5 TOTAL     ACCESS:       4728  HIT:       2364  MISS:       2364  HIT %:         50  MISS %:         50   MPKI: 0.04728
PSCL5 LOAD TRANSLATION INSTRUCTION	ACCESS:       4662  HIT:       2331  MISS:       2331  HIT %:         50  MISS %:         50  MPKI: 0.04662
PSCL5 TRANSLATION FROM L1D PREFETCHER INSTRUCTION	ACCESS:         66  HIT:         33  MISS:         33  HIT %:         50  MISS %:         50  MPKI: 0.00066


PSCL4 TOTAL     ACCESS:       4279  HIT:       2138  MISS:       2141  HIT %:    49.9649  MISS %:    50.0351   MPKI: 0.04282
PSCL4 LOAD TRANSLATION INSTRUCTION	ACCESS:       2318  HIT:       2105  MISS:        213  HIT %:     90.811  MISS %:    9.18896  MPKI: 0.00426
PSCL4 TRANSLATION FROM L1D PREFETCHER INSTRUCTION	ACCESS:         33  HIT:         33  MISS:          0  HIT %:        100  MISS %:          0  MPKI: 0
PSCL4 LOAD TRANSLATION DATA	ACCESS:       1895  HIT:          0  MISS:       1895  HIT %:          0  MISS %:        100  MPKI: 0.0379
PSCL4 TRANSLATION FROM L1D PREFETCHER DATA	ACCESS:         33  HIT:          0  MISS:         33  HIT %:          0  MISS %:        100  MPKI: 0.00066


PSCL3 TOTAL     ACCESS:       4416  HIT:       2202  MISS:       2214  HIT %:    49.8641  MISS %:    50.1359   MPKI: 0.04428
PSCL3 LOAD TRANSLATION INSTRUCTION	ACCESS:       3850  HIT:       2174  MISS:       1676  HIT %:    56.4675  MISS %:    43.5325  MPKI: 0.03352
PSCL3 TRANSLATION FROM L1D PREFETCHER INSTRUCTION	ACCESS:         54  HIT:         28  MISS:         26  HIT %:    51.8519  MISS %:    48.1481  MPKI: 0.00052
PSCL3 LOAD TRANSLATION DATA	ACCESS:        510  HIT:          0  MISS:        510  HIT %:          0  MISS %:        100  MPKI: 0.0102
PSCL3 TRANSLATION FROM L1D PREFETCHER DATA	ACCESS:          2  HIT:          0  MISS:          2  HIT %:          0  MISS %:        100  MPKI: 4e-05


PSCL2 TOTAL     ACCESS:       4606  HIT:       2242  MISS:       2364  HIT %:    48.6756  MISS %:    51.3244   MPKI: 0.04728
PSCL2 LOAD TRANSLATION INSTRUCTION	ACCESS:       2669  HIT:       2210  MISS:        459  HIT %:    82.8025  MISS %:    17.1975  MPKI: 0.00918
PSCL2 TRANSLATION FROM L1D PREFETCHER INSTRUCTION	ACCESS:         32  HIT:         32  MISS:          0  HIT %:        100  MISS %:          0  MPKI: 0
PSCL2 LOAD TRANSLATION DATA	ACCESS:       1873  HIT:          0  MISS:       1873  HIT %:          0  MISS %:        100  MPKI: 0.03746
PSCL2 TRANSLATION FROM L1D PREFETCHER DATA	ACCESS:         32  HIT:          0  MISS:         32  HIT %:          0  MISS %:        100  MPKI: 0.00064


LLC TOTAL     ACCESS:     485648  HIT:     455636  MISS:      30012  HIT %:    93.8202  MISS %:    6.17978   MPKI: 0.60024
LLC LOAD INSTRUCTION	ACCESS:     211521  HIT:     210473  MISS:       1048  HIT %:    99.5045  MISS %:   0.495459  MPKI: 0.02096
LLC LOAD TRANSLATION INSTRUCTION	ACCESS:        352  HIT:        316  MISS:         36  HIT %:    89.7727  MISS %:    10.2273  MPKI: 0.00072
LLC LOAD DATA	ACCESS:      71738  HIT:      68341  MISS:       3397  HIT %:    95.2647  MISS %:    4.73529  MPKI: 0.06794
LLC RFO DATA	ACCESS:      54095  HIT:      38961  MISS:      15134  HIT %:    72.0233  MISS %:    27.9767  MPKI: 0.30268
LLC PREFETCH DATA	ACCESS:      70112  HIT:      60160  MISS:       9952  HIT %:    85.8056  MISS %:    14.1944  MPKI: 0.19904
LLC WRITEBACK DATA	ACCESS:      76375  HIT:      76022  MISS:        353  HIT %:    99.5378  MISS %:   0.462193  MPKI: 0.00706
LLC LOAD TRANSLATION DATA	ACCESS:       1445  HIT:       1353  MISS:         92  HIT %:    93.6332  MISS %:    6.36678  MPKI: 0.00184
LLC TRANSLATION FROM L1D PREFETCHER DATA	ACCESS:         10  HIT:         10  MISS:          0  HIT %:        100  MISS %:          0  MPKI: 0

LLC AVERAGE MISS LATENCY: 158.54 cycles
LLC RQ	ACCESS:     339161	FORWARD:          0	MERGED:          0	TO_CACHE:     339161
LLC WQ	ACCESS:      76375	FORWARD:          0	MERGED:          0	TO_CACHE:      76375
LLC PQ	ACCESS:      70112	FORWARD:          0	MERGED:          0	TO_CACHE:      70112

LLC Dense regions hint to LLC: 0

RAW hits: 1368310
Loads Generated: 12643650
Loads sent to L1D: 11275340
Stores Generated: 6947169
Stores sent to L1D: 6947175
Major fault: 0 Minor fault: 2653
Allocated PAGES: 2653

stream: 
stream:times selected: 1193168
stream:pref_filled: 118536
stream:pref_useful: 22797
stream:pref_late: 6062
stream:misses: 6781
stream:misses_by_poll: 0

CS: 
CS:times selected: 179468
CS:pref_filled: 60230
CS:pref_useful: 37563
CS:pref_late: 6710
CS:misses: 16339
CS:misses_by_poll: 6

CPLX: 
CPLX:times selected: 1012652
CPLX:pref_filled: 20469
CPLX:pref_useful: 4737
CPLX:pref_late: 2968
CPLX:misses: 90221
CPLX:misses_by_poll: 0

NL_L1: 
NL:times selected: 20379
NL:pref_filled: 645
NL:pref_useful: 273
NL:pref_late: 193
NL:misses: 881
NL:misses_by_poll: 0

total selections: 2405667
total_filled: 92507
total_useful: 32826
total_late: 17097
total_polluted: 6
total_misses_after_warmup: 753616
conflicts: 5879856

test: 116503

DRAM Statistics
 CHANNEL 0
 RQ ROW_BUFFER_HIT:      11081  ROW_BUFFER_MISS:      18570
 DBUS_CONGESTED:          9
 WQ ROW_BUFFER_HIT:       1503  ROW_BUFFER_MISS:      13262  FULL:          0

 AVG_CONGESTED_CYCLE: 5

CPU 0 Branch Prediction Accuracy: 99.8157% MPKI: 0.3369 Average ROB Occupancy at Mispredict: 93.6029
Branch types
NOT_BRANCH: 40861042 81.7221%
BRANCH_DIRECT_JUMP: 549193 1.09839%
BRANCH_INDIRECT: 183380 0.36676%
BRANCH_CONDITIONAL: 6181448 12.3629%
BRANCH_DIRECT_CALL: 941055 1.88211%
BRANCH_INDIRECT_CALL: 171155 0.34231%
BRANCH_RETURN: 1112218 2.22444%
BRANCH_OTHER: 0 0%

DRAM PAGES: 1048576
Allocated PAGES: 2653
Average_ROB_Occupancy: 58.7826
Average_Decode_Occupancy: 6.79157
Average_FTQ_Occupancy: 3.56343
Indirect max targets: 14 Average targets: 1.15738
Branch_type:  BRANCH_DIRECT_JUMP:  Count Percentage: 3.34441 6.98326 3.78775 7.91685 2.2354 2.84806 1.35518 71.5291 
Branch_type:  BRANCH_INDIRECT:  Count Percentage: 11.7336 3.4599 2.61842 9.68722 3.33677 2.80121 0.933553 65.4294 
Branch_type:  BRANCH_CONDITIONAL:  Count Percentage: 21.883 2.46927 2.27678 4.72197 1.5427 2.99532 3.86709 60.2438 
Branch_type:  BRANCH_DIRECT_CALL:  Count Percentage: 0.861401 1.24925 0.762815 4.44557 1.96474 2.12838 0.863583 87.7243 
Branch_type:  BRANCH_INDIRECT_CALL:  Count Percentage: 9.56193 0 2.99422 0.0055671 0.00058601 2.19344 1.00413 84.2401 
Branch_type:  BRANCH_RETURN:  Count Percentage: 4.69911 1.39551 1.46747 4.45099 3.37439 4.65629 3.73932 76.2169 
Branch_type:  BRANCH_DIRECT_JUMP:  Total Count: 36722 76677 41590 86928 24545 31272 14880 785398 
Branch_type:  BRANCH_INDIRECT:  Total Count: 43073 12701 9612 35561 12249 10283 3427 240186 
Branch_type:  BRANCH_CONDITIONAL:  Total Count: 2704214 305142 281355 583522 190641 370150 477879 7444688 
Branch_type:  BRANCH_DIRECT_CALL:  Total Count: 16182 23468 14330 83513 36909 39983 16223 1647960 
Branch_type:  BRANCH_INDIRECT_CALL:  Total Count: 32634 0 10219 19 2 7486 3427 287504 
Branch_type:  BRANCH_RETURN:  Total Count: 104353 30990 32588 98843 74935 103402 83039 1692546 
Number of unique branch instructions: 10380
Upper 32 bits: 
aaaa
ffff
ffff0000
Unique upper 32 bits: 3
Unique upper 36 bits: 3
Unique upper 40 bits: 5
Unique upper 44 bits: 32
Unique upper 48 bits: 158
Offset_3 4289
Offset_4 268
Offset_5 474
Offset_6 521
Offset_7 613
Offset_8 534
Offset_9 490
Offset_10 398
Offset_11 324
Offset_12 291
Offset_13 223
Offset_14 241
Offset_15 190
Offset_16 226
Offset_17 170
Offset_18 122
Offset_19 252
Offset_20 141
Offset_21 261
Offset_22 404
Offset_23 241
Offset_24 355
Offset_25 92
Offset_47 88
Offset_64 1
decode_dispatch_called: 21077647 31.8794
Dispatch_width: 0 10621793 50.3936 16.0652
Dispatch_width: 1 668682 3.17247 1.01136
Dispatch_width: 2 948945 4.50214 1.43525
Dispatch_width: 3 639823 3.03555 0.967714
Dispatch_width: 4 1593642 7.56082 2.41034
Dispatch_width: 5 489518 2.32245 0.740382
Dispatch_width: 6 6115244 29.0129 9.24914
Empty_decode_cycles: 45039276 68.1206
ROB_full_cycles: 1348938 2.04023
Starvation_cycles_per_kilo_instr: 586.527
Starvation_cycles_per_kilo_instr_3: 565.696
Starvation_cycles_per_kilo_instr_0: 543.121
Branch_type_1  (3,1)  (4,10)  (5,39)  (6,70)  (7,121)  (8,134)  (9,129)  (10,102)  (11,69)  (12,43)  (13,8)  (14,2)  (15,3)  (16,4)  (18,1)  (19,4)  (20,2)  (21,1)  (22,3)  (23,2)  (24,10)  (25,12)  (64,1) 
Branch_type_2  (3,1)  (4,1)  (5,1)  (8,3)  (9,3)  (12,1)  (13,1)  (14,1)  (16,3)  (17,2)  (20,2)  (21,2)  (23,5)  (24,1)  (47,41) 
Branch_type_3  (3,4287)  (4,257)  (5,430)  (6,436)  (7,461)  (8,336)  (9,267)  (10,160)  (11,126)  (12,50)  (13,7) 
Branch_type_4  (6,3)  (7,8)  (8,25)  (9,54)  (10,64)  (11,65)  (12,108)  (13,96)  (14,108)  (15,90)  (16,101)  (17,79)  (18,55)  (19,124)  (20,72)  (21,141)  (22,215)  (23,136)  (24,205)  (25,76) 
Branch_type_5  (8,2)  (9,1)  (10,4)  (11,6)  (12,3)  (13,14)  (14,16)  (15,11)  (16,20)  (17,11)  (18,16)  (19,13)  (20,12)  (21,13)  (22,42)  (23,26)  (24,41) 
Branch_type_6  (5,4)  (6,12)  (7,23)  (8,34)  (9,36)  (10,68)  (11,58)  (12,86)  (13,97)  (14,114)  (15,86)  (16,98)  (17,78)  (18,50)  (19,111)  (20,53)  (21,104)  (22,144)  (23,72)  (24,98)  (25,4)  (47,47) 
aaaaab1fc620: 2ac9e77e 2aca717c 2aca8eff 2acaf6bc 2acaf9aa 2acaf9f1 2acb1abc 2acb1b7f 2acd4e22 2acdb712 2acf5f9e 2ad0ef44 2ad3f15c 2ad414e6 2ad60e42 2ad8609c 2ad99830 2ada35cc 2ada4676 2ada6612 2adf183e 2adf30e5 2adf5602 2adf785c 2ae11572 2aeb2dcf 2aee101b 2aee1ae1 2aee9456 2b156a8c 2b156b61 2b156bea 2b167f35 2b177656 2b17feec 2b1a3e5a 
aaaaab1fc740: 2aca1fb0 2aca45b3 2aca5aa1 2aca5c69 2aca66f9 2aca9426 2acaeecb 2acf3d2d 2acf3d64 2acf6089 2ad017ea 2ad5e7ef 2ad61064 2ad87373 2ad9bf84 2ad9c093 2ae9b606 2aea9ffa 2aee99f5 2aee9a2c 2aeece4b 
aaaaac68f310: 2ac9ec8c 2ac9fb44 2ac9fbd2 2aca59ab 2acac04c 2acaf6e0 2acaf6ec 2acaf6f9 2acaf700 2acaf708 2acf2d90 2ad3cfbd 2ad3cfc4 2ad3d000 2ad3f35f 2ad4955d 2ad49571 2ad4f3f2 2ad4f400 2ad5f240 2ad5f37c 2ad5f86a 2ad5f86f 2ad5f880 2ad5fc0d 2ad5fc14 2ad5fc21 2ad5fe1b 2ad873bb 2ad873e3 2ad8a6b2 2ad9086e 2ad93096 2ad9bbb2 2ada152c 2ada1554 2ada3332 2ada5522 2adf3130 2adf313c 2adf3a3f 2adf3bd9 2adf5788 2adf7a8d 2ae07f6b 2ae0857a 2ae0857e 2ae08630 2ae08634 2ae08637 2ae08642 2ae0866f 2ae086e4 2ae086ec 2ae08717 2ae0871b 2aee0170 2aee1d38 2aee75f4 2aee7662 2aee85ca 2aee85e4 2aee8eef 2aee9a0a 2af70b84 2af74e8f 2b17d843 
aaaaac690ef0: 2aca598b 2acb111b 2acb175f 2acb1772 2acbfaf4 2acbfb00 2acf374f 2acf6d43 2acfa5c8 2ad3baf1 2ad3d4ac 2ad3d4b8 2ad3f1cf 2ad486b2 2ad5a59b 2ad5fc64 2ad5fcf9 2ad6121c 2ad906e9 2ad907bf 2ad9bada 2ada16ce 2ada1ad5 2ada43df 2ada64c0 2ada72ee 2adeb71a 2adf3bcb 2adf7a38 2adf7c6a 2adf8872 2adf8880 2adf9959 2adf9abe 2ae07f78 2ae08503 2ae08754 2ae12e80 2aea3bea 2aecb509 2aee00b0 2aee2bdd 2aee5467 2aee5601 2aee8f20 2af703fd 2af7048b 2af74e74 2dfba627 
Unique trigger count: 
1 9881
2 542
3 87
4 34
5 13
6 7
7 8
9 3
10 2
11 1
12 1
13 4
16 2
19 4
21 1
36 1
49 1
67 1
BTB PER SET UNIQUE ADDR: 6 7 7 5 3 4 8 10 10 2 6 2 8 5 5 4 6 4 7 9 5 8 7 8 8 11 1 7 6 6 11 10 6 4 9 4 4 7 8 4 8 5 6 10 9 8 6 11 11 7 6 3 13 4 4 8 5 5 9 9 4 12 5 8 6 11 8 7 5 7 6 2 6 4 6 7 6 14 5 4 9 7 8 6 6 8 7 9 8 10 10 9 9 6 6 4 10 8 5 8 8 6 9 9 5 8 7 8 7 5 7 4 4 8 7 11 3 7 6 2 7 9 4 2 6 4 5 6 10 5 10 3 11 5 8 6 5 2 6 8 8 7 6 6 5 10 4 8 10 6 7 11 6 11 5 8 6 8 7 10 11 6 10 5 10 5 3 5 15 5 6 3 7 6 3 2 5 6 9 4 6 6 9 7 7 10 6 6 7 9 6 8 6 6 6 10 11 4 10 5 4 6 9 3 8 4 5 8 7 2 3 6 9 9 6 6 4 9 9 6 6 3 7 7 6 8 13 7 2 10 14 8 4 3 6 8 9 5 3 5 5 3 10 9 14 11 2 5 5 5 8 10 6 7 5 13 4 7 9 5 8 5 7 4 9 15 6 4 7 5 7 6 4 8 10 9 5 3 4 8 7 5 10 5 9 9 7 7 9 4 6 7 5 10 6 5 6 10 6 6 6 6 4 4 6 5 6 4 12 9 6 3 8 3 6 4 10 14 7 4 6 12 5 8 5 5 6 9 4 2 7 2 6 7 10 5 7 7 7 1 5 6 3 8 6 8 3 7 9 5 5 10 9 6 8 6 7 3 7 5 6 10 6 8 12 8 4 3 4 4 8 5 6 5 7 4 11 7 6 10 9 7 7 12 6 4 8 5 5 3 10 5 8 4 7 3 6 5 2 8 6 4 7 5 5 6 8 5 5 3 4 4 10 6 2 5 10 4 2 6 3 5 5 7 12 8 3 2 5 7 4 4 16 6 8 11 7 6 6 4 5 6 8 4 7 8 4 7 6 3 6 4 7 3 9 4 5 8 10 6 5 5 6 10 5 5 13 3 5 8 2 6 9 7 5 3 10 5 4 4 5 3 3 4 3 7 10 3 7 2 11 5 4 9 1 13 5 7 5 4 11 3 3 3 2 5 6 3 4 7 7 4 7 10 3 4 2 12 6 9 6 5 7 5 11 11 4 10 9 7 8 6 5 9 5 7 5 1 6 4 4 8 9 4 8 5 11 12 12 11 6 8 7 8 2 6 8 3 6 4 10 5 8 5 5 5 9 8 10 7 9 3 9 12 8 7 6 11 3 10 14 5 2 6 4 3 3 13 8 6 7 9 4 5 5 5 8 6 5 5 9 5 9 12 8 7 5 9 8 5 9 6 8 5 8 6 7 6 5 7 8 6 10 3 5 10 7 8 4 6 8 7 6 7 7 6 5 5 5 4 11 8 5 6 2 3 6 7 9 8 8 4 11 4 6 2 10 5 6 8 12 3 6 11 8 8 7 6 5 10 7 7 6 6 11 9 8 6 8 6 7 12 10 7 8 8 7 8 8 6 3 8 2 4 4 8 10 8 7 9 3 11 4 5 7 12 4 4 5 5 7 7 6 5 5 7 9 6 1 8 4 3 6 4 4 1 3 10 2 12 7 9 7 2 6 7 7 3 6 4 4 8 5 10 4 4 6 3 7 6 6 3 4 6 2 5 4 11 9 4 6 6 6 7 7 6 14 5 6 4 9 6 0 6 8 5 6 10 3 4 8 6 4 6 10 9 9 7 4 9 3 10 4 6 6 12 11 4 5 4 12 4 9 3 7 6 7 9 4 5 4 4 6 3 4 6 1 5 5 10 6 4 10 4 5 4 5 3 6 6 8 3 7 4 10 5 4 4 6 4 5 4 7 5 4 9 9 5 7 4 8 7 7 9 6 10 7 4 9 5 7 7 4 4 14 5 6 8 9 8 4 6 6 10 8 2 3 6 7 4 5 7 6 6 10 5 7 4 6 7 8 4 5 8 6 3 10 10 4 3 12 8 5 5 8 6 5 10 6 8 10 6 4 4 2 7 4 4 7 6 9 7 10 7 8 9 7 4 5 12 5 4 11 10 5 8 10 10 2 8 8 8 5 4 6 7 9 7 8 3 9 2 13 7 3 6 9 11 6 9 6 7 11 5 3 9 10 8 9 4 3 5 3 9 11 5 8 5 4 7 12 6 5 5 5 6 4 6 9 6 8 8 7 11 5 11 6 11 5 6 3 6 6 5 7 7 7 6 6 5 8 4 9 6 10 5 9 5 3 7 10 6 15 5 
BTB PER SET COUNT: 10 6797 6802 6 3 4 2781 6802 8262 8 1522 2 3546 1521 6 6 2005 4 2170 6410 7 2379 982 3557 7758 9727 1 752 3135 34 9776 6976 5277 4 3980 5 2926 2512 1331 4 2547 731 52 3793 10675 752 2538 7811 9089 3093 704 3 14109 4 4 3544 976 7301 6294 5169 5 8893 12 3549 35 7257 2176 2037 1520 2806 3274 2 39 4 1407 3037 806 9159 973 4 3198 5279 2781 2773 1952 4048 2044 3063 9268 5018 7669 3800 4055 4268 2032 5 6837 3043 6 1030 2562 1111 3558 5508 9 6296 2031 3929 3542 1520 2535 6 4 4849 22 10560 3 2044 1659 2 3544 5757 4 2 3014 4 6 5341 10237 2025 5100 4 10179 6 8764 2028 1520 2 36 8258 6370 7881 1533 4784 6 4028 5 6795 7722 2531 1056 10355 3037 11686 559 5806 7810 8257 2306 8406 11796 2245 9838 2240 7828 3935 3 10 13601 2025 8 3 1135 159 4 2 24 2027 6251 4 44 1526 9722 439 1534 10226 3765 20 6295 6576 47 6810 1528 3037 3036 3065 9757 4 2052 6 4 485 6360 4 5293 4 1520 4272 747 2 3 3319 2425 6187 5070 5279 4 4090 1305 7302 581 3 1808 6799 6283 6290 12344 5477 3 11175 11573 6720 4 3 28 7750 4050 6 3 9 11 3 10729 2491 13655 7043 2 3819 1015 8 8768 9348 6740 2033 15 7895 4 3070 4067 1520 3923 973 2952 4 5678 12873 1445 5 2540 2530 3021 2532 5 7302 4063 3019 2019 3 4 3549 3026 9 3097 679 9214 8823 3039 3515 2078 4 2026 3543 514 7755 3036 14 24 7825 2533 4328 3036 2029 4 5 2269 8 989 4 7516 5118 1219 3 3265 3 1216 5 4056 9277 3039 4 3277 4971 973 7291 54 2530 27 3609 4 2 4811 3 1254 2278 10139 9 4049 2533 2543 1 17 979 5 4313 1219 817 4 976 3371 7 5 7281 6291 4085 3077 26 9274 3 6290 2068 2532 4211 29 3286 3747 6758 4 3 4 4 3047 7 2269 731 2796 4 7891 47 1521 4298 3555 3542 3037 10691 29 4 2048 973 733 3 4123 14 4050 6 5284 5 2820 3768 4 2044 2913 4 2911 1525 755 24 4685 8 6 2291 4 4 4504 11 955 1015 1855 4 5 1856 5 1015 569 2068 5804 1139 6 2 7 2539 141 4 8721 1846 6414 9298 1542 5706 3037 4 20 1027 3131 4 2032 3287 4 3486 27 3 3036 4 13 4 9302 4 9 1469 7316 21 1024 8 2264 7314 1040 28 7964 3 18 1537 2 870 7306 858 147 3 26180 973 4 4 34 3 3 509 5 2603 2748 403 1846 2 6531 8 4 6682 1 10433 19 2544 6 4 11563 12 3 3 2 1520 34 3 4 62 2625 5 300 6875 5 4 2 12135 29 3063 2534 1466 2544 439 4749 6860 4 5847 7759 5909 17 2675 9 532 7 3043 9 1 981 4 4 6353 6862 6 5024 17 2199 4808 10793 10836 1524 7756 1565 6783 2 2012 4667 3 2532 4 10109 8 6291 7 3347 1015 6297 2580 7753 3077 7189 4 8256 11187 5279 3056 4530 9721 5 6936 11739 421 3 3037 1464 3 3 10784 3028 21 4551 3548 4 1968 961 2026 55 2027 11 8 6629 2531 9213 4299 5847 3048 7 8189 7757 1471 4054 1580 2534 3317 7752 8 4564 2026 29 5287 2908 2290 7810 3 1477 4566 2549 6298 8 2531 6290 10224 2027 43 8257 10 977 9 1015 4 10739 4154 6 37 2 3 1533 2537 8271 30 5853 4 12643 4 1018 3 9665 1520 8373 4051 16293 3 2032 11869 6353 4057 5468 1031 28 4564 4387 7806 2536 3035 10337 4265 3042 2532 7389 2532 8257 10571 2634 6858 20949 3738 2556 6796 3026 2536 6 3132 2 4 4 2536 8264 2537 1538 1566 3 9781 4 2530 5445 7306 4 1463 2025 2474 5787 2549 3828 1015 1063 3400 9279 3713 1 7303 4 4 4385 4 4 1 3 8241 2 10236 6799 9648 8764 2 2034 5030 3682 5 2030 4 5 5585 21 12581 4 5 2534 3 1526 3543 7304 3 4 599 2 1520 4 9688 10169 957 14 7302 5843 2279 3829 2268 12649 508 2547 4 3166 757 0 2067 77 1466 4774 4522 3 4 4892 18 4 5729 5822 7251 3521 133 458 4050 3 4431 4 2044 2719 10586 8021 4 2025 4 9462 6 7391 5 3198 3849 4792 9061 4 31 4 5 1567 451 5 26 1 47 8 7169 605 4 5861 374 1520 8 1684 3 2533 2532 4097 3 7246 4 10723 2275 4 4 3036 4 2219 4 2031 5727 4 3288 6593 1520 1539 4 8821 3372 3038 5339 2531 12132 3041 4 6800 3915 1853 7303 5 4 10626 980 738 9774 10280 8209 4 5729 3037 6696 5286 2 3 1526 63 5 10 8258 47 3596 6782 1093 3542 4 9 3526 6795 4 11 2957 1698 4 3207 6985 9 3 5695 4550 137 58 2464 2252 23 5484 179 3787 3513 1546 4 6 3 3544 4 1016 7809 2945 6424 2034 8265 4772 6392 3396 2540 5 2025 4123 28 512 8018 5562 1521 4049 7446 8829 2 3550 3271 4032 7 958 1446 3542 2562 2525 5192 3 6241 2 10295 4030 3 1787 8090 11297 3299 5286 2026 2035 9778 4776 3 3694 5199 2892 3556 4 3 1520 3 8194 6085 1956 7254 22 4 2549 9781 32 512 497 2025 2538 4 7 3545 2534 6281 2045 3545 9239 7 3557 2531 6064 12 1534 3 12 1567 6 2034 44 5837 11 2028 8 7820 4 10173 1916 6072 8 2931 11 3 45 5048 2216 6602 27 
