
*** ChampSim Multicore Out-of-Order Simulator ***

Warmup Instructions: 50000000
Simulation Instructions: 50000000
Number of CPUs: 1
LLC sets: 2048
LLC ways: 16
Off-chip DRAM Size: 4096 MB Channels: 1 Width: 64-bit Data Rate: 6400 MT/s
CPU 0 runs ./micro_traces/srv445.trace.gz
.gz
ITLB has LRU replacement policy
DTLB has LRU replacement policy
STLB has LRU replacement policy
FDIP Prefetcher at L1I
L1I has LRU replacement policy
L1D has LRU replacement policy
Initialize SRRIP state for L2C
Initialize DRRIP state for LLC
Heartbeat CPU 0 instructions: 10000001 cycles: 2796593 heartbeat IPC: 3.57578 cumulative IPC: 3.57578 (Simulation time: 0 hr 1 min 38 sec) 
Heartbeat CPU 0 instructions: 20000001 cycles: 5592211 heartbeat IPC: 3.57703 cumulative IPC: 3.5764 (Simulation time: 0 hr 3 min 11 sec) 
Heartbeat CPU 0 instructions: 30000003 cycles: 8387311 heartbeat IPC: 3.57769 cumulative IPC: 3.57683 (Simulation time: 0 hr 4 min 44 sec) 
Heartbeat CPU 0 instructions: 40000002 cycles: 11183545 heartbeat IPC: 3.57624 cumulative IPC: 3.57668 (Simulation time: 0 hr 6 min 18 sec) 
Heartbeat CPU 0 instructions: 50000003 cycles: 13980801 heartbeat IPC: 3.57493 cumulative IPC: 3.57633 (Simulation time: 0 hr 7 min 50 sec) 

Warmup complete CPU 0 instructions: 50000003 cycles: 13980801 (Simulation time: 0 hr 7 min 50 sec) 

Cycle: 20000000 FTQ IN: 57051459 FTQ occupancy: 18.3007 DECODE IN: 57051459 DECODE occupancy: 46.8193 ROB IN: 57051459 ROB occupancy: 283.346 ROB OUT: 57051456
Heartbeat CPU 0 instructions: 60000001 cycles: 22497541 heartbeat IPC: 1.17416 cumulative IPC: 1.17416 (Simulation time: 0 hr 9 min 13 sec) 
Cycle: 30000000 FTQ IN: 11615277 FTQ occupancy: 7.58446 DECODE IN: 11615277 DECODE occupancy: 16.4312 ROB IN: 11615277 ROB occupancy: 132.81 ROB OUT: 11615260
Heartbeat CPU 0 instructions: 70000001 cycles: 31149557 heartbeat IPC: 1.1558 cumulative IPC: 1.16491 (Simulation time: 0 hr 10 min 37 sec) 
Heartbeat CPU 0 instructions: 80000001 cycles: 39702764 heartbeat IPC: 1.16915 cumulative IPC: 1.16632 (Simulation time: 0 hr 11 min 59 sec) 
Cycle: 40000000 FTQ IN: 11671947 FTQ occupancy: 7.41633 DECODE IN: 11671921 DECODE occupancy: 16.1734 ROB IN: 11671861 ROB occupancy: 130.736 ROB OUT: 11671808
Heartbeat CPU 0 instructions: 90000003 cycles: 48432142 heartbeat IPC: 1.14556 cumulative IPC: 1.16106 (Simulation time: 0 hr 13 min 23 sec) 
Cycle: 50000000 FTQ IN: 11487007 FTQ occupancy: 7.54895 DECODE IN: 11487033 DECODE occupancy: 16.2473 ROB IN: 11487093 ROB occupancy: 129.289 ROB OUT: 11487161
Heartbeat CPU 0 instructions: 100000000 cycles: 56974256 heartbeat IPC: 1.17067 cumulative IPC: 1.16297 (Simulation time: 0 hr 14 min 43 sec) 
Finished CPU 0 instructions: 50000001 cycles: 42993456 cumulative IPC: 1.16297 (Simulation time: 0 hr 14 min 43 sec) 

ChampSim completed all CPUs

Region of Interest Statistics

CPU 0 cumulative IPC: 1.16297 instructions: 50000001 cycles: 42993456
 Fetch stage stalled: 68.7806  Sim cycles: 42993456 fetch stall cycle: 29571172
 Empty decode stage: 56.0387  Sim cycles: 42993456 fetch stall cycle: 24092966
ITLB TOTAL     ACCESS:    5605006  HIT:    5109750  MISS:     495256  HIT %:     91.164  MISS %:    8.83596   MPKI: 9.90512
ITLB LOAD TRANSLATION INSTRUCTION	ACCESS:    5494213  HIT:    4998957  MISS:     495256  HIT %:    90.9859  MISS %:    9.01414  MPKI: 9.90512
ITLB TRANSLATION FROM L1D PREFETCHER INSTRUCTION	ACCESS:     110793  HIT:     110793  MISS:          0  HIT %:        100  MISS %:          0  MPKI: 0

ITLB AVERAGE MISS LATENCY: 9.05318 cycles
ITLB RQ	ACCESS:    7488853	FORWARD:          0	MERGED:    1390568	TO_CACHE:    6098285

DTLB TOTAL     ACCESS:    9268055  HIT:    8797237  MISS:     470818  HIT %:      94.92  MISS %:    5.08001   MPKI: 9.41636
DTLB LOAD TRANSLATION DATA	ACCESS:    9268055  HIT:    8797237  MISS:     470818  HIT %:      94.92  MISS %:    5.08001  MPKI: 9.41636

DTLB AVERAGE MISS LATENCY: 9.30059 cycles
DTLB RQ	ACCESS:   13559598	FORWARD:          0	MERGED:    4258389	TO_CACHE:    9301209

STLB TOTAL     ACCESS:    1217316  HIT:    1215329  MISS:       1987  HIT %:    99.8368  MISS %:   0.163228   MPKI: 0.03974
STLB LOAD TRANSLATION INSTRUCTION	ACCESS:     495256  HIT:     495021  MISS:        235  HIT %:    99.9525  MISS %:  0.0474502  MPKI: 0.0047
STLB LOAD TRANSLATION DATA	ACCESS:     470720  HIT:     468992  MISS:       1728  HIT %:    99.6329  MISS %:   0.367097  MPKI: 0.03456
STLB TRANSLATION FROM L1D PREFETCHER DATA	ACCESS:     251340  HIT:     251316  MISS:         24  HIT %:    99.9905  MISS %: 0.00954882  MPKI: 0.00048

STLB AVERAGE MISS LATENCY: 72.8284 cycles
STLB RQ	ACCESS:    1337389	FORWARD:          0	MERGED:     120032	TO_CACHE:    1217357

STLB Hit, L1D data hit: 0
STLB Hit, L2C data hit: 0
STLB Hit, LLC data hit: 0
STLB Hit, LLC data miss: 0
STLB STLB hints to L2: 0
L1D TOTAL     ACCESS:   13325221  HIT:   12206528  MISS:    1118693  HIT %:    91.6047  MISS %:    8.39531   MPKI: 22.3739
L1D LOAD DATA	ACCESS:    6752359  HIT:    6014553  MISS:     737806  HIT %:    89.0734  MISS %:    10.9266  MPKI: 14.7561
L1D RFO DATA	ACCESS:    6242379  HIT:    5955757  MISS:     286622  HIT %:    95.4084  MISS %:    4.59155  MPKI: 5.73244
L1D PREFETCH DATA	ACCESS:     330483  HIT:     236218  MISS:      94265  HIT %:    71.4766  MISS %:    28.5234  MPKI: 1.8853

L1D PREFETCH  REQUESTED:     742992  ISSUED:     742992  USEFUL:      33430  USELESS:      68177
L1D USEFUL LOAD PREFETCHES:      33430 PREFETCH ISSUED TO LOWER LEVEL:     101644  ACCURACY: 32.8893
 TIMELY PREFETCHES:      33430 LATE PREFETCHES: 7350 DROPPED PREFETCHES: 7
L1D AVERAGE MISS LATENCY: 233205 cycles
L1D RQ	ACCESS:   10841634	FORWARD:          0	MERGED:    3890241	TO_CACHE:    6787088
L1D WQ	ACCESS:    6950180	FORWARD:     164667	MERGED:     177670	TO_CACHE:    6772510
L1D PQ	ACCESS:     371677	FORWARD:          0	MERGED:          0	TO_CACHE:     371315

L1D UNIQUE REGIONS ACCESSED: 0
L1D REGIONS CONFLICTS: 0
L1D Cross Page Prefetch Requests: 6883
L1D Same Page Prefetch Requests: 749100
L1D ROI Sum of L1D PQ occupancy: 4703993
L1D PREFETCHES PUSHED FROM L2C: 0
L1I TOTAL     ACCESS:    6912856  HIT:    4142402  MISS:    2770454  HIT %:    59.9232  MISS %:    40.0768   MPKI: 55.4091
L1I LOAD INSTRUCTION	ACCESS:    6403340  HIT:    3632886  MISS:    2770454  HIT %:    56.7342  MISS %:    43.2658  MPKI: 55.4091
L1I PREFETCH INSTRUCTION	ACCESS:     509516  HIT:     509516  MISS:          0  HIT %:        100  MISS %:          0  MPKI: 0

L1I PREFETCH  REQUESTED:    1176082  ISSUED:    1176082  USEFUL:          0  USELESS:          0
L1I USEFUL LOAD PREFETCHES:          0 PREFETCH ISSUED TO LOWER LEVEL:          0  ACCURACY: -nan
 TIMELY PREFETCHES:          0 LATE PREFETCHES: 0 DROPPED PREFETCHES: 0
L1I AVERAGE MISS LATENCY: 17.3533 cycles
L1I RQ	ACCESS:    9467538	FORWARD:          0	MERGED:    2823458	TO_CACHE:    6644080
L1I PQ	ACCESS:    1176082	FORWARD:          0	MERGED:     331309	TO_CACHE:     844773

L1BTB TOTAL     ACCESS:    5671226  HIT:    2034484  MISS:    3636742  HIT %:    35.8738  MISS %:    64.1262   MPKI: 72.7348
L1BTB BRANCH_DIRECT_JUMP	ACCESS:     548968  HIT:     143875  MISS:     405093	AVERAGE STALL: 37.0248
L1BTB BRANCH_INDIRECT	ACCESS:     182924  HIT:      65969  MISS:     116955	AVERAGE STALL: 108.096
L1BTB BRANCH_CONDITIONAL	ACCESS:    2707038  HIT:    1410657  MISS:    1296381	AVERAGE STALL: 40.3803
L1BTB BRANCH_DIRECT_CALL	ACCESS:     944414  HIT:     104229  MISS:     840185	AVERAGE STALL: 39.6335
L1BTB BRANCH_INDIRECT_CALL	ACCESS:     171739  HIT:      21004  MISS:     150735	AVERAGE STALL: 115.62
L1BTB BRANCH_RETURN	ACCESS:    1116143  HIT:     288750  MISS:     827393	AVERAGE STALL: 38.5018
L1BTB BRANCH_OTHER ACCESS:          0  HIT:          0  MISS:          0	AVERAGE STALL: -nan
L1BTB TOTAL ROB OCCUPANCY AT BTB MISS: 11.8553

L2BTB1 TOTAL     ACCESS:    3611332  HIT:    3205980  MISS:     405352  HIT %:    88.7756  MISS %:    11.2244   MPKI: 8.10704
L2BTB1 BRANCH_DIRECT_JUMP	ACCESS:     400945  HIT:     364500  MISS:      36445	AVERAGE STALL: 37.0248
L2BTB1 BRANCH_INDIRECT	ACCESS:     106644  HIT:      84629  MISS:      22015	AVERAGE STALL: 108.096
L2BTB1 BRANCH_CONDITIONAL	ACCESS:    1296381  HIT:    1186801  MISS:     109580	AVERAGE STALL: 40.3803
L2BTB1 BRANCH_DIRECT_CALL	ACCESS:     840185  HIT:     726336  MISS:     113849	AVERAGE STALL: 39.6335
L2BTB1 BRANCH_INDIRECT_CALL	ACCESS:     141194  HIT:     116829  MISS:      24365	AVERAGE STALL: 115.62
L2BTB1 BRANCH_RETURN	ACCESS:     825983  HIT:     726885  MISS:      99098	AVERAGE STALL: 38.5018
L2BTB1 BRANCH_OTHER ACCESS:          0  HIT:          0  MISS:          0	AVERAGE STALL: -nan
L2BTB1 TOTAL ROB OCCUPANCY AT BTB MISS: 106.364

L2C TOTAL     ACCESS:    4496018  HIT:    4008455  MISS:     487563  HIT %:    89.1557  MISS %:    10.8443   MPKI: 9.75126
L2C LOAD INSTRUCTION	ACCESS:    2770454  HIT:    2500819  MISS:     269635  HIT %:    90.2675  MISS %:    9.73252  MPKI: 5.3927
L2C LOAD TRANSLATION INSTRUCTION	ACCESS:        271  HIT:         60  MISS:        211  HIT %:    22.1402  MISS %:    77.8598  MPKI: 0.00422
L2C LOAD DATA	ACCESS:     730436  HIT:     658000  MISS:      72436  HIT %:    90.0832  MISS %:    9.91682  MPKI: 1.44872
L2C RFO DATA	ACCESS:     286558  HIT:     230102  MISS:      56456  HIT %:    80.2986  MISS %:    19.7014  MPKI: 1.12912
L2C PREFETCH DATA	ACCESS:     183987  HIT:     111575  MISS:      72412  HIT %:    60.6429  MISS %:    39.3571  MPKI: 1.44824
L2C WRITEBACK DATA	ACCESS:     522476  HIT:     507297  MISS:      15179  HIT %:    97.0948  MISS %:    2.90521  MPKI: 0.30358
L2C LOAD TRANSLATION DATA	ACCESS:       1792  HIT:        570  MISS:       1222  HIT %:     31.808  MISS %:     68.192  MPKI: 0.02444
L2C TRANSLATION FROM L1D PREFETCHER DATA	ACCESS:         44  HIT:         32  MISS:         12  HIT %:    72.7273  MISS %:    27.2727  MPKI: 0.00024

L2C PREFETCH  REQUESTED:      89334  ISSUED:      89334  USEFUL:       7811  USELESS:      64893
L2C USEFUL LOAD PREFETCHES:       7811 PREFETCH ISSUED TO LOWER LEVEL:      72719  ACCURACY: 10.7413
 TIMELY PREFETCHES:       7811 LATE PREFETCHES: 307 DROPPED PREFETCHES: 0
L2C AVERAGE MISS LATENCY: 37.9263 cycles
L2C RQ	ACCESS:    3789610	FORWARD:          0	MERGED:          0	TO_CACHE:    3789557
L2C WQ	ACCESS:     522476	FORWARD:         53	MERGED:          0	TO_CACHE:     522476
L2C PQ	ACCESS:     190978	FORWARD:          0	MERGED:       3458	TO_CACHE:     187520

L2C Dense regions hint from L2: 0
PSCL5 TOTAL     ACCESS:       3988  HIT:       1994  MISS:       1994  HIT %:         50  MISS %:         50   MPKI: 0.03988
PSCL5 LOAD TRANSLATION INSTRUCTION	ACCESS:       3900  HIT:       1950  MISS:       1950  HIT %:         50  MISS %:         50  MPKI: 0.039
PSCL5 TRANSLATION FROM L1D PREFETCHER INSTRUCTION	ACCESS:         88  HIT:         44  MISS:         44  HIT %:         50  MISS %:         50  MPKI: 0.00088


PSCL4 TOTAL     ACCESS:       3737  HIT:       1865  MISS:       1872  HIT %:    49.9063  MISS %:    50.0937   MPKI: 0.03744
PSCL4 LOAD TRANSLATION INSTRUCTION	ACCESS:       2222  HIT:       1821  MISS:        401  HIT %:    81.9532  MISS %:    18.0468  MPKI: 0.00802
PSCL4 TRANSLATION FROM L1D PREFETCHER INSTRUCTION	ACCESS:         48  HIT:         44  MISS:          4  HIT %:    91.6667  MISS %:    8.33333  MPKI: 8e-05
PSCL4 LOAD TRANSLATION DATA	ACCESS:       1427  HIT:          0  MISS:       1427  HIT %:          0  MISS %:        100  MPKI: 0.02854
PSCL4 TRANSLATION FROM L1D PREFETCHER DATA	ACCESS:         40  HIT:          0  MISS:         40  HIT %:          0  MISS %:        100  MPKI: 0.0008


PSCL3 TOTAL     ACCESS:       3743  HIT:       1868  MISS:       1875  HIT %:    49.9065  MISS %:    50.0935   MPKI: 0.0375
PSCL3 LOAD TRANSLATION INSTRUCTION	ACCESS:       2225  HIT:       1824  MISS:        401  HIT %:    81.9775  MISS %:    18.0225  MPKI: 0.00802
PSCL3 TRANSLATION FROM L1D PREFETCHER INSTRUCTION	ACCESS:         48  HIT:         44  MISS:          4  HIT %:    91.6667  MISS %:    8.33333  MPKI: 8e-05
PSCL3 LOAD TRANSLATION DATA	ACCESS:       1430  HIT:          0  MISS:       1430  HIT %:          0  MISS %:        100  MPKI: 0.0286
PSCL3 TRANSLATION FROM L1D PREFETCHER DATA	ACCESS:         40  HIT:          0  MISS:         40  HIT %:          0  MISS %:        100  MPKI: 0.0008


PSCL2 TOTAL     ACCESS:       3888  HIT:       1894  MISS:       1994  HIT %:     48.714  MISS %:     51.286   MPKI: 0.03988
PSCL2 LOAD TRANSLATION INSTRUCTION	ACCESS:       2084  HIT:       1850  MISS:        234  HIT %:    88.7716  MISS %:    11.2284  MPKI: 0.00468
PSCL2 TRANSLATION FROM L1D PREFETCHER INSTRUCTION	ACCESS:         44  HIT:         44  MISS:          0  HIT %:        100  MISS %:          0  MPKI: 0
PSCL2 LOAD TRANSLATION DATA	ACCESS:       1716  HIT:          0  MISS:       1716  HIT %:          0  MISS %:        100  MPKI: 0.03432
PSCL2 TRANSLATION FROM L1D PREFETCHER DATA	ACCESS:         44  HIT:          0  MISS:         44  HIT %:          0  MISS %:        100  MPKI: 0.00088


LLC TOTAL     ACCESS:     549761  HIT:     522069  MISS:      27692  HIT %:    94.9629  MISS %:     5.0371   MPKI: 0.55384
LLC LOAD INSTRUCTION	ACCESS:     269635  HIT:     268764  MISS:        871  HIT %:     99.677  MISS %:   0.323029  MPKI: 0.01742
LLC LOAD TRANSLATION INSTRUCTION	ACCESS:        211  HIT:        169  MISS:         42  HIT %:    80.0948  MISS %:    19.9052  MPKI: 0.00084
LLC LOAD DATA	ACCESS:      72138  HIT:      68745  MISS:       3393  HIT %:    95.2965  MISS %:    4.70348  MPKI: 0.06786
LLC RFO DATA	ACCESS:      56436  HIT:      43367  MISS:      13069  HIT %:    76.8428  MISS %:    23.1572  MPKI: 0.26138
LLC PREFETCH DATA	ACCESS:      72719  HIT:      62817  MISS:       9902  HIT %:    86.3832  MISS %:    13.6168  MPKI: 0.19804
LLC WRITEBACK DATA	ACCESS:      77388  HIT:      77044  MISS:        344  HIT %:    99.5555  MISS %:   0.444513  MPKI: 0.00688
LLC LOAD TRANSLATION DATA	ACCESS:       1222  HIT:       1151  MISS:         71  HIT %:    94.1899  MISS %:    5.81015  MPKI: 0.00142
LLC TRANSLATION FROM L1D PREFETCHER DATA	ACCESS:         12  HIT:         12  MISS:          0  HIT %:        100  MISS %:          0  MPKI: 0

LLC AVERAGE MISS LATENCY: 154.834 cycles
LLC RQ	ACCESS:     399665	FORWARD:          0	MERGED:          0	TO_CACHE:     399654
LLC WQ	ACCESS:      77388	FORWARD:         11	MERGED:          0	TO_CACHE:      77388
LLC PQ	ACCESS:      72719	FORWARD:          0	MERGED:          0	TO_CACHE:      72719

LLC Dense regions hint to LLC: 0

RAW hits: 1792070
Loads Generated: 12633702
Loads sent to L1D: 10841634
Stores Generated: 6950187
Stores sent to L1D: 6950180
Major fault: 0 Minor fault: 2491
Allocated PAGES: 2491

stream: 
stream:times selected: 1180195
stream:pref_filled: 121173
stream:pref_useful: 24059
stream:pref_late: 6995
stream:misses: 8025
stream:misses_by_poll: 0

CS: 
CS:times selected: 176774
CS:pref_filled: 59337
CS:pref_useful: 35882
CS:pref_late: 6470
CS:misses: 15380
CS:misses_by_poll: 2

CPLX: 
CPLX:times selected: 1002373
CPLX:pref_filled: 19569
CPLX:pref_useful: 4776
CPLX:pref_late: 3130
CPLX:misses: 94104
CPLX:misses_by_poll: 0

NL_L1: 
NL:times selected: 20738
NL:pref_filled: 838
NL:pref_useful: 353
NL:pref_late: 276
NL:misses: 1812
NL:misses_by_poll: 0

total selections: 2380080
total_filled: 94265
total_useful: 33430
total_late: 18026
total_polluted: 2
total_misses_after_warmup: 772540
conflicts: 5622321

test: 115853

DRAM Statistics
 CHANNEL 0
 RQ ROW_BUFFER_HIT:      10036  ROW_BUFFER_MISS:      17308
 DBUS_CONGESTED:          6
 WQ ROW_BUFFER_HIT:       1414  ROW_BUFFER_MISS:      11590  FULL:          0

 AVG_CONGESTED_CYCLE: 5

CPU 0 Branch Prediction Accuracy: 99.8189% MPKI: 0.33126 Average ROB Occupancy at Mispredict: 146.616
Branch types
NOT_BRANCH: 40853075 81.7061%
BRANCH_DIRECT_JUMP: 548968 1.09794%
BRANCH_INDIRECT: 182924 0.365848%
BRANCH_CONDITIONAL: 6182715 12.3654%
BRANCH_DIRECT_CALL: 944414 1.88883%
BRANCH_INDIRECT_CALL: 171739 0.343478%
BRANCH_RETURN: 1116143 2.23229%
BRANCH_OTHER: 0 0%

DRAM PAGES: 1048576
Allocated PAGES: 2491
Average_ROB_Occupancy: 132.121
Average_Decode_Occupancy: 16.2433
Average_FTQ_Occupancy: 7.48892
Indirect max targets: 14 Average targets: 1.14052
Branch_type:  BRANCH_DIRECT_JUMP:  Count Percentage: 2.88069 6.67639 2.91154 8.00547 1.69086 5.9593 1.61759 70.2582 
Branch_type:  BRANCH_INDIRECT:  Count Percentage: 11.7692 3.43179 2.5083 17.6376 3.34906 4.01586 2.01546 55.2727 
Branch_type:  BRANCH_CONDITIONAL:  Count Percentage: 20.897 3.2797 1.77323 5.96189 1.43742 4.69425 0.910011 61.0465 
Branch_type:  BRANCH_DIRECT_CALL:  Count Percentage: 0.256879 1.79493 1.11621 3.76137 2.22977 3.03899 0.774705 87.0272 
Branch_type:  BRANCH_INDIRECT_CALL:  Count Percentage: 9.5416 0.558367 2.99161 4.83134 0 4.07117 0.993911 77.012 
Branch_type:  BRANCH_RETURN:  Count Percentage: 3.42122 1.43758 1.62572 8.88923 2.86556 5.36284 1.44621 74.9516 
Branch_type:  BRANCH_DIRECT_JUMP:  Total Count: 31571 73170 31909 87736 18531 65311 17728 769995 
Branch_type:  BRANCH_INDIRECT:  Total Count: 42961 12527 9156 64382 12225 14659 7357 201761 
Branch_type:  BRANCH_CONDITIONAL:  Total Count: 2581989 405232 219096 736638 177604 580011 112439 7542769 
Branch_type:  BRANCH_DIRECT_CALL:  Total Count: 4860 33959 21118 71163 42186 57496 14657 1646506 
Branch_type:  BRANCH_INDIRECT_CALL:  Total Count: 32861 1923 10303 16639 0 14021 3423 265227 
Branch_type:  BRANCH_RETURN:  Total Count: 76538 32161 36370 198866 64107 119975 32354 1676785 
Number of unique branch instructions: 9964
Upper 32 bits: 
aaaa
ffff
ffff0000
Unique upper 32 bits: 3
Unique upper 36 bits: 3
Unique upper 40 bits: 5
Unique upper 44 bits: 32
Unique upper 48 bits: 154
Offset_3 4102
Offset_4 248
Offset_5 453
Offset_6 511
Offset_7 581
Offset_8 506
Offset_9 474
Offset_10 383
Offset_11 314
Offset_12 286
Offset_13 202
Offset_14 227
Offset_15 184
Offset_16 220
Offset_17 147
Offset_18 118
Offset_19 236
Offset_20 142
Offset_21 239
Offset_22 396
Offset_23 241
Offset_24 351
Offset_25 91
Offset_47 85
decode_dispatch_called: 20131944 46.8256
Dispatch_width: 0 9990784 49.6265 23.2379
Dispatch_width: 1 537183 2.66831 1.24945
Dispatch_width: 2 678074 3.36815 1.57716
Dispatch_width: 3 428222 2.12708 0.996017
Dispatch_width: 4 1934871 9.61095 4.50038
Dispatch_width: 5 294340 1.46205 0.684616
Dispatch_width: 6 6268470 31.1369 14.5801
Empty_decode_cycles: 22861512 53.1744
ROB_full_cycles: 2757084 6.4128
Starvation_cycles_per_kilo_instr: 339.679
Starvation_cycles_per_kilo_instr_3: 317.387
Starvation_cycles_per_kilo_instr_0: 300.952
Branch_type_1  (3,1)  (4,9)  (5,37)  (6,70)  (7,115)  (8,127)  (9,123)  (10,98)  (11,69)  (12,45)  (13,5)  (14,2)  (15,3)  (16,4)  (18,1)  (19,4)  (20,2)  (21,1)  (22,3)  (23,2)  (24,10)  (25,12) 
Branch_type_2  (3,1)  (5,1)  (8,3)  (9,3)  (12,1)  (13,1)  (14,1)  (16,3)  (17,2)  (20,2)  (21,2)  (23,5)  (24,1)  (47,39) 
Branch_type_3  (3,4100)  (4,239)  (5,411)  (6,424)  (7,436)  (8,315)  (9,263)  (10,155)  (11,124)  (12,55)  (13,4) 
Branch_type_4  (6,4)  (7,8)  (8,24)  (9,54)  (10,62)  (11,61)  (12,102)  (13,88)  (14,100)  (15,86)  (16,97)  (17,66)  (18,53)  (19,116)  (20,73)  (21,127)  (22,210)  (23,136)  (24,206)  (25,75) 
Branch_type_5  (8,2)  (9,1)  (10,3)  (11,5)  (12,3)  (13,14)  (14,16)  (15,11)  (16,22)  (17,11)  (18,16)  (19,12)  (20,11)  (21,13)  (22,42)  (23,26)  (24,43) 
Branch_type_6  (5,4)  (6,13)  (7,22)  (8,35)  (9,30)  (10,65)  (11,55)  (12,80)  (13,90)  (14,108)  (15,84)  (16,94)  (17,68)  (18,48)  (19,104)  (20,54)  (21,96)  (22,141)  (23,72)  (24,91)  (25,4)  (47,46) 
Unique trigger count: 
L2BTB1 768 4
L2BTB2 768 4
L2BTB3 768 4
L2BTB4 112 4
