
*** ChampSim Multicore Out-of-Order Simulator ***

Warmup Instructions: 50000000
Simulation Instructions: 50000000
Number of CPUs: 1
LLC sets: 2048
LLC ways: 16
Off-chip DRAM Size: 4096 MB Channels: 1 Width: 64-bit Data Rate: 6400 MT/s
CPU 0 runs ./micro_traces/srv416.trace.gz
.gz
ITLB has LRU replacement policy
DTLB has LRU replacement policy
STLB has LRU replacement policy
FDIP Prefetcher at L1I
L1I has LRU replacement policy
L1D has LRU replacement policy
Initialize SRRIP state for L2C
Initialize DRRIP state for LLC
Heartbeat_Variant_0 : 1027 0.33431 per_variant_size: 0 1027 0 0 0 0 0 0 0 
Heartbeat_Variant_1 : 2035 0.662435 per_variant_size: 0 361 1674 0 0 0 0 0 0 
Heartbeat_Variant_2 : 0 0 per_variant_size: 0 0 0 0 0 0 0 0 0 
Heartbeat_Variant_3 : 0 0 per_variant_size: 0 0 0 0 0 0 0 0 0 
Heartbeat_Variant_0_evicts 0 : 17823 1 : 25626 2 : 0 3 : 0 
Heartbeat_Variant_1_evicts 0 : 25576 1 : 0 2 : 0 3 : 0 
Heartbeat_Variant_2_evicts 0 : 0 1 : 0 2 : 0 3 : 0 
Heartbeat_Variant_3_evicts 0 : 0 1 : 0 2 : 0 3 : 0 
Heartbeat CPU 0 instructions: 10000000 cycles: 2796986 heartbeat IPC: 3.57528 cumulative IPC: 3.57528 (Simulation time: 0 hr 1 min 45 sec) 
Heartbeat_Variant_0 : 998 0.32487 per_variant_size: 0 998 0 0 0 0 0 0 0 
Heartbeat_Variant_1 : 2065 0.672201 per_variant_size: 0 377 1688 0 0 0 0 0 0 
Heartbeat_Variant_2 : 0 0 per_variant_size: 0 0 0 0 0 0 0 0 0 
Heartbeat_Variant_3 : 0 0 per_variant_size: 0 0 0 0 0 0 0 0 0 
Heartbeat_Variant_0_evicts 0 : 17715 1 : 25550 2 : 0 3 : 0 
Heartbeat_Variant_1_evicts 0 : 25579 1 : 0 2 : 0 3 : 0 
Heartbeat_Variant_2_evicts 0 : 0 1 : 0 2 : 0 3 : 0 
Heartbeat_Variant_3_evicts 0 : 0 1 : 0 2 : 0 3 : 0 
Heartbeat CPU 0 instructions: 20000001 cycles: 5592377 heartbeat IPC: 3.57732 cumulative IPC: 3.5763 (Simulation time: 0 hr 3 min 25 sec) 
Heartbeat_Variant_0 : 985 0.320638 per_variant_size: 0 985 0 0 0 0 0 0 0 
Heartbeat_Variant_1 : 2078 0.676432 per_variant_size: 0 369 1709 0 0 0 0 0 0 
Heartbeat_Variant_2 : 0 0 per_variant_size: 0 0 0 0 0 0 0 0 0 
Heartbeat_Variant_3 : 0 0 per_variant_size: 0 0 0 0 0 0 0 0 0 
Heartbeat_Variant_0_evicts 0 : 17595 1 : 25672 2 : 0 3 : 0 
Heartbeat_Variant_1_evicts 0 : 25685 1 : 0 2 : 0 3 : 0 
Heartbeat_Variant_2_evicts 0 : 0 1 : 0 2 : 0 3 : 0 
Heartbeat_Variant_3_evicts 0 : 0 1 : 0 2 : 0 3 : 0 
Heartbeat CPU 0 instructions: 30000002 cycles: 8389138 heartbeat IPC: 3.57557 cumulative IPC: 3.57605 (Simulation time: 0 hr 5 min 6 sec) 
Heartbeat_Variant_0 : 989 0.32194 per_variant_size: 0 989 0 0 0 0 0 0 0 
Heartbeat_Variant_1 : 2074 0.67513 per_variant_size: 0 381 1693 0 0 0 0 0 0 
Heartbeat_Variant_2 : 0 0 per_variant_size: 0 0 0 0 0 0 0 0 0 
Heartbeat_Variant_3 : 0 0 per_variant_size: 0 0 0 0 0 0 0 0 0 
Heartbeat_Variant_0_evicts 0 : 17666 1 : 25856 2 : 0 3 : 0 
Heartbeat_Variant_1_evicts 0 : 25852 1 : 0 2 : 0 3 : 0 
Heartbeat_Variant_2_evicts 0 : 0 1 : 0 2 : 0 3 : 0 
Heartbeat_Variant_3_evicts 0 : 0 1 : 0 2 : 0 3 : 0 
Heartbeat CPU 0 instructions: 40000000 cycles: 11184223 heartbeat IPC: 3.57771 cumulative IPC: 3.57647 (Simulation time: 0 hr 6 min 50 sec) 
Heartbeat_Variant_0 : 993 0.323242 per_variant_size: 0 993 0 0 0 0 0 0 0 
Heartbeat_Variant_1 : 2070 0.673828 per_variant_size: 0 341 1729 0 0 0 0 0 0 
Heartbeat_Variant_2 : 0 0 per_variant_size: 0 0 0 0 0 0 0 0 0 
Heartbeat_Variant_3 : 0 0 per_variant_size: 0 0 0 0 0 0 0 0 0 
Heartbeat_Variant_0_evicts 0 : 17381 1 : 24952 2 : 0 3 : 0 
Heartbeat_Variant_1_evicts 0 : 24948 1 : 0 2 : 0 3 : 0 
Heartbeat_Variant_2_evicts 0 : 0 1 : 0 2 : 0 3 : 0 
Heartbeat_Variant_3_evicts 0 : 0 1 : 0 2 : 0 3 : 0 
Heartbeat CPU 0 instructions: 50000000 cycles: 13980167 heartbeat IPC: 3.57661 cumulative IPC: 3.5765 (Simulation time: 0 hr 8 min 38 sec) 

Warmup complete CPU 0 instructions: 50000004 cycles: 13980168 (Simulation time: 0 hr 8 min 38 sec) 

Cycle: 20000000 FTQ IN: 56488079 FTQ occupancy: 18.2087 DECODE IN: 56488055 DECODE occupancy: 46.5025 ROB IN: 56488050 ROB occupancy: 279.844 ROB OUT: 56487886
Heartbeat_Variant_0 : 959 0.312174 per_variant_size: 0 959 0 0 0 0 0 0 0 
Heartbeat_Variant_1 : 2104 0.684896 per_variant_size: 0 379 1725 0 0 0 0 0 0 
Heartbeat_Variant_2 : 0 0 per_variant_size: 0 0 0 0 0 0 0 0 0 
Heartbeat_Variant_3 : 0 0 per_variant_size: 0 0 0 0 0 0 0 0 0 
Heartbeat_Variant_0_evicts 0 : 17683 1 : 25576 2 : 0 3 : 0 
Heartbeat_Variant_1_evicts 0 : 25610 1 : 0 2 : 0 3 : 0 
Heartbeat_Variant_2_evicts 0 : 0 1 : 0 2 : 0 3 : 0 
Heartbeat_Variant_3_evicts 0 : 0 1 : 0 2 : 0 3 : 0 
Heartbeat CPU 0 instructions: 60000000 cycles: 23357710 heartbeat IPC: 1.06638 cumulative IPC: 1.06638 (Simulation time: 0 hr 10 min 10 sec) 
Cycle: 30000000 FTQ IN: 10821247 FTQ occupancy: 6.89589 DECODE IN: 10821255 DECODE occupancy: 14.502 ROB IN: 10821260 ROB occupancy: 117.042 ROB OUT: 10821217
Heartbeat_Variant_0 : 972 0.316406 per_variant_size: 0 972 0 0 0 0 0 0 0 
Heartbeat_Variant_1 : 2091 0.680664 per_variant_size: 0 360 1731 0 0 0 0 0 0 
Heartbeat_Variant_2 : 0 0 per_variant_size: 0 0 0 0 0 0 0 0 0 
Heartbeat_Variant_3 : 0 0 per_variant_size: 0 0 0 0 0 0 0 0 0 
Heartbeat_Variant_0_evicts 0 : 17505 1 : 24870 2 : 0 3 : 0 
Heartbeat_Variant_1_evicts 0 : 24857 1 : 0 2 : 0 3 : 0 
Heartbeat_Variant_2_evicts 0 : 0 1 : 0 2 : 0 3 : 0 
Heartbeat_Variant_3_evicts 0 : 0 1 : 0 2 : 0 3 : 0 
Heartbeat CPU 0 instructions: 70000001 cycles: 32488057 heartbeat IPC: 1.09525 cumulative IPC: 1.08062 (Simulation time: 0 hr 11 min 40 sec) 
Cycle: 40000000 FTQ IN: 10614936 FTQ occupancy: 6.74053 DECODE IN: 10614909 DECODE occupancy: 14.0231 ROB IN: 10614849 ROB occupancy: 113.399 ROB OUT: 10614964
Heartbeat_Variant_0 : 1015 0.330404 per_variant_size: 0 1015 0 0 0 0 0 0 0 
Heartbeat_Variant_1 : 2048 0.666667 per_variant_size: 0 350 1698 0 0 0 0 0 0 
Heartbeat_Variant_2 : 0 0 per_variant_size: 0 0 0 0 0 0 0 0 0 
Heartbeat_Variant_3 : 0 0 per_variant_size: 0 0 0 0 0 0 0 0 0 
Heartbeat_Variant_0_evicts 0 : 18324 1 : 26665 2 : 0 3 : 0 
Heartbeat_Variant_1_evicts 0 : 26622 1 : 0 2 : 0 3 : 0 
Heartbeat_Variant_2_evicts 0 : 0 1 : 0 2 : 0 3 : 0 
Heartbeat_Variant_3_evicts 0 : 0 1 : 0 2 : 0 3 : 0 
Heartbeat CPU 0 instructions: 80000000 cycles: 41955651 heartbeat IPC: 1.05623 cumulative IPC: 1.07237 (Simulation time: 0 hr 13 min 13 sec) 
Cycle: 50000000 FTQ IN: 10836147 FTQ occupancy: 6.7665 DECODE IN: 10836190 DECODE occupancy: 14.103 ROB IN: 10836236 ROB occupancy: 114.02 ROB OUT: 10836266
Heartbeat_Variant_0 : 1011 0.329102 per_variant_size: 0 1011 0 0 0 0 0 0 0 
Heartbeat_Variant_1 : 2052 0.667969 per_variant_size: 0 354 1698 0 0 0 0 0 0 
Heartbeat_Variant_2 : 0 0 per_variant_size: 0 0 0 0 0 0 0 0 0 
Heartbeat_Variant_3 : 0 0 per_variant_size: 0 0 0 0 0 0 0 0 0 
Heartbeat_Variant_0_evicts 0 : 17801 1 : 25719 2 : 0 3 : 0 
Heartbeat_Variant_1_evicts 0 : 25723 1 : 0 2 : 0 3 : 0 
Heartbeat_Variant_2_evicts 0 : 0 1 : 0 2 : 0 3 : 0 
Heartbeat_Variant_3_evicts 0 : 0 1 : 0 2 : 0 3 : 0 
Heartbeat CPU 0 instructions: 90000001 cycles: 51160879 heartbeat IPC: 1.08634 cumulative IPC: 1.07583 (Simulation time: 0 hr 14 min 44 sec) 
Cycle: 60000000 FTQ IN: 10588661 FTQ occupancy: 6.77409 DECODE IN: 10588644 DECODE occupancy: 14.0757 ROB IN: 10588632 ROB occupancy: 112.931 ROB OUT: 10588517
Heartbeat_Variant_0 : 975 0.317383 per_variant_size: 0 975 0 0 0 0 0 0 0 
Heartbeat_Variant_1 : 2088 0.679688 per_variant_size: 0 372 1716 0 0 0 0 0 0 
Heartbeat_Variant_2 : 0 0 per_variant_size: 0 0 0 0 0 0 0 0 0 
Heartbeat_Variant_3 : 0 0 per_variant_size: 0 0 0 0 0 0 0 0 0 
Heartbeat_Variant_0_evicts 0 : 18182 1 : 26455 2 : 0 3 : 0 
Heartbeat_Variant_1_evicts 0 : 26491 1 : 0 2 : 0 3 : 0 
Heartbeat_Variant_2_evicts 0 : 0 1 : 0 2 : 0 3 : 0 
Heartbeat_Variant_3_evicts 0 : 0 1 : 0 2 : 0 3 : 0 
Heartbeat CPU 0 instructions: 100000001 cycles: 60612098 heartbeat IPC: 1.05806 cumulative IPC: 1.07223 (Simulation time: 0 hr 16 min 33 sec) 
Finished CPU 0 instructions: 50000002 cycles: 46631939 cumulative IPC: 1.07223 (Simulation time: 0 hr 16 min 33 sec) 

ChampSim completed all CPUs

Region of Interest Statistics

CPU 0 cumulative IPC: 1.07223 instructions: 50000002 cycles: 46631939
 Fetch stage stalled: 71.0347  Sim cycles: 46631939 fetch stall cycle: 33124878
 Empty decode stage: 58.1895  Sim cycles: 46631939 fetch stall cycle: 27134903
ITLB TOTAL     ACCESS:    5537801  HIT:    5045586  MISS:     492215  HIT %:    91.1117  MISS %:    8.88828   MPKI: 9.8443
ITLB LOAD TRANSLATION INSTRUCTION	ACCESS:    5430760  HIT:    4938545  MISS:     492215  HIT %:    90.9365  MISS %:    9.06346  MPKI: 9.8443
ITLB TRANSLATION FROM L1D PREFETCHER INSTRUCTION	ACCESS:     107041  HIT:     107041  MISS:          0  HIT %:        100  MISS %:          0  MPKI: 0

ITLB AVERAGE MISS LATENCY: 9.04741 cycles
ITLB RQ	ACCESS:    7304616	FORWARD:          0	MERGED:    1246528	TO_CACHE:    6058088

DTLB TOTAL     ACCESS:    9391516  HIT:    8919982  MISS:     471534  HIT %:    94.9791  MISS %:    5.02085   MPKI: 9.43068
DTLB LOAD TRANSLATION DATA	ACCESS:    9391516  HIT:    8919982  MISS:     471534  HIT %:    94.9791  MISS %:    5.02085  MPKI: 9.43068

DTLB AVERAGE MISS LATENCY: 9.33721 cycles
DTLB RQ	ACCESS:   13655150	FORWARD:          0	MERGED:    4230113	TO_CACHE:    9425037

STLB TOTAL     ACCESS:    1215630  HIT:    1213435  MISS:       2195  HIT %:    99.8194  MISS %:   0.180565   MPKI: 0.0439
STLB LOAD TRANSLATION INSTRUCTION	ACCESS:     492215  HIT:     491921  MISS:        294  HIT %:    99.9403  MISS %:    0.05973  MPKI: 0.00588
STLB LOAD TRANSLATION DATA	ACCESS:     471291  HIT:     469419  MISS:       1872  HIT %:    99.6028  MISS %:   0.397207  MPKI: 0.03744
STLB TRANSLATION FROM L1D PREFETCHER DATA	ACCESS:     252124  HIT:     252095  MISS:         29  HIT %:    99.9885  MISS %:  0.0115023  MPKI: 0.00058

STLB AVERAGE MISS LATENCY: 71.579 cycles
STLB RQ	ACCESS:    1338152	FORWARD:          0	MERGED:     122477	TO_CACHE:    1215675

STLB Hit, L1D data hit: 0
STLB Hit, L2C data hit: 0
STLB Hit, LLC data hit: 0
STLB Hit, LLC data miss: 0
STLB STLB hints to L2: 0
L1D TOTAL     ACCESS:   13424918  HIT:   12309434  MISS:    1115484  HIT %:    91.6909  MISS %:    8.30906   MPKI: 22.3097
L1D LOAD DATA	ACCESS:    6847641  HIT:    6115948  MISS:     731693  HIT %:    89.3147  MISS %:    10.6853  MPKI: 14.6339
L1D RFO DATA	ACCESS:    6243524  HIT:    5956141  MISS:     287383  HIT %:    95.3971  MISS %:     4.6029  MPKI: 5.74766
L1D PREFETCH DATA	ACCESS:     333753  HIT:     237345  MISS:      96408  HIT %:     71.114  MISS %:     28.886  MPKI: 1.92816

L1D PREFETCH  REQUESTED:     749114  ISSUED:     749114  USEFUL:      35237  USELESS:      69031
L1D USEFUL LOAD PREFETCHES:      35237 PREFETCH ISSUED TO LOWER LEVEL:     104354  ACCURACY: 33.7668
 TIMELY PREFETCHES:      35237 LATE PREFETCHES: 7857 DROPPED PREFETCHES: 6
L1D AVERAGE MISS LATENCY: 266024 cycles
L1D RQ	ACCESS:   10939525	FORWARD:          0	MERGED:    3895620	TO_CACHE:    6878599
L1D WQ	ACCESS:    6943242	FORWARD:     165614	MERGED:     166691	TO_CACHE:    6776551
L1D PQ	ACCESS:     374711	FORWARD:          0	MERGED:          0	TO_CACHE:     374403

L1D UNIQUE REGIONS ACCESSED: 0
L1D REGIONS CONFLICTS: 0
L1D Cross Page Prefetch Requests: 6953
L1D Same Page Prefetch Requests: 754230
L1D ROI Sum of L1D PQ occupancy: 4757738
L1D PREFETCHES PUSHED FROM L2C: 0
L1I TOTAL     ACCESS:    6872329  HIT:    4117638  MISS:    2754691  HIT %:    59.9162  MISS %:    40.0838   MPKI: 55.0938
L1I LOAD INSTRUCTION	ACCESS:    6420309  HIT:    3665618  MISS:    2754691  HIT %:    57.0941  MISS %:    42.9059  MPKI: 55.0938
L1I PREFETCH INSTRUCTION	ACCESS:     452020  HIT:     452020  MISS:          0  HIT %:        100  MISS %:          0  MPKI: 0

L1I PREFETCH  REQUESTED:     986634  ISSUED:     986634  USEFUL:          0  USELESS:          0
L1I USEFUL LOAD PREFETCHES:          0 PREFETCH ISSUED TO LOWER LEVEL:          0  ACCURACY: -nan
 TIMELY PREFETCHES:          0 LATE PREFETCHES: 0 DROPPED PREFETCHES: 0
L1I AVERAGE MISS LATENCY: 17.71 cycles
L1I RQ	ACCESS:    9463792	FORWARD:          0	MERGED:    2858556	TO_CACHE:    6605236
L1I PQ	ACCESS:     986634	FORWARD:          0	MERGED:     287254	TO_CACHE:     699380

L1BTB TOTAL     ACCESS:    5669080  HIT:    2049220  MISS:    3619860  HIT %:    36.1473  MISS %:    63.8527   MPKI: 72.3972
L1BTB BRANCH_DIRECT_JUMP	ACCESS:     548261 HIT:     145296 MISS:     402965 AVERAGE STALL: 35.2669 AVERAGE FETCH STALL: 19.6118 AVERAGE FETCH QUEUE STALL: 7.83799 AVERAGE DECODE STALL: 6.96694 AVERAGE EXECUTE STALL: 2.82748e+14
L1BTB BRANCH_INDIRECT	ACCESS:     182870 HIT:      66078 MISS:     116792 AVERAGE STALL: 88.653 AVERAGE FETCH STALL: 14.77 AVERAGE FETCH QUEUE STALL: 10.3642 AVERAGE DECODE STALL: 7.13183 AVERAGE EXECUTE STALL: 55.4474
L1BTB BRANCH_CONDITIONAL	ACCESS:    2708671 HIT:    1418758 MISS:    1289913 AVERAGE STALL: 36.2667 AVERAGE FETCH STALL: 22.0636 AVERAGE FETCH QUEUE STALL: 6.83479 AVERAGE DECODE STALL: 6.62601 AVERAGE EXECUTE STALL: 1.00598e+14
L1BTB BRANCH_DIRECT_CALL	ACCESS:     942826 HIT:     106421 MISS:     836405 AVERAGE STALL: 37.7164 AVERAGE FETCH STALL: 22.4379 AVERAGE FETCH QUEUE STALL: 7.60729 AVERAGE DECODE STALL: 6.9186 AVERAGE EXECUTE STALL: 9.26567e+13
L1BTB BRANCH_INDIRECT_CALL	ACCESS:     171813 HIT:      21716 MISS:     150097 AVERAGE STALL: 114.987 AVERAGE FETCH STALL: 18.3623 AVERAGE FETCH QUEUE STALL: 7.99488 AVERAGE DECODE STALL: 6.74608 AVERAGE EXECUTE STALL: 81.3305
L1BTB BRANCH_RETURN	ACCESS:    1114639 HIT:     290951 MISS:     823688 AVERAGE STALL: 36.7863 AVERAGE FETCH STALL: 19.0685 AVERAGE FETCH QUEUE STALL: 5.9827 AVERAGE DECODE STALL: 6.34242 AVERAGE EXECUTE STALL: 1.47161e+14
L1BTB BRANCH_OTHER ACCESS:          0 HIT:          0 MISS:          0 AVERAGE STALL: -nan AVERAGE FETCH STALL: -nan AVERAGE FETCH QUEUE STALL: -nan AVERAGE DECODE STALL: -nan AVERAGE EXECUTE STALL: -nan
L1BTB TOTAL ROB OCCUPANCY AT BTB MISS: 15.7547

L2BTB TOTAL     ACCESS:    3594457  HIT:    2976245  MISS:     618212  HIT %:     82.801  MISS %:     17.199   MPKI: 12.3642
L2BTB BRANCH_DIRECT_JUMP	ACCESS:     398779 HIT:     337714 MISS:      61065 AVERAGE STALL: 35.2669 AVERAGE FETCH STALL: 19.6118 AVERAGE FETCH QUEUE STALL: 7.83799 AVERAGE DECODE STALL: 6.96694 AVERAGE EXECUTE STALL: 2.82748e+14
L2BTB BRANCH_INDIRECT	ACCESS:     106538 HIT:      95833 MISS:      10705 AVERAGE STALL: 88.653 AVERAGE FETCH STALL: 14.77 AVERAGE FETCH QUEUE STALL: 10.3642 AVERAGE DECODE STALL: 7.13183 AVERAGE EXECUTE STALL: 55.4474
L2BTB BRANCH_CONDITIONAL	ACCESS:    1289913 HIT:    1105485 MISS:     184428 AVERAGE STALL: 36.2667 AVERAGE FETCH STALL: 22.0636 AVERAGE FETCH QUEUE STALL: 6.83479 AVERAGE DECODE STALL: 6.62601 AVERAGE EXECUTE STALL: 1.00598e+14
L2BTB BRANCH_DIRECT_CALL	ACCESS:     836405 HIT:     637247 MISS:     199158 AVERAGE STALL: 37.7164 AVERAGE FETCH STALL: 22.4379 AVERAGE FETCH QUEUE STALL: 7.60729 AVERAGE DECODE STALL: 6.9186 AVERAGE EXECUTE STALL: 9.26567e+13
L2BTB BRANCH_INDIRECT_CALL	ACCESS:     140535 HIT:     101682 MISS:      38853 AVERAGE STALL: 114.987 AVERAGE FETCH STALL: 18.3623 AVERAGE FETCH QUEUE STALL: 7.99488 AVERAGE DECODE STALL: 6.74608 AVERAGE EXECUTE STALL: 81.3305
L2BTB BRANCH_RETURN	ACCESS:     822287 HIT:     698284 MISS:     124003 AVERAGE STALL: 36.7863 AVERAGE FETCH STALL: 19.0685 AVERAGE FETCH QUEUE STALL: 5.9827 AVERAGE DECODE STALL: 6.34242 AVERAGE EXECUTE STALL: 1.47161e+14
L2BTB BRANCH_OTHER ACCESS:          0 HIT:          0 MISS:          0 AVERAGE STALL: -nan AVERAGE FETCH STALL: -nan AVERAGE FETCH QUEUE STALL: -nan AVERAGE DECODE STALL: -nan AVERAGE EXECUTE STALL: -nan
L2BTB TOTAL ROB OCCUPANCY AT BTB MISS: 92.2497

L2C TOTAL     ACCESS:    4478043  HIT:    3950070  MISS:     527973  HIT %:    88.2097  MISS %:    11.7903   MPKI: 10.5595
L2C LOAD INSTRUCTION	ACCESS:    2754691  HIT:    2457896  MISS:     296795  HIT %:    89.2258  MISS %:    10.7742  MPKI: 5.9359
L2C LOAD TRANSLATION INSTRUCTION	ACCESS:        331  HIT:         87  MISS:        244  HIT %:     26.284  MISS %:     73.716  MPKI: 0.00488
L2C LOAD DATA	ACCESS:     723816  HIT:     650419  MISS:      73397  HIT %:    89.8597  MISS %:    10.1403  MPKI: 1.46794
L2C RFO DATA	ACCESS:     287278  HIT:     220698  MISS:      66580  HIT %:    76.8238  MISS %:    23.1762  MPKI: 1.3316
L2C PREFETCH DATA	ACCESS:     189000  HIT:     118653  MISS:      70347  HIT %:    62.7794  MISS %:    37.2206  MPKI: 1.40694
L2C WRITEBACK DATA	ACCESS:     520941  HIT:     501804  MISS:      19137  HIT %:    96.3265  MISS %:    3.67354  MPKI: 0.38274
L2C LOAD TRANSLATION DATA	ACCESS:       1933  HIT:        477  MISS:       1456  HIT %:    24.6767  MISS %:    75.3233  MPKI: 0.02912
L2C TRANSLATION FROM L1D PREFETCHER DATA	ACCESS:         53  HIT:         36  MISS:         17  HIT %:    67.9245  MISS %:    32.0755  MPKI: 0.00034

L2C PREFETCH  REQUESTED:      91977  ISSUED:      91977  USEFUL:       8164  USELESS:      62823
L2C USEFUL LOAD PREFETCHES:       8164 PREFETCH ISSUED TO LOWER LEVEL:      70681  ACCURACY: 11.5505
 TIMELY PREFETCHES:       8164 LATE PREFETCHES: 334 DROPPED PREFETCHES: 0
L2C AVERAGE MISS LATENCY: 38.0073 cycles
L2C RQ	ACCESS:    3768138	FORWARD:          0	MERGED:          0	TO_CACHE:    3768103
L2C WQ	ACCESS:     520941	FORWARD:         35	MERGED:          0	TO_CACHE:     520941
L2C PQ	ACCESS:     196331	FORWARD:          0	MERGED:       3171	TO_CACHE:     193160

L2C Dense regions hint from L2: 0
PSCL5 TOTAL     ACCESS:       4408  HIT:       2204  MISS:       2204  HIT %:         50  MISS %:         50   MPKI: 0.04408
PSCL5 LOAD TRANSLATION INSTRUCTION	ACCESS:       4304  HIT:       2152  MISS:       2152  HIT %:         50  MISS %:         50  MPKI: 0.04304
PSCL5 TRANSLATION FROM L1D PREFETCHER INSTRUCTION	ACCESS:        104  HIT:         52  MISS:         52  HIT %:         50  MISS %:         50  MPKI: 0.00104


PSCL4 TOTAL     ACCESS:       4289  HIT:       2141  MISS:       2148  HIT %:    49.9184  MISS %:    50.0816   MPKI: 0.04296
PSCL4 LOAD TRANSLATION INSTRUCTION	ACCESS:       3843  HIT:       2095  MISS:       1748  HIT %:    54.5147  MISS %:    45.4853  MPKI: 0.03496
PSCL4 TRANSLATION FROM L1D PREFETCHER INSTRUCTION	ACCESS:         92  HIT:         46  MISS:         46  HIT %:         50  MISS %:         50  MPKI: 0.00092
PSCL4 LOAD TRANSLATION DATA	ACCESS:        354  HIT:          0  MISS:        354  HIT %:          0  MISS %:        100  MPKI: 0.00708


PSCL3 TOTAL     ACCESS:       4299  HIT:       2146  MISS:       2153  HIT %:    49.9186  MISS %:    50.0814   MPKI: 0.04306
PSCL3 LOAD TRANSLATION INSTRUCTION	ACCESS:       3848  HIT:       2100  MISS:       1748  HIT %:    54.5738  MISS %:    45.4262  MPKI: 0.03496
PSCL3 TRANSLATION FROM L1D PREFETCHER INSTRUCTION	ACCESS:         92  HIT:         46  MISS:         46  HIT %:         50  MISS %:         50  MPKI: 0.00092
PSCL3 LOAD TRANSLATION DATA	ACCESS:        359  HIT:          0  MISS:        359  HIT %:          0  MISS %:        100  MPKI: 0.00718


PSCL2 TOTAL     ACCESS:       4309  HIT:       2105  MISS:       2204  HIT %:    48.8512  MISS %:    51.1488   MPKI: 0.04408
PSCL2 LOAD TRANSLATION INSTRUCTION	ACCESS:       2348  HIT:       2054  MISS:        294  HIT %:    87.4787  MISS %:    12.5213  MPKI: 0.00588
PSCL2 TRANSLATION FROM L1D PREFETCHER INSTRUCTION	ACCESS:         51  HIT:         51  MISS:          0  HIT %:        100  MISS %:          0  MPKI: 0
PSCL2 LOAD TRANSLATION DATA	ACCESS:       1859  HIT:          0  MISS:       1859  HIT %:          0  MISS %:        100  MPKI: 0.03718
PSCL2 TRANSLATION FROM L1D PREFETCHER DATA	ACCESS:         51  HIT:          0  MISS:         51  HIT %:          0  MISS %:        100  MPKI: 0.00102


LLC TOTAL     ACCESS:     597274  HIT:     566947  MISS:      30327  HIT %:    94.9224  MISS %:    5.07757   MPKI: 0.60654
LLC LOAD INSTRUCTION	ACCESS:     296795  HIT:     295827  MISS:        968  HIT %:    99.6738  MISS %:   0.326151  MPKI: 0.01936
LLC LOAD TRANSLATION INSTRUCTION	ACCESS:        244  HIT:        200  MISS:         44  HIT %:    81.9672  MISS %:    18.0328  MPKI: 0.00088
LLC LOAD DATA	ACCESS:      73081  HIT:      69636  MISS:       3445  HIT %:    95.2861  MISS %:    4.71395  MPKI: 0.0689
LLC RFO DATA	ACCESS:      66559  HIT:      51025  MISS:      15534  HIT %:    76.6613  MISS %:    23.3387  MPKI: 0.31068
LLC PREFETCH DATA	ACCESS:      70681  HIT:      60853  MISS:       9828  HIT %:    86.0953  MISS %:    13.9047  MPKI: 0.19656
LLC WRITEBACK DATA	ACCESS:      88441  HIT:      88015  MISS:        426  HIT %:    99.5183  MISS %:   0.481677  MPKI: 0.00852
LLC LOAD TRANSLATION DATA	ACCESS:       1456  HIT:       1374  MISS:         82  HIT %:    94.3681  MISS %:    5.63187  MPKI: 0.00164
LLC TRANSLATION FROM L1D PREFETCHER DATA	ACCESS:         17  HIT:         17  MISS:          0  HIT %:        100  MISS %:          0  MPKI: 0

LLC AVERAGE MISS LATENCY: 156.69 cycles
LLC RQ	ACCESS:     438155	FORWARD:          0	MERGED:          0	TO_CACHE:     438152
LLC WQ	ACCESS:      88441	FORWARD:          3	MERGED:          0	TO_CACHE:      88441
LLC PQ	ACCESS:      70681	FORWARD:          0	MERGED:          0	TO_CACHE:      70681

LLC Dense regions hint to LLC: 0

RAW hits: 1698382
Loads Generated: 12637907
Loads sent to L1D: 10939525
Stores Generated: 6943219
Stores sent to L1D: 6943242
Major fault: 0 Minor fault: 2534
Allocated PAGES: 2534

stream: 
stream:times selected: 1186848
stream:pref_filled: 122594
stream:pref_useful: 24208
stream:pref_late: 6821
stream:misses: 7939
stream:misses_by_poll: 0

CS: 
CS:times selected: 179808
CS:pref_filled: 60952
CS:pref_useful: 37137
CS:pref_late: 7065
CS:misses: 16383
CS:misses_by_poll: 7

CPLX: 
CPLX:times selected: 1005905
CPLX:pref_filled: 20195
CPLX:pref_useful: 4692
CPLX:pref_late: 3206
CPLX:misses: 92802
CPLX:misses_by_poll: 7

NL_L1: 
NL:times selected: 20605
NL:pref_filled: 820
NL:pref_useful: 360
NL:pref_late: 269
NL:misses: 1905
NL:misses_by_poll: 0

total selections: 2393166
total_filled: 96408
total_useful: 35237
total_late: 18651
total_polluted: 14
total_misses_after_warmup: 762656
conflicts: 5658901

test: 117577

DRAM Statistics
 CHANNEL 0
 RQ ROW_BUFFER_HIT:      11284  ROW_BUFFER_MISS:      18615
 DBUS_CONGESTED:         11
 WQ ROW_BUFFER_HIT:       1502  ROW_BUFFER_MISS:      12883  FULL:          0

 AVG_CONGESTED_CYCLE: 5

CPU 0 Branch Prediction Accuracy: 99.8237% MPKI: 0.32234 Average ROB Occupancy at Mispredict: 135.153
Branch types
NOT_BRANCH: 40859280 81.7186%
BRANCH_DIRECT_JUMP: 548261 1.09652%
BRANCH_INDIRECT: 182870 0.36574%
BRANCH_CONDITIONAL: 6180328 12.3607%
BRANCH_DIRECT_CALL: 942826 1.88565%
BRANCH_INDIRECT_CALL: 171813 0.343626%
BRANCH_RETURN: 1114639 2.22928%
BRANCH_OTHER: 0 0%

DRAM PAGES: 1048576
Allocated PAGES: 2534
Average_ROB_Occupancy: 116.051
Average_Decode_Occupancy: 14.2785
Average_FTQ_Occupancy: 6.82822
Indirect max targets: 14 Average targets: 1.14626
Branch_type:  BRANCH_DIRECT_JUMP:  Count Percentage: 3.40022 6.12982 3.95465 15.1367 1.69431 5.38617 1.23445 63.0636 
Branch_type:  BRANCH_INDIRECT:  Count Percentage: 11.76 3.43969 12.2184 23.3731 1.33805 14.5418 1.07039 32.2586 
Branch_type:  BRANCH_CONDITIONAL:  Count Percentage: 21.8525 2.57708 2.37349 9.19548 1.06895 3.96091 0.849671 58.1219 
Branch_type:  BRANCH_DIRECT_CALL:  Count Percentage: 0.757869 1.29175 1.43331 5.40376 1.99213 2.66615 0.930872 85.5242 
Branch_type:  BRANCH_INDIRECT_CALL:  Count Percentage: 9.51574 0.567475 2.9815 4.82833 0 3.83576 0 78.2712 
Branch_type:  BRANCH_RETURN:  Count Percentage: 4.43764 0.696132 3.5222 9.44468 2.12278 4.90247 1.22802 73.6461 
Branch_type:  BRANCH_DIRECT_JUMP:  Total Count: 37251 67155 43325 165830 18562 59008 13524 690891 
Branch_type:  BRANCH_INDIRECT:  Total Count: 42969 12568 44644 85401 4889 53133 3911 117867 
Branch_type:  BRANCH_CONDITIONAL:  Total Count: 2699730 318380 293228 1136038 132062 489343 104971 7180558 
Branch_type:  BRANCH_DIRECT_CALL:  Total Count: 14316 24401 27075 102076 37631 50363 17584 1615535 
Branch_type:  BRANCH_INDIRECT_CALL:  Total Count: 32749 1953 10261 16617 0 13201 0 269375 
Branch_type:  BRANCH_RETURN:  Total Count: 99133 15551 78683 210986 47421 109517 27433 1645190 
Number of unique branch instructions: 9791
Upper 32 bits: 
aaaa
ffff
ffff0000
Unique upper 32 bits: 3
Unique upper 36 bits: 3
Unique upper 40 bits: 5
Unique upper 44 bits: 32
Unique upper 48 bits: 154
Variant_0 : 975 0.317383
Variant_1 : 2088 0.679688
Variant_2 : 0 0
Variant_3 : 0 0
Offset_3 4035
Offset_4 246
Offset_5 451
Offset_6 502
Offset_7 578
Offset_8 498
Offset_9 459
Offset_10 377
Offset_11 305
Offset_12 269
Offset_13 199
Offset_14 225
Offset_15 186
Offset_16 220
Offset_17 141
Offset_18 118
Offset_19 234
Offset_20 137
Offset_21 235
Offset_22 392
Offset_23 241
Offset_24 326
Offset_25 88
Offset_47 80
Offset_64 2
decode_dispatch_called: 19567257 41.9611
Dispatch_width: 0 9484547 48.4715 20.3392
Dispatch_width: 1 538458 2.75183 1.1547
Dispatch_width: 2 670374 3.426 1.43759
Dispatch_width: 3 444856 2.27347 0.953973
Dispatch_width: 4 1736517 8.87461 3.72388
Dispatch_width: 5 314870 1.60917 0.675224
Dispatch_width: 6 6377635 32.5934 13.6765
Empty_decode_cycles: 27064682 58.0389
ROB_full_cycles: 2416706 5.18251
Starvation_cycles_per_kilo_instr: 378.376
Starvation_cycles_per_kilo_instr_3: 357.862
Starvation_cycles_per_kilo_instr_0: 341.325
Branch_type_1  (3,1)  (4,9)  (5,37)  (6,69)  (7,114)  (8,127)  (9,121)  (10,97)  (11,69)  (12,43)  (13,5)  (14,2)  (15,3)  (16,4)  (18,1)  (19,4)  (20,2)  (21,1)  (22,3)  (23,2)  (24,10)  (25,12) 
Branch_type_2  (3,1)  (5,1)  (8,3)  (9,3)  (12,1)  (13,1)  (14,1)  (16,3)  (17,2)  (20,2)  (21,2)  (23,5)  (24,1)  (47,36) 
Branch_type_3  (3,4033)  (4,237)  (5,409)  (6,418)  (7,435)  (8,308)  (9,252)  (10,153)  (11,123)  (12,50)  (13,4) 
Branch_type_4  (6,3)  (7,8)  (8,24)  (9,52)  (10,60)  (11,57)  (12,96)  (13,86)  (14,99)  (15,88)  (16,98)  (17,63)  (18,53)  (19,114)  (20,72)  (21,124)  (22,207)  (23,136)  (24,186)  (25,72)  (64,1) 
Branch_type_5  (8,2)  (9,1)  (10,3)  (11,5)  (12,3)  (13,14)  (14,16)  (15,11)  (16,20)  (17,11)  (18,16)  (19,12)  (20,10)  (21,13)  (22,42)  (23,26)  (24,37) 
Branch_type_6  (5,4)  (6,12)  (7,21)  (8,34)  (9,30)  (10,64)  (11,51)  (12,76)  (13,89)  (14,107)  (15,84)  (16,95)  (17,65)  (18,48)  (19,104)  (20,51)  (21,95)  (22,140)  (23,72)  (24,92)  (25,4)  (47,44)  (64,1) 
Unique trigger count: 
Variant_0_evicts_0 : 0
Variant_0_evicts_1 : 0
Variant_0_evicts_2 : 0
Variant_0_evicts_3 : 0
Variant_1_evicts_0 : 0
Variant_1_evicts_1 : 0
Variant_1_evicts_2 : 0
Variant_1_evicts_3 : 0
Variant_2_evicts_0 : 0
Variant_2_evicts_1 : 0
Variant_2_evicts_2 : 0
Variant_2_evicts_3 : 0
Variant_3_evicts_0 : 0
Variant_3_evicts_1 : 0
Variant_3_evicts_2 : 0
Variant_3_evicts_3 : 0
BTB PER SET UNIQUE ADDR: 14 19 11 19 17 19 17 16 9 19 11 21 23 17 16 13 13 13 17 17 17 16 16 15 15 21 13 20 20 17 12 18 19 6 15 16 16 16 11 16 15 16 17 20 17 11 17 12 21 16 22 13 15 17 16 6 12 13 13 16 17 22 22 15 19 20 16 14 23 20 13 16 23 14 11 8 10 18 11 21 21 8 18 21 17 19 14 17 14 29 13 11 18 14 10 20 14 11 23 19 28 24 19 16 19 13 17 18 11 14 13 23 19 13 14 12 17 17 16 20 20 12 16 8 17 11 9 16 24 11 12 20 17 16 15 20 11 20 12 25 14 24 18 15 20 17 17 13 11 16 17 17 13 14 16 24 19 20 20 15 15 16 17 20 14 16 19 12 19 12 15 18 17 18 16 15 15 12 15 22 13 14 11 21 24 25 7 19 16 13 19 16 10 15 14 13 14 22 15 16 25 17 13 16 12 19 20 17 13 17 15 20 18 21 14 18 14 20 13 22 14 16 10 14 17 15 19 23 12 22 13 11 15 19 18 22 19 17 18 12 14 16 20 17 12 14 15 19 18 16 23 12 14 11 21 15 12 13 13 13 16 13 8 14 17 11 12 12 14 13 12 19 10 12 9 13 18 15 16 17 9 18 10 15 17 12 13 24 22 23 16 10 17 20 11 19 17 15 15 15 14 16 10 25 19 25 17 17 20 15 16 20 14 28 14 11 22 12 18 23 18 15 10 17 16 22 13 8 17 14 11 22 16 16 16 20 16 17 13 32 14 18 12 22 21 19 13 12 12 16 14 13 11 18 14 20 16 18 11 14 15 21 10 22 15 18 10 18 13 16 19 15 18 18 12 22 19 23 15 16 18 15 10 12 12 14 18 23 14 15 22 11 20 23 11 13 16 12 17 15 16 19 17 18 18 17 17 17 18 20 14 10 12 19 12 15 16 19 24 19 17 18 16 20 19 16 18 15 17 15 20 15 12 18 22 20 22 10 17 17 18 17 15 24 28 11 14 17 23 19 19 27 20 14 19 30 20 20 16 24 12 17 12 18 24 11 15 20 23 19 17 16 16 14 19 26 15 23 11 14 23 21 14 18 12 19 20 26 23 18 15 19 15 13 10 14 21 23 15 19 15 23 15 22 15 14 16 29 21 21 16 28 16 16 14 21 14 25 12 12 12 17 18 11 20 21 23 10 11 21 22 21 21 13 17 22 15 17 18 17 17 13 18 17 20 21 7 18 12 18 15 20 19 14 15 17 17 16 17 21 18 22 17 12 18 18 8 25 20 23 18 21 22 22 18 20 19 20 15 13 15 21 9 15 17 19 12 15 24 17 13 17 15 12 21 15 11 19 18 13 18 14 15 11 19 15 24 13 13 19 21 20 12 11 7 24 12 21 13 18 21 17 12 12 13 20 13 23 16 19 8 19 21 18 15 19 18 24 10 19 18 13 19 25 18 19 14 19 27 14 12 17 13 13 18 13 13 20 17 15 14 8 21 24 12 19 13 15 10 15 18 16 14 18 29 16 19 18 20 23 19 17 15 17 18 14 18 16 22 20 16 21 16 11 11 16 14 20 15 21 11 15 23 22 11 16 11 15 14 13 15 18 14 15 14 14 20 16 16 21 16 16 18 15 15 15 18 13 17 14 21 17 19 12 14 14 18 18 28 12 14 14 15 13 19 19 15 18 18 10 17 14 17 13 15 17 22 15 11 9 14 10 11 18 17 19 13 20 14 21 17 21 11 16 16 9 21 16 18 20 14 17 19 11 18 19 12 18 10 8 13 9 19 22 17 27 17 11 22 17 24 18 26 23 25 15 19 12 16 15 19 24 26 23 16 23 24 22 11 24 15 19 11 17 21 14 13 13 16 19 18 17 19 18 10 22 16 17 21 15 21 16 14 13 15 20 16 20 18 18 17 14 11 14 17 22 20 19 20 18 15 15 13 14 20 11 18 14 21 12 14 17 22 15 18 6 18 13 13 18 21 7 16 19 16 19 21 16 19 17 21 15 16 13 17 18 23 16 13 15 17 16 14 18 11 18 15 19 13 24 17 17 17 16 12 15 27 18 17 17 19 17 12 17 14 15 8 19 16 14 21 23 20 15 15 23 19 11 20 17 12 21 17 17 15 19 17 20 14 14 15 20 15 19 17 16 18 20 22 14 23 18 18 21 24 17 18 21 9 16 17 20 19 15 20 14 17 20 22 29 18 23 19 15 16 20 29 15 17 17 20 20 22 16 17 12 17 15 17 16 21 22 14 19 16 20 10 25 16 16 17 19 17 13 12 13 11 14 9 10 16 25 12 12 
BTB PER SET COUNT: 1576 1233 2358 1048 1879 1364 2187 847 1560 1269 503 1215 1609 1297 1076 559 954 2251 1460 884 1561 1356 822 1115 820 1704 692 1299 1802 1543 485 990 1279 159 1033 1207 954 701 582 1575 745 1028 966 1868 1990 641 1049 855 1802 735 1753 1103 901 1176 1352 241 486 938 846 1083 791 2178 1628 998 1403 1972 707 2080 1968 1643 1526 1285 2095 840 418 621 560 1818 792 1565 2074 174 1519 1422 992 840 438 1592 1962 2573 525 607 1311 969 312 1557 517 483 1468 2843 2694 2003 1234 870 2624 410 1382 1228 2310 839 902 1874 2261 1020 1143 971 1253 1393 1490 1938 1750 782 1330 422 557 510 424 1673 2291 1418 902 2571 1157 1032 1218 1548 866 1237 516 1556 1089 1663 1423 843 1044 1008 1223 711 479 1360 1169 960 1373 912 606 2273 2058 1485 1252 1549 637 1344 1266 1041 705 1780 893 598 1374 1742 524 1002 1326 1022 1472 675 603 625 1425 2183 1024 752 656 1261 1765 2057 259 1049 1315 1233 1492 644 371 1299 762 619 752 2085 745 673 1472 977 1684 939 689 1488 1247 906 1155 1939 1244 1278 694 3993 1224 1682 1014 1719 781 1650 609 1083 704 950 926 1149 777 1529 608 1884 783 403 656 1439 1223 11061 1015 1267 1395 484 2222 1373 2093 1441 1147 833 1134 1410 992 1219 1446 483 584 532 1686 1377 703 959 825 678 1158 670 250 1446 932 324 716 880 923 913 668 1048 271 558 744 821 1120 740 938 1535 142 1593 965 1308 1202 916 333 1325 1468 1172 1047 344 549 1650 446 1015 1667 747 855 1359 398 890 249 1920 1088 1754 974 1702 1774 1135 1307 1167 735 2062 2592 1364 1422 766 1384 1875 1074 2901 473 797 421 1992 764 460 1196 437 683 2110 1438 574 1077 1677 816 1546 627 2625 652 1882 884 1522 1709 1148 733 817 654 1389 832 1056 598 1459 498 1103 989 1445 653 790 991 1520 697 2043 743 1789 405 1137 801 1265 1355 812 1256 2046 199 1642 751 1518 747 1708 1557 1038 312 410 728 635 1586 1678 599 778 1864 384 1449 1769 470 541 898 919 1457 2004 1311 968 1624 1100 1035 1462 867 1502 746 2027 531 233 596 1272 636 843 998 5049 1866 1362 837 1000 1614 1238 928 1110 1647 1116 957 582 2064 721 477 1546 1990 1697 1297 635 1052 1025 1670 1437 912 1856 2360 865 1537 1361 1886 1356 1273 2870 1423 849 1863 2493 1321 908 636 2161 805 1096 574 1214 1496 720 10389 1082 1618 1397 1329 1019 839 815 1125 1892 1083 2140 782 882 2022 1743 963 1070 1312 1216 1493 1996 1967 1220 1317 1449 4646 657 302 1148 2308 1599 1137 1041 746 1529 893 1915 1421 540 800 2340 1856 1114 1248 3192 1813 1506 506 1805 583 1688 499 352 575 1208 956 482 1375 1858 1688 1124 950 3588 2285 1407 1355 837 1209 1817 808 2133 1364 1284 930 753 885 1114 871 1664 101 1336 725 1632 833 1482 1273 807 892 496 1127 719 1058 1500 670 1967 705 807 1742 852 589 1918 1599 1793 1918 1877 1365 1511 1092 1509 1480 1595 846 822 757 1588 510 2471 957 1397 596 800 2383 802 767 1457 978 538 1061 945 273 1435 1336 747 637 1172 1056 769 1140 1225 2123 1957 425 1040 1766 1942 832 502 257 1854 383 1503 1880 1218 2064 921 540 833 664 1561 731 2001 846 1682 196 1709 1905 867 789 1374 1648 1077 592 1245 1546 749 1286 1661 2066 1749 864 1536 2900 782 518 1114 410 1016 2484 607 957 1638 874 794 1397 312 1490 1593 7811 1079 990 1530 1041 1275 1027 910 1572 1367 2321 1685 1331 880 1500 2298 1397 1349 1368 1116 2226 887 1152 1045 1658 2310 606 1988 1291 678 1440 1034 1070 3054 1224 1423 709 1093 2276 1676 625 1208 638 998 586 841 933 1416 1197 966 1028 902 2195 909 733 1700 1497 1516 720 992 647 782 1042 1043 1231 1794 1806 1264 1142 999 736 2874 1444 1462 2621 538 1319 332 958 783 1795 1421 1443 811 1484 683 1753 879 1702 937 740 852 1460 1504 653 350 1115 523 276 1287 1527 1628 584 1675 345 1539 957 1691 775 1186 1219 665 1433 1784 649 1661 2397 1383 1723 710 1140 1291 807 1170 520 389 684 944 1462 1438 993 2344 850 491 1268 1243 2024 780 2258 2011 1558 970 1487 755 1249 926 924 3793 1757 1854 1022 2248 1408 3212 638 2548 1175 1781 886 1170 2144 699 747 955 1050 1942 1076 1453 1305 1373 383 2442 1062 1028 1524 665 1497 1185 862 889 719 1118 1160 1409 1113 3937 1569 1114 436 892 1404 2104 1500 1581 1867 1168 1478 743 698 664 1968 403 1022 669 1521 730 1276 1157 1224 972 1125 7 1117 1017 2311 1360 1652 155 1056 1112 1197 1519 697 1104 1146 1522 1893 727 2705 377 703 1230 1997 786 803 819 1484 1039 941 1806 674 1472 926 1863 842 1559 1453 1591 1052 1507 873 1561 3149 1543 1254 1202 1213 1541 323 1524 768 1052 110 1410 953 797 1721 1627 988 735 872 2582 1179 908 1442 1403 535 2129 1391 1198 842 1467 1113 1589 813 900 947 1761 1465 2399 823 1021 1165 1555 1527 695 1511 1274 1396 1011 1823 666 1765 1926 444 967 1165 1948 1062 650 1313 1221 1519 1458 1752 2532 1289 2398 1499 1370 1030 1717 2939 959 1448 1587 1128 3154 1841 749 1019 882 966 2354 1079 1496 1461 2074 1139 1556 770 1171 303 1821 1442 1026 1711 1847 1091 935 717 773 854 1064 314 367 957 2829 644 702 
To predecode: 0
Predecoding something: 0
Predecode request dropped: 0
sizeofblock_0 0
sizeofblock_1 297703
sizeofblock_2 552466
sizeofblock_3 0
sizeofblock_4 0
sizeofblock_5 0
sizeofblock_6 0
sizeofblock_7 0
sizeofblock_8 0
Variant_0 Correct: 1230268 Incorrect: 0 Accuracy: 1
Variant_1 Correct: 4988810 Incorrect: 0 Accuracy: 1
Variant_2 Correct: 0 Incorrect: 0 Accuracy: -nan
Variant_3 Correct: 0 Incorrect: 0 Accuracy: -nan
