
*** ChampSim Multicore Out-of-Order Simulator ***

Warmup Instructions: 50000000
Simulation Instructions: 50000000
Number of CPUs: 1
LLC sets: 2048
LLC ways: 16
Off-chip DRAM Size: 4096 MB Channels: 1 Width: 64-bit Data Rate: 6400 MT/s
CPU 0 runs ./micro_traces/srv423.trace.gz
.gz
ITLB has LRU replacement policy
DTLB has LRU replacement policy
STLB has LRU replacement policy
FDIP Prefetcher at L1I
L1I has LRU replacement policy
L1D has LRU replacement policy
Initialize SRRIP state for L2C
Initialize DRRIP state for LLC
Heartbeat_Variant_0 : 1353 0.330322 per_variant_size: 0 1353 0 0 0 0 0 0 0 
Heartbeat_Variant_1 : 1237 0.302002 per_variant_size: 0 583 654 0 0 0 0 0 0 
Heartbeat_Variant_2 : 1329 0.324463 per_variant_size: 0 519 365 231 214 0 0 0 0 
Heartbeat_Variant_3 : 0 0 per_variant_size: 0 0 0 0 0 0 0 0 0 
Heartbeat_Variant_0_evicts 0 : 5951 1 : 322 2 : 352 3 : 0 
Heartbeat_Variant_1_evicts 0 : 323 1 : 0 2 : 475 3 : 0 
Heartbeat_Variant_2_evicts 0 : 334 1 : 483 2 : 0 3 : 0 
Heartbeat_Variant_3_evicts 0 : 0 1 : 0 2 : 0 3 : 0 
Heartbeat CPU 0 instructions: 10000002 cycles: 2797452 heartbeat IPC: 3.57468 cumulative IPC: 3.57468 (Simulation time: 0 hr 1 min 52 sec) 
Heartbeat_Variant_0 : 1352 0.330078 per_variant_size: 0 1352 0 0 0 0 0 0 0 
Heartbeat_Variant_1 : 1243 0.303467 per_variant_size: 0 583 660 0 0 0 0 0 0 
Heartbeat_Variant_2 : 1327 0.323975 per_variant_size: 0 513 367 235 212 0 0 0 0 
Heartbeat_Variant_3 : 0 0 per_variant_size: 0 0 0 0 0 0 0 0 0 
Heartbeat_Variant_0_evicts 0 : 5614 1 : 4 2 : 3 3 : 0 
Heartbeat_Variant_1_evicts 0 : 7 1 : 0 2 : 200 3 : 0 
Heartbeat_Variant_2_evicts 0 : 1 1 : 198 2 : 0 3 : 0 
Heartbeat_Variant_3_evicts 0 : 0 1 : 0 2 : 0 3 : 0 
Heartbeat CPU 0 instructions: 20000001 cycles: 5594042 heartbeat IPC: 3.57578 cumulative IPC: 3.57523 (Simulation time: 0 hr 3 min 28 sec) 
Heartbeat_Variant_0 : 1379 0.33667 per_variant_size: 0 1379 0 0 0 0 0 0 0 
Heartbeat_Variant_1 : 1276 0.311523 per_variant_size: 0 590 686 0 0 0 0 0 0 
Heartbeat_Variant_2 : 1350 0.32959 per_variant_size: 0 511 380 239 220 0 0 0 0 
Heartbeat_Variant_3 : 0 0 per_variant_size: 0 0 0 0 0 0 0 0 0 
Heartbeat_Variant_0_evicts 0 : 5830 1 : 255 2 : 225 3 : 0 
Heartbeat_Variant_1_evicts 0 : 239 1 : 0 2 : 417 3 : 0 
Heartbeat_Variant_2_evicts 0 : 228 1 : 403 2 : 0 3 : 0 
Heartbeat_Variant_3_evicts 0 : 0 1 : 0 2 : 0 3 : 0 
Heartbeat CPU 0 instructions: 30000000 cycles: 8391129 heartbeat IPC: 3.57515 cumulative IPC: 3.5752 (Simulation time: 0 hr 5 min 7 sec) 
Heartbeat_Variant_0 : 1376 0.335938 per_variant_size: 0 1376 0 0 0 0 0 0 0 
Heartbeat_Variant_1 : 1284 0.313477 per_variant_size: 0 597 687 0 0 0 0 0 0 
Heartbeat_Variant_2 : 1350 0.32959 per_variant_size: 0 512 377 243 218 0 0 0 0 
Heartbeat_Variant_3 : 0 0 per_variant_size: 0 0 0 0 0 0 0 0 0 
Heartbeat_Variant_0_evicts 0 : 5716 1 : 16 2 : 11 3 : 0 
Heartbeat_Variant_1_evicts 0 : 22 1 : 0 2 : 218 3 : 0 
Heartbeat_Variant_2_evicts 0 : 8 1 : 218 2 : 0 3 : 0 
Heartbeat_Variant_3_evicts 0 : 0 1 : 0 2 : 0 3 : 0 
Heartbeat CPU 0 instructions: 40000001 cycles: 11189348 heartbeat IPC: 3.5737 cumulative IPC: 3.57483 (Simulation time: 0 hr 6 min 41 sec) 
Heartbeat_Variant_0 : 1377 0.336182 per_variant_size: 0 1377 0 0 0 0 0 0 0 
Heartbeat_Variant_1 : 1283 0.313232 per_variant_size: 0 591 692 0 0 0 0 0 0 
Heartbeat_Variant_2 : 1359 0.331787 per_variant_size: 0 522 369 251 217 0 0 0 0 
Heartbeat_Variant_3 : 0 0 per_variant_size: 0 0 0 0 0 0 0 0 0 
Heartbeat_Variant_0_evicts 0 : 5661 1 : 54 2 : 77 3 : 0 
Heartbeat_Variant_1_evicts 0 : 42 1 : 0 2 : 257 3 : 0 
Heartbeat_Variant_2_evicts 0 : 90 1 : 250 2 : 0 3 : 0 
Heartbeat_Variant_3_evicts 0 : 0 1 : 0 2 : 0 3 : 0 
Heartbeat CPU 0 instructions: 50000002 cycles: 13985155 heartbeat IPC: 3.57679 cumulative IPC: 3.57522 (Simulation time: 0 hr 8 min 23 sec) 

Warmup complete CPU 0 instructions: 50000002 cycles: 13985155 (Simulation time: 0 hr 8 min 23 sec) 

Cycle: 20000000 FTQ IN: 58227191 FTQ occupancy: 19.1778 DECODE IN: 58227191 DECODE occupancy: 50.0817 ROB IN: 58227191 ROB occupancy: 306.893 ROB OUT: 58227152
Heartbeat_Variant_0 : 1394 0.340332 per_variant_size: 0 1394 0 0 0 0 0 0 0 
Heartbeat_Variant_1 : 1298 0.316895 per_variant_size: 0 593 705 0 0 0 0 0 0 
Heartbeat_Variant_2 : 1356 0.331055 per_variant_size: 0 479 385 282 210 0 0 0 0 
Heartbeat_Variant_3 : 0 0 per_variant_size: 0 0 0 0 0 0 0 0 0 
Heartbeat_Variant_0_evicts 0 : 5795 1 : 154 2 : 145 3 : 0 
Heartbeat_Variant_1_evicts 0 : 146 1 : 0 2 : 315 3 : 0 
Heartbeat_Variant_2_evicts 0 : 146 1 : 300 2 : 0 3 : 0 
Heartbeat_Variant_3_evicts 0 : 0 1 : 0 2 : 0 3 : 0 
Heartbeat CPU 0 instructions: 60000002 cycles: 21424652 heartbeat IPC: 1.34418 cumulative IPC: 1.34418 (Simulation time: 0 hr 10 min 5 sec) 
Heartbeat_Variant_0 : 1395 0.340576 per_variant_size: 0 1395 0 0 0 0 0 0 0 
Heartbeat_Variant_1 : 1292 0.31543 per_variant_size: 0 583 709 0 0 0 0 0 0 
Heartbeat_Variant_2 : 1363 0.332764 per_variant_size: 0 481 390 287 205 0 0 0 0 
Heartbeat_Variant_3 : 0 0 per_variant_size: 0 0 0 0 0 0 0 0 0 
Heartbeat_Variant_0_evicts 0 : 5669 1 : 62 2 : 64 3 : 0 
Heartbeat_Variant_1_evicts 0 : 61 1 : 0 2 : 238 3 : 0 
Heartbeat_Variant_2_evicts 0 : 66 1 : 243 2 : 0 3 : 0 
Heartbeat_Variant_3_evicts 0 : 0 1 : 0 2 : 0 3 : 0 
Heartbeat CPU 0 instructions: 70000003 cycles: 28728249 heartbeat IPC: 1.36919 cumulative IPC: 1.35657 (Simulation time: 0 hr 11 min 43 sec) 
Cycle: 30000000 FTQ IN: 13523390 FTQ occupancy: 10.4805 DECODE IN: 13523368 DECODE occupancy: 27.1012 ROB IN: 13523362 ROB occupancy: 209.864 ROB OUT: 13523128
Heartbeat_Variant_0 : 1403 0.342529 per_variant_size: 0 1403 0 0 0 0 0 0 0 
Heartbeat_Variant_1 : 1281 0.312744 per_variant_size: 0 569 712 0 0 0 0 0 0 
Heartbeat_Variant_2 : 1373 0.335205 per_variant_size: 0 508 372 274 219 0 0 0 0 
Heartbeat_Variant_3 : 0 0 per_variant_size: 0 0 0 0 0 0 0 0 0 
Heartbeat_Variant_0_evicts 0 : 5805 1 : 193 2 : 156 3 : 0 
Heartbeat_Variant_1_evicts 0 : 178 1 : 0 2 : 351 3 : 0 
Heartbeat_Variant_2_evicts 0 : 165 1 : 348 2 : 0 3 : 0 
Heartbeat_Variant_3_evicts 0 : 0 1 : 0 2 : 0 3 : 0 
Heartbeat CPU 0 instructions: 80000003 cycles: 36129692 heartbeat IPC: 1.35109 cumulative IPC: 1.35474 (Simulation time: 0 hr 13 min 21 sec) 
Cycle: 40000000 FTQ IN: 13577786 FTQ occupancy: 10.4898 DECODE IN: 13577775 DECODE occupancy: 27.0868 ROB IN: 13577781 ROB occupancy: 209.628 ROB OUT: 13577904
Heartbeat_Variant_0 : 1404 0.342773 per_variant_size: 0 1404 0 0 0 0 0 0 0 
Heartbeat_Variant_1 : 1289 0.314697 per_variant_size: 0 577 712 0 0 0 0 0 0 
Heartbeat_Variant_2 : 1365 0.333252 per_variant_size: 0 505 364 272 224 0 0 0 0 
Heartbeat_Variant_3 : 0 0 per_variant_size: 0 0 0 0 0 0 0 0 0 
Heartbeat_Variant_0_evicts 0 : 5666 1 : 27 2 : 54 3 : 0 
Heartbeat_Variant_1_evicts 0 : 42 1 : 0 2 : 227 3 : 0 
Heartbeat_Variant_2_evicts 0 : 38 1 : 235 2 : 0 3 : 0 
Heartbeat_Variant_3_evicts 0 : 0 1 : 0 2 : 0 3 : 0 
Heartbeat CPU 0 instructions: 90000000 cycles: 43383743 heartbeat IPC: 1.37854 cumulative IPC: 1.36061 (Simulation time: 0 hr 14 min 59 sec) 
Cycle: 50000000 FTQ IN: 13789525 FTQ occupancy: 10.5141 DECODE IN: 13789551 DECODE occupancy: 27.5139 ROB IN: 13789551 ROB occupancy: 212.229 ROB OUT: 13789701
Heartbeat_Variant_0 : 1404 0.342773 per_variant_size: 0 1404 0 0 0 0 0 0 0 
Heartbeat_Variant_1 : 1289 0.314697 per_variant_size: 0 581 708 0 0 0 0 0 0 
Heartbeat_Variant_2 : 1366 0.333496 per_variant_size: 0 500 373 272 221 0 0 0 0 
Heartbeat_Variant_3 : 0 0 per_variant_size: 0 0 0 0 0 0 0 0 0 
Heartbeat_Variant_0_evicts 0 : 5627 1 : 25 2 : 28 3 : 0 
Heartbeat_Variant_1_evicts 0 : 25 1 : 0 2 : 227 3 : 0 
Heartbeat_Variant_2_evicts 0 : 28 1 : 227 2 : 0 3 : 0 
Heartbeat_Variant_3_evicts 0 : 0 1 : 0 2 : 0 3 : 0 
Heartbeat CPU 0 instructions: 100000001 cycles: 50731438 heartbeat IPC: 1.36097 cumulative IPC: 1.36068 (Simulation time: 0 hr 16 min 39 sec) 
Finished CPU 0 instructions: 50000003 cycles: 36746284 cumulative IPC: 1.36068 (Simulation time: 0 hr 16 min 39 sec) 

ChampSim completed all CPUs

Region of Interest Statistics

CPU 0 cumulative IPC: 1.36068 instructions: 50000003 cycles: 36746284
 Fetch stage stalled: 60.0804  Sim cycles: 36746284 fetch stall cycle: 22077311
 Empty decode stage: 48.8626  Sim cycles: 36746284 fetch stall cycle: 17955174
ITLB TOTAL     ACCESS:    5853997  HIT:    5361802  MISS:     492195  HIT %:    91.5922  MISS %:    8.40785   MPKI: 9.8439
ITLB LOAD TRANSLATION INSTRUCTION	ACCESS:    5726470  HIT:    5234275  MISS:     492195  HIT %:    91.4049  MISS %:    8.59509  MPKI: 9.8439
ITLB TRANSLATION FROM L1D PREFETCHER INSTRUCTION	ACCESS:     127527  HIT:     127527  MISS:          0  HIT %:        100  MISS %:          0  MPKI: 0

ITLB AVERAGE MISS LATENCY: 9.0775 cycles
ITLB RQ	ACCESS:    7985408	FORWARD:          0	MERGED:    1707446	TO_CACHE:    6277962

DTLB TOTAL     ACCESS:    9013952  HIT:    8541814  MISS:     472138  HIT %:    94.7621  MISS %:    5.23786   MPKI: 9.44276
DTLB LOAD TRANSLATION DATA	ACCESS:    9013952  HIT:    8541814  MISS:     472138  HIT %:    94.7621  MISS %:    5.23786  MPKI: 9.44276

DTLB AVERAGE MISS LATENCY: 9.33726 cycles
DTLB RQ	ACCESS:   13376200	FORWARD:          0	MERGED:    4325116	TO_CACHE:    9051084

STLB TOTAL     ACCESS:    1213286  HIT:    1210925  MISS:       2361  HIT %:    99.8054  MISS %:   0.194596   MPKI: 0.04722
STLB LOAD TRANSLATION INSTRUCTION	ACCESS:     492195  HIT:     491736  MISS:        459  HIT %:    99.9067  MISS %:  0.0932557  MPKI: 0.00918
STLB LOAD TRANSLATION DATA	ACCESS:     472134  HIT:     470265  MISS:       1869  HIT %:    99.6041  MISS %:   0.395862  MPKI: 0.03738
STLB TRANSLATION FROM L1D PREFETCHER DATA	ACCESS:     248957  HIT:     248924  MISS:         33  HIT %:    99.9867  MISS %:  0.0132553  MPKI: 0.00066

STLB AVERAGE MISS LATENCY: 70.1029 cycles
STLB RQ	ACCESS:    1332158	FORWARD:          0	MERGED:     118841	TO_CACHE:    1213317

STLB Hit, L1D data hit: 0
STLB Hit, L2C data hit: 0
STLB Hit, LLC data hit: 0
STLB Hit, LLC data miss: 0
STLB STLB hints to L2: 0
L1D TOTAL     ACCESS:   13126091  HIT:   12017064  MISS:    1109027  HIT %:     91.551  MISS %:    8.44903   MPKI: 22.1805
L1D LOAD DATA	ACCESS:    6587838  HIT:    5859532  MISS:     728306  HIT %:    88.9447  MISS %:    11.0553  MPKI: 14.5661
L1D RFO DATA	ACCESS:    6208892  HIT:    5921550  MISS:     287342  HIT %:    95.3721  MISS %:    4.62791  MPKI: 5.74684
L1D PREFETCH DATA	ACCESS:     329361  HIT:     235982  MISS:      93379  HIT %:    71.6484  MISS %:    28.3516  MPKI: 1.86758

L1D PREFETCH  REQUESTED:     736004  ISSUED:     736004  USEFUL:      34045  USELESS:      67184
L1D USEFUL LOAD PREFETCHES:      34045 PREFETCH ISSUED TO LOWER LEVEL:     101251  ACCURACY: 33.6244
 TIMELY PREFETCHES:      34045 LATE PREFETCHES: 7826 DROPPED PREFETCHES: 5
L1D AVERAGE MISS LATENCY: 235509 cycles
L1D RQ	ACCESS:   10721589	FORWARD:          0	MERGED:    3939378	TO_CACHE:    6622184
L1D WQ	ACCESS:    6947176	FORWARD:     160381	MERGED:     193160	TO_CACHE:    6754016
L1D PQ	ACCESS:     368179	FORWARD:          0	MERGED:          0	TO_CACHE:     367825

L1D UNIQUE REGIONS ACCESSED: 0
L1D REGIONS CONFLICTS: 0
L1D Cross Page Prefetch Requests: 6249
L1D Same Page Prefetch Requests: 749521
L1D ROI Sum of L1D PQ occupancy: 4677156
L1D PREFETCHES PUSHED FROM L2C: 0
L1I TOTAL     ACCESS:    7196117  HIT:    4441115  MISS:    2755002  HIT %:    61.7154  MISS %:    38.2846   MPKI: 55.1
L1I LOAD INSTRUCTION	ACCESS:    6539358  HIT:    3784356  MISS:    2755002  HIT %:    57.8705  MISS %:    42.1295  MPKI: 55.1
L1I PREFETCH INSTRUCTION	ACCESS:     656759  HIT:     656759  MISS:          0  HIT %:        100  MISS %:          0  MPKI: 0

L1I PREFETCH  REQUESTED:    1581423  ISSUED:    1581423  USEFUL:          0  USELESS:          0
L1I USEFUL LOAD PREFETCHES:          0 PREFETCH ISSUED TO LOWER LEVEL:          0  ACCURACY: -nan
 TIMELY PREFETCHES:          0 LATE PREFETCHES: 0 DROPPED PREFETCHES: 0
L1I AVERAGE MISS LATENCY: 16.7685 cycles
L1I RQ	ACCESS:    9464553	FORWARD:          0	MERGED:    2625179	TO_CACHE:    6839374
L1I PQ	ACCESS:    1581423	FORWARD:          0	MERGED:     435389	TO_CACHE:    1146034

L1BTB TOTAL     ACCESS:    5668025  HIT:    2048323  MISS:    3619702  HIT %:    36.1382  MISS %:    63.8618   MPKI: 72.394
L1BTB BRANCH_DIRECT_JUMP	ACCESS:     549198  HIT:     145744  MISS:     403454	AVERAGE STALL: 40.1449
L1BTB BRANCH_INDIRECT	ACCESS:     183381  HIT:      66329  MISS:     117052	AVERAGE STALL: 92.869
L1BTB BRANCH_CONDITIONAL	ACCESS:    2710999  HIT:    1420728  MISS:    1290271	AVERAGE STALL: 46.2447
L1BTB BRANCH_DIRECT_CALL	ACCESS:     941064  HIT:     105077  MISS:     835987	AVERAGE STALL: 59.4315
L1BTB BRANCH_INDIRECT_CALL	ACCESS:     171155  HIT:      21038  MISS:     150117	AVERAGE STALL: 117.689
L1BTB BRANCH_RETURN	ACCESS:    1112228  HIT:     289407  MISS:     822821	AVERAGE STALL: 41.7118
L1BTB BRANCH_OTHER ACCESS:          0  HIT:          0  MISS:          0	AVERAGE STALL: -nan
L1BTB TOTAL ROB OCCUPANCY AT BTB MISS: 2.28167

L2BTB TOTAL     ACCESS:    3594209  HIT:    3527663  MISS:      66546  HIT %:    98.1485  MISS %:    1.85148   MPKI: 1.33092
L2BTB BRANCH_DIRECT_JUMP	ACCESS:     399236  HIT:     393809  MISS:       5427	AVERAGE STALL: 40.1449
L2BTB BRANCH_INDIRECT	ACCESS:     106800  HIT:     104148  MISS:       2652	AVERAGE STALL: 92.869
L2BTB BRANCH_CONDITIONAL	ACCESS:    1290271  HIT:    1286008  MISS:       4263	AVERAGE STALL: 46.2447
L2BTB BRANCH_DIRECT_CALL	ACCESS:     835987  HIT:     834173  MISS:       1814	AVERAGE STALL: 59.4315
L2BTB BRANCH_INDIRECT_CALL	ACCESS:     140498  HIT:     130156  MISS:      10342	AVERAGE STALL: 117.689
L2BTB BRANCH_RETURN	ACCESS:     821417  HIT:     779369  MISS:      42048	AVERAGE STALL: 41.7118
L2BTB BRANCH_OTHER ACCESS:          0  HIT:          0  MISS:          0	AVERAGE STALL: -nan
L2BTB TOTAL ROB OCCUPANCY AT BTB MISS: 124.109

L2C TOTAL     ACCESS:    4468090  HIT:    4036624  MISS:     431466  HIT %:    90.3434  MISS %:    9.65661   MPKI: 8.62932
L2C LOAD INSTRUCTION	ACCESS:    2755004  HIT:    2534061  MISS:     220943  HIT %:    91.9803  MISS %:     8.0197  MPKI: 4.41886
L2C LOAD TRANSLATION INSTRUCTION	ACCESS:        504  HIT:        161  MISS:        343  HIT %:    31.9444  MISS %:    68.0556  MPKI: 0.00686
L2C LOAD DATA	ACCESS:     720453  HIT:     650913  MISS:      69540  HIT %:    90.3477  MISS %:    9.65226  MPKI: 1.3908
L2C RFO DATA	ACCESS:     287253  HIT:     232316  MISS:      54937  HIT %:     80.875  MISS %:     19.125  MPKI: 1.09874
L2C PREFETCH DATA	ACCESS:     181886  HIT:     112679  MISS:      69207  HIT %:    61.9503  MISS %:    38.0497  MPKI: 1.38414
L2C WRITEBACK DATA	ACCESS:     520991  HIT:     505908  MISS:      15083  HIT %:    97.1049  MISS %:    2.89506  MPKI: 0.30166
L2C LOAD TRANSLATION DATA	ACCESS:       1947  HIT:        547  MISS:       1400  HIT %:    28.0945  MISS %:    71.9055  MPKI: 0.028
L2C TRANSLATION FROM L1D PREFETCHER DATA	ACCESS:         52  HIT:         39  MISS:         13  HIT %:         75  MISS %:         25  MPKI: 0.00026

L2C PREFETCH  REQUESTED:      88084  ISSUED:      88084  USEFUL:       7762  USELESS:      62021
L2C USEFUL LOAD PREFETCHES:       7762 PREFETCH ISSUED TO LOWER LEVEL:      69586  ACCURACY: 11.1545
 TIMELY PREFETCHES:       7762 LATE PREFETCHES: 379 DROPPED PREFETCHES: 0
L2C AVERAGE MISS LATENCY: 40.3837 cycles
L2C RQ	ACCESS:    3765284	FORWARD:          0	MERGED:          0	TO_CACHE:    3765215
L2C WQ	ACCESS:     520991	FORWARD:         69	MERGED:          0	TO_CACHE:     520991
L2C PQ	ACCESS:     189335	FORWARD:          0	MERGED:       3375	TO_CACHE:     185960

L2C Dense regions hint from L2: 0
PSCL5 TOTAL     ACCESS:       4738  HIT:       2369  MISS:       2369  HIT %:         50  MISS %:         50   MPKI: 0.04738
PSCL5 LOAD TRANSLATION INSTRUCTION	ACCESS:       4634  HIT:       2317  MISS:       2317  HIT %:         50  MISS %:         50  MPKI: 0.04634
PSCL5 TRANSLATION FROM L1D PREFETCHER INSTRUCTION	ACCESS:        104  HIT:         52  MISS:         52  HIT %:         50  MISS %:         50  MPKI: 0.00104


PSCL4 TOTAL     ACCESS:       4289  HIT:       2143  MISS:       2146  HIT %:     49.965  MISS %:     50.035   MPKI: 0.04292
PSCL4 LOAD TRANSLATION INSTRUCTION	ACCESS:       2304  HIT:       2091  MISS:        213  HIT %:    90.7552  MISS %:    9.24479  MPKI: 0.00426
PSCL4 TRANSLATION FROM L1D PREFETCHER INSTRUCTION	ACCESS:         52  HIT:         52  MISS:          0  HIT %:        100  MISS %:          0  MPKI: 0
PSCL4 LOAD TRANSLATION DATA	ACCESS:       1881  HIT:          0  MISS:       1881  HIT %:          0  MISS %:        100  MPKI: 0.03762
PSCL4 TRANSLATION FROM L1D PREFETCHER DATA	ACCESS:         52  HIT:          0  MISS:         52  HIT %:          0  MISS %:        100  MPKI: 0.00104


PSCL3 TOTAL     ACCESS:       4426  HIT:       2207  MISS:       2219  HIT %:    49.8644  MISS %:    50.1356   MPKI: 0.04438
PSCL3 LOAD TRANSLATION INSTRUCTION	ACCESS:       3824  HIT:       2161  MISS:       1663  HIT %:    56.5115  MISS %:    43.4885  MPKI: 0.03326
PSCL3 TRANSLATION FROM L1D PREFETCHER INSTRUCTION	ACCESS:         89  HIT:         46  MISS:         43  HIT %:    51.6854  MISS %:    48.3146  MPKI: 0.00086
PSCL3 LOAD TRANSLATION DATA	ACCESS:        510  HIT:          0  MISS:        510  HIT %:          0  MISS %:        100  MPKI: 0.0102
PSCL3 TRANSLATION FROM L1D PREFETCHER DATA	ACCESS:          3  HIT:          0  MISS:          3  HIT %:          0  MISS %:        100  MPKI: 6e-05


PSCL2 TOTAL     ACCESS:       4616  HIT:       2247  MISS:       2369  HIT %:    48.6785  MISS %:    51.3215   MPKI: 0.04738
PSCL2 LOAD TRANSLATION INSTRUCTION	ACCESS:       2654  HIT:       2195  MISS:        459  HIT %:    82.7054  MISS %:    17.2946  MPKI: 0.00918
PSCL2 TRANSLATION FROM L1D PREFETCHER INSTRUCTION	ACCESS:         52  HIT:         52  MISS:          0  HIT %:        100  MISS %:          0  MPKI: 0
PSCL2 LOAD TRANSLATION DATA	ACCESS:       1858  HIT:          0  MISS:       1858  HIT %:          0  MISS %:        100  MPKI: 0.03716
PSCL2 TRANSLATION FROM L1D PREFETCHER DATA	ACCESS:         52  HIT:          0  MISS:         52  HIT %:          0  MISS %:        100  MPKI: 0.00104


LLC TOTAL     ACCESS:     490546  HIT:     460209  MISS:      30337  HIT %:    93.8157  MISS %:    6.18433   MPKI: 0.60674
LLC LOAD INSTRUCTION	ACCESS:     220943  HIT:     219855  MISS:       1088  HIT %:    99.5076  MISS %:   0.492435  MPKI: 0.02176
LLC LOAD TRANSLATION INSTRUCTION	ACCESS:        343  HIT:        303  MISS:         40  HIT %:    88.3382  MISS %:    11.6618  MPKI: 0.0008
LLC LOAD DATA	ACCESS:      69183  HIT:      65727  MISS:       3456  HIT %:    95.0046  MISS %:    4.99545  MPKI: 0.06912
LLC RFO DATA	ACCESS:      54890  HIT:      39765  MISS:      15125  HIT %:    72.4449  MISS %:    27.5551  MPKI: 0.3025
LLC PREFETCH DATA	ACCESS:      69586  HIT:      59390  MISS:      10196  HIT %:    85.3476  MISS %:    14.6524  MPKI: 0.20392
LLC WRITEBACK DATA	ACCESS:      74188  HIT:      73829  MISS:        359  HIT %:    99.5161  MISS %:   0.483906  MPKI: 0.00718
LLC LOAD TRANSLATION DATA	ACCESS:       1400  HIT:       1327  MISS:         73  HIT %:    94.7857  MISS %:    5.21429  MPKI: 0.00146
LLC TRANSLATION FROM L1D PREFETCHER DATA	ACCESS:         13  HIT:         13  MISS:          0  HIT %:        100  MISS %:          0  MPKI: 0

LLC AVERAGE MISS LATENCY: 161.176 cycles
LLC RQ	ACCESS:     346797	FORWARD:          0	MERGED:          0	TO_CACHE:     346772
LLC WQ	ACCESS:      74189	FORWARD:         25	MERGED:          0	TO_CACHE:      74189
LLC PQ	ACCESS:      69586	FORWARD:          0	MERGED:          0	TO_CACHE:      69586

LLC Dense regions hint to LLC: 0

RAW hits: 1922065
Loads Generated: 12643654
Loads sent to L1D: 10721589
Stores Generated: 6947174
Stores sent to L1D: 6947176
Major fault: 0 Minor fault: 2653
Allocated PAGES: 2653

stream: 
stream:times selected: 1195723
stream:pref_filled: 120835
stream:pref_useful: 23610
stream:pref_late: 6435
stream:misses: 6961
stream:misses_by_poll: 0

CS: 
CS:times selected: 182330
CS:pref_filled: 59961
CS:pref_useful: 37349
CS:pref_late: 6638
CS:misses: 16258
CS:misses_by_poll: 2

CPLX: 
CPLX:times selected: 1012221
CPLX:pref_filled: 19439
CPLX:pref_useful: 4713
CPLX:pref_late: 2945
CPLX:misses: 90398
CPLX:misses_by_poll: 1

NL_L1: 
NL:times selected: 20852
NL:pref_filled: 641
NL:pref_useful: 261
NL:pref_late: 195
NL:misses: 1048
NL:misses_by_poll: 0

total selections: 2411126
total_filled: 93379
total_useful: 34045
total_late: 17752
total_polluted: 3
total_misses_after_warmup: 762653
conflicts: 5528444

test: 116541

DRAM Statistics
 CHANNEL 0
 RQ ROW_BUFFER_HIT:      11003  ROW_BUFFER_MISS:      18968
 DBUS_CONGESTED:         18
 WQ ROW_BUFFER_HIT:       1568  ROW_BUFFER_MISS:      13350  FULL:          0

 AVG_CONGESTED_CYCLE: 6

CPU 0 Branch Prediction Accuracy: 99.8157% MPKI: 0.3369 Average ROB Occupancy at Mispredict: 172.553
Branch types
NOT_BRANCH: 40861439 81.7229%
BRANCH_DIRECT_JUMP: 549198 1.0984%
BRANCH_INDIRECT: 183381 0.366762%
BRANCH_CONDITIONAL: 6181503 12.363%
BRANCH_DIRECT_CALL: 941064 1.88213%
BRANCH_INDIRECT_CALL: 171155 0.34231%
BRANCH_RETURN: 1112228 2.22446%
BRANCH_OTHER: 0 0%

DRAM PAGES: 1048576
Allocated PAGES: 2653
Average_ROB_Occupancy: 211.728
Average_Decode_Occupancy: 27.2046
Average_FTQ_Occupancy: 10.4913
Indirect max targets: 14 Average targets: 1.15738
Branch_type:  BRANCH_DIRECT_JUMP:  Count Percentage: 3.34439 6.98323 3.78774 7.91682 2.23539 2.84804 1.35517 71.5292 
Branch_type:  BRANCH_INDIRECT:  Count Percentage: 11.7335 3.45989 2.61841 9.68719 3.33676 2.8012 0.933551 65.4295 
Branch_type:  BRANCH_CONDITIONAL:  Count Percentage: 21.8829 2.46926 2.27677 6.30004 1.5427 2.99531 0.710985 61.822 
Branch_type:  BRANCH_DIRECT_CALL:  Count Percentage: 0.861397 1.24924 0.762811 4.44555 1.96473 2.12837 0.863579 87.7243 
Branch_type:  BRANCH_INDIRECT_CALL:  Count Percentage: 9.56193 0 2.99422 0.0055671 0.00058601 2.19344 1.00413 84.2401 
Branch_type:  BRANCH_RETURN:  Count Percentage: 4.69909 1.3955 1.46746 4.45097 3.37438 4.65627 0.812174 79.1442 
Branch_type:  BRANCH_DIRECT_JUMP:  Total Count: 36722 76677 41590 86928 24545 31272 14880 785403 
Branch_type:  BRANCH_INDIRECT:  Total Count: 43073 12701 9612 35561 12249 10283 3427 240187 
Branch_type:  BRANCH_CONDITIONAL:  Total Count: 2704214 305142 281355 778537 190641 370150 87861 7639746 
Branch_type:  BRANCH_DIRECT_CALL:  Total Count: 16182 23468 14330 83513 36909 39983 16223 1647969 
Branch_type:  BRANCH_INDIRECT_CALL:  Total Count: 32634 0 10219 19 2 7486 3427 287504 
Branch_type:  BRANCH_RETURN:  Total Count: 104353 30990 32588 98843 74935 103402 18036 1757559 
Number of unique branch instructions: 10380
Upper 32 bits: 
aaaa
ffff
ffff0000
Unique upper 32 bits: 3
Unique upper 36 bits: 3
Unique upper 40 bits: 5
Unique upper 44 bits: 32
Unique upper 48 bits: 158
Variant_0 : 1404 0.342773
Variant_1 : 1289 0.314697
Variant_2 : 1366 0.333496
Variant_3 : 0 0
Offset_3 4289
Offset_4 268
Offset_5 474
Offset_6 521
Offset_7 613
Offset_8 534
Offset_9 490
Offset_10 398
Offset_11 324
Offset_12 291
Offset_13 223
Offset_14 241
Offset_15 190
Offset_16 226
Offset_17 170
Offset_18 122
Offset_19 252
Offset_20 141
Offset_21 261
Offset_22 404
Offset_23 241
Offset_24 355
Offset_25 92
Offset_47 88
Offset_64 1
decode_dispatch_called: 23564156 64.1266
Dispatch_width: 0 12347034 52.3975 33.6008
Dispatch_width: 1 816636 3.46559 2.22236
Dispatch_width: 2 776378 3.29474 2.11281
Dispatch_width: 3 474510 2.01369 1.29131
Dispatch_width: 4 4234482 17.97 11.5236
Dispatch_width: 5 221543 0.940169 0.602899
Dispatch_width: 6 4693573 19.9183 12.7729
Empty_decode_cycles: 13182128 35.8734
ROB_full_cycles: 6555100 17.8388
Starvation_cycles_per_kilo_instr: 254.976
Starvation_cycles_per_kilo_instr_3: 210.416
Starvation_cycles_per_kilo_instr_0: 189.741
Branch_type_1  (3,1)  (4,10)  (5,39)  (6,70)  (7,121)  (8,134)  (9,129)  (10,102)  (11,69)  (12,43)  (13,8)  (14,2)  (15,3)  (16,4)  (18,1)  (19,4)  (20,2)  (21,1)  (22,3)  (23,2)  (24,10)  (25,12)  (64,1) 
Branch_type_2  (3,1)  (4,1)  (5,1)  (8,3)  (9,3)  (12,1)  (13,1)  (14,1)  (16,3)  (17,2)  (20,2)  (21,2)  (23,5)  (24,1)  (47,41) 
Branch_type_3  (3,4287)  (4,257)  (5,430)  (6,436)  (7,461)  (8,336)  (9,267)  (10,160)  (11,126)  (12,50)  (13,7) 
Branch_type_4  (6,3)  (7,8)  (8,25)  (9,54)  (10,64)  (11,65)  (12,108)  (13,96)  (14,108)  (15,90)  (16,101)  (17,79)  (18,55)  (19,124)  (20,72)  (21,141)  (22,215)  (23,136)  (24,205)  (25,76) 
Branch_type_5  (8,2)  (9,1)  (10,4)  (11,6)  (12,3)  (13,14)  (14,16)  (15,11)  (16,20)  (17,11)  (18,16)  (19,13)  (20,12)  (21,13)  (22,42)  (23,26)  (24,41) 
Branch_type_6  (5,4)  (6,12)  (7,23)  (8,34)  (9,36)  (10,68)  (11,58)  (12,86)  (13,97)  (14,114)  (15,86)  (16,98)  (17,78)  (18,50)  (19,111)  (20,53)  (21,104)  (22,144)  (23,72)  (24,98)  (25,4)  (47,47) 
Unique trigger count: 
Variant_0_evicts_0 : 0
Variant_0_evicts_1 : 0
Variant_0_evicts_2 : 0
Variant_0_evicts_3 : 0
Variant_1_evicts_0 : 0
Variant_1_evicts_1 : 0
Variant_1_evicts_2 : 0
Variant_1_evicts_3 : 0
Variant_2_evicts_0 : 0
Variant_2_evicts_1 : 0
Variant_2_evicts_2 : 0
Variant_2_evicts_3 : 0
Variant_3_evicts_0 : 0
Variant_3_evicts_1 : 0
Variant_3_evicts_2 : 0
Variant_3_evicts_3 : 0
BTB PER SET UNIQUE ADDR: 14 10 16 14 13 20 13 10 12 10 14 14 15 14 12 11 11 10 11 13 10 12 16 14 19 11 11 16 11 7 13 15 14 6 12 14 12 10 8 9 9 9 13 14 10 9 12 8 11 11 11 11 14 15 10 6 10 11 10 9 14 23 9 11 14 13 14 10 10 12 13 7 15 10 12 9 7 16 7 13 13 7 10 17 15 17 16 9 11 22 7 7 11 8 9 12 10 12 12 19 20 19 17 9 12 12 8 16 11 11 10 13 12 7 9 7 10 12 13 13 10 11 8 14 16 12 8 13 14 12 7 15 11 12 12 16 9 11 15 15 13 11 15 14 11 12 9 11 10 17 14 16 11 10 9 14 14 12 9 11 9 9 15 16 11 13 11 9 11 12 10 13 12 14 13 10 12 11 13 11 9 12 11 9 20 18 9 14 15 11 12 10 10 14 12 15 9 14 9 15 13 18 11 9 9 8 13 8 11 16 7 12 15 8 10 10 12 11 11 15 7 13 9 10 9 7 16 10 11 18 8 5 10 10 11 14 14 14 11 10 14 8 11 14 11 16 9 10 13 11 16 10 16 8 18 9 9 7 9 9 14 9 6 13 12 10 11 15 11 9 8 12 10 6 9 9 12 18 10 14 8 12 6 11 12 11 14 20 14 12 8 9 13 13 7 11 11 13 12 14 9 14 10 11 9 13 11 10 15 15 16 17 7 17 12 5 20 14 11 14 10 10 12 13 10 19 11 10 10 10 15 11 10 10 12 7 5 14 8 20 14 13 8 18 11 14 11 9 13 13 12 12 8 18 12 11 11 12 9 13 9 17 9 15 11 13 7 14 14 13 14 10 14 15 9 11 14 14 13 11 16 11 7 10 13 14 17 17 16 13 12 11 16 15 10 5 11 13 12 8 10 13 8 16 19 16 11 18 15 13 10 8 9 13 9 9 10 9 18 20 12 15 9 13 14 9 13 8 15 8 13 10 7 16 13 9 15 13 12 11 13 10 14 9 18 10 12 10 13 16 14 14 14 12 18 20 18 18 7 20 14 8 11 10 21 11 10 11 13 14 11 13 12 10 12 14 12 14 13 12 21 16 15 15 11 14 20 13 16 15 12 11 14 7 15 9 19 18 7 8 11 15 14 15 6 11 10 12 13 10 12 13 11 15 14 13 12 22 10 8 8 8 14 7 13 15 13 7 13 21 16 9 16 9 10 15 11 11 12 13 14 12 13 13 14 14 11 18 8 9 15 14 15 15 11 13 13 10 21 13 12 16 12 12 14 16 11 12 10 20 11 12 13 10 15 14 15 10 13 11 14 13 7 15 15 11 12 14 17 17 10 11 11 10 13 10 11 14 9 9 13 13 11 7 7 15 16 9 14 10 15 13 11 12 7 14 11 15 11 12 18 12 11 8 15 13 14 22 9 17 9 13 14 16 13 15 12 18 11 13 11 12 12 17 9 12 14 15 19 10 11 12 12 10 10 13 14 11 10 12 16 7 11 11 13 13 7 10 8 9 12 11 12 15 23 11 12 17 15 10 11 15 10 12 13 15 12 12 13 18 13 9 13 8 9 10 5 13 9 10 9 12 10 12 8 10 14 8 15 9 9 14 10 9 9 9 19 12 10 15 16 10 13 18 7 10 11 14 9 7 9 8 14 9 13 10 14 11 15 13 16 12 13 9 16 13 17 14 12 8 16 12 9 17 11 14 18 12 10 9 11 3 8 13 15 12 7 12 16 17 10 11 7 11 9 11 15 15 16 12 9 16 16 13 13 12 9 13 10 9 11 7 15 9 15 17 12 14 16 11 18 13 14 17 19 10 12 8 10 12 11 14 15 17 13 8 18 14 9 17 8 20 8 16 13 10 11 11 14 13 11 8 14 7 14 18 12 8 13 12 12 12 7 10 8 11 10 13 10 14 12 14 11 10 11 18 17 14 13 12 15 10 12 9 17 10 15 10 18 12 10 13 17 12 17 5 9 13 10 10 9 11 13 16 15 13 19 12 17 16 13 11 8 11 10 12 14 13 8 8 12 9 12 13 7 13 7 8 8 11 11 13 10 13 12 10 16 17 14 13 11 14 15 6 10 8 7 12 17 10 11 21 19 10 12 12 11 14 12 17 7 20 13 14 11 12 13 17 8 12 13 13 12 16 12 17 11 13 16 10 16 14 12 15 13 10 9 13 11 14 12 10 14 10 17 11 16 16 14 14 13 10 11 15 8 18 11 12 11 13 14 12 19 13 11 12 13 11 17 11 16 13 8 9 14 13 8 17 7 20 15 18 10 8 10 9 5 7 7 8 8 16 11 7 
BTB PER SET COUNT: 225 11 1423 19 1475 36 741 12 1469 14 26 519 27 65 17 16 965 13 24 15 14 16 774 177 34 16 15 820 391 7 23 348 23 7 19 200 16 13 13 19 12 18 15 32 1470 9 13 9 17 13 13 225 21 23 226 10 12 13 18 10 19 686 29 12 23 20 17 10 16 17 1134 8 23 22 14 14 7 478 8 18 747 8 200 300 16 1566 23 13 18 31 10 875 14 11 10 12 521 18 16 31 35 1382 22 10 23 15 10 18 1029 2828 18 24 18 11 10 1524 14 18 2893 15 15 11 10 24 20 133 9 446 25 1008 7 1557 16 15 14 19 963 17 29 28 24 14 28 21 13 15 10 719 14 130 15 223 1453 16 11 21 17 13 10 17 19 13 23 22 18 16 14 9 13 537 12 13 23 17 23 10 16 13 18 17 25 145 3440 9 27 30 11 17 32 58 15 10 12 21 19 18 9 412 17 16 21 68 973 18 11 9 19 10 13 618 9 15 22 6120 19 760 14 15 2722 21 9 19 368 14 11 16 18 16 448 37 9 5 11 15 11 15241 14 25 16 15 16 9 13 23 24 235 453 13 283 14 19 17 20 8 28 504 44 8 15 9 27 12 7 150 15 15 21 17 652 9 14 19 13 8 10 9 22 35 12 38 12 14 6 981 19 19 15 743 19 14 12 13 15 632 9 18 871 19 13 824 14 20 10 15 12 155 104 14 45 1030 21 28 7 26 16 1016 31 27 13 24 13 797 17 21 1469 776 137 14 16 12 19 16 16 15 15 9 5 975 10 31 19 749 9 29 16 23 12 9 15 109 1457 15 9 37 13 11 15 15 460 15 13 26 14 23 17 944 8 16 31 16 19 170 16 21 58 13 17 20 30 15 701 14 207 11 16 17 24 20 18 243 14 15 16 18 12 1016 14 17 16 12 13 18 10 19 26 29 15 213 20 15 11 9 9 574 12 14 10 31 19 28 15 18 13 21 36 18 434 10 20 8 17 12 9 30 162 17 21 258 15 19 798 12 19 10 690 12 13 13 30 23 18 1737 40 17 227 987 30 24 7 32 31 10 11 11 29 15 13 12 21 27 18 18 16 13 14 17 14 26 15 13 33 23 17 24 15 22 34 16 419 57 230 17 971 8 19 15 265 36 7 10 17 20 20 76 9 16 16 16 16 13 174 21 202 364 18 18 21 27 11 216 10 9 15 7 14 27 2853 1467 18 1318 22 12 17 9 12 16 12 311 22 470 18 15 43 18 23 125 14 23 10 13 24 17 711 340 12 16 20 13 34 23 15 24 13 14 286 23 83 15 10 41 24 14 15 11 2432 20 24 10 17 24 21 25 13 1230 22 25 383 26 33 29 17 14 14 13 19 13 1766 425 272 10 16 23 15 8 7 17 20 15 15 17 20 16 14 17 8 22 285 25 14 17 25 13 12 8 17 16 21 33 15 18 10 20 17 23 14 22 18 1014 12 519 16 13 13 24 13 16 611 17 548 11 18 13 17 13 20 152 21 92 14 306 31 7 12 17 5471 27 8 514 1470 18 16 14 894 25 226 16 17 30 27 14 13 20 1469 18 21 25 20 15 18 25 16 11 18 11 1922 18 5 79 10 12 11 25 1469 19 8 13 20 9 18 10 16 20 54 10 15 70 310 17 15 549 18 514 20 41 8 15 19 19 1024 7 312 8501 146 105 14 10 1026 14 244 19 35 16 17 11 22 16 216 20 18 11 425 25 9 1180 242 17 22 1464 14 9 18 3 10 15 40 17 12 18 24 20 84 16 7 13 13 13 21 16 19 19 434 21 428 13 16 16 11 17 21 9 14 949 22 17 59 25 15 16 18 673 21 22 61 22 458 11 20 9 15 55 12 7937 26 214 21 660 26 1473 10 30 12 27 13 24 22 11 14 13 19 17 11 9 23 8 467 1812 16 9 13 22 13 276 7 11 1849 13 15 16 17 16 618 2105 23 17 29 29 142 18 19 14 617 15 14 11 1032 12 23 18 42 16 11 25 24 13 27 6 11 18 10 11 11 15 21 95 522 17 23 20 26 76 19 26 1595 36 14 14 19 17 12 9 24 9 28 247 8 24 8 9 9 320 19 312 10 14 17 964 38 31 16 18 19 17 21 6 13 13 9 19 24 19 13 33 207 16 47 1331 18 21 15 25 7 291 22 17 14 393 17 21 11 21 16 1347 18 2371 14 30 222 13 23 15 21 28 19 22 17 11 1472 17 19 17 68 315 15 10 333 12 21 33 1020 18 17 14 408 1164 8 877 1937 317 20 20 27 323 432 803 15 15 20 1474 28 13 23 19 10 13 20 788 10 34 8 978 383 23 10 9 12 14 5 9 7 12 8 21 13 10 
To predecode: 0
Predecoding something: 0
Predecode request dropped: 0
sizeofblock_0 0
sizeofblock_1 40008
sizeofblock_2 47580
sizeofblock_3 32827
sizeofblock_4 20471
sizeofblock_5 0
sizeofblock_6 0
sizeofblock_7 0
sizeofblock_8 0
Variant_0 Correct: 1608321 Incorrect: 0 Accuracy: 1
Variant_1 Correct: 2085134 Incorrect: 0 Accuracy: 1
Variant_2 Correct: 3627255 Incorrect: 0 Accuracy: 1
Variant_3 Correct: 0 Incorrect: 0 Accuracy: -nan
