
*** ChampSim Multicore Out-of-Order Simulator ***

Warmup Instructions: 50000000
Simulation Instructions: 50000000
Number of CPUs: 1
LLC sets: 2048
LLC ways: 16
Off-chip DRAM Size: 4096 MB Channels: 1 Width: 64-bit Data Rate: 6400 MT/s
CPU 0 runs ./micro_traces/srv421.trace.gz
.gz
ITLB has LRU replacement policy
DTLB has LRU replacement policy
STLB has LRU replacement policy
L1I has LRU replacement policy
L1D has LRU replacement policy
Initialize SRRIP state for L2C
Initialize DRRIP state for LLC
Heartbeat_Variant_0 : 1323 0.322998 per_variant_size: 0 1323 0 0 0 0 0 0 0 
Heartbeat_Variant_1 : 1204 0.293945 per_variant_size: 0 546 658 0 0 0 0 0 0 
Heartbeat_Variant_2 : 1304 0.318359 per_variant_size: 0 547 345 219 193 0 0 0 0 
Heartbeat_Variant_3 : 0 0 per_variant_size: 0 0 0 0 0 0 0 0 0 
Heartbeat_Variant_0_evicts 0 : 5825 1 : 264 2 : 272 3 : 0 
Heartbeat_Variant_1_evicts 0 : 256 1 : 0 2 : 418 3 : 0 
Heartbeat_Variant_2_evicts 0 : 244 1 : 427 2 : 0 3 : 0 
Heartbeat_Variant_3_evicts 0 : 0 1 : 0 2 : 0 3 : 0 
Heartbeat CPU 0 instructions: 10000000 cycles: 2796552 heartbeat IPC: 3.57583 cumulative IPC: 3.57583 (Simulation time: 0 hr 1 min 23 sec) 
Heartbeat_Variant_0 : 1330 0.324707 per_variant_size: 0 1330 0 0 0 0 0 0 0 
Heartbeat_Variant_1 : 1223 0.298584 per_variant_size: 0 542 681 0 0 0 0 0 0 
Heartbeat_Variant_2 : 1311 0.320068 per_variant_size: 0 522 362 216 211 0 0 0 0 
Heartbeat_Variant_3 : 0 0 per_variant_size: 0 0 0 0 0 0 0 0 0 
Heartbeat_Variant_0_evicts 0 : 5576 1 : 19 2 : 14 3 : 0 
Heartbeat_Variant_1_evicts 0 : 21 1 : 0 2 : 218 3 : 0 
Heartbeat_Variant_2_evicts 0 : 18 1 : 213 2 : 0 3 : 0 
Heartbeat_Variant_3_evicts 0 : 0 1 : 0 2 : 0 3 : 0 
Heartbeat CPU 0 instructions: 20000001 cycles: 5593613 heartbeat IPC: 3.57518 cumulative IPC: 3.57551 (Simulation time: 0 hr 2 min 42 sec) 
Heartbeat_Variant_0 : 1370 0.334473 per_variant_size: 0 1370 0 0 0 0 0 0 0 
Heartbeat_Variant_1 : 1254 0.306152 per_variant_size: 0 563 691 0 0 0 0 0 0 
Heartbeat_Variant_2 : 1329 0.324463 per_variant_size: 0 514 364 220 231 0 0 0 0 
Heartbeat_Variant_3 : 0 0 per_variant_size: 0 0 0 0 0 0 0 0 0 
Heartbeat_Variant_0_evicts 0 : 5723 1 : 145 2 : 151 3 : 0 
Heartbeat_Variant_1_evicts 0 : 140 1 : 0 2 : 309 3 : 0 
Heartbeat_Variant_2_evicts 0 : 138 1 : 307 2 : 0 3 : 0 
Heartbeat_Variant_3_evicts 0 : 0 1 : 0 2 : 0 3 : 0 
Heartbeat CPU 0 instructions: 30000002 cycles: 8389072 heartbeat IPC: 3.57723 cumulative IPC: 3.57608 (Simulation time: 0 hr 3 min 56 sec) 
Heartbeat_Variant_0 : 1375 0.335693 per_variant_size: 0 1375 0 0 0 0 0 0 0 
Heartbeat_Variant_1 : 1260 0.307617 per_variant_size: 0 565 695 0 0 0 0 0 0 
Heartbeat_Variant_2 : 1332 0.325195 per_variant_size: 0 511 371 233 217 0 0 0 0 
Heartbeat_Variant_3 : 0 0 per_variant_size: 0 0 0 0 0 0 0 0 0 
Heartbeat_Variant_0_evicts 0 : 5667 1 : 57 2 : 51 3 : 0 
Heartbeat_Variant_1_evicts 0 : 51 1 : 0 2 : 261 3 : 0 
Heartbeat_Variant_2_evicts 0 : 57 1 : 254 2 : 0 3 : 0 
Heartbeat_Variant_3_evicts 0 : 0 1 : 0 2 : 0 3 : 0 
Heartbeat CPU 0 instructions: 40000000 cycles: 11184655 heartbeat IPC: 3.57707 cumulative IPC: 3.57633 (Simulation time: 0 hr 5 min 14 sec) 
Heartbeat_Variant_0 : 1375 0.335693 per_variant_size: 0 1375 0 0 0 0 0 0 0 
Heartbeat_Variant_1 : 1269 0.309814 per_variant_size: 0 583 686 0 0 0 0 0 0 
Heartbeat_Variant_2 : 1340 0.327148 per_variant_size: 0 520 373 232 215 0 0 0 0 
Heartbeat_Variant_3 : 0 0 per_variant_size: 0 0 0 0 0 0 0 0 0 
Heartbeat_Variant_0_evicts 0 : 5547 1 : 85 2 : 106 3 : 0 
Heartbeat_Variant_1_evicts 0 : 87 1 : 0 2 : 291 3 : 0 
Heartbeat_Variant_2_evicts 0 : 107 1 : 290 2 : 0 3 : 0 
Heartbeat_Variant_3_evicts 0 : 0 1 : 0 2 : 0 3 : 0 
Heartbeat CPU 0 instructions: 50000001 cycles: 13980895 heartbeat IPC: 3.57623 cumulative IPC: 3.57631 (Simulation time: 0 hr 6 min 31 sec) 

Warmup complete CPU 0 instructions: 50000001 cycles: 13980895 (Simulation time: 0 hr 6 min 31 sec) 

Cycle: 20000000 FTQ IN: 55059321 FTQ occupancy: 15.5698 DECODE IN: 55059303 DECODE occupancy: 9.4199 ROB IN: 55059303 ROB occupancy: 257.254 ROB OUT: 55059283
Heartbeat_Variant_0 : 1373 0.335205 per_variant_size: 0 1373 0 0 0 0 0 0 0 
Heartbeat_Variant_1 : 1272 0.310547 per_variant_size: 0 586 686 0 0 0 0 0 0 
Heartbeat_Variant_2 : 1353 0.330322 per_variant_size: 0 530 382 233 208 0 0 0 0 
Heartbeat_Variant_3 : 0 0 per_variant_size: 0 0 0 0 0 0 0 0 0 
Heartbeat_Variant_0_evicts 0 : 5612 1 : 76 2 : 69 3 : 0 
Heartbeat_Variant_1_evicts 0 : 76 1 : 0 2 : 263 3 : 0 
Heartbeat_Variant_2_evicts 0 : 74 1 : 266 2 : 0 3 : 0 
Heartbeat_Variant_3_evicts 0 : 0 1 : 0 2 : 0 3 : 0 
Heartbeat CPU 0 instructions: 60000002 cycles: 25869924 heartbeat IPC: 0.841112 cumulative IPC: 0.841112 (Simulation time: 0 hr 7 min 40 sec) 
*** Reached end of trace for Core: 0 Repeating trace: ./micro_traces/srv421.trace.gz
Cycle: 30000000 FTQ IN: 8415016 FTQ occupancy: 13.7906 DECODE IN: 8415016 DECODE occupancy: 4.61827 ROB IN: 8415006 ROB occupancy: 46.9271 ROB OUT: 8414956
Heartbeat_Variant_0 : 1377 0.336182 per_variant_size: 0 1377 0 0 0 0 0 0 0 
Heartbeat_Variant_1 : 1277 0.311768 per_variant_size: 0 588 689 0 0 0 0 0 0 
Heartbeat_Variant_2 : 1352 0.330078 per_variant_size: 0 531 380 239 202 0 0 0 0 
Heartbeat_Variant_3 : 0 0 per_variant_size: 0 0 0 0 0 0 0 0 0 
Heartbeat_Variant_0_evicts 0 : 5610 1 : 74 2 : 61 3 : 0 
Heartbeat_Variant_1_evicts 0 : 72 1 : 0 2 : 256 3 : 0 
Heartbeat_Variant_2_evicts 0 : 62 1 : 250 2 : 0 3 : 0 
Heartbeat_Variant_3_evicts 0 : 0 1 : 0 2 : 0 3 : 0 
Heartbeat CPU 0 instructions: 70000001 cycles: 37699541 heartbeat IPC: 0.845336 cumulative IPC: 0.843218 (Simulation time: 0 hr 8 min 49 sec) 
Cycle: 40000000 FTQ IN: 8483144 FTQ occupancy: 13.8738 DECODE IN: 8483144 DECODE occupancy: 4.64336 ROB IN: 8483154 ROB occupancy: 46.7434 ROB OUT: 8483206
Heartbeat_Variant_0 : 1377 0.336182 per_variant_size: 0 1377 0 0 0 0 0 0 0 
Heartbeat_Variant_1 : 1277 0.311768 per_variant_size: 0 588 689 0 0 0 0 0 0 
Heartbeat_Variant_2 : 1352 0.330078 per_variant_size: 0 531 380 236 205 0 0 0 0 
Heartbeat_Variant_3 : 0 0 per_variant_size: 0 0 0 0 0 0 0 0 0 
Heartbeat_Variant_0_evicts 0 : 5562 1 : 1 2 : 2 3 : 0 
Heartbeat_Variant_1_evicts 0 : 1 1 : 0 2 : 195 3 : 0 
Heartbeat_Variant_2_evicts 0 : 2 1 : 195 2 : 0 3 : 0 
Heartbeat_Variant_3_evicts 0 : 0 1 : 0 2 : 0 3 : 0 
Heartbeat CPU 0 instructions: 80000002 cycles: 49483058 heartbeat IPC: 0.848643 cumulative IPC: 0.845019 (Simulation time: 0 hr 10 min 0 sec) 
Cycle: 50000000 FTQ IN: 8390559 FTQ occupancy: 13.9067 DECODE IN: 8390561 DECODE occupancy: 4.65753 ROB IN: 8390561 ROB occupancy: 48.6139 ROB OUT: 8390518
Cycle: 60000000 FTQ IN: 8424162 FTQ occupancy: 13.8429 DECODE IN: 8424160 DECODE occupancy: 4.61867 ROB IN: 8424160 ROB occupancy: 47.2895 ROB OUT: 8424117
Heartbeat_Variant_0 : 1383 0.337646 per_variant_size: 0 1383 0 0 0 0 0 0 0 
Heartbeat_Variant_1 : 1272 0.310547 per_variant_size: 0 588 684 0 0 0 0 0 0 
Heartbeat_Variant_2 : 1361 0.332275 per_variant_size: 0 529 393 243 196 0 0 0 0 
Heartbeat_Variant_3 : 0 0 per_variant_size: 0 0 0 0 0 0 0 0 0 
Heartbeat_Variant_0_evicts 0 : 5656 1 : 130 2 : 109 3 : 0 
Heartbeat_Variant_1_evicts 0 : 117 1 : 0 2 : 308 3 : 0 
Heartbeat_Variant_2_evicts 0 : 116 1 : 305 2 : 0 3 : 0 
Heartbeat_Variant_3_evicts 0 : 0 1 : 0 2 : 0 3 : 0 
Heartbeat CPU 0 instructions: 90000003 cycles: 61465947 heartbeat IPC: 0.834523 cumulative IPC: 0.84237 (Simulation time: 0 hr 11 min 10 sec) 
Cycle: 70000000 FTQ IN: 8466103 FTQ occupancy: 13.8417 DECODE IN: 8466103 DECODE occupancy: 4.63398 ROB IN: 8466103 ROB occupancy: 46.9127 ROB OUT: 8466196
Heartbeat_Variant_0 : 1383 0.337646 per_variant_size: 0 1383 0 0 0 0 0 0 0 
Heartbeat_Variant_1 : 1278 0.312012 per_variant_size: 0 582 696 0 0 0 0 0 0 
Heartbeat_Variant_2 : 1362 0.33252 per_variant_size: 0 527 403 232 200 0 0 0 0 
Heartbeat_Variant_3 : 0 0 per_variant_size: 0 0 0 0 0 0 0 0 0 
Heartbeat_Variant_0_evicts 0 : 5698 1 : 90 2 : 82 3 : 0 
Heartbeat_Variant_1_evicts 0 : 92 1 : 0 2 : 261 3 : 0 
Heartbeat_Variant_2_evicts 0 : 81 1 : 259 2 : 0 3 : 0 
Heartbeat_Variant_3_evicts 0 : 0 1 : 0 2 : 0 3 : 0 
Heartbeat CPU 0 instructions: 100000000 cycles: 73244560 heartbeat IPC: 0.848996 cumulative IPC: 0.843687 (Simulation time: 0 hr 12 min 26 sec) 
Finished CPU 0 instructions: 50000003 cycles: 59263666 cumulative IPC: 0.843687 (Simulation time: 0 hr 12 min 26 sec) 

ChampSim completed all CPUs

Region of Interest Statistics

CPU 0 cumulative IPC: 0.843687 instructions: 50000003 cycles: 59263666
 Fetch stage stalled: 37.4826  Sim cycles: 59263666 fetch stall cycle: 22213581
 Empty decode stage: 70.9114  Sim cycles: 59263666 fetch stall cycle: 42024722
ITLB TOTAL     ACCESS:    7245714  HIT:    6753712  MISS:     492002  HIT %:    93.2098  MISS %:    6.79025   MPKI: 9.84004
ITLB LOAD TRANSLATION INSTRUCTION	ACCESS:    7245714  HIT:    6753712  MISS:     492002  HIT %:    93.2098  MISS %:    6.79025  MPKI: 9.84004

ITLB AVERAGE MISS LATENCY: 9.02491 cycles
ITLB RQ	ACCESS:    8381735	FORWARD:          0	MERGED:     932798	TO_CACHE:    7448937

DTLB TOTAL     ACCESS:   10464232  HIT:    9985130  MISS:     479102  HIT %:    95.4215  MISS %:    4.57847   MPKI: 9.58204
DTLB LOAD TRANSLATION DATA	ACCESS:   10464232  HIT:    9985130  MISS:     479102  HIT %:    95.4215  MISS %:    4.57847  MPKI: 9.58204

DTLB AVERAGE MISS LATENCY: 9.21777 cycles
DTLB RQ	ACCESS:   14515507	FORWARD:          0	MERGED:    4021850	TO_CACHE:   10493657

STLB TOTAL     ACCESS:    1234442  HIT:    1232703  MISS:       1739  HIT %:    99.8591  MISS %:   0.140873   MPKI: 0.03478
STLB LOAD TRANSLATION INSTRUCTION	ACCESS:     492002  HIT:     491821  MISS:        181  HIT %:    99.9632  MISS %:  0.0367885  MPKI: 0.00362
STLB LOAD TRANSLATION DATA	ACCESS:     479099  HIT:     477558  MISS:       1541  HIT %:    99.6784  MISS %:   0.321645  MPKI: 0.03082
STLB TRANSLATION FROM L1D PREFETCHER DATA	ACCESS:     263341  HIT:     263324  MISS:         17  HIT %:    99.9935  MISS %: 0.00645551  MPKI: 0.00034

STLB AVERAGE MISS LATENCY: 54.2887 cycles
STLB RQ	ACCESS:    1373088	FORWARD:          0	MERGED:     138624	TO_CACHE:    1234464

STLB Hit, L1D data hit: 0
STLB Hit, L2C data hit: 0
STLB Hit, LLC data hit: 0
STLB Hit, LLC data miss: 0
STLB STLB hints to L2: 0
L1D TOTAL     ACCESS:   14318383  HIT:   13162707  MISS:    1155676  HIT %:    91.9287  MISS %:    8.07127   MPKI: 23.1135
L1D LOAD DATA	ACCESS:    7694232  HIT:    6930027  MISS:     764205  HIT %:    90.0678  MISS %:    9.93218  MPKI: 15.2841
L1D RFO DATA	ACCESS:    6285724  HIT:    5995523  MISS:     290201  HIT %:    95.3832  MISS %:    4.61683  MPKI: 5.80402
L1D PREFETCH DATA	ACCESS:     338427  HIT:     237157  MISS:     101270  HIT %:    70.0763  MISS %:    29.9237  MPKI: 2.0254

L1D PREFETCH  REQUESTED:     804137  ISSUED:     804137  USEFUL:      46300  USELESS:      68640
L1D USEFUL LOAD PREFETCHES:      46300 PREFETCH ISSUED TO LOWER LEVEL:     115084  ACCURACY: 40.2315
 TIMELY PREFETCHES:      46300 LATE PREFETCHES: 13650 DROPPED PREFETCHES: 1
L1D AVERAGE MISS LATENCY: 521803 cycles
L1D RQ	ACCESS:   11468583	FORWARD:          0	MERGED:    3594508	TO_CACHE:    7725515
L1D WQ	ACCESS:    6903529	FORWARD:     148729	MERGED:     113537	TO_CACHE:    6789992
L1D PQ	ACCESS:     402153	FORWARD:          0	MERGED:          0	TO_CACHE:     401984

L1D UNIQUE REGIONS ACCESSED: 0
L1D REGIONS CONFLICTS: 0
L1D Cross Page Prefetch Requests: 5721
L1D Same Page Prefetch Requests: 813033
L1D ROI Sum of L1D PQ occupancy: 5072798
L1D PREFETCHES PUSHED FROM L2C: 0
L1I TOTAL     ACCESS:    7879594  HIT:    5121073  MISS:    2758521  HIT %:    64.9916  MISS %:    35.0084   MPKI: 55.1704
L1I LOAD INSTRUCTION	ACCESS:    7879594  HIT:    5121073  MISS:    2758521  HIT %:    64.9916  MISS %:    35.0084  MPKI: 55.1704

L1I AVERAGE MISS LATENCY: 17.0508 cycles
L1I RQ	ACCESS:   15244906	FORWARD:          0	MERGED:    6863171	TO_CACHE:    8381735

L1BTB TOTAL     ACCESS:    5682327  HIT:    2066164  MISS:    3616163  HIT %:    36.3612  MISS %:    63.6388   MPKI: 72.3233
L1BTB BRANCH_DIRECT_JUMP	ACCESS:     544755  HIT:     143043  MISS:     401712	AVERAGE STALL: 21.7641
L1BTB BRANCH_INDIRECT	ACCESS:     181795  HIT:      65633  MISS:     116162	AVERAGE STALL: 49.5669
L1BTB BRANCH_CONDITIONAL	ACCESS:    2735927  HIT:    1446697  MISS:    1289230	AVERAGE STALL: 23.6883
L1BTB BRANCH_DIRECT_CALL	ACCESS:     939384  HIT:     102246  MISS:     837138	AVERAGE STALL: 32.5089
L1BTB BRANCH_INDIRECT_CALL	ACCESS:     170542  HIT:      20723  MISS:     149819	AVERAGE STALL: 65.0687
L1BTB BRANCH_RETURN	ACCESS:    1109924  HIT:     287822  MISS:     822102	AVERAGE STALL: 32.096
L1BTB BRANCH_OTHER ACCESS:          0  HIT:          0  MISS:          0	AVERAGE STALL: -nan
L1BTB TOTAL ROB OCCUPANCY AT BTB MISS: 0.585525

L2BTB TOTAL     ACCESS:    3591059  HIT:    3524594  MISS:      66465  HIT %:    98.1492  MISS %:    1.85085   MPKI: 1.3293
L2BTB BRANCH_DIRECT_JUMP	ACCESS:     397575  HIT:     393094  MISS:       4481	AVERAGE STALL: 21.7641
L2BTB BRANCH_INDIRECT	ACCESS:     105911  HIT:     103240  MISS:       2671	AVERAGE STALL: 49.5669
L2BTB BRANCH_CONDITIONAL	ACCESS:    1289230  HIT:    1285653  MISS:       3577	AVERAGE STALL: 23.6883
L2BTB BRANCH_DIRECT_CALL	ACCESS:     837138  HIT:     835148  MISS:       1990	AVERAGE STALL: 32.5089
L2BTB BRANCH_INDIRECT_CALL	ACCESS:     140325  HIT:     130010  MISS:      10315	AVERAGE STALL: 65.0687
L2BTB BRANCH_RETURN	ACCESS:     820880  HIT:     777449  MISS:      43431	AVERAGE STALL: 32.096
L2BTB BRANCH_OTHER ACCESS:          0  HIT:          0  MISS:          0	AVERAGE STALL: -nan
L2BTB TOTAL ROB OCCUPANCY AT BTB MISS: 31.8567

L2C TOTAL     ACCESS:    4528983  HIT:    4047243  MISS:     481740  HIT %:    89.3632  MISS %:    10.6368   MPKI: 9.6348
L2C LOAD INSTRUCTION	ACCESS:    2758521  HIT:    2491799  MISS:     266722  HIT %:     90.331  MISS %:    9.66902  MPKI: 5.33444
L2C LOAD TRANSLATION INSTRUCTION	ACCESS:        203  HIT:         45  MISS:        158  HIT %:    22.1675  MISS %:    77.8325  MPKI: 0.00316
L2C LOAD DATA	ACCESS:     750528  HIT:     671306  MISS:      79222  HIT %:    89.4445  MISS %:    10.5555  MPKI: 1.58444
L2C RFO DATA	ACCESS:     290028  HIT:     247001  MISS:      43027  HIT %:    85.1645  MISS %:    14.8355  MPKI: 0.86054
L2C PREFETCH DATA	ACCESS:     202737  HIT:     124526  MISS:      78211  HIT %:    61.4224  MISS %:    38.5776  MPKI: 1.56422
L2C WRITEBACK DATA	ACCESS:     525346  HIT:     512177  MISS:      13169  HIT %:    97.4933  MISS %:    2.50673  MPKI: 0.26338
L2C LOAD TRANSLATION DATA	ACCESS:       1597  HIT:        375  MISS:       1222  HIT %:    23.4815  MISS %:    76.5185  MPKI: 0.02444
L2C TRANSLATION FROM L1D PREFETCHER DATA	ACCESS:         23  HIT:         14  MISS:          9  HIT %:    60.8696  MISS %:    39.1304  MPKI: 0.00018

L2C PREFETCH  REQUESTED:      95411  ISSUED:      95411  USEFUL:       8892  USELESS:      69821
L2C USEFUL LOAD PREFETCHES:       8892 PREFETCH ISSUED TO LOWER LEVEL:      78642  ACCURACY: 11.3069
 TIMELY PREFETCHES:       8892 LATE PREFETCHES: 432 DROPPED PREFETCHES: 0
L2C AVERAGE MISS LATENCY: 34.7845 cycles
L2C RQ	ACCESS:    3800934	FORWARD:          0	MERGED:          0	TO_CACHE:    3800900
L2C WQ	ACCESS:     525346	FORWARD:         35	MERGED:          0	TO_CACHE:     525346
L2C PQ	ACCESS:     210495	FORWARD:          0	MERGED:       3924	TO_CACHE:     206570

L2C Dense regions hint from L2: 0
PSCL5 TOTAL     ACCESS:       3480  HIT:       1740  MISS:       1740  HIT %:         50  MISS %:         50   MPKI: 0.0348
PSCL5 LOAD TRANSLATION INSTRUCTION	ACCESS:       3434  HIT:       1717  MISS:       1717  HIT %:         50  MISS %:         50  MPKI: 0.03434
PSCL5 TRANSLATION FROM L1D PREFETCHER INSTRUCTION	ACCESS:         46  HIT:         23  MISS:         23  HIT %:         50  MISS %:         50  MPKI: 0.00046


PSCL4 TOTAL     ACCESS:       3237  HIT:       1616  MISS:       1621  HIT %:    49.9228  MISS %:    50.0772   MPKI: 0.03242
PSCL4 LOAD TRANSLATION INSTRUCTION	ACCESS:       1714  HIT:       1594  MISS:        120  HIT %:    92.9988  MISS %:    7.00117  MPKI: 0.0024
PSCL4 TRANSLATION FROM L1D PREFETCHER INSTRUCTION	ACCESS:         22  HIT:         22  MISS:          0  HIT %:        100  MISS %:          0  MPKI: 0
PSCL4 LOAD TRANSLATION DATA	ACCESS:       1479  HIT:          0  MISS:       1479  HIT %:          0  MISS %:        100  MPKI: 0.02958
PSCL4 TRANSLATION FROM L1D PREFETCHER DATA	ACCESS:         22  HIT:          0  MISS:         22  HIT %:          0  MISS %:        100  MPKI: 0.00044


PSCL3 TOTAL     ACCESS:       3397  HIT:       1696  MISS:       1701  HIT %:    49.9264  MISS %:    50.0736   MPKI: 0.03402
PSCL3 LOAD TRANSLATION INSTRUCTION	ACCESS:       1794  HIT:       1674  MISS:        120  HIT %:     93.311  MISS %:    6.68896  MPKI: 0.0024
PSCL3 TRANSLATION FROM L1D PREFETCHER INSTRUCTION	ACCESS:         22  HIT:         22  MISS:          0  HIT %:        100  MISS %:          0  MPKI: 0
PSCL3 LOAD TRANSLATION DATA	ACCESS:       1559  HIT:          0  MISS:       1559  HIT %:          0  MISS %:        100  MPKI: 0.03118
PSCL3 TRANSLATION FROM L1D PREFETCHER DATA	ACCESS:         22  HIT:          0  MISS:         22  HIT %:          0  MISS %:        100  MPKI: 0.00044


PSCL2 TOTAL     ACCESS:       3407  HIT:       1667  MISS:       1740  HIT %:    48.9287  MISS %:    51.0713   MPKI: 0.0348
PSCL2 LOAD TRANSLATION INSTRUCTION	ACCESS:       1825  HIT:       1644  MISS:        181  HIT %:    90.0822  MISS %:    9.91781  MPKI: 0.00362
PSCL2 TRANSLATION FROM L1D PREFETCHER INSTRUCTION	ACCESS:         23  HIT:         23  MISS:          0  HIT %:        100  MISS %:          0  MPKI: 0
PSCL2 LOAD TRANSLATION DATA	ACCESS:       1536  HIT:          0  MISS:       1536  HIT %:          0  MISS %:        100  MPKI: 0.03072
PSCL2 TRANSLATION FROM L1D PREFETCHER DATA	ACCESS:         23  HIT:          0  MISS:         23  HIT %:          0  MISS %:        100  MPKI: 0.00046


LLC TOTAL     ACCESS:     534451  HIT:     516649  MISS:      17802  HIT %:    96.6691  MISS %:    3.33089   MPKI: 0.35604
LLC LOAD INSTRUCTION	ACCESS:     266722  HIT:     266150  MISS:        572  HIT %:    99.7855  MISS %:   0.214456  MPKI: 0.01144
LLC LOAD TRANSLATION INSTRUCTION	ACCESS:        158  HIT:        151  MISS:          7  HIT %:    95.5696  MISS %:    4.43038  MPKI: 0.00014
LLC LOAD DATA	ACCESS:      78800  HIT:      76147  MISS:       2653  HIT %:    96.6332  MISS %:    3.36675  MPKI: 0.05306
LLC RFO DATA	ACCESS:      43016  HIT:      36562  MISS:       6454  HIT %:    84.9963  MISS %:    15.0037  MPKI: 0.12908
LLC PREFETCH DATA	ACCESS:      78641  HIT:      70729  MISS:       7912  HIT %:    89.9391  MISS %:    10.0609  MPKI: 0.15824
LLC WRITEBACK DATA	ACCESS:      65883  HIT:      65736  MISS:        147  HIT %:    99.7769  MISS %:   0.223123  MPKI: 0.00294
LLC LOAD TRANSLATION DATA	ACCESS:       1222  HIT:       1165  MISS:         57  HIT %:    95.3355  MISS %:    4.66448  MPKI: 0.00114
LLC TRANSLATION FROM L1D PREFETCHER DATA	ACCESS:          9  HIT:          9  MISS:          0  HIT %:        100  MISS %:          0  MPKI: 0

LLC AVERAGE MISS LATENCY: 151.75 cycles
LLC RQ	ACCESS:     389928	FORWARD:          0	MERGED:          0	TO_CACHE:     389927
LLC WQ	ACCESS:      65883	FORWARD:          3	MERGED:          0	TO_CACHE:      65883
LLC PQ	ACCESS:      78642	FORWARD:          0	MERGED:          0	TO_CACHE:      78640

LLC Dense regions hint to LLC: 0

RAW hits: 1133681
Loads Generated: 12602266
Loads sent to L1D: 11468583
Stores Generated: 6903524
Stores sent to L1D: 6903529
Major fault: 0 Minor fault: 2192
Allocated PAGES: 2192

stream: 
stream:times selected: 1244935
stream:pref_filled: 124622
stream:pref_useful: 29266
stream:pref_late: 8516
stream:misses: 9740
stream:misses_by_poll: 0

CS: 
CS:times selected: 191714
CS:pref_filled: 70569
CS:pref_useful: 47769
CS:pref_late: 9037
CS:misses: 23154
CS:misses_by_poll: 5

CPLX: 
CPLX:times selected: 1052195
CPLX:pref_filled: 26348
CPLX:pref_useful: 7625
CPLX:pref_late: 4555
CPLX:misses: 127550
CPLX:misses_by_poll: 0

NL_L1: 
NL:times selected: 12341
NL:pref_filled: 1090
NL:pref_useful: 261
NL:pref_late: 469
NL:misses: 1940
NL:misses_by_poll: 0

total selections: 2501185
total_filled: 101270
total_useful: 46300
total_late: 24963
total_polluted: 5
total_misses_after_warmup: 795487
conflicts: 6016728

test: 120184

DRAM Statistics
 CHANNEL 0
 RQ ROW_BUFFER_HIT:       5662  ROW_BUFFER_MISS:      11988
 DBUS_CONGESTED:          9
 WQ ROW_BUFFER_HIT:        836  ROW_BUFFER_MISS:       7321  FULL:          0

 AVG_CONGESTED_CYCLE: 3

CPU 0 Branch Prediction Accuracy: 99.82% MPKI: 0.3298 Average ROB Occupancy at Mispredict: 70.1484
Branch types
NOT_BRANCH: 40837524 81.675%
BRANCH_DIRECT_JUMP: 544755 1.08951%
BRANCH_INDIRECT: 181795 0.36359%
BRANCH_CONDITIONAL: 6215744 12.4315%
BRANCH_DIRECT_CALL: 939384 1.87877%
BRANCH_INDIRECT_CALL: 170542 0.341084%
BRANCH_RETURN: 1109924 2.21985%
BRANCH_OTHER: 0 0%

DRAM PAGES: 1048576
Allocated PAGES: 2192
Average_ROB_Occupancy: 48.0007
Average_Decode_Occupancy: 4.63425
Average_FTQ_Occupancy: 13.8496
Indirect max targets: 14 Average targets: 1.15017
Branch_type:  BRANCH_DIRECT_JUMP:  Count Percentage: 3.64976 6.10956 4.18589 3.12862 7.48608 6.02391 1.70771 67.7085 
Branch_type:  BRANCH_INDIRECT:  Count Percentage: 11.773 3.47151 2.54597 0 13.0084 2.80825 2.14004 64.2529 
Branch_type:  BRANCH_CONDITIONAL:  Count Percentage: 25.4589 3.32984 5.27998 2.57108 3.3915 4.6024 1.62576 53.7406 
Branch_type:  BRANCH_DIRECT_CALL:  Count Percentage: 0.87836 1.25049 0.729134 2.26923 4.10283 2.82298 0.887364 87.0596 
Branch_type:  BRANCH_INDIRECT_CALL:  Count Percentage: 9.55546 0 2.99629 0 0 2.27832 0.998178 84.1717 
Branch_type:  BRANCH_RETURN:  Count Percentage: 8.02947 1.44489 5.25191 2.2389 4.19014 5.25187 1.12619 72.4666 
Branch_type:  BRANCH_DIRECT_JUMP:  Total Count: 39716 66483 45550 34045 81462 65551 18583 736790 
Branch_type:  BRANCH_INDIRECT:  Total Count: 42778 12614 9251 0 47267 10204 7776 233468 
Branch_type:  BRANCH_CONDITIONAL:  Total Count: 3162594 413645 655899 319389 421304 571727 201958 6675849 
Branch_type:  BRANCH_DIRECT_CALL:  Total Count: 16487 23472 13686 42594 77011 52988 16656 1634127 
Branch_type:  BRANCH_INDIRECT_CALL:  Total Count: 32567 0 10212 0 0 7765 3402 286875 
Branch_type:  BRANCH_RETURN:  Total Count: 178145 32057 116521 49673 92964 116520 24986 1607773 
Number of unique branch instructions: 9869
Upper 32 bits: 
aaaa
ffff
ffff0000
Unique upper 32 bits: 3
Unique upper 36 bits: 3
Unique upper 40 bits: 5
Unique upper 44 bits: 32
Unique upper 48 bits: 153
Variant_0 : 1383 0.337646
Variant_1 : 1278 0.312012
Variant_2 : 1362 0.33252
Variant_3 : 0 0
Offset_3 4056
Offset_4 242
Offset_5 444
Offset_6 507
Offset_7 584
Offset_8 514
Offset_9 462
Offset_10 385
Offset_11 320
Offset_12 267
Offset_13 195
Offset_14 225
Offset_15 182
Offset_16 225
Offset_17 146
Offset_18 127
Offset_19 235
Offset_20 137
Offset_21 235
Offset_22 397
Offset_23 241
Offset_24 325
Offset_25 88
Offset_47 80
decode_dispatch_called: 30549394 51.5483
Dispatch_width: 0 18454948 60.4102 31.1404
Dispatch_width: 1 2311189 7.56542 3.89984
Dispatch_width: 2 1134920 3.71503 1.91504
Dispatch_width: 3 1073644 3.51445 1.81164
Dispatch_width: 4 1000960 3.27653 1.68899
Dispatch_width: 5 1248512 4.08686 2.10671
Dispatch_width: 6 5325221 17.4315 8.98564
Empty_decode_cycles: 28714272 48.4517
ROB_full_cycles: 355079 0.599151
Starvation_cycles_per_kilo_instr: 535.834
Starvation_cycles_per_kilo_instr_3: 513.339
Starvation_cycles_per_kilo_instr_0: 468.141
Branch_type_1  (3,1)  (4,7)  (5,36)  (6,74)  (7,115)  (8,126)  (9,121)  (10,100)  (11,76)  (12,44)  (13,4)  (14,2)  (15,3)  (16,4)  (18,1)  (19,4)  (20,2)  (21,1)  (22,3)  (23,2)  (24,10)  (25,12) 
Branch_type_2  (3,1)  (5,1)  (8,3)  (9,3)  (12,1)  (13,1)  (14,1)  (16,3)  (17,2)  (20,2)  (21,2)  (23,5)  (24,1)  (47,36) 
Branch_type_3  (3,4054)  (4,235)  (5,403)  (6,417)  (7,438)  (8,326)  (9,256)  (10,158)  (11,130)  (12,49)  (13,4) 
Branch_type_4  (6,4)  (7,8)  (8,26)  (9,50)  (10,60)  (11,57)  (12,96)  (13,84)  (14,99)  (15,86)  (16,102)  (17,66)  (18,58)  (19,114)  (20,71)  (21,124)  (22,213)  (23,136)  (24,187)  (25,72) 
Branch_type_5  (8,2)  (9,1)  (10,3)  (11,5)  (12,3)  (13,14)  (14,16)  (15,11)  (16,20)  (17,11)  (18,16)  (19,12)  (20,10)  (21,13)  (22,42)  (23,26)  (24,36) 
Branch_type_6  (5,4)  (6,12)  (7,23)  (8,31)  (9,31)  (10,64)  (11,52)  (12,74)  (13,88)  (14,107)  (15,82)  (16,96)  (17,67)  (18,52)  (19,105)  (20,52)  (21,95)  (22,139)  (23,72)  (24,91)  (25,4)  (47,44) 
Unique trigger count: 
Variant_0_evicts_0 : 0
Variant_0_evicts_1 : 0
Variant_0_evicts_2 : 0
Variant_0_evicts_3 : 0
Variant_1_evicts_0 : 0
Variant_1_evicts_1 : 0
Variant_1_evicts_2 : 0
Variant_1_evicts_3 : 0
Variant_2_evicts_0 : 0
Variant_2_evicts_1 : 0
Variant_2_evicts_2 : 0
Variant_2_evicts_3 : 0
Variant_3_evicts_0 : 0
Variant_3_evicts_1 : 0
Variant_3_evicts_2 : 0
Variant_3_evicts_3 : 0
BTB PER SET UNIQUE ADDR: 13 14 7 13 10 13 7 7 9 14 8 15 13 9 10 9 9 14 8 13 11 10 10 11 9 10 12 15 9 11 14 16 12 4 8 12 11 11 9 9 11 12 14 13 9 11 10 10 14 12 19 11 9 13 9 5 6 12 7 10 10 15 8 15 8 13 12 9 14 7 14 16 16 10 10 12 10 12 8 13 12 5 10 11 9 11 16 9 9 19 6 9 13 9 7 13 11 10 11 14 13 13 11 12 12 11 8 11 9 12 12 14 9 10 12 6 9 12 15 12 13 8 9 6 13 11 7 9 16 12 16 13 9 15 6 12 11 13 11 17 9 11 9 10 15 7 12 11 7 15 12 13 9 10 8 17 14 9 14 13 12 10 15 11 11 9 12 8 15 11 10 12 6 9 11 9 9 9 10 9 8 15 9 8 15 14 12 7 13 10 10 10 13 9 15 13 11 10 8 14 18 9 10 8 12 13 10 10 8 7 10 17 10 13 8 13 13 9 9 14 7 14 10 11 5 15 16 13 6 13 8 7 10 11 8 13 7 8 11 6 13 13 17 11 12 13 9 11 11 10 14 10 12 10 14 13 12 11 10 11 11 10 3 11 13 7 7 11 10 8 9 14 5 7 11 10 11 13 10 14 7 11 8 7 14 10 8 17 14 11 11 10 15 14 6 22 11 17 9 13 12 9 12 18 11 16 11 6 16 9 12 17 8 14 9 7 12 9 9 14 8 15 12 14 15 20 10 8 9 9 11 14 10 8 11 12 9 14 7 14 8 9 7 10 10 10 10 14 12 13 12 9 14 10 9 11 15 16 6 8 13 12 7 16 9 17 5 14 9 10 14 9 12 13 15 11 10 11 10 12 8 9 7 8 6 10 19 11 12 9 9 7 10 6 9 8 7 12 19 11 4 7 11 11 11 9 14 9 15 11 11 10 7 16 12 11 9 15 10 19 9 9 9 13 10 14 12 11 13 12 12 7 9 12 14 12 12 8 10 10 14 11 11 10 12 8 9 13 12 14 10 15 15 12 11 13 11 15 5 17 9 8 9 12 14 5 15 13 8 13 9 11 14 10 15 14 9 12 8 11 22 15 14 12 6 12 17 14 15 12 12 12 9 6 8 10 12 13 9 9 9 13 10 21 6 15 10 15 14 9 12 14 11 14 12 10 15 12 11 12 7 11 10 7 14 13 14 9 7 16 11 12 7 13 6 13 15 9 13 14 10 10 11 8 10 16 9 16 12 9 10 16 10 10 8 14 9 10 16 15 14 16 8 9 8 10 12 13 14 13 15 17 9 16 13 11 15 17 10 11 14 7 8 8 16 12 13 10 17 13 7 13 9 9 12 13 6 12 11 10 17 11 9 5 12 13 12 13 15 9 12 14 7 9 4 14 10 10 14 13 16 11 4 5 11 12 8 14 13 13 9 13 15 12 12 9 13 10 8 13 8 11 14 16 14 15 11 11 12 9 9 13 7 10 13 12 10 10 13 13 8 6 11 16 14 13 10 13 6 10 14 9 11 12 16 9 13 16 10 14 12 17 16 13 13 14 11 12 13 14 14 13 13 9 10 7 10 15 11 12 8 12 10 12 5 14 11 7 8 7 6 11 7 9 10 8 15 14 11 14 8 7 9 13 14 12 13 12 7 11 8 8 10 6 13 11 14 12 15 8 8 10 10 11 16 17 13 14 9 9 14 12 11 16 11 11 15 7 11 9 10 6 6 11 7 9 8 13 11 11 11 16 9 6 10 7 9 11 15 12 7 15 10 8 12 10 8 10 9 7 7 8 13 11 11 14 10 8 13 10 15 10 15 12 16 10 12 11 10 11 17 20 10 14 8 18 15 14 5 11 12 18 10 10 11 13 8 11 11 15 16 14 10 10 10 11 11 9 11 10 14 11 12 8 11 15 8 15 10 14 12 14 8 11 15 14 11 11 13 12 12 11 6 12 14 10 15 8 13 13 10 15 19 16 16 5 14 7 9 10 11 7 11 18 13 11 18 15 15 13 16 11 8 12 15 15 8 13 7 8 12 6 10 11 7 13 12 14 15 10 10 12 9 14 10 10 21 14 11 12 11 13 11 7 15 10 9 8 8 12 11 17 18 10 10 15 10 8 11 8 11 16 11 13 14 12 10 10 11 14 11 12 7 12 9 10 13 13 15 9 15 9 12 15 8 9 14 9 11 10 12 11 14 12 11 8 12 13 14 13 11 16 9 12 12 19 14 13 9 16 15 8 8 14 12 7 10 8 14 10 15 15 7 13 9 7 9 12 10 11 9 12 10 8 11 13 7 6 6 8 6 17 8 11 
BTB PER SET COUNT: 990 17 1955 15 14 15 9 8 1467 21 8 790 20442 10 18 10 10 2448 8 13 15 19 731 24 31 12 16 21 13 1457 18 1480 28 4 10 142 15 17 14 14 16 18 19 29 9 12 16 12 931 16 24 12 12 18 16 6 7 23 8 11 14 2941 11 21 8 593 21 634 14 8 1431 921 24 14 17 15 14 529 9 15 467 7 16 12 11 1407 31 11 13 46 6 349 297 9 13 14 1045 12 14 21 20 54 14 377 899 18 8 12 982 429 13 21 431 11 22 6 11 16 1199 595 18 8 12 7 16 60 12 11 23 864 18 13 9 17 7 15 956 27 18 27 14 11 10 11 20 11 618 21 9 219 15 168 661 12 13 28 18 9 16 2449 16 223 221 11 1477 428 15 8 21 20 15 14 6 14 19 11 22 10 982 597 13 20 3412 14 21 24 12 9 14 805 15 10 17 11 18 142 24 205 8 737 25 12 13 10 13 19 13 10 13 9 13 26 18 17 13 69 17 12 2906 15 10 18 14 15 5 29 23 15 7 17 10 11 11 21 298 34 8 10 17 7 18 14 32 15 23 340 302 13 11 15 19 17 15 14 16 20 16 16 10 13 989 13 3 34 17 7 12 15 15 9 9 41 5 7 335 11 22 17 10 21 9 18 10 10 19 14 8 238 14 12 16 15 17 23 7 36 1317 25 9 380 14 12 179 26 11 19 180 293 17 980 12 24 10 22 1463 1463 20 14 9 27 10 1685 15 18 16 1395 16 11 11 12 14 23 20 11 14 20 9 23 9 374 8 2335 7 11 13 16 15 22 17 14 15 10 27 11 15 11 24 23 118 11 13 19 10 24 11 1647 5 17 10 13 503 370 18 17 20 15 17 17 11 34 321 11 8 9 6 16 39 18 15 250 12 11 13 6 9 13 8 18 546 11 4 7 11 14 14 10 20 10 26 12 944 14 8 70 17 11 14 43 13 37 11 10 14 18 16 17 18 13 22 13 15 11 12 22 219 26 20 297 12 11 645 12 17 10 14 12 334 21 16 18 1087 22 28 16 16 72 14 16 5 30 31 8 13 784 20 6 229 16 8 16 10 11 22 11 33 17 12 17 15 15 31 19 18 14 976 913 450 24 19 133 369 528 3207 8 8 13 988 18 13 10 9 23 11 26 6 18 16 24 26 10 275 2550 112 480 16 12 20 18 14 555 7 13 11 9 19 21 23 11 8 2476 14 42 7 21 9 22 32 14 14 456 10 10 16 9 19 25 10 22 25 983 12 30 977 19 15 22 11 11 22 15 21 31 14 13 8 14 141 17 23 19 878 27 10 31 2434 12 16 923 10 14 20 8 11 15 23 15 212 14 31 25 10 16 12 12 19 15 6 382 255 10 17 13 137 6 13 16 12 42 18 14 18 1476 11 11 4 17 496 10 16 951 18 16 4 978 11 14 8 27 14 22 14 18 126 14 18 10 15 680 10 19 9 14 15 32 1113 138 984 11 16 9 12 17 8 11 21 19 15 506 75 985 12 7 12 24 35 17 23 17 1464 13 17 11 141 19 205 89 14 29 14 23 12 33 27 35 351 15 13 15 17 28 17 21 15 15 18 11 11 1082 15 17 971 27 375 18 5 23 18 7 10 7 6 499 12 13 499 10 423 20 21 21 8 120 12 2439 14 15 13 12 7 16 358 14588 16 6 16 12 29 15 18 12 16 15 10 56 42 18 639 17 11 13 21 16 18 1969 1120 14 18 8 15 14 14 6 6 15 1658 10 9 19 14 13 86 21 17 6 11 11 9 113 18 21 44 17 207 10 17 10 10 14 11 7 9 13 16 13 750 16 11 8 21 13 32 16 27 377 507 16 14 15 17 16 23 4604 19 396 13 426 30 225 5 2683 14 478 15 11 1454 17 8 16 15 373 24 19 16 16 519 221 15 982 14 19 20 13 12 12 1613 17 495 18 13 18 14 992 15 14 92 15 464 17 15 16 18 14 547 17 43 10 22 8 16 20 11 57 25 23 21 7 24 7 20 19 15 8 15 23 984 250 23 16 17 17 22 17 1235 12 22 32 8 17 9 8 18 9 14 211 7 19 12 22 21 10 15 19 13 20 14 13 429 826 18 15 14 17 985 11 19 11 13 13 11 39 60 20 23 14 11 1282 10 8 13 9 11 468 11 15 22 13 19 17 21 17 14 1609 614 1792 11 11 225 17 27 1441 21 11 141 15 10 9 22 11 13 13 22 93 21 14 497 11 15 15 15 19 304 27 9 26 16 47 20 508 9 23 17 980 10 32 16 7 11 1467 24 14 293 868 8 20 14 7 15 15 14 983 14 444 10 8 12 21 10 57 8 8 7 25 8 15 
To predecode: 0
Predecoding something: 0
Predecode request dropped: 0
sizeofblock_0 0
sizeofblock_1 39071
sizeofblock_2 35947
sizeofblock_3 42272
sizeofblock_4 22614
sizeofblock_5 0
sizeofblock_6 0
sizeofblock_7 0
sizeofblock_8 0
Variant_0 Correct: 1603846 Incorrect: 0 Accuracy: 1
Variant_1 Correct: 2082039 Incorrect: 0 Accuracy: 1
Variant_2 Correct: 3631093 Incorrect: 0 Accuracy: 1
Variant_3 Correct: 0 Incorrect: 0 Accuracy: -nan
