
*** ChampSim Multicore Out-of-Order Simulator ***

Warmup Instructions: 50000000
Simulation Instructions: 50000000
Number of CPUs: 1
LLC sets: 2048
LLC ways: 16
Off-chip DRAM Size: 4096 MB Channels: 1 Width: 64-bit Data Rate: 6400 MT/s
CPU 0 runs ./micro_traces/srv423.trace.gz
.gz
ITLB has LRU replacement policy
DTLB has LRU replacement policy
STLB has LRU replacement policy
CPU 0 L1I next line prefetcher
L1I has LRU replacement policy
L1D has LRU replacement policy
Initialize SRRIP state for L2C
Initialize DRRIP state for LLC
Heartbeat CPU 0 instructions: 10000002 cycles: 2798165 heartbeat IPC: 3.57377 cumulative IPC: 3.57377 (Simulation time: 0 hr 1 min 38 sec) 
Heartbeat CPU 0 instructions: 20000001 cycles: 5595041 heartbeat IPC: 3.57542 cumulative IPC: 3.57459 (Simulation time: 0 hr 3 min 14 sec) 
Heartbeat CPU 0 instructions: 30000000 cycles: 8393046 heartbeat IPC: 3.57397 cumulative IPC: 3.57439 (Simulation time: 0 hr 4 min 53 sec) 
Heartbeat CPU 0 instructions: 40000001 cycles: 11191982 heartbeat IPC: 3.57279 cumulative IPC: 3.57399 (Simulation time: 0 hr 6 min 29 sec) 
Heartbeat CPU 0 instructions: 50000002 cycles: 13988440 heartbeat IPC: 3.57595 cumulative IPC: 3.57438 (Simulation time: 0 hr 8 min 8 sec) 

Warmup complete CPU 0 instructions: 50000002 cycles: 13988440 (Simulation time: 0 hr 8 min 8 sec) 

Cycle: 20000000 FTQ IN: 58128664 FTQ occupancy: 18.6473 DECODE IN: 58128638 DECODE occupancy: 49.6956 ROB IN: 58128610 ROB occupancy: 308.849 ROB OUT: 58128269
Heartbeat CPU 0 instructions: 60000002 cycles: 21499645 heartbeat IPC: 1.33134 cumulative IPC: 1.33134 (Simulation time: 0 hr 9 min 43 sec) 
Heartbeat CPU 0 instructions: 70000003 cycles: 28912985 heartbeat IPC: 1.34892 cumulative IPC: 1.34007 (Simulation time: 0 hr 11 min 17 sec) 
Cycle: 30000000 FTQ IN: 13348631 FTQ occupancy: 8.7981 DECODE IN: 13348589 DECODE occupancy: 26.0769 ROB IN: 13348617 ROB occupancy: 215.653 ROB OUT: 13348758
Heartbeat CPU 0 instructions: 80000003 cycles: 36366847 heartbeat IPC: 1.34159 cumulative IPC: 1.34058 (Simulation time: 0 hr 12 min 52 sec) 
Cycle: 40000000 FTQ IN: 13454902 FTQ occupancy: 8.89191 DECODE IN: 13454949 DECODE occupancy: 26.4838 ROB IN: 13454945 ROB occupancy: 218.606 ROB OUT: 13455116
Heartbeat CPU 0 instructions: 90000000 cycles: 43724569 heartbeat IPC: 1.35912 cumulative IPC: 1.34516 (Simulation time: 0 hr 14 min 27 sec) 
Cycle: 50000000 FTQ IN: 13598238 FTQ occupancy: 8.77264 DECODE IN: 13598249 DECODE occupancy: 26.1892 ROB IN: 13598248 ROB occupancy: 217.083 ROB OUT: 13598045
Heartbeat CPU 0 instructions: 100000001 cycles: 51154335 heartbeat IPC: 1.34594 cumulative IPC: 1.34532 (Simulation time: 0 hr 16 min 2 sec) 
Finished CPU 0 instructions: 50000003 cycles: 37165896 cumulative IPC: 1.34532 (Simulation time: 0 hr 16 min 2 sec) 

ChampSim completed all CPUs

Region of Interest Statistics

CPU 0 cumulative IPC: 1.34532 instructions: 50000003 cycles: 37165896
 Fetch stage stalled: 60.3464  Sim cycles: 37165896 fetch stall cycle: 22428265
 Empty decode stage: 41.5062  Sim cycles: 37165896 fetch stall cycle: 15426145
ITLB TOTAL     ACCESS:    7701855  HIT:    7096372  MISS:     605483  HIT %:    92.1385  MISS %:    7.86152   MPKI: 12.1097
ITLB LOAD TRANSLATION INSTRUCTION	ACCESS:    5974167  HIT:    5847009  MISS:     127158  HIT %:    97.8715  MISS %:    2.12846  MPKI: 2.54316
ITLB TRANSLATION FROM L1D PREFETCHER INSTRUCTION	ACCESS:    1727688  HIT:    1249363  MISS:     478325  HIT %:    72.3142  MISS %:    27.6858  MPKI: 9.5665

ITLB AVERAGE MISS LATENCY: 145273 cycles
ITLB RQ	ACCESS:   11588691	FORWARD:          0	MERGED:    3746772	TO_CACHE:    7841919

DTLB TOTAL     ACCESS:    9008874  HIT:    8536777  MISS:     472097  HIT %:    94.7596  MISS %:    5.24036   MPKI: 9.44194
DTLB LOAD TRANSLATION DATA	ACCESS:    9008874  HIT:    8536777  MISS:     472097  HIT %:    94.7596  MISS %:    5.24036  MPKI: 9.44194

DTLB AVERAGE MISS LATENCY: 9.36486 cycles
DTLB RQ	ACCESS:   13374216	FORWARD:          0	MERGED:    4329499	TO_CACHE:    9044717

STLB TOTAL     ACCESS:    1327509  HIT:    1325203  MISS:       2306  HIT %:    99.8263  MISS %:   0.173709   MPKI: 0.04612
STLB LOAD TRANSLATION INSTRUCTION	ACCESS:     124412  HIT:     124203  MISS:        209  HIT %:     99.832  MISS %:    0.16799  MPKI: 0.00418
STLB TRANSLATION FROM L1D PREFETCHER INSTRUCTION	ACCESS:     481071  HIT:     480880  MISS:        191  HIT %:    99.9603  MISS %:  0.0397031  MPKI: 0.00382
STLB LOAD TRANSLATION DATA	ACCESS:     472097  HIT:     470220  MISS:       1877  HIT %:    99.6024  MISS %:   0.397588  MPKI: 0.03754
STLB TRANSLATION FROM L1D PREFETCHER DATA	ACCESS:     249929  HIT:     249900  MISS:         29  HIT %:    99.9884  MISS %:  0.0116033  MPKI: 0.00058

STLB AVERAGE MISS LATENCY: 76.5152 cycles
STLB RQ	ACCESS:    1451276	FORWARD:          0	MERGED:     120285	TO_CACHE:    1330991

STLB Hit, L1D data hit: 0
STLB Hit, L2C data hit: 0
STLB Hit, LLC data hit: 0
STLB Hit, LLC data miss: 0
STLB STLB hints to L2: 0
L1D TOTAL     ACCESS:   13105358  HIT:   11995339  MISS:    1110019  HIT %:      91.53  MISS %:    8.46996   MPKI: 22.2004
L1D LOAD DATA	ACCESS:    6585286  HIT:    5854829  MISS:     730457  HIT %:    88.9077  MISS %:    11.0923  MPKI: 14.6091
L1D RFO DATA	ACCESS:    6190355  HIT:    5903995  MISS:     286360  HIT %:    95.3741  MISS %:    4.62591  MPKI: 5.7272
L1D PREFETCH DATA	ACCESS:     329717  HIT:     236515  MISS:      93202  HIT %:    71.7327  MISS %:    28.2673  MPKI: 1.86404

L1D PREFETCH  REQUESTED:     740937  ISSUED:     740937  USEFUL:      33945  USELESS:      67905
L1D USEFUL LOAD PREFETCHES:      33945 PREFETCH ISSUED TO LOWER LEVEL:     101925  ACCURACY: 33.3039
 TIMELY PREFETCHES:      33945 LATE PREFETCHES: 8624 DROPPED PREFETCHES: 4
L1D AVERAGE MISS LATENCY: 261299 cycles
L1D RQ	ACCESS:   10719118	FORWARD:          0	MERGED:    3936020	TO_CACHE:    6624628
L1D WQ	ACCESS:    6947176	FORWARD:     158919	MERGED:     197588	TO_CACHE:    6749588
L1D PQ	ACCESS:     370693	FORWARD:          0	MERGED:          0	TO_CACHE:     370244

L1D UNIQUE REGIONS ACCESSED: 0
L1D REGIONS CONFLICTS: 0
L1D Cross Page Prefetch Requests: 5667
L1D Same Page Prefetch Requests: 752429
L1D ROI Sum of L1D PQ occupancy: 4728104
L1D PREFETCHES PUSHED FROM L2C: 0
L1I TOTAL     ACCESS:   11179336  HIT:    7548941  MISS:    3630395  HIT %:    67.5258  MISS %:    32.4742   MPKI: 72.6079
L1I LOAD INSTRUCTION	ACCESS:    6699774  HIT:    6124579  MISS:     575195  HIT %:    91.4147  MISS %:    8.58529  MPKI: 11.5039
L1I PREFETCH INSTRUCTION	ACCESS:    4479562  HIT:    1424362  MISS:    3055200  HIT %:    31.7969  MISS %:    68.2031  MPKI: 61.104

L1I PREFETCH  REQUESTED:    5111212  ISSUED:    5111110  USEFUL:    2364860  USELESS:     789452
L1I USEFUL LOAD PREFETCHES:    2364860 PREFETCH ISSUED TO LOWER LEVEL:    3154324  ACCURACY: 74.972
 TIMELY PREFETCHES:    2364860 LATE PREFETCHES: 99116 DROPPED PREFETCHES: 9013
L1I AVERAGE MISS LATENCY: 878954 cycles
L1I RQ	ACCESS:    9455310	FORWARD:          0	MERGED:    2696513	TO_CACHE:    6758797
L1I PQ	ACCESS:    5111110	FORWARD:          0	MERGED:     281216	TO_CACHE:    4829894

L1BTB TOTAL     ACCESS:    5668024  HIT:    2048316  MISS:    3619708  HIT %:    36.1381  MISS %:    63.8619   MPKI: 72.3942
L1BTB BRANCH_DIRECT_JUMP	ACCESS:     549198  HIT:     145738  MISS:     403460	AVERAGE STALL: 30.7411
L1BTB BRANCH_INDIRECT	ACCESS:     183381  HIT:      66329  MISS:     117052	AVERAGE STALL: 122.77
L1BTB BRANCH_CONDITIONAL	ACCESS:    2710998  HIT:    1420729  MISS:    1290269	AVERAGE STALL: 39.4014
L1BTB BRANCH_DIRECT_CALL	ACCESS:     941064  HIT:     105076  MISS:     835988	AVERAGE STALL: 44.0619
L1BTB BRANCH_INDIRECT_CALL	ACCESS:     171155  HIT:      21038  MISS:     150117	AVERAGE STALL: 142.787
L1BTB BRANCH_RETURN	ACCESS:    1112228  HIT:     289406  MISS:     822822	AVERAGE STALL: 40.0406
L1BTB BRANCH_OTHER ACCESS:          0  HIT:          0  MISS:          0	AVERAGE STALL: -nan
L1BTB TOTAL ROB OCCUPANCY AT BTB MISS: 5.77593

L2BTB1 TOTAL     ACCESS:    3594215  HIT:    3470101  MISS:     124114  HIT %:    96.5468  MISS %:    3.45316   MPKI: 2.48228
L2BTB1 BRANCH_DIRECT_JUMP	ACCESS:     399235  HIT:     390881  MISS:       8354	AVERAGE STALL: 30.7411
L2BTB1 BRANCH_INDIRECT	ACCESS:     106807  HIT:      95912  MISS:      10895	AVERAGE STALL: 122.77
L2BTB1 BRANCH_CONDITIONAL	ACCESS:    1290269  HIT:    1275050  MISS:      15219	AVERAGE STALL: 39.4014
L2BTB1 BRANCH_DIRECT_CALL	ACCESS:     835988  HIT:     812979  MISS:      23009	AVERAGE STALL: 44.0619
L2BTB1 BRANCH_INDIRECT_CALL	ACCESS:     140498  HIT:     127074  MISS:      13424	AVERAGE STALL: 142.787
L2BTB1 BRANCH_RETURN	ACCESS:     821418  HIT:     768205  MISS:      53213	AVERAGE STALL: 40.0406
L2BTB1 BRANCH_OTHER ACCESS:          0  HIT:          0  MISS:          0	AVERAGE STALL: -nan
L2BTB1 TOTAL ROB OCCUPANCY AT BTB MISS: 168.451

L2C TOTAL     ACCESS:    6593944  HIT:    5678608  MISS:     915336  HIT %:    86.1185  MISS %:    13.8815   MPKI: 18.3067
L2C LOAD INSTRUCTION	ACCESS:     476080  HIT:     386347  MISS:      89733  HIT %:    81.1517  MISS %:    18.8483  MPKI: 1.79466
L2C PREFETCH INSTRUCTION	ACCESS:    3154318  HIT:    2835597  MISS:     318721  HIT %:    89.8957  MISS %:    10.1043  MPKI: 6.37442
L2C LOAD TRANSLATION INSTRUCTION	ACCESS:        236  HIT:         61  MISS:        175  HIT %:    25.8475  MISS %:    74.1525  MPKI: 0.0035
L2C TRANSLATION FROM L1D PREFETCHER INSTRUCTION	ACCESS:       4494  HIT:       4235  MISS:        259  HIT %:    94.2368  MISS %:    5.76324  MPKI: 0.00518
L2C LOAD DATA	ACCESS:     721753  HIT:     580015  MISS:     141738  HIT %:     80.362  MISS %:     19.638  MPKI: 2.83476
L2C RFO DATA	ACCESS:     286226  HIT:     198256  MISS:      87970  HIT %:    69.2655  MISS %:    30.7345  MPKI: 1.7594
L2C PREFETCH DATA	ACCESS:    1427654  HIT:    1186850  MISS:     240804  HIT %:    83.1329  MISS %:    16.8671  MPKI: 4.81608
L2C WRITEBACK DATA	ACCESS:     521172  HIT:     486824  MISS:      34348  HIT %:    93.4095  MISS %:    6.59053  MPKI: 0.68696
L2C LOAD TRANSLATION DATA	ACCESS:       1968  HIT:        391  MISS:       1577  HIT %:    19.8679  MISS %:    80.1321  MPKI: 0.03154
L2C TRANSLATION FROM L1D PREFETCHER DATA	ACCESS:         43  HIT:         32  MISS:         11  HIT %:    74.4186  MISS %:    25.5814  MPKI: 0.00022

L2C PREFETCH  REQUESTED:    3257444  ISSUED:    3257444  USEFUL:      29280  USELESS:     532706
L2C USEFUL LOAD PREFETCHES:      29280 PREFETCH ISSUED TO LOWER LEVEL:     561176  ACCURACY: 5.21761
 TIMELY PREFETCHES:      29280 LATE PREFETCHES: 1650 DROPPED PREFETCHES: 0
L2C AVERAGE MISS LATENCY: 34.507 cycles
L2C RQ	ACCESS:    1490915	FORWARD:          0	MERGED:          0	TO_CACHE:    1490800
L2C WQ	ACCESS:     521172	FORWARD:        115	MERGED:          0	TO_CACHE:     521172
L2C PQ	ACCESS:    6513693	FORWARD:          0	MERGED:    1912484	TO_CACHE:    4601209

L2C Dense regions hint from L2: 0
PSCL5 TOTAL     ACCESS:      11532  HIT:       5766  MISS:       5766  HIT %:         50  MISS %:         50   MPKI: 0.11532
PSCL5 LOAD TRANSLATION INSTRUCTION	ACCESS:       4160  HIT:       2080  MISS:       2080  HIT %:         50  MISS %:         50  MPKI: 0.0416
PSCL5 TRANSLATION FROM L1D PREFETCHER INSTRUCTION	ACCESS:       7372  HIT:       3686  MISS:       3686  HIT %:         50  MISS %:         50  MPKI: 0.07372


PSCL4 TOTAL     ACCESS:       9352  HIT:       4672  MISS:       4680  HIT %:    49.9572  MISS %:    50.0428   MPKI: 0.0936
PSCL4 LOAD TRANSLATION INSTRUCTION	ACCESS:       2322  HIT:       1701  MISS:        621  HIT %:    73.2558  MISS %:    26.7442  MPKI: 0.01242
PSCL4 TRANSLATION FROM L1D PREFETCHER INSTRUCTION	ACCESS:       4242  HIT:       2971  MISS:       1271  HIT %:    70.0377  MISS %:    29.9623  MPKI: 0.02542
PSCL4 LOAD TRANSLATION DATA	ACCESS:       1088  HIT:          0  MISS:       1088  HIT %:          0  MISS %:        100  MPKI: 0.02176
PSCL4 TRANSLATION FROM L1D PREFETCHER DATA	ACCESS:       1700  HIT:          0  MISS:       1700  HIT %:          0  MISS %:        100  MPKI: 0.034


PSCL3 TOTAL     ACCESS:      10954  HIT:       5469  MISS:       5485  HIT %:     49.927  MISS %:     50.073   MPKI: 0.1097
PSCL3 LOAD TRANSLATION INSTRUCTION	ACCESS:       2275  HIT:       1964  MISS:        311  HIT %:    86.3297  MISS %:    13.6703  MPKI: 0.00622
PSCL3 TRANSLATION FROM L1D PREFETCHER INSTRUCTION	ACCESS:       4084  HIT:       3505  MISS:        579  HIT %:    85.8227  MISS %:    14.1773  MPKI: 0.01158
PSCL3 LOAD TRANSLATION DATA	ACCESS:       1669  HIT:          0  MISS:       1669  HIT %:          0  MISS %:        100  MPKI: 0.03338
PSCL3 TRANSLATION FROM L1D PREFETCHER DATA	ACCESS:       2926  HIT:          0  MISS:       2926  HIT %:          0  MISS %:        100  MPKI: 0.05852


PSCL2 TOTAL     ACCESS:       9751  HIT:       4816  MISS:       4935  HIT %:    49.3898  MISS %:    50.6102   MPKI: 0.0987
PSCL2 LOAD TRANSLATION INSTRUCTION	ACCESS:       2202  HIT:       1977  MISS:        225  HIT %:     89.782  MISS %:     10.218  MPKI: 0.0045
PSCL2 TRANSLATION FROM L1D PREFETCHER INSTRUCTION	ACCESS:       5635  HIT:       2839  MISS:       2796  HIT %:    50.3815  MISS %:    49.6185  MPKI: 0.05592
PSCL2 LOAD TRANSLATION DATA	ACCESS:       1871  HIT:          0  MISS:       1871  HIT %:          0  MISS %:        100  MPKI: 0.03742
PSCL2 TRANSLATION FROM L1D PREFETCHER DATA	ACCESS:         43  HIT:          0  MISS:         43  HIT %:          0  MISS %:        100  MPKI: 0.00086


LLC TOTAL     ACCESS:    1011120  HIT:     979955  MISS:      31165  HIT %:    96.9178  MISS %:    3.08223   MPKI: 0.6233
LLC LOAD INSTRUCTION	ACCESS:      89132  HIT:      88684  MISS:        448  HIT %:    99.4974  MISS %:   0.502625  MPKI: 0.00896
LLC PREFETCH INSTRUCTION	ACCESS:     315845  HIT:     315294  MISS:        551  HIT %:    99.8255  MISS %:   0.174453  MPKI: 0.01102
LLC LOAD TRANSLATION INSTRUCTION	ACCESS:        175  HIT:        148  MISS:         27  HIT %:    84.5714  MISS %:    15.4286  MPKI: 0.00054
LLC TRANSLATION FROM L1D PREFETCHER INSTRUCTION	ACCESS:        259  HIT:        246  MISS:         13  HIT %:    94.9807  MISS %:    5.01931  MPKI: 0.00026
LLC LOAD DATA	ACCESS:     140753  HIT:     137056  MISS:       3697  HIT %:    97.3734  MISS %:    2.62659  MPKI: 0.07394
LLC RFO DATA	ACCESS:      87901  HIT:      72625  MISS:      15276  HIT %:    82.6214  MISS %:    17.3786  MPKI: 0.30552
LLC PREFETCH DATA	ACCESS:     245329  HIT:     234547  MISS:      10782  HIT %:    95.6051  MISS %:    4.39491  MPKI: 0.21564
LLC WRITEBACK DATA	ACCESS:     130138  HIT:     129859  MISS:        279  HIT %:    99.7856  MISS %:   0.214388  MPKI: 0.00558
LLC LOAD TRANSLATION DATA	ACCESS:       1577  HIT:       1485  MISS:         92  HIT %:    94.1661  MISS %:    5.83386  MPKI: 0.00184
LLC TRANSLATION FROM L1D PREFETCHER DATA	ACCESS:         11  HIT:         11  MISS:          0  HIT %:        100  MISS %:          0  MPKI: 0

LLC AVERAGE MISS LATENCY: 164.501 cycles
LLC RQ	ACCESS:     319813	FORWARD:          0	MERGED:          0	TO_CACHE:     319808
LLC WQ	ACCESS:     130138	FORWARD:          6	MERGED:          0	TO_CACHE:     130138
LLC PQ	ACCESS:     561176	FORWARD:          0	MERGED:          0	TO_CACHE:     561175

LLC Dense regions hint to LLC: 0

RAW hits: 1924536
Loads Generated: 12643654
Loads sent to L1D: 10719118
Stores Generated: 6947174
Stores sent to L1D: 6947176
Major fault: 0 Minor fault: 2653
Allocated PAGES: 2653
I-Shadow cache 408 bytes
Touched + WorthPF tables 12288 bytes 
MMA filter 174 bytes 
FNL filter 272 bytes 
TOTAL PREFETCHER STORAGE SIZE: 31318 bytes
CPU 0 L1I next line prefetcher final stats

stream: 
stream:times selected: 1197847
stream:pref_filled: 116767
stream:pref_useful: 21795
stream:pref_late: 7048
stream:misses: 7002
stream:misses_by_poll: 0

CS: 
CS:times selected: 182453
CS:pref_filled: 54214
CS:pref_useful: 30873
CS:pref_late: 13403
CS:misses: 22947
CS:misses_by_poll: 7

CPLX: 
CPLX:times selected: 1014203
CPLX:pref_filled: 19781
CPLX:pref_useful: 4390
CPLX:pref_late: 3355
CPLX:misses: 92799
CPLX:misses_by_poll: 1

NL_L1: 
NL:times selected: 18004
NL:pref_filled: 586
NL:pref_useful: 212
NL:pref_late: 207
NL:misses: 835
NL:misses_by_poll: 0

total selections: 2412507
total_filled: 93202
total_useful: 33945
total_late: 25658
total_polluted: 8
total_misses_after_warmup: 769800
conflicts: 5530132

test: 116190

DRAM Statistics
 CHANNEL 0
 RQ ROW_BUFFER_HIT:      11027  ROW_BUFFER_MISS:      19848
 DBUS_CONGESTED:         17
 WQ ROW_BUFFER_HIT:       1696  ROW_BUFFER_MISS:      13936  FULL:          0

 AVG_CONGESTED_CYCLE: 6

CPU 0 Branch Prediction Accuracy: 99.8157% MPKI: 0.3369 Average ROB Occupancy at Mispredict: 183.472
Branch types
NOT_BRANCH: 40861454 81.7229%
BRANCH_DIRECT_JUMP: 549198 1.0984%
BRANCH_INDIRECT: 183381 0.366762%
BRANCH_CONDITIONAL: 6181506 12.363%
BRANCH_DIRECT_CALL: 941064 1.88213%
BRANCH_INDIRECT_CALL: 171155 0.34231%
BRANCH_RETURN: 1112228 2.22446%
BRANCH_OTHER: 0 0%

DRAM PAGES: 1048576
Allocated PAGES: 2653
Average_ROB_Occupancy: 218.395
Average_Decode_Occupancy: 26.1947
Average_FTQ_Occupancy: 8.80248
Indirect max targets: 14 Average targets: 1.15738
Branch_type:  BRANCH_DIRECT_JUMP:  Count Percentage: 3.34439 6.98323 3.78774 7.91682 2.23539 2.84804 1.35517 71.5292 
Branch_type:  BRANCH_INDIRECT:  Count Percentage: 11.7335 3.45989 2.61841 9.68719 3.33676 2.8012 0.933551 65.4295 
Branch_type:  BRANCH_CONDITIONAL:  Count Percentage: 21.8829 2.46926 2.27677 7.87813 1.5427 2.99531 0.710985 60.2439 
Branch_type:  BRANCH_DIRECT_CALL:  Count Percentage: 0.861397 1.24924 0.762811 4.44555 1.96473 2.12837 0.863579 87.7243 
Branch_type:  BRANCH_INDIRECT_CALL:  Count Percentage: 9.56193 0 2.99422 0.0055671 0.00058601 2.19344 1.00413 84.2401 
Branch_type:  BRANCH_RETURN:  Count Percentage: 4.69909 1.3955 1.46746 4.45097 3.37438 4.65627 0.812174 79.1442 
Branch_type:  BRANCH_DIRECT_JUMP:  Total Count: 36722 76677 41590 86928 24545 31272 14880 785403 
Branch_type:  BRANCH_INDIRECT:  Total Count: 43073 12701 9612 35561 12249 10283 3427 240187 
Branch_type:  BRANCH_CONDITIONAL:  Total Count: 2704214 305142 281355 973552 190641 370150 87861 7444734 
Branch_type:  BRANCH_DIRECT_CALL:  Total Count: 16182 23468 14330 83513 36909 39983 16223 1647969 
Branch_type:  BRANCH_INDIRECT_CALL:  Total Count: 32634 0 10219 19 2 7486 3427 287504 
Branch_type:  BRANCH_RETURN:  Total Count: 104353 30990 32588 98843 74935 103402 18036 1757559 
Number of unique branch instructions: 10380
Upper 32 bits: 
aaaa
ffff
ffff0000
Unique upper 32 bits: 3
Unique upper 36 bits: 3
Unique upper 40 bits: 5
Unique upper 44 bits: 32
Unique upper 48 bits: 158
Offset_3 4289
Offset_4 268
Offset_5 474
Offset_6 521
Offset_7 613
Offset_8 534
Offset_9 490
Offset_10 398
Offset_11 324
Offset_12 291
Offset_13 223
Offset_14 241
Offset_15 190
Offset_16 226
Offset_17 170
Offset_18 122
Offset_19 252
Offset_20 141
Offset_21 261
Offset_22 404
Offset_23 241
Offset_24 355
Offset_25 92
Offset_47 88
Offset_64 1
decode_dispatch_called: 25133635 67.6255
Dispatch_width: 0 13580109 54.0316 36.5392
Dispatch_width: 1 883608 3.51564 2.37747
Dispatch_width: 2 929411 3.69788 2.50071
Dispatch_width: 3 592530 2.35752 1.59428
Dispatch_width: 4 4559070 18.1393 12.2668
Dispatch_width: 5 289739 1.15279 0.779583
Dispatch_width: 6 4299168 17.1052 11.5675
Empty_decode_cycles: 12032261 32.3745
ROB_full_cycles: 7100019 19.1036
Starvation_cycles_per_kilo_instr: 257.667
Starvation_cycles_per_kilo_instr_3: 209.179
Starvation_cycles_per_kilo_instr_0: 185.124
Branch_type_1  (3,1)  (4,10)  (5,39)  (6,70)  (7,121)  (8,134)  (9,129)  (10,102)  (11,69)  (12,43)  (13,8)  (14,2)  (15,3)  (16,4)  (18,1)  (19,4)  (20,2)  (21,1)  (22,3)  (23,2)  (24,10)  (25,12)  (64,1) 
Branch_type_2  (3,1)  (4,1)  (5,1)  (8,3)  (9,3)  (12,1)  (13,1)  (14,1)  (16,3)  (17,2)  (20,2)  (21,2)  (23,5)  (24,1)  (47,41) 
Branch_type_3  (3,4287)  (4,257)  (5,430)  (6,436)  (7,461)  (8,336)  (9,267)  (10,160)  (11,126)  (12,50)  (13,7) 
Branch_type_4  (6,3)  (7,8)  (8,25)  (9,54)  (10,64)  (11,65)  (12,108)  (13,96)  (14,108)  (15,90)  (16,101)  (17,79)  (18,55)  (19,124)  (20,72)  (21,141)  (22,215)  (23,136)  (24,205)  (25,76) 
Branch_type_5  (8,2)  (9,1)  (10,4)  (11,6)  (12,3)  (13,14)  (14,16)  (15,11)  (16,20)  (17,11)  (18,16)  (19,13)  (20,12)  (21,13)  (22,42)  (23,26)  (24,41) 
Branch_type_6  (5,4)  (6,12)  (7,23)  (8,34)  (9,36)  (10,68)  (11,58)  (12,86)  (13,97)  (14,114)  (15,86)  (16,98)  (17,78)  (18,50)  (19,111)  (20,53)  (21,104)  (22,144)  (23,72)  (24,98)  (25,4)  (47,47) 
Unique trigger count: 
L2BTB1 1536 4
L2BTB2 1536 4
L2BTB3 1536 4
L2BTB4 224 4
