
*** ChampSim Multicore Out-of-Order Simulator ***

Warmup Instructions: 50000000
Simulation Instructions: 50000000
Number of CPUs: 1
LLC sets: 2048
LLC ways: 16
Off-chip DRAM Size: 4096 MB Channels: 1 Width: 64-bit Data Rate: 6400 MT/s
CPU 0 runs ./micro_traces/srv416.trace.gz
.gz
ITLB has LRU replacement policy
DTLB has LRU replacement policy
STLB has LRU replacement policy
FDIP Prefetcher at L1I
L1I has LRU replacement policy
L1D has LRU replacement policy
Initialize SRRIP state for L2C
Initialize DRRIP state for LLC
Heartbeat_Variant_0 : 672 0.328125 per_variant_size: 0 672 0 0 0 0 0 0 0 
Heartbeat_Variant_1 : 1376 0.671875 per_variant_size: 0 118 1258 0 0 0 0 0 0 
Heartbeat_Variant_2 : 0 0 per_variant_size: 0 0 0 0 0 0 0 0 0 
Heartbeat_Variant_3 : 0 0 per_variant_size: 0 0 0 0 0 0 0 0 0 
Heartbeat_Variant_0_evicts 0 : 30948 1 : 58948 2 : 0 3 : 0 
Heartbeat_Variant_1_evicts 0 : 58953 1 : 0 2 : 0 3 : 0 
Heartbeat_Variant_2_evicts 0 : 0 1 : 0 2 : 0 3 : 0 
Heartbeat_Variant_3_evicts 0 : 0 1 : 0 2 : 0 3 : 0 
Heartbeat CPU 0 instructions: 10000000 cycles: 2797051 heartbeat IPC: 3.57519 cumulative IPC: 3.57519 (Simulation time: 0 hr 2 min 28 sec) 
Heartbeat_Variant_0 : 630 0.307617 per_variant_size: 0 630 0 0 0 0 0 0 0 
Heartbeat_Variant_1 : 1418 0.692383 per_variant_size: 0 120 1298 0 0 0 0 0 0 
Heartbeat_Variant_2 : 0 0 per_variant_size: 0 0 0 0 0 0 0 0 0 
Heartbeat_Variant_3 : 0 0 per_variant_size: 0 0 0 0 0 0 0 0 0 
Heartbeat_Variant_0_evicts 0 : 30758 1 : 59468 2 : 0 3 : 0 
Heartbeat_Variant_1_evicts 0 : 59510 1 : 0 2 : 0 3 : 0 
Heartbeat_Variant_2_evicts 0 : 0 1 : 0 2 : 0 3 : 0 
Heartbeat_Variant_3_evicts 0 : 0 1 : 0 2 : 0 3 : 0 
Heartbeat CPU 0 instructions: 20000001 cycles: 5592493 heartbeat IPC: 3.57725 cumulative IPC: 3.57622 (Simulation time: 0 hr 4 min 39 sec) 
Heartbeat_Variant_0 : 637 0.311035 per_variant_size: 0 637 0 0 0 0 0 0 0 
Heartbeat_Variant_1 : 1411 0.688965 per_variant_size: 0 133 1278 0 0 0 0 0 0 
Heartbeat_Variant_2 : 0 0 per_variant_size: 0 0 0 0 0 0 0 0 0 
Heartbeat_Variant_3 : 0 0 per_variant_size: 0 0 0 0 0 0 0 0 0 
Heartbeat_Variant_0_evicts 0 : 30755 1 : 59245 2 : 0 3 : 0 
Heartbeat_Variant_1_evicts 0 : 59238 1 : 0 2 : 0 3 : 0 
Heartbeat_Variant_2_evicts 0 : 0 1 : 0 2 : 0 3 : 0 
Heartbeat_Variant_3_evicts 0 : 0 1 : 0 2 : 0 3 : 0 
Heartbeat CPU 0 instructions: 30000002 cycles: 8389430 heartbeat IPC: 3.57534 cumulative IPC: 3.57593 (Simulation time: 0 hr 6 min 54 sec) 
Heartbeat_Variant_0 : 625 0.305176 per_variant_size: 0 625 0 0 0 0 0 0 0 
Heartbeat_Variant_1 : 1423 0.694824 per_variant_size: 0 137 1286 0 0 0 0 0 0 
Heartbeat_Variant_2 : 0 0 per_variant_size: 0 0 0 0 0 0 0 0 0 
Heartbeat_Variant_3 : 0 0 per_variant_size: 0 0 0 0 0 0 0 0 0 
Heartbeat_Variant_0_evicts 0 : 30967 1 : 59089 2 : 0 3 : 0 
Heartbeat_Variant_1_evicts 0 : 59101 1 : 0 2 : 0 3 : 0 
Heartbeat_Variant_2_evicts 0 : 0 1 : 0 2 : 0 3 : 0 
Heartbeat_Variant_3_evicts 0 : 0 1 : 0 2 : 0 3 : 0 
Heartbeat CPU 0 instructions: 40000000 cycles: 11184627 heartbeat IPC: 3.57756 cumulative IPC: 3.57634 (Simulation time: 0 hr 9 min 6 sec) 
Heartbeat_Variant_0 : 640 0.3125 per_variant_size: 0 640 0 0 0 0 0 0 0 
Heartbeat_Variant_1 : 1408 0.6875 per_variant_size: 0 162 1246 0 0 0 0 0 0 
Heartbeat_Variant_2 : 0 0 per_variant_size: 0 0 0 0 0 0 0 0 0 
Heartbeat_Variant_3 : 0 0 per_variant_size: 0 0 0 0 0 0 0 0 0 
Heartbeat_Variant_0_evicts 0 : 30612 1 : 58624 2 : 0 3 : 0 
Heartbeat_Variant_1_evicts 0 : 58609 1 : 0 2 : 0 3 : 0 
Heartbeat_Variant_2_evicts 0 : 0 1 : 0 2 : 0 3 : 0 
Heartbeat_Variant_3_evicts 0 : 0 1 : 0 2 : 0 3 : 0 
Heartbeat CPU 0 instructions: 50000000 cycles: 13980781 heartbeat IPC: 3.57634 cumulative IPC: 3.57634 (Simulation time: 0 hr 11 min 17 sec) 

Warmup complete CPU 0 instructions: 50000004 cycles: 13980782 (Simulation time: 0 hr 11 min 17 sec) 

Cycle: 20000000 FTQ IN: 54509450 FTQ occupancy: 17.1379 DECODE IN: 54509450 DECODE occupancy: 43.8884 ROB IN: 54509440 ROB occupancy: 260.573 ROB OUT: 54509381
Heartbeat_Variant_0 : 597 0.291504 per_variant_size: 0 597 0 0 0 0 0 0 0 
Heartbeat_Variant_1 : 1451 0.708496 per_variant_size: 0 137 1314 0 0 0 0 0 0 
Heartbeat_Variant_2 : 0 0 per_variant_size: 0 0 0 0 0 0 0 0 0 
Heartbeat_Variant_3 : 0 0 per_variant_size: 0 0 0 0 0 0 0 0 0 
Heartbeat_Variant_0_evicts 0 : 31074 1 : 58989 2 : 0 3 : 0 
Heartbeat_Variant_1_evicts 0 : 59032 1 : 0 2 : 0 3 : 0 
Heartbeat_Variant_2_evicts 0 : 0 1 : 0 2 : 0 3 : 0 
Heartbeat_Variant_3_evicts 0 : 0 1 : 0 2 : 0 3 : 0 
Heartbeat CPU 0 instructions: 60000003 cycles: 27662441 heartbeat IPC: 0.730906 cumulative IPC: 0.730905 (Simulation time: 0 hr 12 min 59 sec) 
Cycle: 30000000 FTQ IN: 7233365 FTQ occupancy: 3.64776 DECODE IN: 7233362 DECODE occupancy: 6.72829 ROB IN: 7233372 ROB occupancy: 57.3251 ROB OUT: 7233431
Cycle: 40000000 FTQ IN: 7457141 FTQ occupancy: 3.51392 DECODE IN: 7457140 DECODE occupancy: 6.3469 ROB IN: 7457140 ROB occupancy: 56.222 ROB OUT: 7457140
Heartbeat_Variant_0 : 635 0.310059 per_variant_size: 0 635 0 0 0 0 0 0 0 
Heartbeat_Variant_1 : 1413 0.689941 per_variant_size: 0 125 1288 0 0 0 0 0 0 
Heartbeat_Variant_2 : 0 0 per_variant_size: 0 0 0 0 0 0 0 0 0 
Heartbeat_Variant_3 : 0 0 per_variant_size: 0 0 0 0 0 0 0 0 0 
Heartbeat_Variant_0_evicts 0 : 30670 1 : 58714 2 : 0 3 : 0 
Heartbeat_Variant_1_evicts 0 : 58676 1 : 0 2 : 0 3 : 0 
Heartbeat_Variant_2_evicts 0 : 0 1 : 0 2 : 0 3 : 0 
Heartbeat_Variant_3_evicts 0 : 0 1 : 0 2 : 0 3 : 0 
Heartbeat CPU 0 instructions: 70000001 cycles: 41074203 heartbeat IPC: 0.745614 cumulative IPC: 0.738186 (Simulation time: 0 hr 14 min 44 sec) 
Cycle: 50000000 FTQ IN: 7338957 FTQ occupancy: 3.49917 DECODE IN: 7338957 DECODE occupancy: 6.36085 ROB IN: 7338957 ROB occupancy: 54.3316 ROB OUT: 7338957
Heartbeat_Variant_0 : 684 0.333984 per_variant_size: 0 684 0 0 0 0 0 0 0 
Heartbeat_Variant_1 : 1364 0.666016 per_variant_size: 0 139 1225 0 0 0 0 0 0 
Heartbeat_Variant_2 : 0 0 per_variant_size: 0 0 0 0 0 0 0 0 0 
Heartbeat_Variant_3 : 0 0 per_variant_size: 0 0 0 0 0 0 0 0 0 
Heartbeat_Variant_0_evicts 0 : 31810 1 : 59818 2 : 0 3 : 0 
Heartbeat_Variant_1_evicts 0 : 59769 1 : 0 2 : 0 3 : 0 
Heartbeat_Variant_2_evicts 0 : 0 1 : 0 2 : 0 3 : 0 
Heartbeat_Variant_3_evicts 0 : 0 1 : 0 2 : 0 3 : 0 
Heartbeat CPU 0 instructions: 80000000 cycles: 54887610 heartbeat IPC: 0.723934 cumulative IPC: 0.733374 (Simulation time: 0 hr 16 min 40 sec) 
Cycle: 60000000 FTQ IN: 7256706 FTQ occupancy: 3.68007 DECODE IN: 7256675 DECODE occupancy: 6.78858 ROB IN: 7256671 ROB occupancy: 56.9923 ROB OUT: 7256615
Heartbeat_Variant_0 : 648 0.316406 per_variant_size: 0 648 0 0 0 0 0 0 0 
Heartbeat_Variant_1 : 1400 0.683594 per_variant_size: 0 141 1259 0 0 0 0 0 0 
Heartbeat_Variant_2 : 0 0 per_variant_size: 0 0 0 0 0 0 0 0 0 
Heartbeat_Variant_3 : 0 0 per_variant_size: 0 0 0 0 0 0 0 0 0 
Heartbeat_Variant_0_evicts 0 : 30869 1 : 59405 2 : 0 3 : 0 
Heartbeat_Variant_1_evicts 0 : 59441 1 : 0 2 : 0 3 : 0 
Heartbeat_Variant_2_evicts 0 : 0 1 : 0 2 : 0 3 : 0 
Heartbeat_Variant_3_evicts 0 : 0 1 : 0 2 : 0 3 : 0 
Heartbeat CPU 0 instructions: 90000001 cycles: 68408779 heartbeat IPC: 0.739581 cumulative IPC: 0.734916 (Simulation time: 0 hr 18 min 30 sec) 
Cycle: 70000000 FTQ IN: 7373659 FTQ occupancy: 3.49008 DECODE IN: 7373694 DECODE occupancy: 6.36022 ROB IN: 7373672 ROB occupancy: 54.9067 ROB OUT: 7373721
Cycle: 80000000 FTQ IN: 7251281 FTQ occupancy: 3.66154 DECODE IN: 7251281 DECODE occupancy: 6.74079 ROB IN: 7251283 ROB occupancy: 57.021 ROB OUT: 7251215
Heartbeat_Variant_0 : 615 0.300293 per_variant_size: 0 615 0 0 0 0 0 0 0 
Heartbeat_Variant_1 : 1433 0.699707 per_variant_size: 0 137 1296 0 0 0 0 0 0 
Heartbeat_Variant_2 : 0 0 per_variant_size: 0 0 0 0 0 0 0 0 0 
Heartbeat_Variant_3 : 0 0 per_variant_size: 0 0 0 0 0 0 0 0 0 
Heartbeat_Variant_0_evicts 0 : 31122 1 : 59822 2 : 0 3 : 0 
Heartbeat_Variant_1_evicts 0 : 59855 1 : 0 2 : 0 3 : 0 
Heartbeat_Variant_2_evicts 0 : 0 1 : 0 2 : 0 3 : 0 
Heartbeat_Variant_3_evicts 0 : 0 1 : 0 2 : 0 3 : 0 
Heartbeat CPU 0 instructions: 100000001 cycles: 82180536 heartbeat IPC: 0.726124 cumulative IPC: 0.73314 (Simulation time: 0 hr 20 min 29 sec) 
Finished CPU 0 instructions: 50000002 cycles: 68199763 cumulative IPC: 0.73314 (Simulation time: 0 hr 20 min 29 sec) 

ChampSim completed all CPUs

Region of Interest Statistics

CPU 0 cumulative IPC: 0.73314 instructions: 50000002 cycles: 68199763
 Fetch stage stalled: 82.2133  Sim cycles: 68199763 fetch stall cycle: 56069271
 Empty decode stage: 67.8878  Sim cycles: 68199763 fetch stall cycle: 46299287
ITLB TOTAL     ACCESS:    5664022  HIT:    5171480  MISS:     492542  HIT %:     91.304  MISS %:    8.69598   MPKI: 9.85084
ITLB LOAD TRANSLATION INSTRUCTION	ACCESS:    5588510  HIT:    5095968  MISS:     492542  HIT %:    91.1865  MISS %:    8.81348  MPKI: 9.85084
ITLB TRANSLATION FROM L1D PREFETCHER INSTRUCTION	ACCESS:      75512  HIT:      75512  MISS:          0  HIT %:        100  MISS %:          0  MPKI: 0

ITLB AVERAGE MISS LATENCY: 9.04244 cycles
ITLB RQ	ACCESS:    7136654	FORWARD:          0	MERGED:    1039774	TO_CACHE:    6096880

DTLB TOTAL     ACCESS:   10086282  HIT:    9612478  MISS:     473804  HIT %:    95.3025  MISS %:    4.69751   MPKI: 9.47608
DTLB LOAD TRANSLATION DATA	ACCESS:   10086282  HIT:    9612478  MISS:     473804  HIT %:    95.3025  MISS %:    4.69751  MPKI: 9.47608

DTLB AVERAGE MISS LATENCY: 9.32712 cycles
DTLB RQ	ACCESS:   14143684	FORWARD:          0	MERGED:    4029859	TO_CACHE:   10113825

STLB TOTAL     ACCESS:    1217481  HIT:    1215287  MISS:       2194  HIT %:    99.8198  MISS %:   0.180208   MPKI: 0.04388
STLB LOAD TRANSLATION INSTRUCTION	ACCESS:     492540  HIT:     492249  MISS:        291  HIT %:    99.9409  MISS %:  0.0590815  MPKI: 0.00582
STLB LOAD TRANSLATION DATA	ACCESS:     473488  HIT:     471612  MISS:       1876  HIT %:    99.6038  MISS %:   0.396209  MPKI: 0.03752
STLB TRANSLATION FROM L1D PREFETCHER DATA	ACCESS:     251453  HIT:     251426  MISS:         27  HIT %:    99.9893  MISS %:  0.0107376  MPKI: 0.00054

STLB AVERAGE MISS LATENCY: 71.8387 cycles
STLB RQ	ACCESS:    1341363	FORWARD:          0	MERGED:     123831	TO_CACHE:    1217532

STLB Hit, L1D data hit: 0
STLB Hit, L2C data hit: 0
STLB Hit, LLC data hit: 0
STLB Hit, LLC data miss: 0
STLB STLB hints to L2: 0
L1D TOTAL     ACCESS:   13941442  HIT:   12827603  MISS:    1113839  HIT %:    92.0106  MISS %:    7.98941   MPKI: 22.2768
L1D LOAD DATA	ACCESS:    7306071  HIT:    6575437  MISS:     730634  HIT %:    89.9996  MISS %:    10.0004  MPKI: 14.6127
L1D RFO DATA	ACCESS:    6300909  HIT:    6012090  MISS:     288819  HIT %:    95.4162  MISS %:    4.58377  MPKI: 5.77638
L1D PREFETCH DATA	ACCESS:     334462  HIT:     240076  MISS:      94386  HIT %:    71.7798  MISS %:    28.2202  MPKI: 1.88772

L1D PREFETCH  REQUESTED:     750186  ISSUED:     750186  USEFUL:      34415  USELESS:      67792
L1D USEFUL LOAD PREFETCHES:      34415 PREFETCH ISSUED TO LOWER LEVEL:     102267  ACCURACY: 33.6521
 TIMELY PREFETCHES:      34415 LATE PREFETCHES: 7820 DROPPED PREFETCHES: 3
L1D AVERAGE MISS LATENCY: 340042 cycles
L1D RQ	ACCESS:   11286466	FORWARD:          0	MERGED:    3790895	TO_CACHE:    7332511
L1D WQ	ACCESS:    6943242	FORWARD:     163212	MERGED:     132069	TO_CACHE:    6811173
L1D PQ	ACCESS:     375169	FORWARD:          0	MERGED:          0	TO_CACHE:     375017

L1D UNIQUE REGIONS ACCESSED: 0
L1D REGIONS CONFLICTS: 0
L1D Cross Page Prefetch Requests: 6869
L1D Same Page Prefetch Requests: 753901
L1D ROI Sum of L1D PQ occupancy: 4758400
L1D PREFETCHES PUSHED FROM L2C: 0
L1I TOTAL     ACCESS:    6995880  HIT:    4240718  MISS:    2755162  HIT %:    60.6174  MISS %:    39.3826   MPKI: 55.1032
L1I LOAD INSTRUCTION	ACCESS:    6678907  HIT:    3923745  MISS:    2755162  HIT %:    58.7483  MISS %:    41.2517  MPKI: 55.1032
L1I PREFETCH INSTRUCTION	ACCESS:     316973  HIT:     316973  MISS:          0  HIT %:        100  MISS %:          0  MPKI: 0

L1I PREFETCH  REQUESTED:     553262  ISSUED:     553262  USEFUL:          0  USELESS:          0
L1I USEFUL LOAD PREFETCHES:          0 PREFETCH ISSUED TO LOWER LEVEL:          0  ACCURACY: -nan
 TIMELY PREFETCHES:          0 LATE PREFETCHES: 0 DROPPED PREFETCHES: 0
L1I AVERAGE MISS LATENCY: 17.7142 cycles
L1I RQ	ACCESS:    9449171	FORWARD:          0	MERGED:    2691093	TO_CACHE:    6758078
L1I PQ	ACCESS:     553262	FORWARD:          0	MERGED:     174686	TO_CACHE:     378576

L1BTB TOTAL     ACCESS:    5668972  HIT:    2049138  MISS:    3619834  HIT %:    36.1466  MISS %:    63.8534   MPKI: 72.3967
L1BTB BRANCH_DIRECT_JUMP	ACCESS:     548258 HIT:     145312 MISS:     402946 AVERAGE STALL: 28.4123 AVERAGE FETCH STALL: 19.0804 AVERAGE FETCH QUEUE STALL: 3.32465 AVERAGE DECODE STALL: 5.16022 AVERAGE EXECUTE STALL: 1.10385e+14
L1BTB BRANCH_INDIRECT	ACCESS:     182870 HIT:      66087 MISS:     116783 AVERAGE STALL: 68.3198 AVERAGE FETCH STALL: 16.5463 AVERAGE FETCH QUEUE STALL: 3.71058 AVERAGE DECODE STALL: 5.0957 AVERAGE EXECUTE STALL: 42.0227
L1BTB BRANCH_CONDITIONAL	ACCESS:    2708568 HIT:    1418652 MISS:    1289916 AVERAGE STALL: 29.4283 AVERAGE FETCH STALL: 20.8225 AVERAGE FETCH QUEUE STALL: 2.75003 AVERAGE DECODE STALL: 5.10829 AVERAGE EXECUTE STALL: 3.63209e+13
L1BTB BRANCH_DIRECT_CALL	ACCESS:     942825 HIT:     106417 MISS:     836408 AVERAGE STALL: 30.2219 AVERAGE FETCH STALL: 21.348 AVERAGE FETCH QUEUE STALL: 2.90149 AVERAGE DECODE STALL: 5.21775 AVERAGE EXECUTE STALL: 4.0028e+13
L1BTB BRANCH_INDIRECT_CALL	ACCESS:     171813 HIT:      21717 MISS:     150096 AVERAGE STALL: 89.8068 AVERAGE FETCH STALL: 19.3709 AVERAGE FETCH QUEUE STALL: 2.91084 AVERAGE DECODE STALL: 5.30627 AVERAGE EXECUTE STALL: 61.6572
L1BTB BRANCH_RETURN	ACCESS:    1114638 HIT:     290953 MISS:     823685 AVERAGE STALL: 29.1059 AVERAGE FETCH STALL: 18.6444 AVERAGE FETCH QUEUE STALL: 2.89955 AVERAGE DECODE STALL: 5.24215 AVERAGE EXECUTE STALL: 6.25387e+13
L1BTB BRANCH_OTHER ACCESS:          0 HIT:          0 MISS:          0 AVERAGE STALL: -nan AVERAGE FETCH STALL: -nan AVERAGE FETCH QUEUE STALL: -nan AVERAGE DECODE STALL: -nan AVERAGE EXECUTE STALL: -nan
L1BTB TOTAL ROB OCCUPANCY AT BTB MISS: 19.8676

L2BTB TOTAL     ACCESS:    3594423  HIT:    2064103  MISS:    1530320  HIT %:    57.4252  MISS %:    42.5748   MPKI: 30.6064
L2BTB BRANCH_DIRECT_JUMP	ACCESS:     398766 HIT:     235810 MISS:     162956 AVERAGE STALL: 28.4123 AVERAGE FETCH STALL: 19.0804 AVERAGE FETCH QUEUE STALL: 3.32465 AVERAGE DECODE STALL: 5.16022 AVERAGE EXECUTE STALL: 1.10385e+14
L2BTB BRANCH_INDIRECT	ACCESS:     106518 HIT:      82489 MISS:      24029 AVERAGE STALL: 68.3198 AVERAGE FETCH STALL: 16.5463 AVERAGE FETCH QUEUE STALL: 3.71058 AVERAGE DECODE STALL: 5.0957 AVERAGE EXECUTE STALL: 42.0227
L2BTB BRANCH_CONDITIONAL	ACCESS:    1289916 HIT:     779765 MISS:     510151 AVERAGE STALL: 29.4283 AVERAGE FETCH STALL: 20.8225 AVERAGE FETCH QUEUE STALL: 2.75003 AVERAGE DECODE STALL: 5.10829 AVERAGE EXECUTE STALL: 3.63209e+13
L2BTB BRANCH_DIRECT_CALL	ACCESS:     836408 HIT:     375473 MISS:     460935 AVERAGE STALL: 30.2219 AVERAGE FETCH STALL: 21.348 AVERAGE FETCH QUEUE STALL: 2.90149 AVERAGE DECODE STALL: 5.21775 AVERAGE EXECUTE STALL: 4.0028e+13
L2BTB BRANCH_INDIRECT_CALL	ACCESS:     140531 HIT:      61909 MISS:      78622 AVERAGE STALL: 89.8068 AVERAGE FETCH STALL: 19.3709 AVERAGE FETCH QUEUE STALL: 2.91084 AVERAGE DECODE STALL: 5.30627 AVERAGE EXECUTE STALL: 61.6572
L2BTB BRANCH_RETURN	ACCESS:     822284 HIT:     528657 MISS:     293627 AVERAGE STALL: 29.1059 AVERAGE FETCH STALL: 18.6444 AVERAGE FETCH QUEUE STALL: 2.89955 AVERAGE DECODE STALL: 5.24215 AVERAGE EXECUTE STALL: 6.25387e+13
L2BTB BRANCH_OTHER ACCESS:          0 HIT:          0 MISS:          0 AVERAGE STALL: -nan AVERAGE FETCH STALL: -nan AVERAGE FETCH QUEUE STALL: -nan AVERAGE DECODE STALL: -nan AVERAGE EXECUTE STALL: -nan
L2BTB TOTAL ROB OCCUPANCY AT BTB MISS: 46.9951

L2C TOTAL     ACCESS:    4480907  HIT:    3944699  MISS:     536208  HIT %:    88.0335  MISS %:    11.9665   MPKI: 10.7242
L2C LOAD INSTRUCTION	ACCESS:    2755162  HIT:    2448450  MISS:     306712  HIT %:    88.8677  MISS %:    11.1323  MPKI: 6.13424
L2C LOAD TRANSLATION INSTRUCTION	ACCESS:        325  HIT:         79  MISS:        246  HIT %:    24.3077  MISS %:    75.6923  MPKI: 0.00492
L2C LOAD DATA	ACCESS:     722788  HIT:     646029  MISS:      76759  HIT %:    89.3802  MISS %:    10.6198  MPKI: 1.53518
L2C RFO DATA	ACCESS:     288755  HIT:     226330  MISS:      62425  HIT %:    78.3813  MISS %:    21.6187  MPKI: 1.2485
L2C PREFETCH DATA	ACCESS:     191060  HIT:     119924  MISS:      71136  HIT %:    62.7677  MISS %:    37.2323  MPKI: 1.42272
L2C WRITEBACK DATA	ACCESS:     520830  HIT:     503418  MISS:      17412  HIT %:    96.6569  MISS %:    3.34313  MPKI: 0.34824
L2C LOAD TRANSLATION DATA	ACCESS:       1941  HIT:        438  MISS:       1503  HIT %:    22.5657  MISS %:    77.4343  MPKI: 0.03006
L2C TRANSLATION FROM L1D PREFETCHER DATA	ACCESS:         46  HIT:         31  MISS:         15  HIT %:    67.3913  MISS %:    32.6087  MPKI: 0.0003

L2C PREFETCH  REQUESTED:      95889  ISSUED:      95889  USEFUL:       8012  USELESS:      63896
L2C USEFUL LOAD PREFETCHES:       8012 PREFETCH ISSUED TO LOWER LEVEL:      71629  ACCURACY: 11.1854
 TIMELY PREFETCHES:       8012 LATE PREFETCHES: 493 DROPPED PREFETCHES: 0
L2C AVERAGE MISS LATENCY: 38.0943 cycles
L2C RQ	ACCESS:    3769046	FORWARD:          0	MERGED:          0	TO_CACHE:    3769021
L2C WQ	ACCESS:     520830	FORWARD:         25	MERGED:          0	TO_CACHE:     520830
L2C PQ	ACCESS:     198156	FORWARD:          0	MERGED:       3640	TO_CACHE:     194516

L2C Dense regions hint from L2: 0
PSCL5 TOTAL     ACCESS:       4398  HIT:       2199  MISS:       2199  HIT %:         50  MISS %:         50   MPKI: 0.04398
PSCL5 LOAD TRANSLATION INSTRUCTION	ACCESS:       4306  HIT:       2153  MISS:       2153  HIT %:         50  MISS %:         50  MPKI: 0.04306
PSCL5 TRANSLATION FROM L1D PREFETCHER INSTRUCTION	ACCESS:         92  HIT:         46  MISS:         46  HIT %:         50  MISS %:         50  MPKI: 0.00092


PSCL4 TOTAL     ACCESS:       4279  HIT:       2136  MISS:       2143  HIT %:    49.9182  MISS %:    50.0818   MPKI: 0.04286
PSCL4 LOAD TRANSLATION INSTRUCTION	ACCESS:       2959  HIT:       2096  MISS:        863  HIT %:    70.8347  MISS %:    29.1653  MPKI: 0.01726
PSCL4 TRANSLATION FROM L1D PREFETCHER INSTRUCTION	ACCESS:         57  HIT:         40  MISS:         17  HIT %:    70.1754  MISS %:    29.8246  MPKI: 0.00034
PSCL4 LOAD TRANSLATION DATA	ACCESS:       1240  HIT:          0  MISS:       1240  HIT %:          0  MISS %:        100  MPKI: 0.0248
PSCL4 TRANSLATION FROM L1D PREFETCHER DATA	ACCESS:         23  HIT:          0  MISS:         23  HIT %:          0  MISS %:        100  MPKI: 0.00046


PSCL3 TOTAL     ACCESS:       4289  HIT:       2141  MISS:       2148  HIT %:    49.9184  MISS %:    50.0816   MPKI: 0.04296
PSCL3 LOAD TRANSLATION INSTRUCTION	ACCESS:       2964  HIT:       2101  MISS:        863  HIT %:    70.8839  MISS %:    29.1161  MPKI: 0.01726
PSCL3 TRANSLATION FROM L1D PREFETCHER INSTRUCTION	ACCESS:         57  HIT:         40  MISS:         17  HIT %:    70.1754  MISS %:    29.8246  MPKI: 0.00034
PSCL3 LOAD TRANSLATION DATA	ACCESS:       1245  HIT:          0  MISS:       1245  HIT %:          0  MISS %:        100  MPKI: 0.0249
PSCL3 TRANSLATION FROM L1D PREFETCHER DATA	ACCESS:         23  HIT:          0  MISS:         23  HIT %:          0  MISS %:        100  MPKI: 0.00046


PSCL2 TOTAL     ACCESS:       4299  HIT:       2100  MISS:       2199  HIT %:    48.8486  MISS %:    51.1514   MPKI: 0.04398
PSCL2 LOAD TRANSLATION INSTRUCTION	ACCESS:       2345  HIT:       2054  MISS:        291  HIT %:    87.5906  MISS %:    12.4094  MPKI: 0.00582
PSCL2 TRANSLATION FROM L1D PREFETCHER INSTRUCTION	ACCESS:         46  HIT:         46  MISS:          0  HIT %:        100  MISS %:          0  MPKI: 0
PSCL2 LOAD TRANSLATION DATA	ACCESS:       1862  HIT:          0  MISS:       1862  HIT %:          0  MISS %:        100  MPKI: 0.03724
PSCL2 TRANSLATION FROM L1D PREFETCHER DATA	ACCESS:         46  HIT:          0  MISS:         46  HIT %:          0  MISS %:        100  MPKI: 0.00092


LLC TOTAL     ACCESS:     602697  HIT:     572063  MISS:      30634  HIT %:    94.9172  MISS %:    5.08282   MPKI: 0.61268
LLC LOAD INSTRUCTION	ACCESS:     306712  HIT:     305662  MISS:       1050  HIT %:    99.6577  MISS %:   0.342341  MPKI: 0.021
LLC LOAD TRANSLATION INSTRUCTION	ACCESS:        246  HIT:        213  MISS:         33  HIT %:    86.5854  MISS %:    13.4146  MPKI: 0.00066
LLC LOAD DATA	ACCESS:      76305  HIT:      72760  MISS:       3545  HIT %:    95.3542  MISS %:    4.64583  MPKI: 0.0709
LLC RFO DATA	ACCESS:      62384  HIT:      46854  MISS:      15530  HIT %:    75.1058  MISS %:    24.8942  MPKI: 0.3106
LLC PREFETCH DATA	ACCESS:      71629  HIT:      61647  MISS:       9982  HIT %:    86.0643  MISS %:    13.9357  MPKI: 0.19964
LLC WRITEBACK DATA	ACCESS:      83903  HIT:      83502  MISS:        401  HIT %:    99.5221  MISS %:   0.477933  MPKI: 0.00802
LLC LOAD TRANSLATION DATA	ACCESS:       1503  HIT:       1410  MISS:         93  HIT %:    93.8124  MISS %:    6.18762  MPKI: 0.00186
LLC TRANSLATION FROM L1D PREFETCHER DATA	ACCESS:         15  HIT:         15  MISS:          0  HIT %:        100  MISS %:          0  MPKI: 0

LLC AVERAGE MISS LATENCY: 157.159 cycles
LLC RQ	ACCESS:     447167	FORWARD:          0	MERGED:          0	TO_CACHE:     447165
LLC WQ	ACCESS:      83903	FORWARD:          2	MERGED:          0	TO_CACHE:      83903
LLC PQ	ACCESS:      71629	FORWARD:          0	MERGED:          0	TO_CACHE:      71629

LLC Dense regions hint to LLC: 0

RAW hits: 1351441
Loads Generated: 12637907
Loads sent to L1D: 11286466
Stores Generated: 6943219
Stores sent to L1D: 6943242
Major fault: 0 Minor fault: 2534
Allocated PAGES: 2534

stream: 
stream:times selected: 1184676
stream:pref_filled: 119998
stream:pref_useful: 23837
stream:pref_late: 6675
stream:misses: 8028
stream:misses_by_poll: 0

CS: 
CS:times selected: 179697
CS:pref_filled: 60719
CS:pref_useful: 36632
CS:pref_late: 7250
CS:misses: 16642
CS:misses_by_poll: 7

CPLX: 
CPLX:times selected: 1003948
CPLX:pref_filled: 20127
CPLX:pref_useful: 4673
CPLX:pref_late: 3126
CPLX:misses: 92563
CPLX:misses_by_poll: 4

NL_L1: 
NL:times selected: 20319
NL:pref_filled: 823
NL:pref_useful: 366
NL:pref_late: 274
NL:misses: 1809
NL:misses_by_poll: 0

total selections: 2388640
total_filled: 94386
total_useful: 34415
total_late: 18588
total_polluted: 11
total_misses_after_warmup: 757079
conflicts: 5882919

test: 116952

DRAM Statistics
 CHANNEL 0
 RQ ROW_BUFFER_HIT:      11417  ROW_BUFFER_MISS:      18804
 DBUS_CONGESTED:          9
 WQ ROW_BUFFER_HIT:       1486  ROW_BUFFER_MISS:      12801  FULL:          0

 AVG_CONGESTED_CYCLE: 4

CPU 0 Branch Prediction Accuracy: 99.8237% MPKI: 0.32234 Average ROB Occupancy at Mispredict: 97.2332
Branch types
NOT_BRANCH: 40859208 81.7184%
BRANCH_DIRECT_JUMP: 548258 1.09652%
BRANCH_INDIRECT: 182870 0.36574%
BRANCH_CONDITIONAL: 6180313 12.3606%
BRANCH_DIRECT_CALL: 942825 1.88565%
BRANCH_INDIRECT_CALL: 171813 0.343626%
BRANCH_RETURN: 1114638 2.22928%
BRANCH_OTHER: 0 0%

DRAM PAGES: 1048576
Allocated PAGES: 2534
Average_ROB_Occupancy: 56.8031
Average_Decode_Occupancy: 6.5289
Average_FTQ_Occupancy: 3.57424
Indirect max targets: 14 Average targets: 1.14626
Branch_type:  BRANCH_DIRECT_JUMP:  Count Percentage: 3.40023 6.12984 3.95466 15.1368 1.69432 3.64568 1.23446 64.804 
Branch_type:  BRANCH_INDIRECT:  Count Percentage: 11.76 3.43969 12.2184 23.3731 1.33805 14.5418 1.07039 32.2586 
Branch_type:  BRANCH_CONDITIONAL:  Count Percentage: 21.8526 2.57708 2.37349 9.19549 1.06896 3.24065 0.849672 58.8421 
Branch_type:  BRANCH_DIRECT_CALL:  Count Percentage: 0.757869 1.29176 1.43331 5.40376 1.99213 2.32967 0.930873 85.8606 
Branch_type:  BRANCH_INDIRECT_CALL:  Count Percentage: 9.51574 0.567475 2.9815 4.82833 0 3.83576 0 78.2712 
Branch_type:  BRANCH_RETURN:  Count Percentage: 4.43764 0.696133 3.52221 9.44468 2.12278 4.61795 1.22802 73.9306 
Branch_type:  BRANCH_DIRECT_JUMP:  Total Count: 37251 67155 43325 165830 18562 39940 13524 709956 
Branch_type:  BRANCH_INDIRECT:  Total Count: 42969 12568 44644 85401 4889 53133 3911 117867 
Branch_type:  BRANCH_CONDITIONAL:  Total Count: 2699730 318380 293228 1136038 132062 400359 104971 7269527 
Branch_type:  BRANCH_DIRECT_CALL:  Total Count: 14316 24401 27075 102076 37631 44007 17584 1621890 
Branch_type:  BRANCH_INDIRECT_CALL:  Total Count: 32749 1953 10261 16617 0 13201 0 269375 
Branch_type:  BRANCH_RETURN:  Total Count: 99133 15551 78683 210986 47421 103161 27433 1651545 
Number of unique branch instructions: 9791
Upper 32 bits: 
aaaa
ffff
ffff0000
Unique upper 32 bits: 3
Unique upper 36 bits: 3
Unique upper 40 bits: 5
Unique upper 44 bits: 32
Unique upper 48 bits: 154
Variant_0 : 615 0.300293
Variant_1 : 1433 0.699707
Variant_2 : 0 0
Variant_3 : 0 0
Offset_3 4035
Offset_4 246
Offset_5 451
Offset_6 502
Offset_7 578
Offset_8 498
Offset_9 459
Offset_10 377
Offset_11 305
Offset_12 269
Offset_13 199
Offset_14 225
Offset_15 186
Offset_16 220
Offset_17 141
Offset_18 118
Offset_19 234
Offset_20 137
Offset_21 235
Offset_22 392
Offset_23 241
Offset_24 326
Offset_25 88
Offset_47 80
Offset_64 2
decode_dispatch_called: 20239243 29.6764
Dispatch_width: 0 9850820 48.6719 14.4441
Dispatch_width: 1 638858 3.15653 0.936745
Dispatch_width: 2 930997 4.59996 1.3651
Dispatch_width: 3 631622 3.12078 0.926135
Dispatch_width: 4 1523755 7.52872 2.23425
Dispatch_width: 5 469882 2.32164 0.688979
Dispatch_width: 6 6193309 30.6005 9.08113
Empty_decode_cycles: 47960520 70.3236
ROB_full_cycles: 1273662 1.86755
Starvation_cycles_per_kilo_instr: 607.328
Starvation_cycles_per_kilo_instr_3: 587.392
Starvation_cycles_per_kilo_instr_0: 565.377
Branch_type_1  (3,1)  (4,9)  (5,37)  (6,69)  (7,114)  (8,127)  (9,121)  (10,97)  (11,69)  (12,43)  (13,5)  (14,2)  (15,3)  (16,4)  (18,1)  (19,4)  (20,2)  (21,1)  (22,3)  (23,2)  (24,10)  (25,12) 
Branch_type_2  (3,1)  (5,1)  (8,3)  (9,3)  (12,1)  (13,1)  (14,1)  (16,3)  (17,2)  (20,2)  (21,2)  (23,5)  (24,1)  (47,36) 
Branch_type_3  (3,4033)  (4,237)  (5,409)  (6,418)  (7,435)  (8,308)  (9,252)  (10,153)  (11,123)  (12,50)  (13,4) 
Branch_type_4  (6,3)  (7,8)  (8,24)  (9,52)  (10,60)  (11,57)  (12,96)  (13,86)  (14,99)  (15,88)  (16,98)  (17,63)  (18,53)  (19,114)  (20,72)  (21,124)  (22,207)  (23,136)  (24,186)  (25,72)  (64,1) 
Branch_type_5  (8,2)  (9,1)  (10,3)  (11,5)  (12,3)  (13,14)  (14,16)  (15,11)  (16,20)  (17,11)  (18,16)  (19,12)  (20,10)  (21,13)  (22,42)  (23,26)  (24,37) 
Branch_type_6  (5,4)  (6,12)  (7,21)  (8,34)  (9,30)  (10,64)  (11,51)  (12,76)  (13,89)  (14,107)  (15,84)  (16,95)  (17,65)  (18,48)  (19,104)  (20,51)  (21,95)  (22,140)  (23,72)  (24,92)  (25,4)  (47,44)  (64,1) 
Unique trigger count: 
Variant_0_evicts_0 : 0
Variant_0_evicts_1 : 0
Variant_0_evicts_2 : 0
Variant_0_evicts_3 : 0
Variant_1_evicts_0 : 0
Variant_1_evicts_1 : 0
Variant_1_evicts_2 : 0
Variant_1_evicts_3 : 0
Variant_2_evicts_0 : 0
Variant_2_evicts_1 : 0
Variant_2_evicts_2 : 0
Variant_2_evicts_3 : 0
Variant_3_evicts_0 : 0
Variant_3_evicts_1 : 0
Variant_3_evicts_2 : 0
Variant_3_evicts_3 : 0
BTB PER SET UNIQUE ADDR: 45 49 49 48 52 39 48 42 38 43 57 45 42 46 43 35 36 42 48 45 50 51 33 38 46 36 57 49 49 38 48 44 44 37 45 44 47 38 43 47 47 43 38 53 38 50 48 37 38 38 56 49 45 43 49 55 43 48 44 39 49 44 44 57 46 55 47 45 51 35 46 55 48 48 58 44 40 37 49 49 50 32 49 31 39 53 51 54 56 53 53 40 57 41 46 55 40 52 55 56 58 51 45 46 44 45 46 41 46 39 47 42 51 59 37 54 54 35 46 52 57 47 48 58 48 48 59 48 49 49 57 41 51 43 43 44 48 55 42 58 45 40 45 49 48 51 46 46 40 38 51 42 52 47 52 42 42 34 51 52 50 42 44 43 47 51 52 47 40 35 41 37 43 41 54 56 59 48 47 53 38 49 42 38 41 47 49 46 47 47 47 39 36 39 48 48 56 45 46 48 52 41 54 44 37 39 53 47 42 50 48 43 48 46 34 59 48 37 43 34 39 41 46 40 46 42 47 48 54 48 31 43 63 55 41 42 39 42 48 45 39 56 55 46 39 60 38 42 46 34 48 40 54 38 51 28 51 50 49 44 52 44 54 49 42 40 50 49 51 56 40 38 51 43 55 48 48 42 41 46 50 36 48 56 43 38 26 50 43 49 62 43 35 45 41 49 45 50 48 42 52 44 54 48 51 46 46 41 38 45 42 45 31 48 44 48 42 43 42 47 37 44 43 50 51 66 56 65 41 64 49 39 52 42 56 39 42 60 53 53 53 42 46 43 50 44 50 54 42 48 49 47 42 59 54 49 44 58 48 46 45 32 42 40 53 52 36 44 45 48 59 49 46 50 55 41 47 47 39 40 48 54 54 44 42 46 50 51 36 54 49 52 55 47 53 36 39 45 61 51 36 45 46 42 50 54 49 47 41 44 46 37 53 39 54 50 51 44 53 58 47 56 55 53 57 39 47 49 60 46 47 57 47 43 47 52 47 51 54 56 52 48 52 44 39 52 41 46 47 47 53 40 48 51 44 63 63 38 42 40 36 43 57 42 69 32 54 45 56 59 51 50 34 50 48 43 36 39 47 53 44 53 51 69 44 41 52 49 55 38 41 38 41 42 44 50 38 40 36 30 45 47 52 37 44 49 58 37 53 57 46 43 
BTB PER SET COUNT: 5073 5331 5632 7294 5901 5181 7006 4893 3874 5961 8691 5244 4931 5963 5768 3787 3998 6117 5924 5046 5518 6326 3393 4190 6519 5752 7904 7356 6273 4631 5851 5312 5874 7939 5541 5604 5425 3367 5248 6579 6246 5235 5427 6347 4623 6862 6269 4102 4880 4934 7592 5920 5201 5027 5831 7012 4149 6694 6322 3656 7067 5476 4909 7461 6101 6820 6211 6476 8001 3221 4826 6676 5638 4664 6177 6508 5283 4751 6748 7361 6778 3659 5591 3931 4725 6697 6913 7491 7567 6721 5886 4590 7708 5157 5555 7477 4325 6328 7649 7823 7197 8267 6167 6987 5316 5184 7025 4787 5410 5701 6449 6163 6175 7458 4645 7112 7329 4345 6196 7302 6416 5564 7406 11155 6810 7617 7321 5835 6843 7345 8643 9178 7197 4710 5786 7093 5823 6583 4727 7680 6462 5670 5731 6055 6267 7350 6883 6485 5096 3895 7715 5095 5889 5298 6834 4333 6040 3543 6079 7545 5801 3762 4832 10119 4822 8191 8015 6258 3674 4111 4849 3639 6105 4353 8141 7664 7240 6440 6840 6622 4975 6802 5519 4620 5558 5255 6301 6513 6267 6332 7618 4597 5198 5054 7109 6510 7828 5131 6022 4743 7406 4410 8873 5208 4200 4461 7582 6102 4855 5983 6242 4580 7138 5392 4569 8091 5208 5679 4238 4141 5325 5753 6692 4924 6624 5126 6233 5815 8485 6220 4037 5498 8111 6645 5414 5599 4656 5273 6948 5088 4519 8125 6048 6643 5056 9257 4076 5977 7323 5289 5755 4203 6954 4042 6476 3081 7800 6594 5896 6246 7321 5862 6082 6445 5648 5435 6375 5582 7663 7946 5362 4368 7368 5544 7363 6158 5945 5152 5730 6570 5555 3989 5744 8702 5498 4518 2365 6951 5735 5923 7179 6039 3783 5588 4384 7211 5999 6390 6625 6074 7071 5102 6115 5506 5490 6320 12897 3825 5289 5426 5553 7080 4388 6600 4884 6981 5043 5003 5712 5989 4240 5829 5704 11503 4732 10066 9318 10076 4307 7464 6522 4584 6395 5582 8698 5453 5019 7517 8083 5939 7582 5208 5746 5545 6970 6086 6956 6950 5320 6363 6828 5770 4981 9595 8487 5727 5739 8289 7178 5589 4979 3723 5022 4745 8009 6427 5479 6132 5526 7114 9139 6609 5992 5589 7271 4483 7690 5198 4818 4366 6784 7228 6692 6146 4892 5310 6392 7349 3968 6601 6526 6311 5542 5330 6050 5200 5390 4800 7617 7070 3865 5704 5618 4307 6086 6704 6102 6043 4602 5439 5835 4101 6020 3525 7431 5490 5409 6120 7486 7458 6302 7451 6929 11805 7560 3953 4916 6428 7739 5425 10508 7801 6283 5868 6311 6131 6524 6568 7119 7319 5860 6464 5640 5452 5870 7067 5400 5941 6549 6973 6556 5070 7157 6559 4941 7797 8809 5257 4720 4304 4335 5625 7157 5722 13190 3002 7511 6660 6796 8116 6659 6614 3795 6094 6404 7876 5994 4371 5695 6590 7467 6625 6945 9280 4624 5313 6815 5160 7323 4931 5122 4086 4909 5082 5200 6171 4777 4960 4211 3425 5383 5161 5862 3948 5973 6430 7700 4802 7017 6271 6237 6527 
To predecode: 0
Predecoding something: 0
Predecode request dropped: 0
sizeofblock_0 0
sizeofblock_1 623817
sizeofblock_2 1582625
sizeofblock_3 0
sizeofblock_4 0
sizeofblock_5 0
sizeofblock_6 0
sizeofblock_7 0
sizeofblock_8 0
Variant_0 Correct: 751744 Incorrect: 0 Accuracy: 1
Variant_1 Correct: 3580019 Incorrect: 0 Accuracy: 1
Variant_2 Correct: 0 Incorrect: 0 Accuracy: -nan
Variant_3 Correct: 0 Incorrect: 0 Accuracy: -nan
