
*** ChampSim Multicore Out-of-Order Simulator ***

Warmup Instructions: 50000000
Simulation Instructions: 50000000
Number of CPUs: 1
LLC sets: 2048
LLC ways: 16
Off-chip DRAM Size: 4096 MB Channels: 1 Width: 64-bit Data Rate: 6400 MT/s
CPU 0 runs ./micro_traces/srv423.trace.gz
.gz
ITLB has LRU replacement policy
DTLB has LRU replacement policy
STLB has LRU replacement policy
FDIP Prefetcher at L1I
L1I has LRU replacement policy
L1D has LRU replacement policy
Initialize SRRIP state for L2C
Initialize DRRIP state for LLC
Heartbeat CPU 0 instructions: 10000002 cycles: 2797435 heartbeat IPC: 3.5747 cumulative IPC: 3.5747 (Simulation time: 0 hr 1 min 51 sec) 
Heartbeat CPU 0 instructions: 20000001 cycles: 5594057 heartbeat IPC: 3.57574 cumulative IPC: 3.57522 (Simulation time: 0 hr 3 min 28 sec) 
Heartbeat CPU 0 instructions: 30000000 cycles: 8391266 heartbeat IPC: 3.57499 cumulative IPC: 3.57515 (Simulation time: 0 hr 5 min 3 sec) 
Heartbeat CPU 0 instructions: 40000001 cycles: 11189367 heartbeat IPC: 3.57385 cumulative IPC: 3.57482 (Simulation time: 0 hr 6 min 43 sec) 
Heartbeat CPU 0 instructions: 50000002 cycles: 13985166 heartbeat IPC: 3.5768 cumulative IPC: 3.57522 (Simulation time: 0 hr 8 min 21 sec) 

Warmup complete CPU 0 instructions: 50000002 cycles: 13985166 (Simulation time: 0 hr 8 min 21 sec) 

Cycle: 20000000 FTQ IN: 57248406 FTQ occupancy: 18.3335 DECODE IN: 57248378 DECODE occupancy: 47.1823 ROB IN: 57248375 ROB occupancy: 287.873 ROB OUT: 57248245
Heartbeat CPU 0 instructions: 60000002 cycles: 22459405 heartbeat IPC: 1.18005 cumulative IPC: 1.18005 (Simulation time: 0 hr 9 min 45 sec) 
Cycle: 30000000 FTQ IN: 11805524 FTQ occupancy: 7.56454 DECODE IN: 11805552 DECODE occupancy: 17.3383 ROB IN: 11805555 ROB occupancy: 145.336 ROB OUT: 11805663
Heartbeat CPU 0 instructions: 70000001 cycles: 30792184 heartbeat IPC: 1.20008 cumulative IPC: 1.18998 (Simulation time: 0 hr 11 min 13 sec) 
Heartbeat CPU 0 instructions: 80000003 cycles: 39231317 heartbeat IPC: 1.18496 cumulative IPC: 1.1883 (Simulation time: 0 hr 12 min 40 sec) 
Cycle: 40000000 FTQ IN: 11861688 FTQ occupancy: 7.60737 DECODE IN: 11861676 DECODE occupancy: 17.4248 ROB IN: 11861666 ROB occupancy: 145.602 ROB OUT: 11861390
Heartbeat CPU 0 instructions: 90000000 cycles: 47533425 heartbeat IPC: 1.20451 cumulative IPC: 1.19231 (Simulation time: 0 hr 14 min 5 sec) 
Cycle: 50000000 FTQ IN: 12049531 FTQ occupancy: 7.51729 DECODE IN: 12049422 DECODE occupancy: 17.3621 ROB IN: 12049372 ROB occupancy: 147.211 ROB OUT: 12049588
Heartbeat CPU 0 instructions: 100000001 cycles: 55950316 heartbeat IPC: 1.18809 cumulative IPC: 1.19146 (Simulation time: 0 hr 15 min 28 sec) 
Finished CPU 0 instructions: 50000003 cycles: 41965151 cumulative IPC: 1.19146 (Simulation time: 0 hr 15 min 28 sec) 

ChampSim completed all CPUs

Region of Interest Statistics

CPU 0 cumulative IPC: 1.19146 instructions: 50000003 cycles: 41965151
 Fetch stage stalled: 68.1197  Sim cycles: 41965151 fetch stall cycle: 28586551
 Empty decode stage: 57.0791  Sim cycles: 41965151 fetch stall cycle: 23953343
ITLB TOTAL     ACCESS:    5637609  HIT:    5145505  MISS:     492104  HIT %:    91.2711  MISS %:    8.72895   MPKI: 9.84208
ITLB LOAD TRANSLATION INSTRUCTION	ACCESS:    5525311  HIT:    5033207  MISS:     492104  HIT %:    91.0936  MISS %:    8.90636  MPKI: 9.84208
ITLB TRANSLATION FROM L1D PREFETCHER INSTRUCTION	ACCESS:     112298  HIT:     112298  MISS:          0  HIT %:        100  MISS %:          0  MPKI: 0

ITLB AVERAGE MISS LATENCY: 9.0675 cycles
ITLB RQ	ACCESS:    7489120	FORWARD:          0	MERGED:    1366543	TO_CACHE:    6122577

DTLB TOTAL     ACCESS:    9229614  HIT:    8757446  MISS:     472168  HIT %:    94.8842  MISS %:    5.11579   MPKI: 9.44336
DTLB LOAD TRANSLATION DATA	ACCESS:    9229614  HIT:    8757446  MISS:     472168  HIT %:    94.8842  MISS %:    5.11579  MPKI: 9.44336

DTLB AVERAGE MISS LATENCY: 9.34343 cycles
DTLB RQ	ACCESS:   13539454	FORWARD:          0	MERGED:    4275122	TO_CACHE:    9264332

STLB TOTAL     ACCESS:    1215146  HIT:    1212785  MISS:       2361  HIT %:    99.8057  MISS %:   0.194298   MPKI: 0.04722
STLB LOAD TRANSLATION INSTRUCTION	ACCESS:     492104  HIT:     491645  MISS:        459  HIT %:    99.9067  MISS %:   0.093273  MPKI: 0.00918
STLB LOAD TRANSLATION DATA	ACCESS:     471992  HIT:     470123  MISS:       1869  HIT %:     99.604  MISS %:   0.395981  MPKI: 0.03738
STLB TRANSLATION FROM L1D PREFETCHER DATA	ACCESS:     251050  HIT:     251017  MISS:         33  HIT %:    99.9869  MISS %:  0.0131448  MPKI: 0.00066

STLB AVERAGE MISS LATENCY: 71.521 cycles
STLB RQ	ACCESS:    1333477	FORWARD:          0	MERGED:     118299	TO_CACHE:    1215178

STLB Hit, L1D data hit: 0
STLB Hit, L2C data hit: 0
STLB Hit, LLC data hit: 0
STLB Hit, LLC data miss: 0
STLB STLB hints to L2: 0
L1D TOTAL     ACCESS:   13302332  HIT:   12193769  MISS:    1108563  HIT %:    91.6664  MISS %:     8.3336   MPKI: 22.1713
L1D LOAD DATA	ACCESS:    6737288  HIT:    6008244  MISS:     729044  HIT %:     89.179  MISS %:     10.821  MPKI: 14.5809
L1D RFO DATA	ACCESS:    6234396  HIT:    5947909  MISS:     286487  HIT %:    95.4047  MISS %:    4.59526  MPKI: 5.72974
L1D PREFETCH DATA	ACCESS:     330648  HIT:     237616  MISS:      93032  HIT %:    71.8637  MISS %:    28.1363  MPKI: 1.86064

L1D PREFETCH  REQUESTED:     738760  ISSUED:     738760  USEFUL:      33853  USELESS:      67050
L1D USEFUL LOAD PREFETCHES:      33853 PREFETCH ISSUED TO LOWER LEVEL:     100913  ACCURACY: 33.5467
 TIMELY PREFETCHES:      33853 LATE PREFETCHES: 7847 DROPPED PREFETCHES: 4
L1D AVERAGE MISS LATENCY: 253179 cycles
L1D RQ	ACCESS:   10840794	FORWARD:          0	MERGED:    3906562	TO_CACHE:    6769150
L1D WQ	ACCESS:    6947176	FORWARD:     165432	MERGED:     176872	TO_CACHE:    6770304
L1D PQ	ACCESS:     369555	FORWARD:          0	MERGED:          0	TO_CACHE:     369205

L1D UNIQUE REGIONS ACCESSED: 0
L1D REGIONS CONFLICTS: 0
L1D Cross Page Prefetch Requests: 6245
L1D Same Page Prefetch Requests: 750730
L1D ROI Sum of L1D PQ occupancy: 4701369
L1D PREFETCHES PUSHED FROM L2C: 0
L1I TOTAL     ACCESS:    6966092  HIT:    4211293  MISS:    2754799  HIT %:    60.4542  MISS %:    39.5458   MPKI: 55.096
L1I LOAD INSTRUCTION	ACCESS:    6443023  HIT:    3688224  MISS:    2754799  HIT %:    57.2437  MISS %:    42.7563  MPKI: 55.096
L1I PREFETCH INSTRUCTION	ACCESS:     523069  HIT:     523069  MISS:          0  HIT %:        100  MISS %:          0  MPKI: 0

L1I PREFETCH  REQUESTED:    1141838  ISSUED:    1141838  USEFUL:          0  USELESS:          0
L1I USEFUL LOAD PREFETCHES:          0 PREFETCH ISSUED TO LOWER LEVEL:          0  ACCURACY: -nan
 TIMELY PREFETCHES:          0 LATE PREFETCHES: 0 DROPPED PREFETCHES: 0
L1I AVERAGE MISS LATENCY: 16.7473 cycles
L1I RQ	ACCESS:    9464597	FORWARD:          0	MERGED:    2794801	TO_CACHE:    6669796
L1I PQ	ACCESS:    1141838	FORWARD:          0	MERGED:     322514	TO_CACHE:     819324

L1BTB TOTAL     ACCESS:    5667948  HIT:    2048235  MISS:    3619713  HIT %:    36.1372  MISS %:    63.8628   MPKI: 72.3943
L1BTB BRANCH_DIRECT_JUMP	ACCESS:     549193 HIT:     145726 MISS:     403467 AVERAGE STALL: 36.1499 AVERAGE FETCH STALL: 17.7553 AVERAGE FETCH QUEUE STALL: 7.99646 AVERAGE DECODE STALL: 9.53487 AVERAGE EXECUTE STALL: 3.47148e+14
L1BTB BRANCH_INDIRECT	ACCESS:     183380 HIT:      66329 MISS:     117051 AVERAGE STALL: 85.2703 AVERAGE FETCH STALL: 12.72 AVERAGE FETCH QUEUE STALL: 8.22219 AVERAGE DECODE STALL: 6.73414 AVERAGE EXECUTE STALL: 56.6433
L1BTB BRANCH_CONDITIONAL	ACCESS:    2710947 HIT:    1420664 MISS:    1290283 AVERAGE STALL: 36.5971 AVERAGE FETCH STALL: 20.8187 AVERAGE FETCH QUEUE STALL: 7.38209 AVERAGE DECODE STALL: 7.63223 AVERAGE EXECUTE STALL: 1.29739e+14
L1BTB BRANCH_DIRECT_CALL	ACCESS:     941055 HIT:     105077 MISS:     835978 AVERAGE STALL: 40.3463 AVERAGE FETCH STALL: 20.7399 AVERAGE FETCH QUEUE STALL: 9.6946 AVERAGE DECODE STALL: 9.13854 AVERAGE EXECUTE STALL: 1.58413e+14
L1BTB BRANCH_INDIRECT_CALL	ACCESS:     171155 HIT:      21038 MISS:     150117 AVERAGE STALL: 112.815 AVERAGE FETCH STALL: 15.7141 AVERAGE FETCH QUEUE STALL: 7.68966 AVERAGE DECODE STALL: 7.24463 AVERAGE EXECUTE STALL: 81.6211
L1BTB BRANCH_RETURN	ACCESS:    1112218 HIT:     289401 MISS:     822817 AVERAGE STALL: 36.7554 AVERAGE FETCH STALL: 17.9397 AVERAGE FETCH QUEUE STALL: 5.92849 AVERAGE DECODE STALL: 6.26365 AVERAGE EXECUTE STALL: 1.82737e+14
L1BTB BRANCH_OTHER ACCESS:          0 HIT:          0 MISS:          0 AVERAGE STALL: -nan AVERAGE FETCH STALL: -nan AVERAGE FETCH QUEUE STALL: -nan AVERAGE DECODE STALL: -nan AVERAGE EXECUTE STALL: -nan
L1BTB TOTAL ROB OCCUPANCY AT BTB MISS: 14.5812

L2BTB TOTAL     ACCESS:    3594215  HIT:    3159443  MISS:     434772  HIT %:    87.9036  MISS %:    12.0964   MPKI: 8.69544
L2BTB BRANCH_DIRECT_JUMP	ACCESS:     399242 HIT:     350321 MISS:      48921 AVERAGE STALL: 36.1499 AVERAGE FETCH STALL: 17.7553 AVERAGE FETCH QUEUE STALL: 7.99646 AVERAGE DECODE STALL: 9.53487 AVERAGE EXECUTE STALL: 3.47148e+14
L2BTB BRANCH_INDIRECT	ACCESS:     106802 HIT:     101729 MISS:       5073 AVERAGE STALL: 85.2703 AVERAGE FETCH STALL: 12.72 AVERAGE FETCH QUEUE STALL: 8.22219 AVERAGE DECODE STALL: 6.73414 AVERAGE EXECUTE STALL: 56.6433
L2BTB BRANCH_CONDITIONAL	ACCESS:    1290283 HIT:    1147261 MISS:     143022 AVERAGE STALL: 36.5971 AVERAGE FETCH STALL: 20.8187 AVERAGE FETCH QUEUE STALL: 7.38209 AVERAGE DECODE STALL: 7.63223 AVERAGE EXECUTE STALL: 1.29739e+14
L2BTB BRANCH_DIRECT_CALL	ACCESS:     835978 HIT:     719474 MISS:     116504 AVERAGE STALL: 40.3463 AVERAGE FETCH STALL: 20.7399 AVERAGE FETCH QUEUE STALL: 9.6946 AVERAGE DECODE STALL: 9.13854 AVERAGE EXECUTE STALL: 1.58413e+14
L2BTB BRANCH_INDIRECT_CALL	ACCESS:     140497 HIT:     118826 MISS:      21671 AVERAGE STALL: 112.815 AVERAGE FETCH STALL: 15.7141 AVERAGE FETCH QUEUE STALL: 7.68966 AVERAGE DECODE STALL: 7.24463 AVERAGE EXECUTE STALL: 81.6211
L2BTB BRANCH_RETURN	ACCESS:     821413 HIT:     721832 MISS:      99581 AVERAGE STALL: 36.7554 AVERAGE FETCH STALL: 17.9397 AVERAGE FETCH QUEUE STALL: 5.92849 AVERAGE DECODE STALL: 6.26365 AVERAGE EXECUTE STALL: 1.82737e+14
L2BTB BRANCH_OTHER ACCESS:          0 HIT:          0 MISS:          0 AVERAGE STALL: -nan AVERAGE FETCH STALL: -nan AVERAGE FETCH QUEUE STALL: -nan AVERAGE DECODE STALL: -nan AVERAGE EXECUTE STALL: -nan
L2BTB TOTAL ROB OCCUPANCY AT BTB MISS: 121.396

L2C TOTAL     ACCESS:    4468972  HIT:    4043334  MISS:     425638  HIT %:    90.4757  MISS %:    9.52429   MPKI: 8.51276
L2C LOAD INSTRUCTION	ACCESS:    2754799  HIT:    2542682  MISS:     212117  HIT %:    92.3001  MISS %:    7.69991  MPKI: 4.24234
L2C LOAD TRANSLATION INSTRUCTION	ACCESS:        504  HIT:        157  MISS:        347  HIT %:    31.1508  MISS %:    68.8492  MPKI: 0.00694
L2C LOAD DATA	ACCESS:     721169  HIT:     648302  MISS:      72867  HIT %:     89.896  MISS %:     10.104  MPKI: 1.45734
L2C RFO DATA	ACCESS:     286424  HIT:     232247  MISS:      54177  HIT %:     81.085  MISS %:     18.915  MPKI: 1.08354
L2C PREFETCH DATA	ACCESS:     183433  HIT:     113703  MISS:      69730  HIT %:    61.9861  MISS %:    38.0139  MPKI: 1.3946
L2C WRITEBACK DATA	ACCESS:     520641  HIT:     505702  MISS:      14939  HIT %:    97.1307  MISS %:    2.86935  MPKI: 0.29878
L2C LOAD TRANSLATION DATA	ACCESS:       1950  HIT:        505  MISS:       1445  HIT %:    25.8974  MISS %:    74.1026  MPKI: 0.0289
L2C TRANSLATION FROM L1D PREFETCHER DATA	ACCESS:         52  HIT:         36  MISS:         16  HIT %:    69.2308  MISS %:    30.7692  MPKI: 0.00032

L2C PREFETCH  REQUESTED:      90334  ISSUED:      90334  USEFUL:       8837  USELESS:      61601
L2C USEFUL LOAD PREFETCHES:       8837 PREFETCH ISSUED TO LOWER LEVEL:      70249  ACCURACY: 12.5795
 TIMELY PREFETCHES:       8837 LATE PREFETCHES: 519 DROPPED PREFETCHES: 0
L2C AVERAGE MISS LATENCY: 40.3286 cycles
L2C RQ	ACCESS:    3764955	FORWARD:          0	MERGED:          0	TO_CACHE:    3764899
L2C WQ	ACCESS:     520641	FORWARD:         56	MERGED:          0	TO_CACHE:     520641
L2C PQ	ACCESS:     191247	FORWARD:          0	MERGED:       3554	TO_CACHE:     187693

L2C Dense regions hint from L2: 0
PSCL5 TOTAL     ACCESS:       4740  HIT:       2370  MISS:       2370  HIT %:         50  MISS %:         50   MPKI: 0.0474
PSCL5 LOAD TRANSLATION INSTRUCTION	ACCESS:       4636  HIT:       2318  MISS:       2318  HIT %:         50  MISS %:         50  MPKI: 0.04636
PSCL5 TRANSLATION FROM L1D PREFETCHER INSTRUCTION	ACCESS:        104  HIT:         52  MISS:         52  HIT %:         50  MISS %:         50  MPKI: 0.00104


PSCL4 TOTAL     ACCESS:       4289  HIT:       2143  MISS:       2146  HIT %:     49.965  MISS %:     50.035   MPKI: 0.04292
PSCL4 LOAD TRANSLATION INSTRUCTION	ACCESS:       2305  HIT:       2091  MISS:        214  HIT %:    90.7158  MISS %:    9.28416  MPKI: 0.00428
PSCL4 TRANSLATION FROM L1D PREFETCHER INSTRUCTION	ACCESS:         52  HIT:         52  MISS:          0  HIT %:        100  MISS %:          0  MPKI: 0
PSCL4 LOAD TRANSLATION DATA	ACCESS:       1880  HIT:          0  MISS:       1880  HIT %:          0  MISS %:        100  MPKI: 0.0376
PSCL4 TRANSLATION FROM L1D PREFETCHER DATA	ACCESS:         52  HIT:          0  MISS:         52  HIT %:          0  MISS %:        100  MPKI: 0.00104


PSCL3 TOTAL     ACCESS:       4428  HIT:       2208  MISS:       2220  HIT %:    49.8645  MISS %:    50.1355   MPKI: 0.0444
PSCL3 LOAD TRANSLATION INSTRUCTION	ACCESS:       3828  HIT:       2163  MISS:       1665  HIT %:    56.5047  MISS %:    43.4953  MPKI: 0.0333
PSCL3 TRANSLATION FROM L1D PREFETCHER INSTRUCTION	ACCESS:         87  HIT:         45  MISS:         42  HIT %:    51.7241  MISS %:    48.2759  MPKI: 0.00084
PSCL3 LOAD TRANSLATION DATA	ACCESS:        510  HIT:          0  MISS:        510  HIT %:          0  MISS %:        100  MPKI: 0.0102
PSCL3 TRANSLATION FROM L1D PREFETCHER DATA	ACCESS:          3  HIT:          0  MISS:          3  HIT %:          0  MISS %:        100  MPKI: 6e-05


PSCL2 TOTAL     ACCESS:       4616  HIT:       2246  MISS:       2370  HIT %:    48.6568  MISS %:    51.3432   MPKI: 0.0474
PSCL2 LOAD TRANSLATION INSTRUCTION	ACCESS:       2653  HIT:       2194  MISS:        459  HIT %:    82.6988  MISS %:    17.3012  MPKI: 0.00918
PSCL2 TRANSLATION FROM L1D PREFETCHER INSTRUCTION	ACCESS:         52  HIT:         52  MISS:          0  HIT %:        100  MISS %:          0  MPKI: 0
PSCL2 LOAD TRANSLATION DATA	ACCESS:       1859  HIT:          0  MISS:       1859  HIT %:          0  MISS %:        100  MPKI: 0.03718
PSCL2 TRANSLATION FROM L1D PREFETCHER DATA	ACCESS:         52  HIT:          0  MISS:         52  HIT %:          0  MISS %:        100  MPKI: 0.00104


LLC TOTAL     ACCESS:     487360  HIT:     457311  MISS:      30049  HIT %:    93.8343  MISS %:    6.16567   MPKI: 0.60098
LLC LOAD INSTRUCTION	ACCESS:     212117  HIT:     211073  MISS:       1044  HIT %:    99.5078  MISS %:   0.492181  MPKI: 0.02088
LLC LOAD TRANSLATION INSTRUCTION	ACCESS:        347  HIT:        311  MISS:         36  HIT %:    89.6254  MISS %:    10.3746  MPKI: 0.00072
LLC LOAD DATA	ACCESS:      72369  HIT:      68984  MISS:       3385  HIT %:    95.3226  MISS %:    4.67742  MPKI: 0.0677
LLC RFO DATA	ACCESS:      54154  HIT:      38991  MISS:      15163  HIT %:    72.0002  MISS %:    27.9998  MPKI: 0.30326
LLC PREFETCH DATA	ACCESS:      70249  HIT:      60261  MISS:       9988  HIT %:     85.782  MISS %:     14.218  MPKI: 0.19976
LLC WRITEBACK DATA	ACCESS:      76663  HIT:      76324  MISS:        339  HIT %:    99.5578  MISS %:   0.442195  MPKI: 0.00678
LLC LOAD TRANSLATION DATA	ACCESS:       1445  HIT:       1351  MISS:         94  HIT %:    93.4948  MISS %:    6.50519  MPKI: 0.00188
LLC TRANSLATION FROM L1D PREFETCHER DATA	ACCESS:         16  HIT:         16  MISS:          0  HIT %:        100  MISS %:          0  MPKI: 0

LLC AVERAGE MISS LATENCY: 159.74 cycles
LLC RQ	ACCESS:     340450	FORWARD:          0	MERGED:          0	TO_CACHE:     340448
LLC WQ	ACCESS:      76663	FORWARD:          2	MERGED:          0	TO_CACHE:      76663
LLC PQ	ACCESS:      70249	FORWARD:          0	MERGED:          0	TO_CACHE:      70249

LLC Dense regions hint to LLC: 0

RAW hits: 1802860
Loads Generated: 12643654
Loads sent to L1D: 10840794
Stores Generated: 6947174
Stores sent to L1D: 6947176
Major fault: 0 Minor fault: 2653
Allocated PAGES: 2653

stream: 
stream:times selected: 1197432
stream:pref_filled: 120223
stream:pref_useful: 23308
stream:pref_late: 6374
stream:misses: 6939
stream:misses_by_poll: 0

CS: 
CS:times selected: 183203
CS:pref_filled: 59759
CS:pref_useful: 37227
CS:pref_late: 6931
CS:misses: 16511
CS:misses_by_poll: 5

CPLX: 
CPLX:times selected: 1013108
CPLX:pref_filled: 19579
CPLX:pref_useful: 4810
CPLX:pref_late: 2944
CPLX:misses: 90502
CPLX:misses_by_poll: 2

NL_L1: 
NL:times selected: 20813
NL:pref_filled: 695
NL:pref_useful: 288
NL:pref_late: 200
NL:misses: 1040
NL:misses_by_poll: 0

total selections: 2414556
total_filled: 93032
total_useful: 33853
total_late: 17809
total_polluted: 7
total_misses_after_warmup: 760907
conflicts: 5596817

test: 116669

DRAM Statistics
 CHANNEL 0
 RQ ROW_BUFFER_HIT:      11032  ROW_BUFFER_MISS:      18670
 DBUS_CONGESTED:         14
 WQ ROW_BUFFER_HIT:       1497  ROW_BUFFER_MISS:      13353  FULL:          0

 AVG_CONGESTED_CYCLE: 5

CPU 0 Branch Prediction Accuracy: 99.8157% MPKI: 0.3369 Average ROB Occupancy at Mispredict: 150.742
Branch types
NOT_BRANCH: 40861042 81.7221%
BRANCH_DIRECT_JUMP: 549193 1.09839%
BRANCH_INDIRECT: 183380 0.36676%
BRANCH_CONDITIONAL: 6181448 12.3629%
BRANCH_DIRECT_CALL: 941055 1.88211%
BRANCH_INDIRECT_CALL: 171155 0.34231%
BRANCH_RETURN: 1112218 2.22444%
BRANCH_OTHER: 0 0%

DRAM PAGES: 1048576
Allocated PAGES: 2653
Average_ROB_Occupancy: 147.34
Average_Decode_Occupancy: 17.3786
Average_FTQ_Occupancy: 7.57092
Indirect max targets: 14 Average targets: 1.15738
Branch_type:  BRANCH_DIRECT_JUMP:  Count Percentage: 3.34441 6.98326 3.78775 7.91685 2.2354 2.84806 1.35518 71.5291 
Branch_type:  BRANCH_INDIRECT:  Count Percentage: 11.7336 3.4599 2.61842 9.68722 3.33677 2.80121 0.933553 65.4294 
Branch_type:  BRANCH_CONDITIONAL:  Count Percentage: 21.883 2.46927 2.27678 4.72197 1.5427 2.99532 3.86709 60.2438 
Branch_type:  BRANCH_DIRECT_CALL:  Count Percentage: 0.861401 1.24925 0.762815 4.44557 1.96474 2.12838 0.863583 87.7243 
Branch_type:  BRANCH_INDIRECT_CALL:  Count Percentage: 9.56193 0 2.99422 0.0055671 0.00058601 2.19344 1.00413 84.2401 
Branch_type:  BRANCH_RETURN:  Count Percentage: 4.69911 1.39551 1.46747 4.45099 3.37439 4.65629 3.73932 76.2169 
Branch_type:  BRANCH_DIRECT_JUMP:  Total Count: 36722 76677 41590 86928 24545 31272 14880 785398 
Branch_type:  BRANCH_INDIRECT:  Total Count: 43073 12701 9612 35561 12249 10283 3427 240186 
Branch_type:  BRANCH_CONDITIONAL:  Total Count: 2704214 305142 281355 583522 190641 370150 477879 7444688 
Branch_type:  BRANCH_DIRECT_CALL:  Total Count: 16182 23468 14330 83513 36909 39983 16223 1647960 
Branch_type:  BRANCH_INDIRECT_CALL:  Total Count: 32634 0 10219 19 2 7486 3427 287504 
Branch_type:  BRANCH_RETURN:  Total Count: 104353 30990 32588 98843 74935 103402 83039 1692546 
Number of unique branch instructions: 10380
Upper 32 bits: 
aaaa
ffff
ffff0000
Unique upper 32 bits: 3
Unique upper 36 bits: 3
Unique upper 40 bits: 5
Unique upper 44 bits: 32
Unique upper 48 bits: 158
Offset_3 4289
Offset_4 268
Offset_5 474
Offset_6 521
Offset_7 613
Offset_8 534
Offset_9 490
Offset_10 398
Offset_11 324
Offset_12 291
Offset_13 223
Offset_14 241
Offset_15 190
Offset_16 226
Offset_17 170
Offset_18 122
Offset_19 252
Offset_20 141
Offset_21 261
Offset_22 404
Offset_23 241
Offset_24 355
Offset_25 92
Offset_47 88
Offset_64 1
decode_dispatch_called: 20808313 49.5847
Dispatch_width: 0 10500334 50.4622 25.0216
Dispatch_width: 1 605361 2.90923 1.44253
Dispatch_width: 2 688870 3.31055 1.64153
Dispatch_width: 3 447013 2.14824 1.0652
Dispatch_width: 4 2212927 10.6348 5.27325
Dispatch_width: 5 299006 1.43695 0.71251
Dispatch_width: 6 6054802 29.098 14.4282
Empty_decode_cycles: 21156838 50.4153
ROB_full_cycles: 3301667 7.86764
Starvation_cycles_per_kilo_instr: 326.087
Starvation_cycles_per_kilo_instr_3: 300.967
Starvation_cycles_per_kilo_instr_0: 283.555
Branch_type_1  (3,1)  (4,10)  (5,39)  (6,70)  (7,121)  (8,134)  (9,129)  (10,102)  (11,69)  (12,43)  (13,8)  (14,2)  (15,3)  (16,4)  (18,1)  (19,4)  (20,2)  (21,1)  (22,3)  (23,2)  (24,10)  (25,12)  (64,1) 
Branch_type_2  (3,1)  (4,1)  (5,1)  (8,3)  (9,3)  (12,1)  (13,1)  (14,1)  (16,3)  (17,2)  (20,2)  (21,2)  (23,5)  (24,1)  (47,41) 
Branch_type_3  (3,4287)  (4,257)  (5,430)  (6,436)  (7,461)  (8,336)  (9,267)  (10,160)  (11,126)  (12,50)  (13,7) 
Branch_type_4  (6,3)  (7,8)  (8,25)  (9,54)  (10,64)  (11,65)  (12,108)  (13,96)  (14,108)  (15,90)  (16,101)  (17,79)  (18,55)  (19,124)  (20,72)  (21,141)  (22,215)  (23,136)  (24,205)  (25,76) 
Branch_type_5  (8,2)  (9,1)  (10,4)  (11,6)  (12,3)  (13,14)  (14,16)  (15,11)  (16,20)  (17,11)  (18,16)  (19,13)  (20,12)  (21,13)  (22,42)  (23,26)  (24,41) 
Branch_type_6  (5,4)  (6,12)  (7,23)  (8,34)  (9,36)  (10,68)  (11,58)  (12,86)  (13,97)  (14,114)  (15,86)  (16,98)  (17,78)  (18,50)  (19,111)  (20,53)  (21,104)  (22,144)  (23,72)  (24,98)  (25,4)  (47,47) 
aaaaab1fc620: 2ac9e77e 2aca717c 2aca8eff 2acaf6bc 2acaf9aa 2acaf9f1 2acb1abc 2acb1b7f 2acd4e22 2acdb712 2acf5f9e 2ad0ef44 2ad3f15c 2ad414e6 2ad60e42 2ad8609c 2ad99830 2ada35cc 2ada4676 2ada6612 2adf183e 2adf30e5 2adf5602 2adf785c 2ae11572 2aeb2dcf 2aee101b 2aee1ae1 2aee9456 2b156a8c 2b156b61 2b156bea 2b167f35 2b177656 2b17feec 2b1a3e5a 
aaaaab1fc740: 2aca1fb0 2aca45b3 2aca5aa1 2aca5c69 2aca66f9 2aca9426 2acaeecb 2acf3d2d 2acf3d64 2acf6089 2ad017ea 2ad5e7ef 2ad61064 2ad87373 2ad9bf84 2ad9c093 2ae9b606 2aea9ffa 2aee99f5 2aee9a2c 2aeece4b 
aaaaac68f310: 2ac9ec8c 2ac9fb44 2ac9fbd2 2aca59ab 2acac04c 2acaf6e0 2acaf6ec 2acaf6f9 2acaf700 2acaf708 2acf2d90 2ad3cfbd 2ad3cfc4 2ad3d000 2ad3f35f 2ad4955d 2ad49571 2ad4f3f2 2ad4f400 2ad5f240 2ad5f37c 2ad5f86a 2ad5f86f 2ad5f880 2ad5fc0d 2ad5fc14 2ad5fc21 2ad5fe1b 2ad873bb 2ad873e3 2ad8a6b2 2ad9086e 2ad93096 2ad9bbb2 2ada152c 2ada1554 2ada3332 2ada5522 2adf3130 2adf313c 2adf3a3f 2adf3bd9 2adf5788 2adf7a8d 2ae07f6b 2ae0857a 2ae0857e 2ae08630 2ae08634 2ae08637 2ae08642 2ae0866f 2ae086e4 2ae086ec 2ae08717 2ae0871b 2aee0170 2aee1d38 2aee75f4 2aee7662 2aee85ca 2aee85e4 2aee8eef 2aee9a0a 2af70b84 2af74e8f 2b17d843 
aaaaac690ef0: 2aca598b 2acb111b 2acb175f 2acb1772 2acbfaf4 2acbfb00 2acf374f 2acf6d43 2acfa5c8 2ad3baf1 2ad3d4ac 2ad3d4b8 2ad3f1cf 2ad486b2 2ad5a59b 2ad5fc64 2ad5fcf9 2ad6121c 2ad906e9 2ad907bf 2ad9bada 2ada16ce 2ada1ad5 2ada43df 2ada64c0 2ada72ee 2adeb71a 2adf3bcb 2adf7a38 2adf7c6a 2adf8872 2adf8880 2adf9959 2adf9abe 2ae07f78 2ae08503 2ae08754 2ae12e80 2aea3bea 2aecb509 2aee00b0 2aee2bdd 2aee5467 2aee5601 2aee8f20 2af703fd 2af7048b 2af74e74 2dfba627 
Unique trigger count: 
1 9881
2 542
3 87
4 34
5 13
6 7
7 8
9 3
10 2
11 1
12 1
13 4
16 2
19 4
21 1
36 1
49 1
67 1
BTB PER SET UNIQUE ADDR: 3 4 4 3 1 1 3 2 4 0 3 0 5 3 2 3 3 2 3 5 3 4 2 3 4 5 1 4 3 2 6 6 4 3 6 2 1 5 6 3 4 4 3 7 6 3 4 3 6 4 4 2 3 3 2 4 4 3 3 3 1 4 2 3 1 5 6 2 3 5 5 1 1 4 2 3 3 6 1 3 2 2 1 4 3 4 2 5 3 3 6 5 3 5 2 0 3 4 2 4 4 3 3 3 2 2 1 2 3 2 2 1 3 6 2 6 2 4 4 1 4 5 2 0 1 2 3 1 6 4 5 2 4 2 5 3 2 1 3 3 5 3 3 2 3 4 2 5 4 3 3 8 3 5 3 0 3 3 3 2 5 5 4 4 5 3 2 2 9 1 3 2 4 2 1 1 3 4 5 1 3 3 6 3 5 5 4 1 2 3 5 3 3 4 4 4 2 3 3 5 3 2 4 1 3 3 2 5 3 1 2 4 5 4 3 2 3 5 4 0 1 2 2 3 3 2 3 3 0 4 8 3 3 2 3 3 3 2 1 3 1 0 6 4 9 8 1 1 3 3 2 2 1 3 2 7 3 5 4 3 4 4 4 2 3 7 3 1 4 2 3 2 2 3 4 2 1 1 3 3 4 2 6 2 5 5 3 3 1 1 0 3 1 5 1 1 5 3 2 2 3 3 1 2 3 2 4 2 7 5 3 1 3 2 5 1 7 6 2 2 3 8 3 4 2 2 2 6 2 1 4 0 2 5 5 2 3 3 5 0 3 0 1 4 4 3 1 2 4 4 3 6 5 3 5 3 2 0 4 1 2 5 2 4 7 5 1 1 2 1 3 2 2 4 4 4 3 3 3 4 5 3 2 5 3 2 5 2 4 1 5 4 4 2 3 1 5 0 1 3 4 2 4 2 2 4 4 3 1 1 1 3 5 4 2 2 5 3 1 3 1 1 3 4 4 5 2 0 2 4 2 2 9 4 5 5 4 3 3 1 3 4 5 4 5 6 2 4 3 2 4 3 2 2 5 1 1 4 7 3 3 3 4 6 1 3 6 2 2 3 0 4 5 2 2 1 4 5 3 1 2 2 2 2 0 4 3 0 6 1 5 2 3 5 0 6 4 3 3 1 5 1 1 1 1 2 3 2 3 3 3 2 4 7 2 2 2 6 4 5 3 5 4 3 6 6 0 7 6 3 5 3 3 6 3 4 1 1 4 1 2 5 6 3 5 2 8 3 6 9 4 6 3 6 1 3 3 1 3 4 7 3 5 2 2 1 4 3 3 7 4 2 3 8 3 2 3 3 1 5 5 2 2 0 1 0 0 9 5 3 5 7 2 1 2 3 5 2 3 1 4 2 4 7 2 4 3 4 3 2 5 2 3 2 2 3 2 0 3 1 5 3 7 2 2 3 2 5 2 3 5 4 3 3 5 3 2 3 2 3 8 1 4 4 0 0 3 4 3 4 3 2 5 2 3 0 5 3 2 3 6 2 5 4 6 4 5 3 1 4 5 4 4 3 5 6 3 3 3 3 3 2 6 3 5 3 5 3 4 3 1 5 2 2 2 4 6 4 5 6 0 6 0 3 3 2 3 1 3 1 3 3 3 1 2 1 7 2 0 3 2 0 1 1 1 1 1 4 2 4 5 4 2 1 2 4 5 3 2 2 1 3 2 4 2 1 4 2 3 2 0 2 1 3 2 2 2 6 4 1 3 3 1 5 4 4 8 2 2 3 4 3 0 3 3 4 5 2 1 3 4 4 0 3 8 6 3 4 0 3 2 4 1 1 4 7 7 2 2 2 5 3 5 3 4 3 3 5 1 2 1 3 4 0 4 3 1 2 0 4 4 2 4 2 2 1 2 2 4 4 3 1 3 2 5 2 2 1 5 2 2 1 3 3 1 4 7 4 5 2 6 2 5 4 5 5 3 2 5 4 3 6 2 1 9 3 3 4 5 3 1 3 3 6 4 0 2 3 5 4 3 5 4 4 6 3 2 2 3 4 4 2 3 4 3 1 7 3 1 1 5 2 1 3 4 5 3 5 3 4 5 4 0 3 1 5 0 1 5 2 6 5 5 3 4 1 3 2 5 7 4 4 9 7 5 4 6 4 1 5 4 2 0 4 4 5 5 5 3 2 6 0 5 4 2 4 6 5 4 2 3 2 4 5 2 6 9 4 6 3 3 3 0 5 6 1 7 5 1 3 7 5 3 4 2 1 2 4 4 2 5 5 2 7 4 5 4 5 3 5 1 3 4 2 2 5 4 3 3 3 5 3 4 4 5 2 5 3 2 4 5 2 11 5 3 3 3 2 2 3 5 8 6 2 3 2 3 2 3 1 3 2 4 4 2 4 5 5 4 6 0 3 3 4 5 4 2 1 3 2 3 2 2 1 4 1 3 3 3 5 2 8 5 3 2 1 10 1 2 4 1 2 6 6 3 8 3 5 5 6 2 5 2 2 1 1 5 0 4 4 3 8 4 1 7 5 7 2 3 4 5 4 5 7 4 4 6 1 4 4 7 4 3 4 4 3 6 6 3 6 6 6 4 3 5 3 1 2 5 5 1 3 2 1 3 4 2 2 5 2 2 5 4 1 5 1 7 3 3 3 3 1 3 5 3 4 3 4 2 6 2 3 6 3 4 3 3 6 2 8 3 5 4 8 6 1 6 1 5 2 1 3 6 4 3 1 3 4 2 1 2 2 4 3 3 3 3 4 2 5 2 5 5 6 1 5 3 2 2 6 9 1 7 0 1 4 5 2 5 1 3 3 4 1 1 2 4 5 3 4 1 4 5 6 5 1 5 4 3 6 10 4 2 6 6 5 1 1 3 5 6 3 2 2 4 3 4 5 5 3 1 4 2 2 6 8 5 4 3 6 1 2 5 2 4 1 3 2 6 8 3 3 3 3 4 4 2 5 6 7 4 2 1 5 3 3 4 3 4 4 4 4 8 3 6 4 4 5 5 4 1 7 4 4 3 3 3 2 3 3 2 2 5 4 3 2 5 1 1 3 3 8 5 2 3 4 2 4 3 3 4 3 2 1 3 2 4 2 5 3 4 4 2 1 2 6 2 4 2 5 2 5 5 1 2 4 4 3 3 3 5 3 3 4 4 5 4 4 5 3 3 2 2 3 5 3 4 1 3 0 8 4 3 6 4 4 5 7 3 2 3 3 1 2 5 1 4 2 4 2 1 5 1 5 2 2 3 3 3 2 4 2 4 2 3 1 5 2 0 3 5 1 1 3 2 4 2 3 8 3 1 2 3 3 2 2 7 2 3 6 3 3 3 3 2 2 3 0 2 2 2 3 3 1 2 1 5 1 4 3 4 4 3 3 2 2 2 4 4 2 7 1 3 5 2 2 4 5 3 2 6 0 1 3 3 1 1 2 3 3 7 3 1 1 6 3 1 4 1 7 1 4 2 3 6 2 2 2 1 3 3 1 1 4 4 2 3 3 1 2 0 6 2 4 3 0 3 2 5 5 4 3 3 4 3 3 2 3 2 3 4 0 2 3 2 3 3 1 3 3 3 9 6 2 2 2 4 2 1 3 5 2 3 0 3 2 3 3 3 4 5 5 7 0 5 1 6 4 5 5 3 8 2 5 9 3 0 6 3 3 3 4 3 3 2 2 2 4 3 2 3 4 2 4 5 3 5 5 6 3 2 5 5 3 4 4 5 3 6 3 5 6 2 6 3 3 3 1 3 7 5 3 2 3 3 3 3 4 2 3 3 2 3 1 3 7 1 2 2 3 3 3 6 4 5 2 6 2 3 2 5 2 4 5 6 1 1 7 2 4 2 3 4 6 2 3 2 3 6 3 5 3 5 3 4 10 4 4 3 5 2 5 4 3 2 3 0 2 2 4 4 4 2 3 3 5 4 2 4 10 1 3 2 4 4 4 3 4 3 6 2 4 1 5 2 3 5 3 3 0 2 6 0 8 2 5 5 1 4 3 2 0 4 2 3 5 3 6 2 3 2 1 4 4 6 1 3 3 0 3 2 5 5 3 3 3 5 2 3 2 6 3 4 1 5 3 0 3 5 1 1 8 2 1 4 2 4 3 2 3 6 3 4 6 1 6 3 5 2 5 4 2 3 2 7 1 4 0 3 3 4 4 3 3 3 1 2 3 0 3 0 3 5 6 2 2 6 2 3 3 3 1 2 2 5 2 4 2 5 3 2 3 1 2 3 3 4 2 3 5 2 1 2 2 2 5 2 5 1 5 4 2 4 1 4 1 2 3 5 2 3 4 4 5 3 3 3 4 4 2 1 3 2 0 2 2 2 2 4 2 5 2 3 3 4 2 2 4 3 2 3 7 3 2 7 6 4 2 4 1 2 5 3 4 5 2 4 1 1 2 4 3 2 4 3 2 5 4 4 8 4 2 0 5 1 0 2 3 0 4 4 6 1 3 4 6 5 0 2 2 4 2 5 1 3 2 8 3 1 2 3 6 2 7 3 5 7 0 1 3 1 4 3 1 0 2 3 4 5 4 1 0 3 4 5 1 2 1 3 5 2 2 5 4 3 3 5 4 1 6 2 6 2 1 2 3 2 3 5 2 3 3 3 2 3 1 5 2 5 3 4 2 1 3 5 4 4 0 
BTB PER SET COUNT: 3 4 4 3 1 1 4 2 4 0 3 0 2530 3 2 3 3 2 3 1467 3 4 2 3 4 13 1 4 1462 2 3035 28 4 3 11 2 2922 731 734 3 5 4 3 2270 5229 3 4 3 1659 4 4 2 3 3 2 4 5 3 3 3 1 5 2 3 1 390 563 2 3 987 731 1 1 4 3 3 509 746 1 3 2 2 1 4 3 5 2 12 3 3 2592 456 3 3762 2 0 3 5 2 4 4 3 4 3 2 3 1 2 3 2 2 1 3 2006 2 1831 2 4 4 1 4 6 2 0 1 2 3 1 2069 4 2026 3 4 2 1015 3 2 1 3 3 62 4 3 2 4 7 2 4266 4 3 3 6678 3 2531 3 0 3 3 3 2 5 972 4 5 10 1911 2 2 8208 1 3 2 4 2 1 1 3 4 959 1 3 3 6856 3 8 8 4 1 2 3 42 3 3 4 4 6 2 3 3 6 3 2 4 1 5 3 2 1468 3 1 2 5 17 4 3 2 3 37 4 0 1 2 2 4 5 2 3 21 0 4 5796 3 3 2 3 3 3 2 1 3 2 0 2531 4 9211 2090 1 1 3 3 2 2 1 3 2 2153 3 8 4 3 5 4 4 2 1463 1386 3 1 4 2 5 2 3 3 4 2 1 1 3 4 6 2 2027 2 733 2532 3 3 1 1 0 3 1 14 1 1 7 3 2 2 3 3 1 2 3 2 4 2 2028 974 3 1 3 2 973 1 2533 1225 2 2 3 2249 3 4 2 2 5 205 2 1 1016 0 3 15 1514 2 1015 3 28 0 3 0 1 1015 1016 3 1 2 4 5 3 95 8 3 52 6 2 0 4 1 2 10 2 4 2475 67 1 1 2 1 3 2 2 4 6 4 3 3 3 4 28 3 2 502 5 2 12 2 4 1 16 4 4 2 3 1 2819 0 2 3 4 2 4 2 2 5 1463 4 1 954 1 3 10 5 955 2 133 3 1 93 2 1 3 5 4 12 5 0 2 5 139 2 2789 4 965 2529 4 3 3 1 5 5 1215 4 9 986 2 4 3 2 4 3 2 3 2025 1 1 4 1548 3 3 3 4 2036 1 4 14 2 2 3 0 7 34 507 2 1 4 973 3 1 2 2 2 507 0 4 3 0 31 1 5 2 3 7 0 29 4 4 3 1 2025 10 1 1 1 2 4 2 3 3 3 2 4 41 4 2 2 2532 4 513 3 1466 4 3 20 1522 0 2028 4788 3 7 4 4 23 3 510 3 1 6 1 2 1521 214 5 13 3 65 3 1032 9322 4 1538 5 3031 1 3 5 1 3 4 6798 3 2026 2 2 1 4 3 4 3077 4 3 3 5296 3 2 3 3 3 27 9 47 3 0 2 0 0 4063 5 4 2026 3041 2 1 955 3 7 2 4 1 5 2 4 1461 2 4 3 4 5 2 2531 2 3 2 2 4 903 0 3 1 13 508 3543 2 2 3 2 13 2 3 2025 1463 3 5 1015 3 2 3 2 3 3062 1 4 4 0 0 3 5 3 4 4 2 8 2 3 0 7 3 2 3 7940 2 27 4 2027 5 2940 1016 1 4 735 4 6 4 1520 3112 3 3 3 3 3 2 8 1014 1521 4 22 1462 4 3 4 1021 2 2 2 5 2030 4 21 43 0 2535 0 3 3 1013 3 1 3 1 3 3 5 1 1013 1 2497 2 0 3 2 0 1 1 1 1 1 6 2 4 1521 4 955 1 2 4 9 5 2 2 1 4 3 4 2 2 510 2 3 1013 0 2 1 4 2 2 2 3036 4 1 3 3 1 23 4 4 5796 2 4 3 4 4 0 98 3 4 2810 2 1 3 5 5 0 3 3208 4781 4 4 0 3 2 46 1 1 5 2242 2052 2 2 2 12 5 9 5 2027 3 4 22 1 5 1 3 4 0 5 5 1 2 0 4 6 2 4 2 2 1 2 2 4 54 3 1 3 2 2027 3 2 1 1520 2 2 1 3 1464 1 10 2047 4 12 2 2532 2 2027 5 8 12 3 2 9 4 3 4831 3 1 6187 956 3 5 1520 5 1 3 3 2255 4 0 2 4 29 5 3 4774 5 4 83 4 2 2 3 4 5 2 3 4 3 2 589 3 3 1 1955 3 1 47 4 2242 3 973 3 5 47 5 0 3 2 1520 0 2 1015 2 44 11 1520 3 6 1 3 2 2025 125 5 512 5306 3779 1521 4 2127 6 1 29 5 2 0 958 6 2530 46 1521 3 2 759 0 341 4 2 4 1453 2026 4 2 3 508 4 4776 2 26 1231 4 2033 3 3 3 0 387 30 1 7247 22 1 3 2035 17 509 5 2 3 2 4 4 3 1742 6 2 3544 4 8 4 2024 3 32 1 3 4 2 2 22 5 4 3 5 2037 3 2419 385 1742 4 26 5 2 6 1959 2 5070 27 3 3 4 2 2 3 6 3041 2030 8 3 2 3 2 3 3 3 2 4 4 2 4 12 2026 4 1532 0 3 4 4 1464 388 2 1 3 3 4 2 3 1 5 1 3 3 3 10 2 4048 1520 3 2 1 11186 1 2 4 1 2 2028 119 4 5286 3 28 8 2532 3 33 2 2 1 1 32 0 5 4 3 2045 4 1 2115 6 2538 2 509 4 14 4 2530 1910 4 4 2535 1 5 5 4793 4 3 4 4 3 1524 2015 4 2531 1521 2183 4 3 12 5 1 2 6 2026 1 3 2 1 4 7 2 2 523 2 2 22 4 1 12 1 5393 4 3 4 3 1 3 9 3 4 4 4 2 27 3 3 1798 3 4 3 3 2028 2 5806 3 1520 5 2678 7245 1 5277 1 23 3 1 4 515 4 3 1 4 126 3 1 3 507 4 3 3 3 3 4 2 1520 2 9 8 19 2 2026 3 2 2 50 7261 1 46 0 1 4 8 3 27 1 3 1014 6 1 1 2 4 26 3 4 1 4 7 7302 17 1 9 4 3 2999 10286 1928 3 7242 24 2025 1 1 4 2025 2531 3 2 2 5 3 4 7 16 3 1 4 2 2 3388 7884 3763 5 3 424 1 2 21 2 4 1 3 2 3038 6564 956 4 4 3 6 5 2 2024 2030 2533 4 2 1 20 3 3 6 3 4 5 4 4 2041 3 2026 4 511 2025 2530 12 1 3109 4 4 3 3 3 3 3 3 2 2 16 4 4 2 960 1 1 4 3 3045 12 2 3 4 2 4 3 3 4 3 2 1 3 3 5 2 8 3 7 4 2 1 2 979 4 4 3 7 3 6 360 1 2 4 4 956 3 3 2538 3 3 47 5 10 4 4 7 3 3 2 2 3 2027 3 4 1 3 0 5527 4 3 3035 4 4 2530 6752 3 2 3 3 1 2 8 2 4 4 5 4 1 3768 2 12 2 2 3 7 3 2 1463 2 4 1337 3 1 482 3 0 3 7 1 4 1338 3 4 2 3 2035 4 1 2 3 4 2 2 3038 2 3 71 4 3 3 3 2 2 4 0 5 2 2 956 3 1 2 1 7 1 4 3 4 4 3 3 1013 2 7 4 29 2 2537 1 3 5 2 2 5 14 143 2 21467 0 1 3 4 1 1 2 5 3 2121 403 1 1 1484 4 1 4 1 2545 1 4 2 3 2014 2 2 2 1 3 3 1 1 4 4 3 3 4 1 2 0 3765 2 4 5 0 4 432 2034 6 4 3 3 4 3 3 2 3 2 3 4 0 2 3 2 3 8 1 3 3 3 3789 3038 2 2 2 4 2 1 3 1684 2 3 0 3 2 3 3 3 4 2530 18 5787 0 7 1 2268 4 6 25 3 3548 2 8 8252 3 0 3037 1462 3 3 4 3 3 2 2 2 957 4 2 3 4 2 4 1776 5 2025 6 1023 3036 2 1287 6797 3 5 7 9 3 3256 3 1669 2026 2 2032 3 257 385 1 1462 1534 12 247 6 3 3 3 4 4 2 3 4 2 3 1 3 2636 1 2 2 3 4 3 533 5 6 2 3825 2 3 3 1520 2 1521 1521 3037 1 1 6212 2 1016 3 3 4 2030 508 3 2 3 3036 3 511 3 4408 3 4 8713 4 4 14603 3037 3 2025 1463 5 2 3 0 2 2 4 4 4 2 4 3 10 4 2 163 3548 1 1462 2 1463 213 4 3 4 3 2408 2 727 1 2531 2 4 7 3 3 0 2 3126 0 5281 3 1287 2533 1 4 3 2 0 4 2 4 1489 3 4831 2 3 2 1 6 4 7304 1 3 557 0 3 2 7 2025 956 6 3 1969 2 3 2 2270 3 4 1 29 3 0 3 6 1460 1 4005 2 1 4 3 4 3 4 3 2485 3 458 2531 1 2531 3 2027 225 2025 141 2 3 2 3760 1 197 0 7 1463 4 4 3 3 3 2 2 451 0 3 0 3 8 3047 2 2 737 372 3 7 956 1 2 2 7 2 4 2 109 3 2 3 1 2 195 3 4 2 3 7 2 1 2 2 2 1552 2 7 1 3762 4 2 4 4 4 2 2 3 12 2 3 1016 4 1015 3 3 3 5 6 2 1 3 3 0 2 2 2 2 4 8 2530 2 3 3 4 2 2 4 3 2 3 3095 6 2 3280 2532 133 2 4 2 2 27 3 4 7 2 4 3 1 2 4 1014 2 4 3 3 8 5 4 2625 4 3 0 9 2 0 2 4 0 4 1463 1028 1 3 4 2514 7 0 3 2 5 2 7 1 7 2 4003 3 1 2 3 2535 4 3543 3 5 5040 0 1 3 1 4 3 1 0 2 3 5 22 4 3 0 3 4 1522 1 2 1 3 2532 2 2 17 4 3 4 2025 4 1 2536 2 2029 8 1 2 3 2 3 10 2 3 3 3 2 3 1 21 2 245 3 4 2 1 3 1482 4 5 0 
