
*** ChampSim Multicore Out-of-Order Simulator ***

Warmup Instructions: 50000000
Simulation Instructions: 50000000
Number of CPUs: 1
LLC sets: 2048
LLC ways: 16
Off-chip DRAM Size: 4096 MB Channels: 1 Width: 64-bit Data Rate: 6400 MT/s
CPU 0 runs ./micro_traces/srv421.trace.gz
.gz
ITLB has LRU replacement policy
DTLB has LRU replacement policy
STLB has LRU replacement policy
FDIP Prefetcher at L1I
L1I has LRU replacement policy
L1D has LRU replacement policy
Initialize SRRIP state for L2C
Initialize DRRIP state for LLC
Heartbeat CPU 0 instructions: 10000000 cycles: 2796056 heartbeat IPC: 3.57647 cumulative IPC: 3.57647 (Simulation time: 0 hr 1 min 43 sec) 
Heartbeat CPU 0 instructions: 20000001 cycles: 5592682 heartbeat IPC: 3.57574 cumulative IPC: 3.5761 (Simulation time: 0 hr 3 min 20 sec) 
Heartbeat CPU 0 instructions: 30000002 cycles: 8387473 heartbeat IPC: 3.57809 cumulative IPC: 3.57676 (Simulation time: 0 hr 4 min 57 sec) 
Heartbeat CPU 0 instructions: 40000000 cycles: 11182791 heartbeat IPC: 3.57741 cumulative IPC: 3.57692 (Simulation time: 0 hr 6 min 36 sec) 
Heartbeat CPU 0 instructions: 50000001 cycles: 13978460 heartbeat IPC: 3.57696 cumulative IPC: 3.57693 (Simulation time: 0 hr 8 min 10 sec) 

Warmup complete CPU 0 instructions: 50000001 cycles: 13978460 (Simulation time: 0 hr 8 min 10 sec) 

Cycle: 20000000 FTQ IN: 56280437 FTQ occupancy: 17.6119 DECODE IN: 56280382 DECODE occupancy: 44.9164 ROB IN: 56280382 ROB occupancy: 270.492 ROB OUT: 56280310
Heartbeat CPU 0 instructions: 60000000 cycles: 23565419 heartbeat IPC: 1.04308 cumulative IPC: 1.04308 (Simulation time: 0 hr 9 min 24 sec) 
*** Reached end of trace for Core: 0 Repeating trace: ./micro_traces/srv421.trace.gz
Cycle: 30000000 FTQ IN: 10463159 FTQ occupancy: 5.19471 DECODE IN: 10463097 DECODE occupancy: 10.0472 ROB IN: 10463097 ROB occupancy: 90.9924 ROB OUT: 10463073
Heartbeat CPU 0 instructions: 70000001 cycles: 33093608 heartbeat IPC: 1.04952 cumulative IPC: 1.04629 (Simulation time: 0 hr 10 min 40 sec) 
Cycle: 40000000 FTQ IN: 10541640 FTQ occupancy: 5.24376 DECODE IN: 10541706 DECODE occupancy: 10.1808 ROB IN: 10541702 ROB occupancy: 91.1095 ROB OUT: 10541764
Heartbeat CPU 0 instructions: 80000002 cycles: 42579801 heartbeat IPC: 1.05416 cumulative IPC: 1.0489 (Simulation time: 0 hr 11 min 56 sec) 
Cycle: 50000000 FTQ IN: 10430938 FTQ occupancy: 5.45965 DECODE IN: 10430939 DECODE occupancy: 10.548 ROB IN: 10430943 ROB occupancy: 92.9286 ROB OUT: 10430911
Heartbeat CPU 0 instructions: 90000003 cycles: 52187636 heartbeat IPC: 1.04082 cumulative IPC: 1.04687 (Simulation time: 0 hr 13 min 14 sec) 
Cycle: 60000000 FTQ IN: 10502453 FTQ occupancy: 5.20771 DECODE IN: 10502482 DECODE occupancy: 10.0266 ROB IN: 10502482 ROB occupancy: 90.2409 ROB OUT: 10502527
Heartbeat CPU 0 instructions: 100000000 cycles: 61678973 heartbeat IPC: 1.05359 cumulative IPC: 1.04821 (Simulation time: 0 hr 14 min 27 sec) 
Finished CPU 0 instructions: 50000003 cycles: 47700514 cumulative IPC: 1.04821 (Simulation time: 0 hr 14 min 27 sec) 

ChampSim completed all CPUs

Region of Interest Statistics

CPU 0 cumulative IPC: 1.04821 instructions: 50000003 cycles: 47700514
 Fetch stage stalled: 74.5379  Sim cycles: 47700514 fetch stall cycle: 35554978
 Empty decode stage: 81.2287  Sim cycles: 47700514 fetch stall cycle: 38746492
ITLB TOTAL     ACCESS:    6033899  HIT:    5541898  MISS:     492001  HIT %:    91.8461  MISS %:    8.15395   MPKI: 9.84002
ITLB LOAD TRANSLATION INSTRUCTION	ACCESS:    5948722  HIT:    5456721  MISS:     492001  HIT %:    91.7293  MISS %:     8.2707  MPKI: 9.84002
ITLB TRANSLATION FROM L1D PREFETCHER INSTRUCTION	ACCESS:      85177  HIT:      85177  MISS:          0  HIT %:        100  MISS %:          0  MPKI: 0

ITLB AVERAGE MISS LATENCY: 9.02871 cycles
ITLB RQ	ACCESS:    7660086	FORWARD:          0	MERGED:    1358093	TO_CACHE:    6301993

DTLB TOTAL     ACCESS:    9584665  HIT:    9106915  MISS:     477750  HIT %:    95.0155  MISS %:    4.98452   MPKI: 9.555
DTLB LOAD TRANSLATION DATA	ACCESS:    9584665  HIT:    9106915  MISS:     477750  HIT %:    95.0155  MISS %:    4.98452  MPKI: 9.555

DTLB AVERAGE MISS LATENCY: 9.21696 cycles
DTLB RQ	ACCESS:   13818506	FORWARD:          0	MERGED:    4200842	TO_CACHE:    9617664

STLB TOTAL     ACCESS:    1222840  HIT:    1221101  MISS:       1739  HIT %:    99.8578  MISS %:    0.14221   MPKI: 0.03478
STLB LOAD TRANSLATION INSTRUCTION	ACCESS:     492001  HIT:     491820  MISS:        181  HIT %:    99.9632  MISS %:  0.0367885  MPKI: 0.00362
STLB LOAD TRANSLATION DATA	ACCESS:     477546  HIT:     475998  MISS:       1548  HIT %:    99.6758  MISS %:   0.324157  MPKI: 0.03096
STLB TRANSLATION FROM L1D PREFETCHER DATA	ACCESS:     253293  HIT:     253283  MISS:         10  HIT %:    99.9961  MISS %:   0.003948  MPKI: 0.0002

STLB AVERAGE MISS LATENCY: 54.8292 cycles
STLB RQ	ACCESS:    1368676	FORWARD:          0	MERGED:     145807	TO_CACHE:    1222869

STLB Hit, L1D data hit: 0
STLB Hit, L2C data hit: 0
STLB Hit, LLC data hit: 0
STLB Hit, LLC data miss: 0
STLB STLB hints to L2: 0
L1D TOTAL     ACCESS:   13597941  HIT:   12441002  MISS:    1156939  HIT %:    91.4918  MISS %:    8.50819   MPKI: 23.1388
L1D LOAD DATA	ACCESS:    7041782  HIT:    6276507  MISS:     765275  HIT %:    89.1324  MISS %:    10.8676  MPKI: 15.3055
L1D RFO DATA	ACCESS:    6219121  HIT:    5931088  MISS:     288033  HIT %:    95.3686  MISS %:    4.63141  MPKI: 5.76066
L1D PREFETCH DATA	ACCESS:     337038  HIT:     233407  MISS:     103631  HIT %:    69.2524  MISS %:    30.7476  MPKI: 2.07262

L1D PREFETCH  REQUESTED:     798153  ISSUED:     798153  USEFUL:      46434  USELESS:      69586
L1D USEFUL LOAD PREFETCHES:      46434 PREFETCH ISSUED TO LOWER LEVEL:     116099  ACCURACY: 39.9952
 TIMELY PREFETCHES:      46434 LATE PREFETCHES: 12374 DROPPED PREFETCHES: 0
L1D AVERAGE MISS LATENCY: 408796 cycles
L1D RQ	ACCESS:   11043543	FORWARD:          0	MERGED:    3802726	TO_CACHE:    7074870
L1D WQ	ACCESS:    6903529	FORWARD:     166250	MERGED:     159893	TO_CACHE:    6743636
L1D PQ	ACCESS:     399228	FORWARD:          0	MERGED:          0	TO_CACHE:     398925

L1D UNIQUE REGIONS ACCESSED: 0
L1D REGIONS CONFLICTS: 0
L1D Cross Page Prefetch Requests: 5810
L1D Same Page Prefetch Requests: 808048
L1D ROI Sum of L1D PQ occupancy: 5031492
L1D PREFETCHES PUSHED FROM L2C: 0
L1I TOTAL     ACCESS:    7128576  HIT:    4370192  MISS:    2758384  HIT %:    61.3053  MISS %:    38.6947   MPKI: 55.1677
L1I LOAD INSTRUCTION	ACCESS:    6761544  HIT:    4003160  MISS:    2758384  HIT %:    59.2048  MISS %:    40.7952  MPKI: 55.1677
L1I PREFETCH INSTRUCTION	ACCESS:     367032  HIT:     367032  MISS:          0  HIT %:        100  MISS %:          0  MPKI: 0

L1I PREFETCH  REQUESTED:     901376  ISSUED:     901376  USEFUL:          0  USELESS:          0
L1I USEFUL LOAD PREFETCHES:          0 PREFETCH ISSUED TO LOWER LEVEL:          0  ACCURACY: -nan
 TIMELY PREFETCHES:          0 LATE PREFETCHES: 0 DROPPED PREFETCHES: 0
L1I AVERAGE MISS LATENCY: 17.1478 cycles
L1I RQ	ACCESS:    9434439	FORWARD:          0	MERGED:    2417207	TO_CACHE:    7017232
L1I PQ	ACCESS:     901376	FORWARD:          0	MERGED:     258522	TO_CACHE:     642854

L1BTB TOTAL     ACCESS:    5682338  HIT:    2066140  MISS:    3616198  HIT %:    36.3607  MISS %:    63.6393   MPKI: 72.324
L1BTB BRANCH_DIRECT_JUMP	ACCESS:     544752 HIT:     143044 MISS:     401708 AVERAGE STALL: 32.1179 AVERAGE FETCH STALL: 19.1632 AVERAGE FETCH QUEUE STALL: 5.98045 AVERAGE DECODE STALL: 6.10809 AVERAGE EXECUTE STALL: 1.11636e+15
L1BTB BRANCH_INDIRECT	ACCESS:     181794 HIT:      65602 MISS:     116192 AVERAGE STALL: 57.853 AVERAGE FETCH STALL: 12.2007 AVERAGE FETCH QUEUE STALL: 5.19206 AVERAGE DECODE STALL: 5.87851 AVERAGE EXECUTE STALL: 33.6185
L1BTB BRANCH_CONDITIONAL	ACCESS:    2735948 HIT:    1446702 MISS:    1289246 AVERAGE STALL: 34.8029 AVERAGE FETCH STALL: 22.9835 AVERAGE FETCH QUEUE STALL: 5.15735 AVERAGE DECODE STALL: 5.91345 AVERAGE EXECUTE STALL: 6.52728e+14
L1BTB BRANCH_DIRECT_CALL	ACCESS:     939382 HIT:     102247 MISS:     837135 AVERAGE STALL: 34.2384 AVERAGE FETCH STALL: 21.6705 AVERAGE FETCH QUEUE STALL: 6.22169 AVERAGE DECODE STALL: 5.5696 AVERAGE EXECUTE STALL: 8.96213e+14
L1BTB BRANCH_INDIRECT_CALL	ACCESS:     170542 HIT:      20723 MISS:     149819 AVERAGE STALL: 73.7531 AVERAGE FETCH STALL: 13.5463 AVERAGE FETCH QUEUE STALL: 3.45611 AVERAGE DECODE STALL: 5.43887 AVERAGE EXECUTE STALL: 50.8137
L1BTB BRANCH_RETURN	ACCESS:    1109920 HIT:     287822 MISS:     822098 AVERAGE STALL: 35.8501 AVERAGE FETCH STALL: 17.763 AVERAGE FETCH QUEUE STALL: 3.08922 AVERAGE DECODE STALL: 4.90408 AVERAGE EXECUTE STALL: 3.63404e+14
L1BTB BRANCH_OTHER ACCESS:          0 HIT:          0 MISS:          0 AVERAGE STALL: -nan AVERAGE FETCH STALL: -nan AVERAGE FETCH QUEUE STALL: -nan AVERAGE DECODE STALL: -nan AVERAGE EXECUTE STALL: -nan
L1BTB TOTAL ROB OCCUPANCY AT BTB MISS: 2.04736

L2BTB TOTAL     ACCESS:    3591095  HIT:    3465377  MISS:     125718  HIT %:    96.4992  MISS %:    3.50083   MPKI: 2.51436
L2BTB BRANCH_DIRECT_JUMP	ACCESS:     397572 HIT:     385181 MISS:      12391 AVERAGE STALL: 32.1179 AVERAGE FETCH STALL: 19.1632 AVERAGE FETCH QUEUE STALL: 5.98045 AVERAGE DECODE STALL: 6.10809 AVERAGE EXECUTE STALL: 1.11636e+15
L2BTB BRANCH_INDIRECT	ACCESS:     105941 HIT:     102816 MISS:       3125 AVERAGE STALL: 57.853 AVERAGE FETCH STALL: 12.2007 AVERAGE FETCH QUEUE STALL: 5.19206 AVERAGE DECODE STALL: 5.87851 AVERAGE EXECUTE STALL: 33.6185
L2BTB BRANCH_CONDITIONAL	ACCESS:    1289246 HIT:    1260331 MISS:      28915 AVERAGE STALL: 34.8029 AVERAGE FETCH STALL: 22.9835 AVERAGE FETCH QUEUE STALL: 5.15735 AVERAGE DECODE STALL: 5.91345 AVERAGE EXECUTE STALL: 6.52728e+14
L2BTB BRANCH_DIRECT_CALL	ACCESS:     837135 HIT:     816543 MISS:      20592 AVERAGE STALL: 34.2384 AVERAGE FETCH STALL: 21.6705 AVERAGE FETCH QUEUE STALL: 6.22169 AVERAGE DECODE STALL: 5.5696 AVERAGE EXECUTE STALL: 8.96213e+14
L2BTB BRANCH_INDIRECT_CALL	ACCESS:     140325 HIT:     129175 MISS:      11150 AVERAGE STALL: 73.7531 AVERAGE FETCH STALL: 13.5463 AVERAGE FETCH QUEUE STALL: 3.45611 AVERAGE DECODE STALL: 5.43887 AVERAGE EXECUTE STALL: 50.8137
L2BTB BRANCH_RETURN	ACCESS:     820876 HIT:     771331 MISS:      49545 AVERAGE STALL: 35.8501 AVERAGE FETCH STALL: 17.763 AVERAGE FETCH QUEUE STALL: 3.08922 AVERAGE DECODE STALL: 4.90408 AVERAGE EXECUTE STALL: 3.63404e+14
L2BTB BRANCH_OTHER ACCESS:          0 HIT:          0 MISS:          0 AVERAGE STALL: -nan AVERAGE FETCH STALL: -nan AVERAGE FETCH QUEUE STALL: -nan AVERAGE DECODE STALL: -nan AVERAGE EXECUTE STALL: -nan
L2BTB TOTAL ROB OCCUPANCY AT BTB MISS: 58.8909

L2C TOTAL     ACCESS:    4524100  HIT:    4049960  MISS:     474140  HIT %:    89.5197  MISS %:    10.4803   MPKI: 9.4828
L2C LOAD INSTRUCTION	ACCESS:    2758384  HIT:    2488060  MISS:     270324  HIT %:    90.1999  MISS %:    9.80009  MPKI: 5.40648
L2C LOAD TRANSLATION INSTRUCTION	ACCESS:        203  HIT:         44  MISS:        159  HIT %:    21.6749  MISS %:    78.3251  MPKI: 0.00318
L2C LOAD DATA	ACCESS:     752868  HIT:     680219  MISS:      72649  HIT %:    90.3504  MISS %:    9.64963  MPKI: 1.45298
L2C RFO DATA	ACCESS:     287931  HIT:     241513  MISS:      46418  HIT %:    83.8788  MISS %:    16.1212  MPKI: 0.92836
L2C PREFETCH DATA	ACCESS:     197699  HIT:     126843  MISS:      70856  HIT %:    64.1597  MISS %:    35.8403  MPKI: 1.41712
L2C WRITEBACK DATA	ACCESS:     525396  HIT:     512927  MISS:      12469  HIT %:    97.6267  MISS %:    2.37326  MPKI: 0.24938
L2C LOAD TRANSLATION DATA	ACCESS:       1606  HIT:        347  MISS:       1259  HIT %:    21.6065  MISS %:    78.3935  MPKI: 0.02518
L2C TRANSLATION FROM L1D PREFETCHER DATA	ACCESS:         13  HIT:          7  MISS:          6  HIT %:    53.8462  MISS %:    46.1538  MPKI: 0.00012

L2C PREFETCH  REQUESTED:      88630  ISSUED:      88630  USEFUL:       8217  USELESS:      63100
L2C USEFUL LOAD PREFETCHES:       8217 PREFETCH ISSUED TO LOWER LEVEL:      71322  ACCURACY: 11.521
 TIMELY PREFETCHES:       8217 LATE PREFETCHES: 466 DROPPED PREFETCHES: 0
L2C AVERAGE MISS LATENCY: 34.8806 cycles
L2C RQ	ACCESS:    3801045	FORWARD:          0	MERGED:          0	TO_CACHE:    3801005
L2C WQ	ACCESS:     525396	FORWARD:         41	MERGED:          0	TO_CACHE:     525396
L2C PQ	ACCESS:     204729	FORWARD:          0	MERGED:       3307	TO_CACHE:     201421

L2C Dense regions hint from L2: 0
PSCL5 TOTAL     ACCESS:       3478  HIT:       1739  MISS:       1739  HIT %:         50  MISS %:         50   MPKI: 0.03478
PSCL5 LOAD TRANSLATION INSTRUCTION	ACCESS:       3452  HIT:       1726  MISS:       1726  HIT %:         50  MISS %:         50  MPKI: 0.03452
PSCL5 TRANSLATION FROM L1D PREFETCHER INSTRUCTION	ACCESS:         26  HIT:         13  MISS:         13  HIT %:         50  MISS %:         50  MPKI: 0.00026


PSCL4 TOTAL     ACCESS:       3233  HIT:       1614  MISS:       1619  HIT %:    49.9227  MISS %:    50.0773   MPKI: 0.03238
PSCL4 LOAD TRANSLATION INSTRUCTION	ACCESS:       1722  HIT:       1602  MISS:        120  HIT %:    93.0314  MISS %:    6.96864  MPKI: 0.0024
PSCL4 TRANSLATION FROM L1D PREFETCHER INSTRUCTION	ACCESS:         12  HIT:         12  MISS:          0  HIT %:        100  MISS %:          0  MPKI: 0
PSCL4 LOAD TRANSLATION DATA	ACCESS:       1487  HIT:          0  MISS:       1487  HIT %:          0  MISS %:        100  MPKI: 0.02974
PSCL4 TRANSLATION FROM L1D PREFETCHER DATA	ACCESS:         12  HIT:          0  MISS:         12  HIT %:          0  MISS %:        100  MPKI: 0.00024


PSCL3 TOTAL     ACCESS:       3395  HIT:       1695  MISS:       1700  HIT %:    49.9264  MISS %:    50.0736   MPKI: 0.034
PSCL3 LOAD TRANSLATION INSTRUCTION	ACCESS:       1803  HIT:       1683  MISS:        120  HIT %:    93.3444  MISS %:    6.65557  MPKI: 0.0024
PSCL3 TRANSLATION FROM L1D PREFETCHER INSTRUCTION	ACCESS:         12  HIT:         12  MISS:          0  HIT %:        100  MISS %:          0  MPKI: 0
PSCL3 LOAD TRANSLATION DATA	ACCESS:       1568  HIT:          0  MISS:       1568  HIT %:          0  MISS %:        100  MPKI: 0.03136
PSCL3 TRANSLATION FROM L1D PREFETCHER DATA	ACCESS:         12  HIT:          0  MISS:         12  HIT %:          0  MISS %:        100  MPKI: 0.00024


PSCL2 TOTAL     ACCESS:       3405  HIT:       1666  MISS:       1739  HIT %:     48.928  MISS %:     51.072   MPKI: 0.03478
PSCL2 LOAD TRANSLATION INSTRUCTION	ACCESS:       1834  HIT:       1653  MISS:        181  HIT %:    90.1309  MISS %:    9.86914  MPKI: 0.00362
PSCL2 TRANSLATION FROM L1D PREFETCHER INSTRUCTION	ACCESS:         13  HIT:         13  MISS:          0  HIT %:        100  MISS %:          0  MPKI: 0
PSCL2 LOAD TRANSLATION DATA	ACCESS:       1545  HIT:          0  MISS:       1545  HIT %:          0  MISS %:        100  MPKI: 0.0309
PSCL2 TRANSLATION FROM L1D PREFETCHER DATA	ACCESS:         13  HIT:          0  MISS:         13  HIT %:          0  MISS %:        100  MPKI: 0.00026


LLC TOTAL     ACCESS:     529535  HIT:     511705  MISS:      17830  HIT %:    96.6329  MISS %:    3.36711   MPKI: 0.3566
LLC LOAD INSTRUCTION	ACCESS:     270324  HIT:     269735  MISS:        589  HIT %:    99.7821  MISS %:   0.217887  MPKI: 0.01178
LLC LOAD TRANSLATION INSTRUCTION	ACCESS:        159  HIT:        149  MISS:         10  HIT %:    93.7107  MISS %:    6.28931  MPKI: 0.0002
LLC LOAD DATA	ACCESS:      72188  HIT:      69554  MISS:       2634  HIT %:    96.3512  MISS %:    3.64881  MPKI: 0.05268
LLC RFO DATA	ACCESS:      46411  HIT:      40003  MISS:       6408  HIT %:    86.1929  MISS %:    13.8071  MPKI: 0.12816
LLC PREFETCH DATA	ACCESS:      71322  HIT:      63317  MISS:       8005  HIT %:    88.7763  MISS %:    11.2237  MPKI: 0.1601
LLC WRITEBACK DATA	ACCESS:      67866  HIT:      67722  MISS:        144  HIT %:    99.7878  MISS %:   0.212183  MPKI: 0.00288
LLC LOAD TRANSLATION DATA	ACCESS:       1259  HIT:       1219  MISS:         40  HIT %:    96.8229  MISS %:    3.17712  MPKI: 0.0008
LLC TRANSLATION FROM L1D PREFETCHER DATA	ACCESS:          6  HIT:          6  MISS:          0  HIT %:        100  MISS %:          0  MPKI: 0

LLC AVERAGE MISS LATENCY: 150.836 cycles
LLC RQ	ACCESS:     390349	FORWARD:          0	MERGED:          0	TO_CACHE:     390347
LLC WQ	ACCESS:      67866	FORWARD:          2	MERGED:          0	TO_CACHE:      67866
LLC PQ	ACCESS:      71322	FORWARD:          0	MERGED:          0	TO_CACHE:      71322

LLC Dense regions hint to LLC: 0

RAW hits: 1558722
Loads Generated: 12602266
Loads sent to L1D: 11043543
Stores Generated: 6903524
Stores sent to L1D: 6903529
Major fault: 0 Minor fault: 2192
Allocated PAGES: 2192

stream: 
stream:times selected: 1242849
stream:pref_filled: 125922
stream:pref_useful: 29088
stream:pref_late: 9414
stream:misses: 10534
stream:misses_by_poll: 0

CS: 
CS:times selected: 189841
CS:pref_filled: 72038
CS:pref_useful: 48479
CS:pref_late: 8726
CS:misses: 22392
CS:misses_by_poll: 28

CPLX: 
CPLX:times selected: 1051919
CPLX:pref_filled: 25324
CPLX:pref_useful: 7419
CPLX:pref_late: 3715
CPLX:misses: 129749
CPLX:misses_by_poll: 0

NL_L1: 
NL:times selected: 12623
NL:pref_filled: 1146
NL:pref_useful: 327
NL:pref_late: 386
NL:misses: 2003
NL:misses_by_poll: 0

total selections: 2497232
total_filled: 103631
total_useful: 46434
total_late: 24822
total_polluted: 28
total_misses_after_warmup: 798362
conflicts: 5732655

test: 118703

DRAM Statistics
 CHANNEL 0
 RQ ROW_BUFFER_HIT:       5804  ROW_BUFFER_MISS:      11862
 DBUS_CONGESTED:         15
 WQ ROW_BUFFER_HIT:        834  ROW_BUFFER_MISS:       7181  FULL:          0

 AVG_CONGESTED_CYCLE: 5

CPU 0 Branch Prediction Accuracy: 99.82% MPKI: 0.3298 Average ROB Occupancy at Mispredict: 105.633
Branch types
NOT_BRANCH: 40837403 81.6748%
BRANCH_DIRECT_JUMP: 544752 1.0895%
BRANCH_INDIRECT: 181794 0.363588%
BRANCH_CONDITIONAL: 6215727 12.4315%
BRANCH_DIRECT_CALL: 939382 1.87876%
BRANCH_INDIRECT_CALL: 170542 0.341084%
BRANCH_RETURN: 1109920 2.21984%
BRANCH_OTHER: 0 0%

DRAM PAGES: 1048576
Allocated PAGES: 2192
Average_ROB_Occupancy: 92.1756
Average_Decode_Occupancy: 10.1627
Average_FTQ_Occupancy: 5.2584
Indirect max targets: 14 Average targets: 1.15017
Branch_type:  BRANCH_DIRECT_JUMP:  Count Percentage: 3.64976 6.10956 4.18589 3.12862 7.48608 6.02391 1.70771 67.7085 
Branch_type:  BRANCH_INDIRECT:  Count Percentage: 11.773 3.47151 2.54597 0 13.0084 2.80825 2.14004 64.2529 
Branch_type:  BRANCH_CONDITIONAL:  Count Percentage: 25.4589 3.32984 5.27998 2.57108 3.3915 4.6024 1.62576 53.7406 
Branch_type:  BRANCH_DIRECT_CALL:  Count Percentage: 0.87836 1.25049 0.729134 2.26923 4.10283 2.82298 0.887364 87.0596 
Branch_type:  BRANCH_INDIRECT_CALL:  Count Percentage: 9.55546 0 2.99629 0 0 2.27832 0.998178 84.1717 
Branch_type:  BRANCH_RETURN:  Count Percentage: 8.02947 1.44489 5.25191 2.2389 4.19014 5.25187 1.12619 72.4666 
Branch_type:  BRANCH_DIRECT_JUMP:  Total Count: 39716 66483 45550 34045 81462 65551 18583 736790 
Branch_type:  BRANCH_INDIRECT:  Total Count: 42778 12614 9251 0 47267 10204 7776 233468 
Branch_type:  BRANCH_CONDITIONAL:  Total Count: 3162594 413645 655899 319389 421304 571727 201958 6675849 
Branch_type:  BRANCH_DIRECT_CALL:  Total Count: 16487 23472 13686 42594 77011 52988 16656 1634127 
Branch_type:  BRANCH_INDIRECT_CALL:  Total Count: 32567 0 10212 0 0 7765 3402 286875 
Branch_type:  BRANCH_RETURN:  Total Count: 178145 32057 116521 49673 92964 116520 24986 1607773 
Number of unique branch instructions: 9869
Upper 32 bits: 
aaaa
ffff
ffff0000
Unique upper 32 bits: 3
Unique upper 36 bits: 3
Unique upper 40 bits: 5
Unique upper 44 bits: 32
Unique upper 48 bits: 153
Offset_3 4056
Offset_4 242
Offset_5 444
Offset_6 507
Offset_7 584
Offset_8 514
Offset_9 462
Offset_10 385
Offset_11 320
Offset_12 267
Offset_13 195
Offset_14 225
Offset_15 182
Offset_16 225
Offset_17 146
Offset_18 127
Offset_19 235
Offset_20 137
Offset_21 235
Offset_22 397
Offset_23 241
Offset_24 325
Offset_25 88
Offset_47 80
decode_dispatch_called: 20639113 43.2681
Dispatch_width: 0 10293489 49.8737 21.5794
Dispatch_width: 1 635898 3.08103 1.33311
Dispatch_width: 2 825751 4.0009 1.73112
Dispatch_width: 3 588862 2.85314 1.2345
Dispatch_width: 4 1693564 8.2056 3.55041
Dispatch_width: 5 437849 2.12145 0.917913
Dispatch_width: 6 6163700 29.8642 12.9217
Empty_decode_cycles: 27061401 56.7319
ROB_full_cycles: 1561747 3.27407
Starvation_cycles_per_kilo_instr: 399.751
Starvation_cycles_per_kilo_instr_3: 378.437
Starvation_cycles_per_kilo_instr_0: 357.931
Branch_type_1  (3,1)  (4,7)  (5,36)  (6,74)  (7,115)  (8,126)  (9,121)  (10,100)  (11,76)  (12,44)  (13,4)  (14,2)  (15,3)  (16,4)  (18,1)  (19,4)  (20,2)  (21,1)  (22,3)  (23,2)  (24,10)  (25,12) 
Branch_type_2  (3,1)  (5,1)  (8,3)  (9,3)  (12,1)  (13,1)  (14,1)  (16,3)  (17,2)  (20,2)  (21,2)  (23,5)  (24,1)  (47,36) 
Branch_type_3  (3,4054)  (4,235)  (5,403)  (6,417)  (7,438)  (8,326)  (9,256)  (10,158)  (11,130)  (12,49)  (13,4) 
Branch_type_4  (6,4)  (7,8)  (8,26)  (9,50)  (10,60)  (11,57)  (12,96)  (13,84)  (14,99)  (15,86)  (16,102)  (17,66)  (18,58)  (19,114)  (20,71)  (21,124)  (22,213)  (23,136)  (24,187)  (25,72) 
Branch_type_5  (8,2)  (9,1)  (10,3)  (11,5)  (12,3)  (13,14)  (14,16)  (15,11)  (16,20)  (17,11)  (18,16)  (19,12)  (20,10)  (21,13)  (22,42)  (23,26)  (24,36) 
Branch_type_6  (5,4)  (6,12)  (7,23)  (8,31)  (9,31)  (10,64)  (11,52)  (12,74)  (13,88)  (14,107)  (15,82)  (16,96)  (17,67)  (18,52)  (19,105)  (20,52)  (21,95)  (22,139)  (23,72)  (24,91)  (25,4)  (47,44) 
aaaaab1fc620: 2ac9e77e 2aca717c 2aca8eff 2acaf6bc 2acaf9aa 2acaf9f1 2acb1abc 2acb1b7f 2acd4e22 2acdb712 2acf5f9e 2ad0ef44 2ad3f15c 2ad414e6 2ad60e42 2ad8609c 2ad99830 2ada35cc 2ada4676 2ada6612 2adf183e 2adf30e5 2adf5602 2adf785c 2ae11572 2aeb2dcf 2aee101b 2aee1ae1 2b156a8c 2b156b61 2b156bea 2b167f35 2b177656 2b17feec 2b1a3e5a 
aaaaac68f310: 2ac9ec8c 2ac9fb44 2ac9fbd2 2aca59ab 2acac04c 2acaf6e0 2acaf6ec 2acaf6f9 2acaf700 2acaf708 2acf2d90 2ad3cfbd 2ad3cfc4 2ad3d000 2ad3f35f 2ad4955d 2ad49571 2ad4f3f2 2ad4f400 2ad5f240 2ad5f37c 2ad5f86a 2ad5f86f 2ad5f880 2ad5fc0d 2ad5fc14 2ad5fc21 2ad5fe1b 2ad873bb 2ad873e3 2ad8a6b2 2ad9086e 2ad93096 2ad9bbb2 2ada152c 2ada1554 2ada3332 2ada5522 2adf3130 2adf313c 2adf3a3f 2adf3bd9 2adf5788 2adf7a8d 2ae07f6b 2ae0857a 2ae0857e 2ae08630 2ae08634 2ae08637 2ae08642 2ae0866f 2ae086e4 2ae086ec 2ae08717 2ae0871b 2aee0170 2aee1d38 2aee75f4 2aee7662 2aee85ca 2aee85e4 2aee8eef 2af70b84 2af74e8f 2b17d843 
aaaaac690ef0: 2aca598b 2acb111b 2acb175f 2acb1772 2acbfaf4 2acbfb00 2acf374f 2acf6d43 2acfa5c8 2ad3baf1 2ad3d4ac 2ad3d4b8 2ad3f1cf 2ad486b2 2ad5a59b 2ad5fc64 2ad5fcf9 2ad6121c 2ad906e9 2ad907bf 2ad9bada 2ada16ce 2ada1ad5 2ada43df 2ada64c0 2ada72ee 2adeb71a 2adf3bcb 2adf7a38 2adf7c6a 2adf8872 2adf8880 2adf9959 2adf9abe 2ae07f78 2ae08503 2ae08754 2ae12e80 2aea3bea 2aecb509 2aee00b0 2aee2bdd 2aee5467 2aee5601 2aee8f20 2af703fd 2af7048b 2af74e74 
Unique trigger count: 
1 9413
2 488
3 85
4 29
5 8
6 7
7 8
8 1
9 4
10 1
11 1
12 2
13 3
16 2
17 2
19 3
35 1
48 1
66 1
BTB PER SET UNIQUE ADDR: 9 16 8 7 5 13 12 17 16 5 13 6 18 13 8 12 15 11 12 15 9 16 10 16 12 12 7 10 10 14 18 13 14 10 16 17 16 18 11 11 14 12 6 16 17 9 10 14 21 10 13 7 18 7 11 15 14 12 15 12 13 21 10 15 12 20 10 16 17 12 7 8 10 7 8 21 13 18 13 12 11 12 11 11 12 12 9 12 15 16 19 17 16 10 13 12 17 12 12 11 14 10 17 12 12 13 11 15 14 12 15 7 9 17 11 19 7 13 14 9 14 14 11 7 11 9 9 9 20 14 13 8 13 7 14 12 13 9 13 13 17 10 11 10 12 14 10 16 21 8 12 22 12 17 12 13 12 18 14 16 16 13 21 14 16 11 10 10 20 15 11 9 15 14 10 10 13 12 12 11 9 9 13 13 17 16 11 12 9 18 10 13 12 15 10 14 14 8 17 11 11 13 12 9 18 10 6 15 10 5 8 9 13 9 10 14 5 19 13 16 13 5 13 14 12 11 18 11 6 17 18 18 8 6 11 11 16 11 10 8 9 8 12 12 18 19 10 9 9 11 15 16 14 12 19 17 10 9 19 13 7 10 13 9 15 25 10 7 14 11 11 12 15 17 19 14 9 11 7 17 12 10 15 17 20 13 12 12 21 8 14 10 12 18 13 12 10 16 8 10 12 9 8 11 8 9 10 14 16 14 15 7 14 7 11 8 16 19 14 5 13 15 15 13 8 9 12 13 8 5 13 7 9 14 17 12 12 12 15 8 14 14 7 17 13 10 10 13 15 11 9 14 21 11 13 15 16 11 11 12 12 19 13 10 13 13 11 8 7 11 14 10 16 10 14 8 15 14 14 14 14 14 12 16 14 14 11 8 17 10 13 11 16 10 12 15 12 12 11 13 10 7 8 14 11 10 14 11 11 9 13 11 17 12 8 9 13 14 8 10 12 15 10 15 20 16 7 12 12 15 6 7 21 12 18 16 14 9 16 5 17 14 11 9 15 19 11 15 10 10 16 8 6 9 18 11 12 11 11 12 8 13 18 17 13 10 15 11 17 12 6 12 13 14 10 7 17 12 10 11 13 13 8 13 10 18 12 9 9 6 14 7 9 14 9 14 9 11 13 7 20 9 12 8 11 9 8 9 12 12 20 8 
BTB PER SET COUNT: 9 17 9 7 5 13 12 515 16 1463 17 430 29 13 8 13 15 11 13 1474 9 18 13 504 13 12 10 10 1468 14 1752 383 17 10 17 30 2932 2290 13 12 18 14 8 16 3780 11 10 14 5261 10 13 8 1845 7 11 16 14 12 15 116 13 6029 11 15 15 3978 11 17 6463 57 7 8 1470 7 9 5854 500 39 13 12 12 983 985 11 502 12 10 13 15 16 3866 508 18 2920 14 14 60 13 12 13 14 10 24 12 987 15 11 16 14 801 376 10 1467 44 11 3659 9 13 500 1467 16 17 12 7 498 9 9 9 5120 19 499 8 374 11 15 13 500 11 13 18 30 11 12 11 12 16 1470 16 14986 9 12 6295 12 5354 2931 989 13 79 503 17 18 15 7760 988 506 1955 600 10 6586 504 11 982 14607 1117 10 1829 1472 499 984 985 12 9 13 13 24 16 12 38 9 54 11 13 155 988 10 1478 987 1466 234 11 12 14 985 9 1490 673 6 2446 11 7 8 9 15 10 11 584 5 6276 13 16 984 7 15 14 12 11 829 1985 6 1494 278 4360 8 7 497 11 16 985 10 9 9 433 12 12 1612 5080 10 980 9 14 987 18 16 12 64 30 11 9 99 13 7 139 13 1468 1473 9547 982 7 14 11 11 12 15 41 102 17 446 11 7 93 16 10 227 36 6048 986 12 12 205 9 252 12 2443 1486 13 19 13 83 8 10 12 495 9 14 9 12 11 15 17 14 15 406 15 7 982 9 19 6295 16 5 13 16 36 15 9 9 13 14 248 5 989 1466 9 16 993 15 989 13 15 8 15 15 8 1569 986 10 10 21 15 12 9 14 7772 1954 15 990 22 11 11 57 12 71 16 12 18 13 13 9 8 12 15 10 17 16 15 8 16 14 15 17 14 15 12 136 18 14 11 8 2380 10 284 77 20 11 12 17 1475 13 11 13 10 8 9 15 12 984 2931 11 11 2314 15 11 549 13 979 10 132 14 8 1918 13 503 10 16 6930 23 15 12 13 16 6 978 2498 13 29 263 16 9 16 8 450 16 12 11 20 3245 13 986 10 497 17 8 7 9 37 11 12 11 497 12 981 375 40 27 1013 10 16 13 38 12 492 14 36 504 129 7 20465 13 11 13 14 14 8 499 13 522 270 390 9 6 15 7 9 14 9 20 10 11 1959 7 7998 378 1180 8 13 12 8 9 1487 14 725 8 
