Set 35: way: 00
Set 35: way: 11
Set 35: way: 22
Set 35: way: 33

*** ChampSim Multicore Out-of-Order Simulator ***

Warmup Instructions: 50000000
Simulation Instructions: 50000000
Number of CPUs: 1
LLC sets: 2048
LLC ways: 16
Off-chip DRAM Size: 4096 MB Channels: 1 Width: 64-bit Data Rate: 6400 MT/s
CPU 0 runs ./micro_traces/srv458.trace.gz
.gz
ITLB has LRU replacement policy
DTLB has LRU replacement policy
STLB has LRU replacement policy
L1I has LRU replacement policy
L1D has LRU replacement policy
Initialize SRRIP state for L2C
Initialize DRRIP state for LLC
Heartbeat CPU 0 instructions: 10000003 cycles: 2796799 heartbeat IPC: 3.57552 cumulative IPC: 3.57552 (Simulation time: 0 hr 1 min 43 sec) 
Heartbeat CPU 0 instructions: 20000000 cycles: 5593085 heartbeat IPC: 3.57617 cumulative IPC: 3.57584 (Simulation time: 0 hr 3 min 19 sec) 
Heartbeat CPU 0 instructions: 30000003 cycles: 8389712 heartbeat IPC: 3.57574 cumulative IPC: 3.57581 (Simulation time: 0 hr 4 min 56 sec) 
Heartbeat CPU 0 instructions: 40000001 cycles: 11185354 heartbeat IPC: 3.577 cumulative IPC: 3.57611 (Simulation time: 0 hr 6 min 32 sec) 
Heartbeat CPU 0 instructions: 50000003 cycles: 13979516 heartbeat IPC: 3.57889 cumulative IPC: 3.57666 (Simulation time: 0 hr 8 min 9 sec) 

Warmup complete CPU 0 instructions: 50000003 cycles: 13979516 (Simulation time: 0 hr 8 min 9 sec) 

Cycle: 20000000 FTQ IN: 56965568 FTQ occupancy: 17.7755 DECODE IN: 56965517 DECODE occupancy: 45.7693 ROB IN: 56965497 ROB occupancy: 281.231 ROB OUT: 56965432
Heartbeat CPU 0 instructions: 60000001 cycles: 22712166 heartbeat IPC: 1.14513 cumulative IPC: 1.14513 (Simulation time: 0 hr 9 min 30 sec) 
Cycle: 30000000 FTQ IN: 11490884 FTQ occupancy: 5.89073 DECODE IN: 11490926 DECODE occupancy: 13.1849 ROB IN: 11490931 ROB occupancy: 127.594 ROB OUT: 11490913
Heartbeat CPU 0 instructions: 70000002 cycles: 31327409 heartbeat IPC: 1.16073 cumulative IPC: 1.15288 (Simulation time: 0 hr 10 min 50 sec) 
Cycle: 40000000 FTQ IN: 11498254 FTQ occupancy: 5.89386 DECODE IN: 11498122 DECODE occupancy: 13.1439 ROB IN: 11498077 ROB occupancy: 125.561 ROB OUT: 11498043
Heartbeat CPU 0 instructions: 80000000 cycles: 40039910 heartbeat IPC: 1.14778 cumulative IPC: 1.15117 (Simulation time: 0 hr 12 min 11 sec) 
Heartbeat CPU 0 instructions: 90000003 cycles: 48646458 heartbeat IPC: 1.16191 cumulative IPC: 1.15384 (Simulation time: 0 hr 13 min 34 sec) 
Cycle: 50000000 FTQ IN: 11578629 FTQ occupancy: 5.76543 DECODE IN: 11578635 DECODE occupancy: 12.8788 ROB IN: 11578635 ROB occupancy: 125.014 ROB OUT: 11578404
Heartbeat CPU 0 instructions: 100000001 cycles: 57363442 heartbeat IPC: 1.14719 cumulative IPC: 1.1525 (Simulation time: 0 hr 14 min 52 sec) 
Finished CPU 0 instructions: 50000002 cycles: 43383927 cumulative IPC: 1.1525 (Simulation time: 0 hr 14 min 52 sec) 

ChampSim completed all CPUs

Region of Interest Statistics

CPU 0 cumulative IPC: 1.1525 instructions: 50000002 cycles: 43383927
 Fetch stage stalled: 72.5436  Sim cycles: 43383927 fetch stall cycle: 31472242
 Empty decode stage: 67.2423  Sim cycles: 43383927 fetch stall cycle: 29172349
ITLB TOTAL     ACCESS:    9177562  HIT:    8679460  MISS:     498102  HIT %:    94.5726  MISS %:    5.42739   MPKI: 9.96204
ITLB LOAD TRANSLATION INSTRUCTION	ACCESS:    5878925  HIT:    5457772  MISS:     421153  HIT %:    92.8362  MISS %:    7.16378  MPKI: 8.42306
ITLB TRANSLATION FROM L1D PREFETCHER INSTRUCTION	ACCESS:    3298637  HIT:    3221688  MISS:      76949  HIT %:    97.6672  MISS %:    2.33275  MPKI: 1.53898

ITLB AVERAGE MISS LATENCY: 2.90018e+07 cycles
ITLB RQ	ACCESS:   11245342	FORWARD:          0	MERGED:    1299753	TO_CACHE:    9945589

DTLB TOTAL     ACCESS:    9398373  HIT:    8923825  MISS:     474548  HIT %:    94.9507  MISS %:    5.04926   MPKI: 9.49096
DTLB LOAD TRANSLATION DATA	ACCESS:    9398373  HIT:    8923825  MISS:     474548  HIT %:    94.9507  MISS %:    5.04926  MPKI: 9.49096

DTLB AVERAGE MISS LATENCY: 9.32305 cycles
DTLB RQ	ACCESS:   13674064	FORWARD:          0	MERGED:    4242519	TO_CACHE:    9431545

STLB TOTAL     ACCESS:    1225223  HIT:    1223100  MISS:       2123  HIT %:    99.8267  MISS %:   0.173275   MPKI: 0.04246
STLB LOAD TRANSLATION INSTRUCTION	ACCESS:      15698  HIT:      15674  MISS:         24  HIT %:    99.8471  MISS %:   0.152886  MPKI: 0.00048
STLB TRANSLATION FROM L1D PREFETCHER INSTRUCTION	ACCESS:     482404  HIT:     482107  MISS:        297  HIT %:    99.9384  MISS %:  0.0615667  MPKI: 0.00594
STLB LOAD TRANSLATION DATA	ACCESS:     474447  HIT:     472655  MISS:       1792  HIT %:    99.6223  MISS %:   0.377703  MPKI: 0.03584
STLB TRANSLATION FROM L1D PREFETCHER DATA	ACCESS:     252674  HIT:     252664  MISS:         10  HIT %:     99.996  MISS %: 0.00395767  MPKI: 0.0002

STLB AVERAGE MISS LATENCY: 74.4918 cycles
STLB RQ	ACCESS:    1344760	FORWARD:          0	MERGED:     119501	TO_CACHE:    1225259

STLB Hit, L1D data hit: 0
STLB Hit, L2C data hit: 0
STLB Hit, LLC data hit: 0
STLB Hit, LLC data miss: 0
STLB STLB hints to L2: 0
L1D TOTAL     ACCESS:   13431709  HIT:   12314431  MISS:    1117278  HIT %:    91.6818  MISS %:    8.31821   MPKI: 22.3456
L1D LOAD DATA	ACCESS:    6861412  HIT:    6127009  MISS:     734403  HIT %:    89.2966  MISS %:    10.7034  MPKI: 14.6881
L1D RFO DATA	ACCESS:    6239794  HIT:    5952833  MISS:     286961  HIT %:    95.4011  MISS %:    4.59889  MPKI: 5.73922
L1D PREFETCH DATA	ACCESS:     330503  HIT:     234589  MISS:      95914  HIT %:    70.9794  MISS %:    29.0206  MPKI: 1.91828

L1D PREFETCH  REQUESTED:     744495  ISSUED:     744495  USEFUL:      36379  USELESS:      68659
L1D USEFUL LOAD PREFETCHES:      36379 PREFETCH ISSUED TO LOWER LEVEL:     105107  ACCURACY: 34.6114
 TIMELY PREFETCHES:      36379 LATE PREFETCHES: 9144 DROPPED PREFETCHES: 8
L1D AVERAGE MISS LATENCY: 296511 cycles
L1D RQ	ACCESS:   10919003	FORWARD:          0	MERGED:    3858464	TO_CACHE:    6896872
L1D WQ	ACCESS:    6950203	FORWARD:     163952	MERGED:     173011	TO_CACHE:    6777192
L1D PQ	ACCESS:     372390	FORWARD:          0	MERGED:          0	TO_CACHE:     372105

L1D UNIQUE REGIONS ACCESSED: 0
L1D REGIONS CONFLICTS: 0
L1D Cross Page Prefetch Requests: 5255
L1D Same Page Prefetch Requests: 751982
L1D ROI Sum of L1D PQ occupancy: 4732024
L1D PREFETCHES PUSHED FROM L2C: 0
L1I TOTAL     ACCESS:    9785103  HIT:    7020275  MISS:    2764828  HIT %:    71.7445  MISS %:    28.2555   MPKI: 55.2966
L1I LOAD INSTRUCTION	ACCESS:    6739525  HIT:    4237438  MISS:    2502087  HIT %:    62.8744  MISS %:    37.1256  MPKI: 50.0417
L1I PREFETCH INSTRUCTION	ACCESS:    3045578  HIT:    2782837  MISS:     262741  HIT %:     91.373  MISS %:    8.62697  MPKI: 5.25482

L1I PREFETCH  REQUESTED:    4595712  ISSUED:    4595712  USEFUL:    1026739  USELESS:       1922
L1I USEFUL LOAD PREFETCHES:    1026739 PREFETCH ISSUED TO LOWER LEVEL:    1028653  ACCURACY: 99.8139
 TIMELY PREFETCHES:    1026739 LATE PREFETCHES: 765912 DROPPED PREFETCHES: 1
L1I AVERAGE MISS LATENCY: 9.87599e+06 cycles
L1I RQ	ACCESS:    9443715	FORWARD:          0	MERGED:    2547571	TO_CACHE:    6896144
L1I PQ	ACCESS:    4595712	FORWARD:          0	MERGED:     246514	TO_CACHE:    4349198

BTB TOTAL     ACCESS:    6743217  HIT:    6197869  MISS:     470787  MISS TARGET:      74561  HIT %:    91.9126  MISS %:    6.98164   MPKI: 9.41574
BTB BRANCH_DIRECT_JUMP	ACCESS:     548696  HIT:     510152  MISS:      32499  MISS TARGET:       6045	AVERAGE STALL: 29.3387
BTB BRANCH_INDIRECT	ACCESS:     183287  HIT:     168319  MISS:       2570  MISS TARGET:      12398	AVERAGE STALL: 74.8586
BTB BRANCH_CONDITIONAL	ACCESS:    3785021  HIT:    3474766  MISS:     310196  MISS TARGET:         59	AVERAGE STALL: 33.7185
BTB BRANCH_DIRECT_CALL	ACCESS:     941975  HIT:     862819  MISS:      79154  MISS TARGET:          2	AVERAGE STALL: 35.103
BTB BRANCH_INDIRECT_CALL	ACCESS:     171131  HIT:     140702  MISS:      12267  MISS TARGET:      18162	AVERAGE STALL: 111.013
BTB BRANCH_RETURN	ACCESS:    1113107  HIT:    1041111  MISS:      34101  MISS TARGET:      37895	AVERAGE STALL: 34.6185
BTB BRANCH_OTHER ACCESS:          0  HIT:          0  MISS:          0  MISS TARGET:          0	AVERAGE STALL: -nan
L2C TOTAL     ACCESS:    5409087  HIT:    4775218  MISS:     633869  HIT %:    88.2814  MISS %:    11.7186   MPKI: 12.6774
L2C LOAD INSTRUCTION	ACCESS:    1736175  HIT:    1556116  MISS:     180059  HIT %:     89.629  MISS %:     10.371  MPKI: 3.60118
L2C PREFETCH INSTRUCTION	ACCESS:    1028653  HIT:     913410  MISS:     115243  HIT %:    88.7967  MISS %:    11.2033  MPKI: 2.30486
L2C LOAD TRANSLATION INSTRUCTION	ACCESS:         31  HIT:         16  MISS:         15  HIT %:    51.6129  MISS %:    48.3871  MPKI: 0.0003
L2C TRANSLATION FROM L1D PREFETCHER INSTRUCTION	ACCESS:        339  HIT:         76  MISS:        263  HIT %:    22.4189  MISS %:    77.5811  MPKI: 0.00526
L2C LOAD DATA	ACCESS:     725238  HIT:     627232  MISS:      98006  HIT %:    86.4864  MISS %:    13.5136  MPKI: 1.96012
L2C RFO DATA	ACCESS:     286876  HIT:     219047  MISS:      67829  HIT %:     76.356  MISS %:     23.644  MPKI: 1.35658
L2C PREFETCH DATA	ACCESS:    1108255  HIT:     961755  MISS:     146500  HIT %:     86.781  MISS %:     13.219  MPKI: 2.93
L2C WRITEBACK DATA	ACCESS:     521618  HIT:     497039  MISS:      24579  HIT %:    95.2879  MISS %:    4.71207  MPKI: 0.49158
L2C LOAD TRANSLATION DATA	ACCESS:       1880  HIT:        510  MISS:       1370  HIT %:    27.1277  MISS %:    72.8723  MPKI: 0.0274
L2C TRANSLATION FROM L1D PREFETCHER DATA	ACCESS:         22  HIT:         17  MISS:          5  HIT %:    77.2727  MISS %:    22.7273  MPKI: 0.0001

L2C PREFETCH  REQUESTED:    1111203  ISSUED:    1111203  USEFUL:      37588  USELESS:     238857
L2C USEFUL LOAD PREFETCHES:      37588 PREFETCH ISSUED TO LOWER LEVEL:     275458  ACCURACY: 13.6456
 TIMELY PREFETCHES:      37588 LATE PREFETCHES: 13711 DROPPED PREFETCHES: 0
L2C AVERAGE MISS LATENCY: 36.5489 cycles
L2C RQ	ACCESS:    2750618	FORWARD:          0	MERGED:          0	TO_CACHE:    2750561
L2C WQ	ACCESS:     521618	FORWARD:         58	MERGED:          0	TO_CACHE:     521618
L2C PQ	ACCESS:    2244963	FORWARD:          0	MERGED:      63229	TO_CACHE:    2181733

L2C Dense regions hint from L2: 0
PSCL5 TOTAL     ACCESS:       4272  HIT:       2136  MISS:       2136  HIT %:         50  MISS %:         50   MPKI: 0.04272
PSCL5 LOAD TRANSLATION INSTRUCTION	ACCESS:       3624  HIT:       1812  MISS:       1812  HIT %:         50  MISS %:         50  MPKI: 0.03624
PSCL5 TRANSLATION FROM L1D PREFETCHER INSTRUCTION	ACCESS:        648  HIT:        324  MISS:        324  HIT %:         50  MISS %:         50  MPKI: 0.00648


PSCL4 TOTAL     ACCESS:       3996  HIT:       1992  MISS:       2004  HIT %:    49.8498  MISS %:    50.1502   MPKI: 0.04008
PSCL4 LOAD TRANSLATION INSTRUCTION	ACCESS:       1968  HIT:       1686  MISS:        282  HIT %:    85.6707  MISS %:    14.3293  MPKI: 0.00564
PSCL4 TRANSLATION FROM L1D PREFETCHER INSTRUCTION	ACCESS:        451  HIT:        306  MISS:        145  HIT %:    67.8492  MISS %:    32.1508  MPKI: 0.0029
PSCL4 LOAD TRANSLATION DATA	ACCESS:       1416  HIT:          0  MISS:       1416  HIT %:          0  MISS %:        100  MPKI: 0.02832
PSCL4 TRANSLATION FROM L1D PREFETCHER DATA	ACCESS:        161  HIT:          0  MISS:        161  HIT %:          0  MISS %:        100  MPKI: 0.00322


PSCL3 TOTAL     ACCESS:       4128  HIT:       2058  MISS:       2070  HIT %:    49.8547  MISS %:    50.1453   MPKI: 0.0414
PSCL3 LOAD TRANSLATION INSTRUCTION	ACCESS:       2034  HIT:       1752  MISS:        282  HIT %:    86.1357  MISS %:    13.8643  MPKI: 0.00564
PSCL3 TRANSLATION FROM L1D PREFETCHER INSTRUCTION	ACCESS:        451  HIT:        306  MISS:        145  HIT %:    67.8492  MISS %:    32.1508  MPKI: 0.0029
PSCL3 LOAD TRANSLATION DATA	ACCESS:       1482  HIT:          0  MISS:       1482  HIT %:          0  MISS %:        100  MPKI: 0.02964
PSCL3 TRANSLATION FROM L1D PREFETCHER DATA	ACCESS:        161  HIT:          0  MISS:        161  HIT %:          0  MISS %:        100  MPKI: 0.00322


PSCL2 TOTAL     ACCESS:       4157  HIT:       2023  MISS:       2134  HIT %:    48.6649  MISS %:    51.3351   MPKI: 0.04268
PSCL2 LOAD TRANSLATION INSTRUCTION	ACCESS:       1786  HIT:       1730  MISS:         56  HIT %:    96.8645  MISS %:     3.1355  MPKI: 0.00112
PSCL2 TRANSLATION FROM L1D PREFETCHER INSTRUCTION	ACCESS:        563  HIT:        293  MISS:        270  HIT %:    52.0426  MISS %:    47.9574  MPKI: 0.0054
PSCL2 LOAD TRANSLATION DATA	ACCESS:       1785  HIT:          0  MISS:       1785  HIT %:          0  MISS %:        100  MPKI: 0.0357
PSCL2 TRANSLATION FROM L1D PREFETCHER DATA	ACCESS:         23  HIT:          0  MISS:         23  HIT %:          0  MISS %:        100  MPKI: 0.00046


LLC TOTAL     ACCESS:     710353  HIT:     679712  MISS:      30641  HIT %:    95.6865  MISS %:    4.31349   MPKI: 0.61282
LLC LOAD INSTRUCTION	ACCESS:     167131  HIT:     166507  MISS:        624  HIT %:    99.6266  MISS %:    0.37336  MPKI: 0.01248
LLC PREFETCH INSTRUCTION	ACCESS:     113878  HIT:     113491  MISS:        387  HIT %:    99.6602  MISS %:   0.339837  MPKI: 0.00774
LLC LOAD TRANSLATION INSTRUCTION	ACCESS:         15  HIT:         12  MISS:          3  HIT %:         80  MISS %:         20  MPKI: 6e-05
LLC TRANSLATION FROM L1D PREFETCHER INSTRUCTION	ACCESS:        263  HIT:        219  MISS:         44  HIT %:      83.27  MISS %:      16.73  MPKI: 0.00088
LLC LOAD DATA	ACCESS:      97337  HIT:      93775  MISS:       3562  HIT %:    96.3405  MISS %:    3.65945  MPKI: 0.07124
LLC RFO DATA	ACCESS:      67709  HIT:      52323  MISS:      15386  HIT %:    77.2763  MISS %:    22.7237  MPKI: 0.30772
LLC PREFETCH DATA	ACCESS:     161578  HIT:     151385  MISS:      10193  HIT %:    93.6916  MISS %:    6.30841  MPKI: 0.20386
LLC WRITEBACK DATA	ACCESS:     101067  HIT:     100702  MISS:        365  HIT %:    99.6389  MISS %:   0.361147  MPKI: 0.0073
LLC LOAD TRANSLATION DATA	ACCESS:       1370  HIT:       1294  MISS:         76  HIT %:    94.4526  MISS %:    5.54745  MPKI: 0.00152
LLC TRANSLATION FROM L1D PREFETCHER DATA	ACCESS:          5  HIT:          4  MISS:          1  HIT %:         80  MISS %:         20  MPKI: 2e-05

LLC AVERAGE MISS LATENCY: 159.324 cycles
LLC RQ	ACCESS:     333836	FORWARD:          0	MERGED:          0	TO_CACHE:     333829
LLC WQ	ACCESS:     101067	FORWARD:          7	MERGED:          0	TO_CACHE:     101067
LLC PQ	ACCESS:     275458	FORWARD:          0	MERGED:          0	TO_CACHE:     275458

LLC Dense regions hint to LLC: 0

RAW hits: 1724107
Loads Generated: 12643109
Loads sent to L1D: 10919003
Stores Generated: 6950194
Stores sent to L1D: 6950203
Major fault: 0 Minor fault: 2546
Allocated PAGES: 2546

stream: 
stream:times selected: 1185665
stream:pref_filled: 121266
stream:pref_useful: 23104
stream:pref_late: 8565
stream:misses: 8052
stream:misses_by_poll: 0

CS: 
CS:times selected: 180463
CS:pref_filled: 58870
CS:pref_useful: 35836
CS:pref_late: 9168
CS:misses: 18573
CS:misses_by_poll: 2

CPLX: 
CPLX:times selected: 1004069
CPLX:pref_filled: 19532
CPLX:pref_useful: 4034
CPLX:pref_late: 4137
CPLX:misses: 96373
CPLX:misses_by_poll: 0

NL_L1: 
NL:times selected: 13924
NL:pref_filled: 459
NL:pref_useful: 163
NL:pref_late: 293
NL:misses: 1111
NL:misses_by_poll: 0

total selections: 2384121
total_filled: 95914
total_useful: 36379
total_late: 23526
total_polluted: 2
total_misses_after_warmup: 769865
conflicts: 5667079

test: 115820

DRAM Statistics
 CHANNEL 0
 RQ ROW_BUFFER_HIT:      11319  ROW_BUFFER_MISS:      18948
 DBUS_CONGESTED:         10
 WQ ROW_BUFFER_HIT:       1537  ROW_BUFFER_MISS:      12973  FULL:          0

 AVG_CONGESTED_CYCLE: 4

CPU 0 Branch Prediction Accuracy: 99.8221% MPKI: 0.32518 Average ROB Occupancy at Mispredict: 150.616
Branch types
NOT_BRANCH: 40857665 81.7153%
BRANCH_DIRECT_JUMP: 548696 1.09739%
BRANCH_INDIRECT: 183287 0.366574%
BRANCH_CONDITIONAL: 6183761 12.3675%
BRANCH_DIRECT_CALL: 941975 1.88395%
BRANCH_INDIRECT_CALL: 171131 0.342262%
BRANCH_RETURN: 1113107 2.22621%
BRANCH_OTHER: 0 0%

DRAM PAGES: 1048576
Allocated PAGES: 2546
Average_ROB_Occupancy: 127.175
Average_Decode_Occupancy: 13.044
Average_FTQ_Occupancy: 5.8455
Indirect max targets: 14 Average targets: 1.15333
Branch_type:  BRANCH_DIRECT_JUMP:  Count Percentage: 3.40006 4.37771 5.9939 14.4965 1.69574 6.58067 0.939743 62.5157 
Branch_type:  BRANCH_INDIRECT:  Count Percentage: 11.7695 3.45676 12.1929 23.3643 1.33933 14.5217 1.07403 32.2815 
Branch_type:  BRANCH_CONDITIONAL:  Count Percentage: 21.2334 2.50698 3.0038 8.91859 1.3434 4.7309 0.583102 57.6798 
Branch_type:  BRANCH_DIRECT_CALL:  Count Percentage: 0.767899 1.27784 1.42731 4.94758 2.44448 2.72251 0.774411 85.638 
Branch_type:  BRANCH_INDIRECT_CALL:  Count Percentage: 9.57335 0.565196 3.00116 4.85357 0.000582977 3.56811 0 78.438 
Branch_type:  BRANCH_RETURN:  Count Percentage: 4.46581 0.698494 3.51495 9.43406 2.12679 5.28695 1.01253 73.4604 
Branch_type:  BRANCH_DIRECT_JUMP:  Total Count: 37230 47935 65632 158734 18568 72057 10290 684534 
Branch_type:  BRANCH_INDIRECT:  Total Count: 43033 12639 44581 85427 4897 53096 3927 118031 
Branch_type:  BRANCH_CONDITIONAL:  Total Count: 2623851 309792 371185 1102086 166006 584606 72055 7127597 
Branch_type:  BRANCH_DIRECT_CALL:  Total Count: 14503 24134 26957 93443 46168 51419 14626 1617411 
Branch_type:  BRANCH_INDIRECT_CALL:  Total Count: 32843 1939 10296 16651 2 12241 0 269095 
Branch_type:  BRANCH_RETURN:  Total Count: 99700 15594 78472 210617 47481 118032 22605 1640017 
To Predecode: 22806519 Predecode_something: 34009808 Conditional: 14594418 Direct call: 8440774 Direct Branch: 3789166
Number of unique branch instructions: 9934
Upper 32 bits: 
aaaa
ffff
ffff0000
Unique upper 32 bits: 3
Unique upper 36 bits: 3
Unique upper 40 bits: 5
Unique upper 44 bits: 32
Unique upper 48 bits: 156
Offset_3 4093
Offset_4 256
Offset_5 454
Offset_6 502
Offset_7 580
Offset_8 509
Offset_9 474
Offset_10 383
Offset_11 310
Offset_12 273
Offset_13 202
Offset_14 226
Offset_15 188
Offset_16 218
Offset_17 149
Offset_18 118
Offset_19 234
Offset_20 136
Offset_21 261
Offset_22 390
Offset_23 241
Offset_24 340
Offset_25 88
Offset_47 84
Offset_64 2
decode_dispatch_called: 22003062 50.7171
Dispatch_width: 0 11604903 52.7422 26.7493
Dispatch_width: 1 618022 2.8088 1.42454
Dispatch_width: 2 897426 4.07864 2.06857
Dispatch_width: 3 567600 2.57964 1.30832
Dispatch_width: 4 1801674 8.18829 4.15286
Dispatch_width: 5 403255 1.83272 0.929503
Dispatch_width: 6 6110182 27.7697 14.084
Empty_decode_cycles: 21380865 49.2829
ROB_full_cycles: 2258995 5.20699
Starvation_cycles_per_kilo_instr: 350.147
Starvation_cycles_per_kilo_instr_3: 328.098
Starvation_cycles_per_kilo_instr_0: 307.268
Branch_type_1  (3,1)  (4,8)  (5,38)  (6,69)  (7,115)  (8,129)  (9,128)  (10,100)  (11,69)  (12,43)  (13,8)  (14,2)  (15,3)  (16,4)  (18,1)  (19,4)  (20,2)  (21,1)  (22,3)  (23,2)  (24,10)  (25,12) 
Branch_type_2  (3,1)  (5,1)  (8,3)  (9,3)  (12,1)  (13,1)  (14,1)  (16,3)  (17,2)  (20,2)  (21,2)  (23,5)  (24,1)  (47,38) 
Branch_type_3  (3,4091)  (4,248)  (5,411)  (6,418)  (7,435)  (8,319)  (9,261)  (10,154)  (11,123)  (12,50)  (13,7)  (64,1) 
Branch_type_4  (6,3)  (7,8)  (8,25)  (9,50)  (10,60)  (11,61)  (12,96)  (13,85)  (14,100)  (15,89)  (16,97)  (17,67)  (18,53)  (19,114)  (20,70)  (21,141)  (22,206)  (23,136)  (24,191)  (25,72)  (64,1) 
Branch_type_5  (8,2)  (9,1)  (10,4)  (11,5)  (12,3)  (13,14)  (14,16)  (15,11)  (16,20)  (17,11)  (18,16)  (19,13)  (20,11)  (21,13)  (22,42)  (23,26)  (24,40) 
Branch_type_6  (5,4)  (6,12)  (7,22)  (8,31)  (9,31)  (10,65)  (11,52)  (12,80)  (13,87)  (14,107)  (15,85)  (16,94)  (17,69)  (18,48)  (19,103)  (20,51)  (21,104)  (22,139)  (23,72)  (24,98)  (25,4)  (47,46) 
Unique trigger count: 
UBTB set used: 957
CBTB set used: 512
RIB set used: 459
UBTB PER SET UNIQUE ADDR: 6 3 3 3 3 3 4 4 4 2 1 6 3 4 3 3 0 1 2 0 4 1 3 2 3 1 0 4 2 4 2 4 2 2 3 1 3 5 1 3 2 1 3 0 6 1 4 4 2 2 3 2 4 0 3 4 4 1 4 0 2 4 5 0 3 4 1 3 2 4 3 1 5 3 2 1 5 1 2 6 2 6 5 1 4 0 2 2 3 2 2 3 4 1 4 5 5 4 7 0 7 6 1 4 2 4 6 2 3 2 5 5 4 5 3 2 1 2 2 5 0 5 0 4 2 3 2 1 7 3 2 2 5 2 1 3 5 2 3 5 4 1 3 2 1 3 2 1 4 0 5 3 2 5 4 2 6 4 5 4 3 4 4 4 4 1 3 3 2 2 0 3 3 1 2 0 3 5 0 3 3 3 1 2 4 3 2 3 3 3 1 4 6 1 3 3 3 2 2 1 2 5 0 1 4 1 2 3 1 0 3 2 4 2 1 4 1 3 1 3 2 0 2 3 2 0 3 4 3 4 2 1 4 2 2 4 4 3 1 6 2 3 4 3 2 1 3 3 1 5 2 4 0 2 2 1 4 1 1 2 4 1 2 4 4 2 0 5 2 0 0 3 2 3 4 1 5 6 2 5 5 2 2 2 3 1 4 2 6 1 4 0 4 3 6 0 2 2 1 1 3 3 4 2 1 0 2 0 0 0 3 1 3 4 2 2 4 2 3 2 3 2 4 3 1 2 3 2 1 3 4 3 4 1 5 3 4 2 1 2 6 5 2 3 1 2 4 3 2 3 2 3 2 1 3 4 3 1 1 0 2 1 1 2 4 2 3 1 4 1 5 4 3 0 0 2 1 0 3 4 3 2 3 1 1 3 1 5 2 2 1 4 2 3 1 7 1 2 1 2 2 6 4 2 3 6 2 4 2 4 2 4 5 3 3 0 3 2 3 3 0 3 0 1 2 2 3 3 3 1 3 1 2 3 1 4 4 1 5 5 2 3 1 3 4 6 2 5 1 2 3 2 1 3 1 2 3 5 5 5 6 3 3 7 4 1 0 4 2 3 1 1 4 3 3 4 2 3 1 1 3 1 1 3 6 3 2 2 0 1 3 1 2 5 1 2 2 2 5 5 7 2 3 3 2 4 2 2 2 3 2 4 4 3 2 4 2 3 5 2 3 4 1 2 0 2 1 3 3 4 5 4 2 2 3 3 4 3 2 2 6 1 7 1 1 2 2 5 7 4 2 2 1 3 1 6 2 0 2 1 7 2 2 2 3 1 2 5 3 3 1 0 1 3 4 2 4 3 7 2 4 2 4 2 4 3 2 3 3 5 4 5 1 1 5 1 3 3 3 5 3 3 6 2 5 3 5 4 2 2 5 6 2 5 2 6 1 1 1 7 4 1 4 3 1 4 1 2 3 1 3 2 7 3 3 2 4 2 3 3 5 2 1 0 3 2 1 3 0 1 2 3 3 1 2 4 3 2 1 2 3 6 5 1 2 2 0 2 2 3 2 1 1 2 1 2 5 4 4 1 4 3 2 5 3 2 0 4 0 0 2 3 0 2 1 1 2 3 2 1 3 3 2 2 2 1 3 3 4 1 2 6 3 4 1 4 2 3 3 3 0 1 0 1 1 3 3 3 2 2 2 2 2 1 2 5 4 5 1 3 3 4 0 1 5 6 3 3 6 3 5 5 4 2 2 3 3 4 0 2 2 4 3 2 3 2 0 3 4 4 4 4 2 2 1 1 3 4 1 2 3 2 2 3 3 0 3 3 4 1 1 3 4 1 2 1 3 0 3 3 5 1 1 2 2 4 0 0 2 1 2 5 0 5 1 0 5 1 3 6 2 3 2 3 2 1 2 3 1 1 5 1 2 1 0 1 6 1 4 1 1 2 3 2 4 3 0 4 2 4 2 6 3 4 2 2 7 1 2 7 4 4 3 6 1 2 2 3 4 4 4 3 4 2 2 6 5 3 2 1 2 2 6 2 2 3 4 2 2 4 2 4 4 5 5 2 4 1 3 4 4 2 7 4 4 4 2 5 1 2 3 1 3 6 4 4 2 1 3 3 5 2 2 4 5 4 3 3 1 1 2 6 2 1 5 5 3 1 4 4 4 1 1 4 3 1 5 1 2 6 3 1 3 3 1 5 4 5 1 6 4 4 5 3 5 4 1 3 1 0 0 4 4 1 1 2 4 2 4 6 0 2 2 2 2 3 2 3 2 5 1 2 7 2 1 5 3 2 1 1 1 4 4 0 2 1 4 4 3 3 2 3 0 3 4 2 0 5 5 2 8 3 7 1 
CBTB PER SET UNIQUE ADDR: 7 14 10 12 11 12 9 5 13 5 12 8 6 6 12 9 8 9 8 9 12 6 5 9 12 11 12 9 8 5 8 5 15 8 9 8 8 8 12 10 10 12 7 8 10 16 9 13 12 14 7 12 11 6 11 10 8 12 10 7 10 12 11 5 9 12 10 6 10 10 11 10 7 10 11 11 14 14 9 11 8 12 7 7 11 15 12 14 7 11 11 7 9 11 10 8 10 14 12 11 4 19 10 14 10 13 14 13 8 14 6 10 9 13 8 12 10 12 14 9 11 6 5 11 8 14 9 7 10 11 14 20 9 8 8 12 10 10 13 11 9 11 11 6 11 12 7 14 14 8 14 19 4 9 10 4 9 5 9 8 8 4 12 11 5 7 6 8 14 7 11 4 15 6 12 9 6 7 3 10 8 7 3 9 9 10 10 8 6 5 4 13 12 7 5 7 12 12 12 11 8 12 9 7 8 9 9 4 9 13 9 6 3 12 10 9 13 4 5 3 10 12 9 11 6 10 10 7 8 14 6 7 13 12 6 9 11 13 4 6 13 7 9 7 8 8 10 6 13 5 6 6 12 9 7 6 13 11 9 13 5 13 11 7 10 15 6 6 10 9 6 10 9 11 10 11 10 8 10 4 10 8 12 10 9 8 11 4 10 17 12 11 12 6 10 7 8 12 7 12 6 7 10 13 13 18 10 6 8 11 13 11 8 13 13 8 9 8 6 8 9 6 11 17 6 3 10 10 10 9 12 13 9 9 9 10 13 7 9 14 10 12 7 10 9 9 12 8 11 7 6 11 4 12 11 10 10 11 10 6 14 7 5 7 6 14 13 7 7 12 6 9 11 10 9 15 9 12 12 4 14 9 15 10 11 8 4 13 10 16 12 10 11 12 9 10 8 11 8 6 13 5 11 13 7 6 8 8 15 9 9 12 13 8 10 12 9 10 11 7 9 13 11 20 7 13 8 7 13 11 6 13 9 9 8 7 5 12 13 11 14 9 12 6 13 14 7 13 9 10 16 11 12 12 10 7 10 11 8 17 10 9 8 13 11 9 8 5 7 11 9 10 12 9 9 9 7 11 11 9 6 12 11 15 9 9 12 11 8 11 10 12 5 15 4 15 16 6 8 13 6 15 15 7 10 7 9 8 12 13 11 10 
RIB PER SET UNIQUE ADDR: 2 5 4 1 2 3 2 2 1 2 2 4 2 3 0 1 4 2 0 2 2 1 5 4 1 3 2 2 1 0 2 0 1 3 3 4 1 5 0 2 1 3 2 1 2 4 2 3 3 1 0 2 2 3 0 1 3 4 3 2 1 1 2 1 3 6 3 0 2 2 2 3 0 2 3 0 1 3 2 3 0 1 4 4 2 1 0 4 4 2 0 1 2 2 2 4 3 3 0 0 2 2 1 4 0 1 5 2 3 4 2 1 1 4 2 2 0 5 2 7 2 1 3 4 1 1 1 2 1 4 2 3 4 3 0 2 1 2 5 4 1 2 3 5 2 3 4 2 4 1 3 2 2 2 2 1 4 1 0 2 3 1 1 2 3 0 1 1 4 2 1 1 3 1 0 3 0 2 2 2 2 0 3 2 6 1 3 4 2 1 1 2 3 1 2 3 3 0 4 2 3 2 3 3 1 5 2 4 1 5 2 2 0 3 3 0 5 0 4 2 2 3 2 1 2 4 2 3 1 1 2 4 1 4 0 3 2 2 1 5 2 0 3 1 5 3 5 0 3 2 3 0 4 2 1 4 4 2 1 1 2 0 2 2 3 2 0 4 4 3 1 2 0 1 4 3 0 2 2 1 2 2 2 1 3 0 2 5 2 2 2 5 1 1 2 5 1 3 3 1 3 3 3 4 2 3 2 3 2 3 3 5 1 1 0 3 2 3 1 3 3 4 5 5 1 3 3 4 1 1 5 3 4 5 6 2 1 0 2 2 0 1 7 2 5 4 6 2 0 5 3 3 3 1 5 1 6 2 5 2 0 2 4 1 4 6 0 0 4 3 2 4 2 3 4 3 1 3 0 1 2 1 3 2 0 5 1 0 3 2 2 4 1 4 1 2 4 7 2 3 3 1 1 1 3 3 4 1 3 1 2 1 3 1 1 3 5 1 1 0 1 4 4 3 2 5 0 1 3 1 2 2 2 2 3 2 3 3 2 3 1 4 4 3 5 2 3 1 1 5 3 1 2 3 2 4 1 1 2 3 3 1 2 2 3 3 2 5 1 0 3 0 2 1 2 2 1 9 6 3 3 1 0 5 1 1 3 0 1 3 2 3 0 5 1 1 2 2 3 1 2 2 3 3 2 1 1 3 1 3 2 2 
UBTB PER SET COUNT: 7 3 3 3 3 3 4 4 4 2 1 2437 3 4 3 3 0 1 2 0 4 1 3 2 3 1 0 4 2 4 2 4 2 2 3 1 3 355 1 3 2 1 3 0 2911 1 4 4 2 2 3 2 4 0 3 4 4 1 4 0 2 4 2205 0 3 4 1 3 2 4 3 1 508 3 2 1 6 1 2 981 2 34 1193 1 4 0 2 2 3 2 2 3 4 1 4 6 1241 4 2916 0 2912 34 1 4 2 4 2910 2 3 2 973 27 4 7 3 2 1 2 2 18 0 1457 0 4 2 3 2 1 2911 3 2 2 1666 2 1 3 1459 2 3 6 4 1 3 2 1 3 2 1 4 0 29 3 2 1690 4 2 1943 4 1457 4 3 4 4 4 4 1 3 3 2 2 0 3 3 1 2 0 3 13 0 3 3 3 1 2 4 3 2 3 3 3 1 4 2673 1 3 3 3 2 2 1 2 1457 0 1 4 1 2 3 1 0 3 2 4 2 1 4 1 3 1 3 2 0 2 3 2 0 3 4 3 4 2 1 4 2 2 4 4 3 1 2419 2 3 4 3 2 1 3 3 1 1458 2 4 0 2 2 1 4 1 1 2 4 1 2 4 4 2 0 1458 2 0 0 3 2 3 4 1 7 994 2 621 520 2 2 2 3 1 4 2 999 1 4 0 4 3 2911 0 2 2 1 1 3 3 4 2 1 0 2 0 0 0 3 1 3 4 2 2 4 2 3 2 3 2 4 3 1 2 3 2 1 3 4 3 4 1 19 3 4 2 1 2 1030 24 2 3 1 2 4 3 2 3 2 3 2 1 3 4 3 1 1 0 2 1 1 2 4 2 3 1 4 1 32 4 3 0 0 2 1 0 3 4 3 2 3 1 1 3 1 1449 2 2 1 4 2 3 1 4432 1 2 1 2 2 7857 4 2 3 5920 2 4 2 4 2 4 1312 3 3 0 3 2 3 3 0 3 0 1 2 2 3 3 3 1 3 1 2 3 1 4 4 1 1942 118 2 3 1 3 4 3994 2 992 1 2 3 2 1 3 1 2 3 2384 984 24 2180 3 3 3400 4 1 0 4 2 3 1 1 4 3 3 4 2 3 1 1 3 1 1 3 5416 3 2 2 0 1 3 1 2 53 1 2 2 2 9 14 2916 2 3 3 2 4 2 2 2 3 2 4 4 3 2 4 2 3 1457 2 3 4 1 2 0 2 1 3 3 4 993 4 2 2 3 3 4 3 2 2 2429 1 6418 1 1 2 2 6 2915 4 2 2 1 3 1 2910 2 0 2 1 1956 2 2 2 3 1 2 18 3 3 1 0 1 3 4 2 4 3 3396 2 4 2 4 2 4 3 2 3 3 1240 4 1241 1 1 9 1 3 3 3 753 3 3 2476 2 29 3 29 4 2 2 4933 2426 2 19 2 2798 1 1 1 3396 4 1 4 3 1 4 1 2 3 1 3 2 3395 3 3 2 4 2 3 3 2425 2 1 0 3 2 1 3 0 1 2 3 3 1 2 4 3 2 1 2 3 2910 2425 1 2 2 0 2 2 3 2 1 1 2 1 2 5 4 4 1 4 3 2 9 3 2 0 4 0 0 2 3 0 2 1 1 2 3 2 1 3 3 2 2 2 1 3 3 4 1 2 1942 3 4 1 4 2 3 3 3 0 1 0 1 1 3 3 3 2 2 2 2 2 1 2 8 4 1941 1 3 3 4 0 1 1942 3966 3 3 2910 3 993 973 4 2 2 3 3 4 0 2 2 4 3 2 3 2 0 3 4 4 4 4 2 2 1 1 3 4 1 2 3 2 2 3 3 0 3 3 4 1 1 3 4 1 2 1 3 0 3 3 2426 1 1 2 2 4 0 0 2 1 2 993 0 2424 1 0 1941 1 3 4428 2 3 2 3 2 1 2 3 1 1 2425 1 2 1 0 1 2910 1 4 1 1 2 3 2 4 3 0 4 2 4 2 2426 3 4 2 2 3423 1 2 5792 4 4 3 1943 1 2 2 3 4 4 4 3 4 2 2 1942 7 3 2 1 2 2 9 2 2 3 4 2 2 4 2 4 4 1457 1941 2 4 1 3 4 4 2 2430 4 4 4 2 19 1 2 3 1 3 7836 4 4 2 1 3 3 16 2 2 4 750 4 3 3 1 1 2 2189 2 1 17 1695 3 1 4 4 4 1 1 4 3 1 1212 1 2 3883 3 1 3 3 1 749 4 1479 1 2909 4 4 1941 3 3962 4 1 3 1 0 0 4 4 1 1 2 4 2 4 2910 0 2 2 2 2 3 2 3 2 1458 1 2 6872 2 1 360 3 2 1 1 1 4 4 0 2 1 4 4 3 3 2 3 0 3 4 2 0 5 1941 2 2888 3 2921 1 
CBTB PER SET COUNT: 9 1030 248 185 18 16 16 36 4477 5 7506 3890 8 9 143 32 1468 26 18 1486 2439 11 8 64 2491 6645 6576 24 23 8 977 5 9831 1465 2435 19 23 11 5425 20 15 1957 31 14 17 7023 18 1956 32 8337 11 7849 4946 7 2437 3487 10 15 2934 26 17 2440 47 5 361 3972 2432 7 2469 3401 47 23 30 1024 24 4929 8353 40 31 2436 4456 4444 17 10 3396 29 35 9349 1086 39 4605 10 19 18 12 50 19 1962 25 962 4 2223 1473 7370 16 2923 6266 1932 11 3913 14 4432 19 3914 28 36 36 2453 45 2242 2438 1711 6 499 13 1970 13 21 38 19 3413 10337 1098 11 13 1960 11 30 2438 15 19 7864 19 9 4443 2310 9 5426 8466 5901 7864 14246 4 144 4941 4 1480 7 14 30 14 4 5557 6428 5 11 7 11 2933 11 8352 4 9104 6 70 2437 502 11 3 2116 857 1943 3 11 5659 1321 35 11 7 5 4 9350 8828 17 5 8 3061 7364 3215 17 1465 5394 2429 11 1646 28 17 4 20 9205 1949 13 3 2927 23 22 5924 4 6 3 1466 19 23 1716 7 21 33 13 14 3725 22 10 4739 44 7 1086 18 4444 4 11 24 244 236 8 1949 18 1960 8 777 5 6 7 1483 4951 9 8 1476 5428 14 1984 5 2442 1950 23 1482 1479 10 2507 1720 2917 28 22 17 38 2900 763 18 1951 2491 4 19 1779 102 2018 12 79 2935 4 6395 9322 1025 14 48 9 3648 1456 16 38 1947 64 22 8 756 5902 86 9840 24 14 1470 22 2492 168 2429 2431 6043 1460 2564 39 9 2443 5380 21 2939 6432 8 3 569 150 237 22 2921 1481 16 22 1950 1948 58 996 2444 3921 653 39 13 31 14 13 6405 13 1563 9 6 33 4 9797 4944 25 2437 3094 2196 1465 773 10 6 7 751 3319 2924 28 10 756 1957 21 1008 621 3787 2437 1472 3195 4186 4 7403 17 4995 29 2434 10 4 42 1245 4702 1477 22 8343 10311 3943 2436 4695 3474 9 8 3596 7 4443 2926 12 16 10 9 12093 16 2431 6524 42 4938 10303 2489 20 17 2211 230 12 4848 2472 11791 10 2924 93 12 5941 36 942 5448 21 76 35 7 7 25 3176 26 4465 14 3972 6 3414 1508 10 1492 2992 83 3789 6393 1484 1474 13 729 3891 3993 992 10318 2443 1948 1282 1509 7870 1763 8 6 1615 2448 1321 985 1030 17 1655 14 9 3256 5425 1195 11 22 1498 11277 25 19 50 1949 17 7712 4428 6254 5 7317 4 2490 2929 6 13 2433 12 4495 2467 12 1474 9 22 11 24 2438 2934 23 
RIB PER SET COUNT: 2 19 4 1 2 3 2 2 1 2 2 4 2 3 0 1 4 2 0 2 2 1 1941 4 1 3 2 2 1 0 2 0 1 3 3 4 1 2425 0 2 1 3 2 1 2 4 2 3 3 1 0 2 2 3 0 1 3 4 3 2 1 1 2 1 3 1952 3 0 2 2 2 3 0 2 3 0 1 3 2 3 0 1 4 4 2 1 0 4 4 2 0 1 2 2 2 4 3 3 0 0 2 2 1 4 0 1 2425 2 3 4 2 1 1 4 2 2 0 7 2 1961 2 1 3 4 1 1 1 2 1 4 2 3 4 3 0 2 1 2 19 4 1 2 3 11 2 3 4 2 4 1 3 2 2 2 2 1 4 1 0 2 3 1 1 2 3 0 1 1 4 2 1 1 3 1 0 3 0 2 2 2 2 0 3 2 1946 1 3 4 2 1 1 2 3 1 2 3 3 0 4 2 3 2 3 3 1 24 2 4 1 16 2 2 0 3 3 0 973 0 4 2 2 3 2 1 2 4 2 3 1 1 2 4 1 4 0 3 2 2 1 5 2 0 3 1 477 3 19 0 3 2 3 0 4 2 1 4 4 2 1 1 2 0 2 2 3 2 0 4 4 3 1 2 0 1 4 3 0 2 2 1 2 2 2 1 3 0 2 1457 2 2 2 1452 1 1 2 749 1 3 3 1 3 3 3 4 2 3 2 3 2 3 3 20 1 1 0 3 2 3 1 3 3 4 3965 1457 1 3 3 4 1 1 7 3 4 1457 6386 2 1 0 2 2 0 1 4188 2 1240 4 1461 2 0 19 3 3 3 1 6 1 3443 2 14 2 0 2 4 1 4 1587 0 0 4 3 2 4 2 3 4 3 1 3 0 1 2 1 3 2 0 14 1 0 3 2 2 4 1 4 1 2 4 3934 2 3 3 1 1 1 3 3 4 1 3 1 2 1 3 1 1 3 22 1 1 0 1 4 4 3 2 6386 0 1 3 1 2 2 2 2 3 2 3 3 2 3 1 4 4 3 973 2 3 1 1 14 3 1 2 3 2 4 1 1 2 3 3 1 2 2 3 3 2 1941 1 0 3 0 2 1 2 2 1 6625 2910 3 3 1 0 2512 1 1 3 0 1 3 2 3 0 14 1 1 2 2 3 1 2 2 3 3 2 1 1 3 1 3 2 2 
