
*** ChampSim Multicore Out-of-Order Simulator ***

Warmup Instructions: 50000000
Simulation Instructions: 50000000
Number of CPUs: 1
LLC sets: 2048
LLC ways: 16
Off-chip DRAM Size: 4096 MB Channels: 1 Width: 64-bit Data Rate: 6400 MT/s
CPU 0 runs ./micro_traces/srv472.trace.gz
.gz
ITLB has LRU replacement policy
DTLB has LRU replacement policy
STLB has LRU replacement policy
FDIP Prefetcher at L1I
L1I has LRU replacement policy
L1D has LRU replacement policy
Initialize SRRIP state for L2C
Initialize DRRIP state for LLC
Heartbeat_Variant_0 : 1116 0.272461 per_variant_size: 0 1116 0 0 0 0 0 0 0 
Heartbeat_Variant_1 : 2626 0.641113 per_variant_size: 0 1012 1614 0 0 0 0 0 0 
Heartbeat_Variant_2 : 0 0 per_variant_size: 0 0 0 0 0 0 0 0 0 
Heartbeat_Variant_3 : 0 0 per_variant_size: 0 0 0 0 0 0 0 0 0 
Heartbeat_Variant_0_evicts 0 : 12354 1 : 15551 2 : 0 3 : 0 
Heartbeat_Variant_1_evicts 0 : 15409 1 : 0 2 : 0 3 : 0 
Heartbeat_Variant_2_evicts 0 : 0 1 : 0 2 : 0 3 : 0 
Heartbeat_Variant_3_evicts 0 : 0 1 : 0 2 : 0 3 : 0 
Heartbeat CPU 0 instructions: 10000002 cycles: 2796442 heartbeat IPC: 3.57597 cumulative IPC: 3.57597 (Simulation time: 0 hr 1 min 44 sec) 
Heartbeat_Variant_0 : 1118 0.272949 per_variant_size: 0 1118 0 0 0 0 0 0 0 
Heartbeat_Variant_1 : 2627 0.641357 per_variant_size: 0 1027 1600 0 0 0 0 0 0 
Heartbeat_Variant_2 : 0 0 per_variant_size: 0 0 0 0 0 0 0 0 0 
Heartbeat_Variant_3 : 0 0 per_variant_size: 0 0 0 0 0 0 0 0 0 
Heartbeat_Variant_0_evicts 0 : 12556 1 : 14838 2 : 0 3 : 0 
Heartbeat_Variant_1_evicts 0 : 14836 1 : 0 2 : 0 3 : 0 
Heartbeat_Variant_2_evicts 0 : 0 1 : 0 2 : 0 3 : 0 
Heartbeat_Variant_3_evicts 0 : 0 1 : 0 2 : 0 3 : 0 
Heartbeat CPU 0 instructions: 20000001 cycles: 5591998 heartbeat IPC: 3.57711 cumulative IPC: 3.57654 (Simulation time: 0 hr 3 min 26 sec) 
Heartbeat_Variant_0 : 1123 0.27417 per_variant_size: 0 1123 0 0 0 0 0 0 0 
Heartbeat_Variant_1 : 2667 0.651123 per_variant_size: 0 1017 1650 0 0 0 0 0 0 
Heartbeat_Variant_2 : 0 0 per_variant_size: 0 0 0 0 0 0 0 0 0 
Heartbeat_Variant_3 : 0 0 per_variant_size: 0 0 0 0 0 0 0 0 0 
Heartbeat_Variant_0_evicts 0 : 12204 1 : 15062 2 : 0 3 : 0 
Heartbeat_Variant_1_evicts 0 : 15063 1 : 0 2 : 0 3 : 0 
Heartbeat_Variant_2_evicts 0 : 0 1 : 0 2 : 0 3 : 0 
Heartbeat_Variant_3_evicts 0 : 0 1 : 0 2 : 0 3 : 0 
Heartbeat CPU 0 instructions: 30000000 cycles: 8388112 heartbeat IPC: 3.57639 cumulative IPC: 3.57649 (Simulation time: 0 hr 5 min 7 sec) 
Heartbeat_Variant_0 : 1135 0.2771 per_variant_size: 0 1135 0 0 0 0 0 0 0 
Heartbeat_Variant_1 : 2657 0.648682 per_variant_size: 0 1017 1640 0 0 0 0 0 0 
Heartbeat_Variant_2 : 0 0 per_variant_size: 0 0 0 0 0 0 0 0 0 
Heartbeat_Variant_3 : 0 0 per_variant_size: 0 0 0 0 0 0 0 0 0 
Heartbeat_Variant_0_evicts 0 : 12558 1 : 15700 2 : 0 3 : 0 
Heartbeat_Variant_1_evicts 0 : 15689 1 : 0 2 : 0 3 : 0 
Heartbeat_Variant_2_evicts 0 : 0 1 : 0 2 : 0 3 : 0 
Heartbeat_Variant_3_evicts 0 : 0 1 : 0 2 : 0 3 : 0 
Heartbeat CPU 0 instructions: 40000001 cycles: 11185171 heartbeat IPC: 3.57518 cumulative IPC: 3.57616 (Simulation time: 0 hr 6 min 48 sec) 
Heartbeat_Variant_0 : 1108 0.270508 per_variant_size: 0 1108 0 0 0 0 0 0 0 
Heartbeat_Variant_1 : 2697 0.658447 per_variant_size: 0 1025 1672 0 0 0 0 0 0 
Heartbeat_Variant_2 : 0 0 per_variant_size: 0 0 0 0 0 0 0 0 0 
Heartbeat_Variant_3 : 0 0 per_variant_size: 0 0 0 0 0 0 0 0 0 
Heartbeat_Variant_0_evicts 0 : 12193 1 : 15163 2 : 0 3 : 0 
Heartbeat_Variant_1_evicts 0 : 15193 1 : 0 2 : 0 3 : 0 
Heartbeat_Variant_2_evicts 0 : 0 1 : 0 2 : 0 3 : 0 
Heartbeat_Variant_3_evicts 0 : 0 1 : 0 2 : 0 3 : 0 
Heartbeat CPU 0 instructions: 50000001 cycles: 13981891 heartbeat IPC: 3.57562 cumulative IPC: 3.57605 (Simulation time: 0 hr 8 min 25 sec) 

Warmup complete CPU 0 instructions: 50000001 cycles: 13981891 (Simulation time: 0 hr 8 min 25 sec) 

Cycle: 20000000 FTQ IN: 57446919 FTQ occupancy: 18.6139 DECODE IN: 57446848 DECODE occupancy: 47.8328 ROB IN: 57446848 ROB occupancy: 290.941 ROB OUT: 57446635
Heartbeat_Variant_0 : 1130 0.275879 per_variant_size: 0 1130 0 0 0 0 0 0 0 
Heartbeat_Variant_1 : 2677 0.653564 per_variant_size: 0 1003 1674 0 0 0 0 0 0 
Heartbeat_Variant_2 : 0 0 per_variant_size: 0 0 0 0 0 0 0 0 0 
Heartbeat_Variant_3 : 0 0 per_variant_size: 0 0 0 0 0 0 0 0 0 
Heartbeat_Variant_0_evicts 0 : 12589 1 : 15001 2 : 0 3 : 0 
Heartbeat_Variant_1_evicts 0 : 14980 1 : 0 2 : 0 3 : 0 
Heartbeat_Variant_2_evicts 0 : 0 1 : 0 2 : 0 3 : 0 
Heartbeat_Variant_3_evicts 0 : 0 1 : 0 2 : 0 3 : 0 
Heartbeat CPU 0 instructions: 60000000 cycles: 22041803 heartbeat IPC: 1.24071 cumulative IPC: 1.24071 (Simulation time: 0 hr 9 min 57 sec) 
Cycle: 30000000 FTQ IN: 12312520 FTQ occupancy: 8.59318 DECODE IN: 12312556 DECODE occupancy: 19.7292 ROB IN: 12312556 ROB occupancy: 155.706 ROB OUT: 12312529
Heartbeat_Variant_0 : 1150 0.280762 per_variant_size: 0 1150 0 0 0 0 0 0 0 
Heartbeat_Variant_1 : 2660 0.649414 per_variant_size: 0 959 1701 0 0 0 0 0 0 
Heartbeat_Variant_2 : 0 0 per_variant_size: 0 0 0 0 0 0 0 0 0 
Heartbeat_Variant_3 : 0 0 per_variant_size: 0 0 0 0 0 0 0 0 0 
Heartbeat_Variant_0_evicts 0 : 12483 1 : 15224 2 : 0 3 : 0 
Heartbeat_Variant_1_evicts 0 : 15204 1 : 0 2 : 0 3 : 0 
Heartbeat_Variant_2_evicts 0 : 0 1 : 0 2 : 0 3 : 0 
Heartbeat_Variant_3_evicts 0 : 0 1 : 0 2 : 0 3 : 0 
Heartbeat CPU 0 instructions: 70000000 cycles: 30197085 heartbeat IPC: 1.2262 cumulative IPC: 1.23341 (Simulation time: 0 hr 11 min 32 sec) 
Heartbeat_Variant_0 : 1140 0.27832 per_variant_size: 0 1140 0 0 0 0 0 0 0 
Heartbeat_Variant_1 : 2677 0.653564 per_variant_size: 0 975 1702 0 0 0 0 0 0 
Heartbeat_Variant_2 : 0 0 per_variant_size: 0 0 0 0 0 0 0 0 0 
Heartbeat_Variant_3 : 0 0 per_variant_size: 0 0 0 0 0 0 0 0 0 
Heartbeat_Variant_0_evicts 0 : 12119 1 : 14726 2 : 0 3 : 0 
Heartbeat_Variant_1_evicts 0 : 14736 1 : 0 2 : 0 3 : 0 
Heartbeat_Variant_2_evicts 0 : 0 1 : 0 2 : 0 3 : 0 
Heartbeat_Variant_3_evicts 0 : 0 1 : 0 2 : 0 3 : 0 
Heartbeat CPU 0 instructions: 80000002 cycles: 38227724 heartbeat IPC: 1.24523 cumulative IPC: 1.23733 (Simulation time: 0 hr 13 min 5 sec) 
Cycle: 40000000 FTQ IN: 12452717 FTQ occupancy: 8.54325 DECODE IN: 12452746 DECODE occupancy: 19.8102 ROB IN: 12452746 ROB occupancy: 158.669 ROB OUT: 12452920
Heartbeat_Variant_0 : 1156 0.282227 per_variant_size: 0 1156 0 0 0 0 0 0 0 
Heartbeat_Variant_1 : 2661 0.649658 per_variant_size: 0 974 1687 0 0 0 0 0 0 
Heartbeat_Variant_2 : 0 0 per_variant_size: 0 0 0 0 0 0 0 0 0 
Heartbeat_Variant_3 : 0 0 per_variant_size: 0 0 0 0 0 0 0 0 0 
Heartbeat_Variant_0_evicts 0 : 12245 1 : 15058 2 : 0 3 : 0 
Heartbeat_Variant_1_evicts 0 : 15042 1 : 0 2 : 0 3 : 0 
Heartbeat_Variant_2_evicts 0 : 0 1 : 0 2 : 0 3 : 0 
Heartbeat_Variant_3_evicts 0 : 0 1 : 0 2 : 0 3 : 0 
Heartbeat CPU 0 instructions: 90000002 cycles: 46334660 heartbeat IPC: 1.23351 cumulative IPC: 1.23637 (Simulation time: 0 hr 14 min 37 sec) 
Cycle: 50000000 FTQ IN: 12334842 FTQ occupancy: 8.52966 DECODE IN: 12334848 DECODE occupancy: 19.6189 ROB IN: 12334844 ROB occupancy: 157.52 ROB OUT: 12334796
Heartbeat_Variant_0 : 1128 0.275391 per_variant_size: 0 1128 0 0 0 0 0 0 0 
Heartbeat_Variant_1 : 2728 0.666016 per_variant_size: 0 937 1791 0 0 0 0 0 0 
Heartbeat_Variant_2 : 0 0 per_variant_size: 0 0 0 0 0 0 0 0 0 
Heartbeat_Variant_3 : 0 0 per_variant_size: 0 0 0 0 0 0 0 0 0 
Heartbeat_Variant_0_evicts 0 : 12563 1 : 15970 2 : 0 3 : 0 
Heartbeat_Variant_1_evicts 0 : 16008 1 : 0 2 : 0 3 : 0 
Heartbeat_Variant_2_evicts 0 : 0 1 : 0 2 : 0 3 : 0 
Heartbeat_Variant_3_evicts 0 : 0 1 : 0 2 : 0 3 : 0 
Heartbeat CPU 0 instructions: 100000001 cycles: 54622746 heartbeat IPC: 1.20655 cumulative IPC: 1.23029 (Simulation time: 0 hr 16 min 10 sec) 
Finished CPU 0 instructions: 50000000 cycles: 40640855 cumulative IPC: 1.23029 (Simulation time: 0 hr 16 min 10 sec) 

ChampSim completed all CPUs

Region of Interest Statistics

CPU 0 cumulative IPC: 1.23029 instructions: 50000000 cycles: 40640855
 Fetch stage stalled: 65.7098  Sim cycles: 40640855 fetch stall cycle: 26705022
 Empty decode stage: 52.4416  Sim cycles: 40640855 fetch stall cycle: 21312713
ITLB TOTAL     ACCESS:    5650153  HIT:    5160061  MISS:     490092  HIT %:     91.326  MISS %:    8.67396   MPKI: 9.80184
ITLB LOAD TRANSLATION INSTRUCTION	ACCESS:    5533605  HIT:    5043513  MISS:     490092  HIT %:    91.1434  MISS %:    8.85665  MPKI: 9.80184
ITLB TRANSLATION FROM L1D PREFETCHER INSTRUCTION	ACCESS:     116548  HIT:     116548  MISS:          0  HIT %:        100  MISS %:          0  MPKI: 0

ITLB AVERAGE MISS LATENCY: 9.04905 cycles
ITLB RQ	ACCESS:    7573338	FORWARD:          0	MERGED:    1431431	TO_CACHE:    6141907

DTLB TOTAL     ACCESS:    9165266  HIT:    8692625  MISS:     472641  HIT %:    94.8431  MISS %:    5.15687   MPKI: 9.45282
DTLB LOAD TRANSLATION DATA	ACCESS:    9165266  HIT:    8692625  MISS:     472641  HIT %:    94.8431  MISS %:    5.15687  MPKI: 9.45282

DTLB AVERAGE MISS LATENCY: 9.32384 cycles
DTLB RQ	ACCESS:   13482135	FORWARD:          0	MERGED:    4281896	TO_CACHE:    9200239

STLB TOTAL     ACCESS:    1217576  HIT:    1215500  MISS:       2076  HIT %:    99.8295  MISS %:   0.170503   MPKI: 0.04152
STLB LOAD TRANSLATION INSTRUCTION	ACCESS:     490092  HIT:     489863  MISS:        229  HIT %:    99.9533  MISS %:  0.0467259  MPKI: 0.00458
STLB LOAD TRANSLATION DATA	ACCESS:     472455  HIT:     470622  MISS:       1833  HIT %:     99.612  MISS %:   0.387973  MPKI: 0.03666
STLB TRANSLATION FROM L1D PREFETCHER DATA	ACCESS:     255029  HIT:     255015  MISS:         14  HIT %:    99.9945  MISS %: 0.00548957  MPKI: 0.00028

STLB AVERAGE MISS LATENCY: 73.0453 cycles
STLB RQ	ACCESS:    1346156	FORWARD:          0	MERGED:     128538	TO_CACHE:    1217618

STLB Hit, L1D data hit: 0
STLB Hit, L2C data hit: 0
STLB Hit, LLC data hit: 0
STLB Hit, LLC data miss: 0
STLB STLB hints to L2: 0
L1D TOTAL     ACCESS:   13250589  HIT:   12125296  MISS:    1125293  HIT %:    91.5076  MISS %:     8.4924   MPKI: 22.5059
L1D LOAD DATA	ACCESS:    6703570  HIT:    5962803  MISS:     740767  HIT %:    88.9497  MISS %:    11.0503  MPKI: 14.8153
L1D RFO DATA	ACCESS:    6211090  HIT:    5925786  MISS:     285304  HIT %:    95.4065  MISS %:    4.59346  MPKI: 5.70608
L1D PREFETCH DATA	ACCESS:     335929  HIT:     236707  MISS:      99222  HIT %:    70.4634  MISS %:    29.5366  MPKI: 1.98444

L1D PREFETCH  REQUESTED:     767139  ISSUED:     767139  USEFUL:      38107  USELESS:      70209
L1D USEFUL LOAD PREFETCHES:      38107 PREFETCH ISSUED TO LOWER LEVEL:     108403  ACCURACY: 35.1531
 TIMELY PREFETCHES:      38107 LATE PREFETCHES: 9088 DROPPED PREFETCHES: 4
L1D AVERAGE MISS LATENCY: 284523 cycles
L1D RQ	ACCESS:   10802303	FORWARD:          0	MERGED:    3901644	TO_CACHE:    6736748
L1D WQ	ACCESS:    6928377	FORWARD:     164204	MERGED:     182990	TO_CACHE:    6745387
L1D PQ	ACCESS:     383716	FORWARD:          0	MERGED:          0	TO_CACHE:     383423

L1D UNIQUE REGIONS ACCESSED: 0
L1D REGIONS CONFLICTS: 0
L1D Cross Page Prefetch Requests: 6051
L1D Same Page Prefetch Requests: 777174
L1D ROI Sum of L1D PQ occupancy: 4874118
L1D PREFETCHES PUSHED FROM L2C: 0
L1I TOTAL     ACCESS:    6968735  HIT:    4224452  MISS:    2744283  HIT %:    60.6201  MISS %:    39.3799   MPKI: 54.8857
L1I LOAD INSTRUCTION	ACCESS:    6427131  HIT:    3682848  MISS:    2744283  HIT %:    57.3016  MISS %:    42.6984  MPKI: 54.8857
L1I PREFETCH INSTRUCTION	ACCESS:     541604  HIT:     541604  MISS:          0  HIT %:        100  MISS %:          0  MPKI: 0

L1I PREFETCH  REQUESTED:    1258753  ISSUED:    1258753  USEFUL:          0  USELESS:          0
L1I USEFUL LOAD PREFETCHES:          0 PREFETCH ISSUED TO LOWER LEVEL:          0  ACCURACY: -nan
 TIMELY PREFETCHES:          0 LATE PREFETCHES: 0 DROPPED PREFETCHES: 0
L1I AVERAGE MISS LATENCY: 17.2425 cycles
L1I RQ	ACCESS:    9464180	FORWARD:          0	MERGED:    2792528	TO_CACHE:    6671652
L1I PQ	ACCESS:    1258753	FORWARD:          0	MERGED:     357067	TO_CACHE:     901686

L1BTB TOTAL     ACCESS:    5673734  HIT:    2065658  MISS:    3608076  HIT %:    36.4074  MISS %:    63.5926   MPKI: 72.1615
L1BTB BRANCH_DIRECT_JUMP	ACCESS:     548531 HIT:     145507 MISS:     403024 AVERAGE STALL: 41.5737 AVERAGE FETCH STALL: 18.8337 AVERAGE FETCH QUEUE STALL: 12.054 AVERAGE DECODE STALL: 9.856 AVERAGE EXECUTE STALL: 6.02362e+14
L1BTB BRANCH_INDIRECT	ACCESS:     183452 HIT:      66514 MISS:     116938 AVERAGE STALL: 94.5402 AVERAGE FETCH STALL: 13.1152 AVERAGE FETCH QUEUE STALL: 9.76755 AVERAGE DECODE STALL: 8.62072 AVERAGE EXECUTE STALL: 62.0908
L1BTB BRANCH_CONDITIONAL	ACCESS:    2727546 HIT:    1440867 MISS:    1286679 AVERAGE STALL: 40.8507 AVERAGE FETCH STALL: 22.1477 AVERAGE FETCH QUEUE STALL: 9.62473 AVERAGE DECODE STALL: 8.33535 AVERAGE EXECUTE STALL: 2.28746e+14
L1BTB BRANCH_DIRECT_CALL	ACCESS:     936938 HIT:     103941 MISS:     832997 AVERAGE STALL: 43.025 AVERAGE FETCH STALL: 22.1216 AVERAGE FETCH QUEUE STALL: 10.9978 AVERAGE DECODE STALL: 9.14696 AVERAGE EXECUTE STALL: 1.7385e+14
L1BTB BRANCH_INDIRECT_CALL	ACCESS:     170170 HIT:      20648 MISS:     149522 AVERAGE STALL: 127.833 AVERAGE FETCH STALL: 16.8165 AVERAGE FETCH QUEUE STALL: 8.96015 AVERAGE DECODE STALL: 8.21234 AVERAGE EXECUTE STALL: 93.3313
L1BTB BRANCH_RETURN	ACCESS:    1107097 HIT:     288181 MISS:     818916 AVERAGE STALL: 41.0246 AVERAGE FETCH STALL: 18.0805 AVERAGE FETCH QUEUE STALL: 6.84094 AVERAGE DECODE STALL: 6.74058 AVERAGE EXECUTE STALL: 2.46677e+14
L1BTB BRANCH_OTHER ACCESS:          0 HIT:          0 MISS:          0 AVERAGE STALL: -nan AVERAGE FETCH STALL: -nan AVERAGE FETCH QUEUE STALL: -nan AVERAGE DECODE STALL: -nan AVERAGE EXECUTE STALL: -nan
L1BTB TOTAL ROB OCCUPANCY AT BTB MISS: 11.6857

L2BTB TOTAL     ACCESS:    3582504  HIT:    3262763  MISS:     319741  HIT %:    91.0749  MISS %:    8.92507   MPKI: 6.39482
L2BTB BRANCH_DIRECT_JUMP	ACCESS:     398761 HIT:     372362 MISS:      26399 AVERAGE STALL: 41.5737 AVERAGE FETCH STALL: 18.8337 AVERAGE FETCH QUEUE STALL: 12.054 AVERAGE DECODE STALL: 9.856 AVERAGE EXECUTE STALL: 6.02362e+14
L2BTB BRANCH_INDIRECT	ACCESS:     106670 HIT:     100254 MISS:       6416 AVERAGE STALL: 94.5402 AVERAGE FETCH STALL: 13.1152 AVERAGE FETCH QUEUE STALL: 9.76755 AVERAGE DECODE STALL: 8.62072 AVERAGE EXECUTE STALL: 62.0908
L2BTB BRANCH_CONDITIONAL	ACCESS:    1286678 HIT:    1205539 MISS:      81139 AVERAGE STALL: 40.8507 AVERAGE FETCH STALL: 22.1477 AVERAGE FETCH QUEUE STALL: 9.62473 AVERAGE DECODE STALL: 8.33535 AVERAGE EXECUTE STALL: 2.28746e+14
L2BTB BRANCH_DIRECT_CALL	ACCESS:     832997 HIT:     726792 MISS:     106205 AVERAGE STALL: 43.025 AVERAGE FETCH STALL: 22.1216 AVERAGE FETCH QUEUE STALL: 10.9978 AVERAGE DECODE STALL: 9.14696 AVERAGE EXECUTE STALL: 1.7385e+14
L2BTB BRANCH_INDIRECT_CALL	ACCESS:     139881 HIT:     113730 MISS:      26151 AVERAGE STALL: 127.833 AVERAGE FETCH STALL: 16.8165 AVERAGE FETCH QUEUE STALL: 8.96015 AVERAGE DECODE STALL: 8.21234 AVERAGE EXECUTE STALL: 93.3313
L2BTB BRANCH_RETURN	ACCESS:     817517 HIT:     744086 MISS:      73431 AVERAGE STALL: 41.0246 AVERAGE FETCH STALL: 18.0805 AVERAGE FETCH QUEUE STALL: 6.84094 AVERAGE DECODE STALL: 6.74058 AVERAGE EXECUTE STALL: 2.46677e+14
L2BTB BRANCH_OTHER ACCESS:          0 HIT:          0 MISS:          0 AVERAGE STALL: -nan AVERAGE FETCH STALL: -nan AVERAGE FETCH QUEUE STALL: -nan AVERAGE DECODE STALL: -nan AVERAGE EXECUTE STALL: -nan
L2BTB TOTAL ROB OCCUPANCY AT BTB MISS: 131.866

L2C TOTAL     ACCESS:    4476857  HIT:    3998846  MISS:     478011  HIT %:    89.3226  MISS %:    10.6774   MPKI: 9.56022
L2C LOAD INSTRUCTION	ACCESS:    2744283  HIT:    2489592  MISS:     254691  HIT %:    90.7192  MISS %:    9.28078  MPKI: 5.09382
L2C LOAD TRANSLATION INSTRUCTION	ACCESS:        272  HIT:         80  MISS:        192  HIT %:    29.4118  MISS %:    70.5882  MPKI: 0.00384
L2C LOAD DATA	ACCESS:     731658  HIT:     654449  MISS:      77209  HIT %:    89.4474  MISS %:    10.5526  MPKI: 1.54418
L2C RFO DATA	ACCESS:     285193  HIT:     231805  MISS:      53388  HIT %:      81.28  MISS %:      18.72  MPKI: 1.06776
L2C PREFETCH DATA	ACCESS:     193081  HIT:     117346  MISS:      75735  HIT %:    60.7755  MISS %:    39.2245  MPKI: 1.5147
L2C WRITEBACK DATA	ACCESS:     520435  HIT:     504993  MISS:      15442  HIT %:    97.0329  MISS %:    2.96713  MPKI: 0.30884
L2C LOAD TRANSLATION DATA	ACCESS:       1907  HIT:        564  MISS:       1343  HIT %:    29.5752  MISS %:    70.4248  MPKI: 0.02686
L2C TRANSLATION FROM L1D PREFETCHER DATA	ACCESS:         28  HIT:         17  MISS:         11  HIT %:    60.7143  MISS %:    39.2857  MPKI: 0.00022

L2C PREFETCH  REQUESTED:      92660  ISSUED:      92660  USEFUL:       8163  USELESS:      67791
L2C USEFUL LOAD PREFETCHES:       8163 PREFETCH ISSUED TO LOWER LEVEL:      76038  ACCURACY: 10.7354
 TIMELY PREFETCHES:       8163 LATE PREFETCHES: 303 DROPPED PREFETCHES: 0
L2C AVERAGE MISS LATENCY: 38.7783 cycles
L2C RQ	ACCESS:    3763387	FORWARD:          0	MERGED:          0	TO_CACHE:    3763348
L2C WQ	ACCESS:     520436	FORWARD:         39	MERGED:          0	TO_CACHE:     520436
L2C PQ	ACCESS:     201063	FORWARD:          0	MERGED:       3116	TO_CACHE:     197947

L2C Dense regions hint from L2: 0
PSCL5 TOTAL     ACCESS:       4160  HIT:       2080  MISS:       2080  HIT %:         50  MISS %:         50   MPKI: 0.0416
PSCL5 LOAD TRANSLATION INSTRUCTION	ACCESS:       4104  HIT:       2052  MISS:       2052  HIT %:         50  MISS %:         50  MPKI: 0.04104
PSCL5 TRANSLATION FROM L1D PREFETCHER INSTRUCTION	ACCESS:         56  HIT:         28  MISS:         28  HIT %:         50  MISS %:         50  MPKI: 0.00056


PSCL4 TOTAL     ACCESS:       3987  HIT:       1987  MISS:       2000  HIT %:     49.837  MISS %:     50.163   MPKI: 0.04
PSCL4 LOAD TRANSLATION INSTRUCTION	ACCESS:       2152  HIT:       1962  MISS:        190  HIT %:     91.171  MISS %:      8.829  MPKI: 0.0038
PSCL4 TRANSLATION FROM L1D PREFETCHER INSTRUCTION	ACCESS:         25  HIT:         25  MISS:          0  HIT %:        100  MISS %:          0  MPKI: 0
PSCL4 LOAD TRANSLATION DATA	ACCESS:       1785  HIT:          0  MISS:       1785  HIT %:          0  MISS %:        100  MPKI: 0.0357
PSCL4 TRANSLATION FROM L1D PREFETCHER DATA	ACCESS:         25  HIT:          0  MISS:         25  HIT %:          0  MISS %:        100  MPKI: 0.0005


PSCL3 TOTAL     ACCESS:       4071  HIT:       2029  MISS:       2042  HIT %:    49.8403  MISS %:    50.1597   MPKI: 0.04084
PSCL3 LOAD TRANSLATION INSTRUCTION	ACCESS:       2194  HIT:       2004  MISS:        190  HIT %:      91.34  MISS %:    8.65998  MPKI: 0.0038
PSCL3 TRANSLATION FROM L1D PREFETCHER INSTRUCTION	ACCESS:         25  HIT:         25  MISS:          0  HIT %:        100  MISS %:          0  MPKI: 0
PSCL3 LOAD TRANSLATION DATA	ACCESS:       1827  HIT:          0  MISS:       1827  HIT %:          0  MISS %:        100  MPKI: 0.03654
PSCL3 TRANSLATION FROM L1D PREFETCHER DATA	ACCESS:         25  HIT:          0  MISS:         25  HIT %:          0  MISS %:        100  MPKI: 0.0005


PSCL2 TOTAL     ACCESS:       4058  HIT:       1978  MISS:       2080  HIT %:    48.7432  MISS %:    51.2568   MPKI: 0.0416
PSCL2 LOAD TRANSLATION INSTRUCTION	ACCESS:       2195  HIT:       1950  MISS:        245  HIT %:    88.8383  MISS %:    11.1617  MPKI: 0.0049
PSCL2 TRANSLATION FROM L1D PREFETCHER INSTRUCTION	ACCESS:         28  HIT:         28  MISS:          0  HIT %:        100  MISS %:          0  MPKI: 0
PSCL2 LOAD TRANSLATION DATA	ACCESS:       1807  HIT:          0  MISS:       1807  HIT %:          0  MISS %:        100  MPKI: 0.03614
PSCL2 TRANSLATION FROM L1D PREFETCHER DATA	ACCESS:         28  HIT:          0  MISS:         28  HIT %:          0  MISS %:        100  MPKI: 0.00056


LLC TOTAL     ACCESS:     540193  HIT:     510932  MISS:      29261  HIT %:    94.5832  MISS %:    5.41677   MPKI: 0.58522
LLC LOAD INSTRUCTION	ACCESS:     254691  HIT:     253523  MISS:       1168  HIT %:    99.5414  MISS %:   0.458595  MPKI: 0.02336
LLC LOAD TRANSLATION INSTRUCTION	ACCESS:        192  HIT:        156  MISS:         36  HIT %:      81.25  MISS %:      18.75  MPKI: 0.00072
LLC LOAD DATA	ACCESS:      76933  HIT:      73296  MISS:       3637  HIT %:    95.2725  MISS %:    4.72749  MPKI: 0.07274
LLC RFO DATA	ACCESS:      53354  HIT:      39258  MISS:      14096  HIT %:    73.5802  MISS %:    26.4198  MPKI: 0.28192
LLC PREFETCH DATA	ACCESS:      76038  HIT:      66144  MISS:       9894  HIT %:    86.9881  MISS %:    13.0119  MPKI: 0.19788
LLC WRITEBACK DATA	ACCESS:      77631  HIT:      77284  MISS:        347  HIT %:     99.553  MISS %:   0.446986  MPKI: 0.00694
LLC LOAD TRANSLATION DATA	ACCESS:       1343  HIT:       1261  MISS:         82  HIT %:    93.8943  MISS %:    6.10573  MPKI: 0.00164
LLC TRANSLATION FROM L1D PREFETCHER DATA	ACCESS:         11  HIT:         10  MISS:          1  HIT %:    90.9091  MISS %:    9.09091  MPKI: 2e-05

LLC AVERAGE MISS LATENCY: 158.004 cycles
LLC RQ	ACCESS:     386531	FORWARD:          0	MERGED:          0	TO_CACHE:     386524
LLC WQ	ACCESS:      77631	FORWARD:          7	MERGED:          0	TO_CACHE:      77631
LLC PQ	ACCESS:      76038	FORWARD:          0	MERGED:          0	TO_CACHE:      76038

LLC Dense regions hint to LLC: 0

RAW hits: 1824849
Loads Generated: 12627151
Loads sent to L1D: 10802303
Stores Generated: 6928372
Stores sent to L1D: 6928377
Major fault: 0 Minor fault: 2616
Allocated PAGES: 2616

stream: 
stream:times selected: 1226238
stream:pref_filled: 125288
stream:pref_useful: 25702
stream:pref_late: 7756
stream:misses: 9223
stream:misses_by_poll: 0

CS: 
CS:times selected: 187742
CS:pref_filled: 66665
CS:pref_useful: 42414
CS:pref_late: 7053
CS:misses: 18327
CS:misses_by_poll: 15

CPLX: 
CPLX:times selected: 1037342
CPLX:pref_filled: 21928
CPLX:pref_useful: 6095
CPLX:pref_late: 3081
CPLX:misses: 104873
CPLX:misses_by_poll: 0

NL_L1: 
NL:times selected: 12995
NL:pref_filled: 1487
NL:pref_useful: 235
NL:pref_late: 224
NL:misses: 1585
NL:misses_by_poll: 0

total selections: 2464317
total_filled: 99222
total_useful: 38107
total_late: 19684
total_polluted: 15
total_misses_after_warmup: 773945
conflicts: 5564818

test: 122188

DRAM Statistics
 CHANNEL 0
 RQ ROW_BUFFER_HIT:      10421  ROW_BUFFER_MISS:      18488
 DBUS_CONGESTED:         20
 WQ ROW_BUFFER_HIT:       1460  ROW_BUFFER_MISS:      13184  FULL:          0

 AVG_CONGESTED_CYCLE: 5

CPU 0 Branch Prediction Accuracy: 99.813% MPKI: 0.34192 Average ROB Occupancy at Mispredict: 145.575
Branch types
NOT_BRANCH: 40857033 81.7141%
BRANCH_DIRECT_JUMP: 548531 1.09706%
BRANCH_INDIRECT: 183452 0.366904%
BRANCH_CONDITIONAL: 6196647 12.3933%
BRANCH_DIRECT_CALL: 936938 1.87388%
BRANCH_INDIRECT_CALL: 170170 0.34034%
BRANCH_RETURN: 1107097 2.21419%
BRANCH_OTHER: 0 0%

DRAM PAGES: 1048576
Allocated PAGES: 2616
Average_ROB_Occupancy: 157.138
Average_Decode_Occupancy: 19.5039
Average_FTQ_Occupancy: 8.47289
Indirect max targets: 14 Average targets: 1.17197
Branch_type:  BRANCH_DIRECT_JUMP:  Count Percentage: 3.3512 6.15942 3.81093 7.89583 2.23602 6.34164 1.35673 68.8482 
Branch_type:  BRANCH_INDIRECT:  Count Percentage: 11.7583 3.47054 16.0244 9.68511 3.33413 2.79722 0.932226 51.9981 
Branch_type:  BRANCH_CONDITIONAL:  Count Percentage: 21.4886 2.89258 2.77929 4.65976 1.64442 4.89178 3.78249 57.8611 
Branch_type:  BRANCH_DIRECT_CALL:  Count Percentage: 0.855329 1.27309 0.769727 4.37378 2.29129 2.63578 0.72252 87.0785 
Branch_type:  BRANCH_INDIRECT_CALL:  Count Percentage: 9.55695 0 2.99342 0.000881801 0.695153 1.71334 1.00437 84.0359 
Branch_type:  BRANCH_RETURN:  Count Percentage: 4.68833 1.39213 1.05061 4.37338 3.75834 5.36364 3.69071 75.6829 
Branch_type:  BRANCH_DIRECT_JUMP:  Total Count: 36710 67472 41746 86493 24494 69468 14862 754182 
Branch_type:  BRANCH_INDIRECT:  Total Count: 43099 12721 58736 35500 12221 10253 3417 190595 
Branch_type:  BRANCH_CONDITIONAL:  Total Count: 2661511 358267 344235 577145 203673 605882 468488 7166514 
Branch_type:  BRANCH_DIRECT_CALL:  Total Count: 16017 23840 14414 81904 42907 49358 13530 1630643 
Branch_type:  BRANCH_INDIRECT_CALL:  Total Count: 32514 0 10184 3 2365 5829 3417 285901 
Branch_type:  BRANCH_RETURN:  Total Count: 103784 30817 23257 96812 83197 118733 81700 1675365 
Number of unique branch instructions: 10499
Upper 32 bits: 
aaaa
ffff
ffff0000
Unique upper 32 bits: 3
Unique upper 36 bits: 3
Unique upper 40 bits: 5
Unique upper 44 bits: 32
Unique upper 48 bits: 158
Variant_0 : 1128 0.275391
Variant_1 : 2728 0.666016
Variant_2 : 0 0
Variant_3 : 0 0
Offset_3 4341
Offset_4 257
Offset_5 476
Offset_6 528
Offset_7 626
Offset_8 560
Offset_9 505
Offset_10 412
Offset_11 331
Offset_12 296
Offset_13 228
Offset_14 235
Offset_15 194
Offset_16 226
Offset_17 158
Offset_18 144
Offset_19 255
Offset_20 141
Offset_21 235
Offset_22 403
Offset_23 242
Offset_24 346
Offset_25 114
Offset_47 92
Offset_64 1
decode_dispatch_called: 20928025 51.495
Dispatch_width: 0 10667717 50.9734 26.2488
Dispatch_width: 1 598089 2.85784 1.47164
Dispatch_width: 2 637818 3.04767 1.5694
Dispatch_width: 3 418227 1.99841 1.02908
Dispatch_width: 4 2253173 10.7663 5.54411
Dispatch_width: 5 259140 1.23824 0.637634
Dispatch_width: 6 6093861 29.1182 14.9944
Empty_decode_cycles: 19712830 48.505
ROB_full_cycles: 3502192 8.61742
Starvation_cycles_per_kilo_instr: 310.448
Starvation_cycles_per_kilo_instr_3: 285.325
Starvation_cycles_per_kilo_instr_0: 268.784
Branch_type_1  (3,1)  (4,9)  (5,39)  (6,71)  (7,125)  (8,146)  (9,133)  (10,108)  (11,74)  (12,47)  (13,11)  (14,2)  (15,3)  (16,4)  (18,1)  (19,5)  (20,2)  (21,1)  (22,3)  (23,2)  (24,10)  (25,12) 
Branch_type_2  (3,1)  (4,1)  (5,1)  (8,4)  (9,4)  (10,1)  (12,1)  (13,1)  (14,1)  (16,3)  (17,2)  (20,2)  (21,2)  (23,5)  (24,1)  (47,42) 
Branch_type_3  (3,4339)  (4,247)  (5,432)  (6,441)  (7,470)  (8,344)  (9,276)  (10,166)  (11,128)  (12,54)  (13,10)  (64,1) 
Branch_type_4  (6,3)  (7,8)  (8,25)  (9,58)  (10,65)  (11,67)  (12,107)  (13,96)  (14,105)  (15,92)  (16,99)  (17,72)  (18,61)  (19,124)  (20,73)  (21,124)  (22,212)  (23,136)  (24,201)  (25,98) 
Branch_type_5  (8,3)  (9,1)  (10,4)  (11,5)  (12,3)  (13,14)  (14,16)  (15,11)  (16,22)  (17,11)  (18,23)  (19,14)  (20,11)  (21,13)  (22,43)  (23,26)  (24,38) 
Branch_type_6  (5,4)  (6,13)  (7,23)  (8,38)  (9,33)  (10,68)  (11,57)  (12,84)  (13,96)  (14,111)  (15,88)  (16,98)  (17,73)  (18,59)  (19,112)  (20,53)  (21,95)  (22,145)  (23,73)  (24,96)  (25,4)  (47,50) 
Unique trigger count: 
Variant_0_evicts_0 : 0
Variant_0_evicts_1 : 0
Variant_0_evicts_2 : 0
Variant_0_evicts_3 : 0
Variant_1_evicts_0 : 0
Variant_1_evicts_1 : 0
Variant_1_evicts_2 : 0
Variant_1_evicts_3 : 0
Variant_2_evicts_0 : 0
Variant_2_evicts_1 : 0
Variant_2_evicts_2 : 0
Variant_2_evicts_3 : 0
Variant_3_evicts_0 : 0
Variant_3_evicts_1 : 0
Variant_3_evicts_2 : 0
Variant_3_evicts_3 : 0
BTB PER SET UNIQUE ADDR: 2 7 3 6 5 5 6 4 2 6 5 5 3 5 11 9 3 4 3 2 4 7 7 9 4 6 4 4 5 7 6 5 4 7 5 8 8 4 5 10 4 7 5 4 7 6 4 5 6 7 8 5 4 4 2 8 5 3 7 6 5 7 2 6 6 2 5 4 3 7 6 4 5 7 7 8 2 5 7 6 10 6 6 9 8 3 6 2 6 7 7 6 7 7 3 1 5 4 4 7 4 5 4 7 3 5 4 6 6 8 5 2 4 10 2 7 5 6 5 10 6 4 5 4 7 7 4 6 6 2 3 5 3 5 9 5 5 2 6 5 3 4 8 6 3 7 5 5 5 7 4 2 4 10 2 6 7 3 6 5 2 7 4 5 8 3 1 5 6 10 7 5 6 4 6 6 4 7 6 5 4 4 4 9 4 6 4 3 4 6 4 3 8 6 1 5 7 6 5 4 6 6 3 5 1 7 5 3 6 5 2 3 6 6 5 4 7 4 4 5 5 8 6 8 5 10 7 3 9 9 3 5 6 8 3 6 5 7 4 6 6 4 5 4 6 4 2 4 3 6 4 8 4 3 5 7 5 6 7 1 7 5 5 5 4 4 5 6 6 4 7 7 6 5 7 5 7 2 5 8 7 2 3 8 4 6 11 4 9 5 4 3 10 7 8 4 4 3 7 4 12 4 5 7 3 3 5 6 6 4 6 3 5 6 5 5 6 7 6 3 7 8 4 4 10 6 3 6 2 7 4 12 3 6 6 4 6 7 6 7 2 6 7 3 5 4 4 7 3 3 6 6 3 2 9 4 4 6 5 6 12 6 4 8 6 10 5 6 4 3 8 7 11 6 6 4 6 7 5 2 5 5 5 5 9 4 3 6 5 5 5 2 3 5 4 4 7 2 5 3 7 6 6 4 5 10 11 4 8 2 5 3 1 6 6 2 6 4 5 6 6 0 5 5 6 4 6 7 5 7 8 3 3 5 5 1 4 3 2 3 8 5 3 2 6 0 3 5 4 4 8 2 5 5 5 2 7 4 10 5 5 6 4 12 1 8 4 6 3 7 5 7 3 7 4 8 4 2 3 7 6 3 6 5 3 4 4 5 7 7 7 6 6 6 6 4 7 6 2 9 3 3 4 6 6 7 5 7 2 4 6 3 5 3 3 7 8 6 6 3 5 5 9 4 6 12 2 4 5 3 8 7 5 3 4 5 6 8 4 6 3 8 9 10 5 4 7 10 4 3 2 6 3 4 6 7 8 0 4 4 4 2 5 7 4 3 4 4 8 4 4 4 1 7 2 7 7 2 6 5 1 9 3 7 4 3 3 1 6 7 8 6 6 7 3 6 11 7 4 5 9 3 4 2 5 11 8 0 4 4 4 3 4 6 1 3 10 4 8 8 3 5 5 2 6 6 2 6 6 3 4 6 5 5 6 6 3 7 6 10 3 5 3 2 3 7 5 6 5 7 5 4 6 9 5 7 5 5 4 5 4 6 4 7 6 5 3 9 6 6 8 6 7 4 7 4 4 6 3 6 7 7 4 7 8 9 3 5 9 3 6 4 5 5 5 8 4 7 6 9 6 6 3 3 8 4 3 7 8 8 4 2 2 6 5 5 8 7 5 3 7 6 3 8 7 9 9 8 4 8 3 5 7 5 6 3 7 5 1 8 5 11 6 5 5 4 6 3 4 5 7 3 7 4 10 9 10 2 4 8 7 7 6 6 9 4 6 11 5 5 8 5 1 7 8 5 5 6 3 5 5 4 4 6 9 5 5 7 7 8 5 4 6 7 8 6 6 2 6 6 6 5 8 4 4 3 5 4 6 6 6 3 1 6 6 7 10 5 8 5 9 6 5 3 6 5 5 7 11 5 7 5 2 7 5 4 6 5 2 5 2 8 4 5 6 4 5 6 4 5 3 6 4 4 6 3 8 8 5 2 0 5 4 7 6 6 6 6 5 5 3 4 5 4 3 3 4 6 1 6 6 5 6 5 6 7 7 10 1 0 9 2 3 2 4 7 4 10 7 2 7 4 6 4 3 2 5 5 6 9 7 5 5 8 8 10 6 7 9 7 8 1 8 8 3 3 5 5 7 4 3 7 7 6 6 5 4 4 1 7 5 5 4 3 5 4 4 3 6 2 10 6 3 2 12 5 9 4 4 2 5 3 7 5 6 3 7 5 3 3 5 3 3 6 2 3 3 8 6 7 4 6 7 5 8 4 3 5 7 2 3 6 7 11 8 4 3 4 3 4 6 4 7 5 4 5 6 9 6 5 6 6 8 5 5 5 4 7 3 4 5 3 4 7 10 4 7 8 4 5 6 4 6 5 5 8 8 5 2 4 6 4 4 6 6 4 4 7 2 4 5 6 4 4 3 7 11 6 4 2 4 7 3 5 4 6 9 6 8 5 2 5 3 9 7 4 4 7 4 4 8 3 4 5 7 5 4 3 3 7 8 10 6 5 6 3 2 4 4 3 5 11 6 9 3 6 4 6 3 2 6 7 4 3 9 3 7 6 5 4 5 5 4 7 2 7 6 5 4 3 6 7 8 2 6 4 5 5 3 5 8 9 8 3 5 6 2 7 5 5 3 6 1 4 5 3 5 7 7 4 4 2 6 4 2 3 6 5 5 7 8 5 6 5 4 8 4 5 3 6 9 1 10 4 3 4 7 3 7 8 9 6 4 1 7 4 9 5 5 2 8 4 4 3 7 5 5 2 7 4 5 4 7 7 1 6 7 3 7 5 8 3 6 5 5 6 8 5 5 6 4 2 4 4 7 6 3 6 4 3 5 5 4 4 6 5 8 6 1 5 4 10 4 5 4 3 3 4 2 9 2 4 5 5 5 2 8 8 4 10 6 5 10 3 5 7 8 8 7 4 8 6 6 8 4 6 5 6 10 7 7 5 6 11 5 5 7 4 5 8 2 6 5 7 7 5 7 8 7 9 11 5 3 4 11 7 3 5 5 4 3 6 5 5 5 3 5 4 8 11 5 6 3 6 6 3 6 6 5 6 5 4 7 7 7 11 4 6 8 5 5 3 5 8 4 2 7 2 4 6 4 8 8 9 5 2 5 6 6 7 3 6 4 13 7 6 4 5 3 6 2 5 3 6 4 3 6 6 4 2 1 4 7 6 2 6 5 6 5 4 7 5 8 2 2 5 10 6 4 5 2 5 9 6 11 6 4 2 2 6 6 6 5 6 6 10 5 4 4 8 8 3 6 6 9 6 9 8 5 3 6 7 8 4 4 4 10 5 7 4 3 6 2 7 5 4 4 4 10 6 7 4 6 8 7 7 3 5 5 8 4 4 7 1 5 2 7 4 6 10 6 7 4 8 6 4 7 4 5 5 4 5 7 8 4 10 5 6 7 2 5 3 10 8 7 5 10 5 7 3 5 5 10 3 3 7 8 9 8 11 9 1 5 9 10 4 12 6 5 1 4 4 5 4 6 9 4 3 2 7 4 3 7 5 6 6 5 11 3 2 4 5 5 4 3 6 4 8 5 4 2 7 5 4 3 4 5 8 6 6 8 4 6 5 3 6 5 8 7 3 6 4 5 6 6 8 7 6 4 8 8 5 4 6 5 3 4 6 5 6 6 5 5 7 4 6 9 5 8 6 4 6 8 6 4 8 4 5 7 4 4 10 8 7 4 5 4 3 3 4 4 6 7 4 7 6 8 4 6 6 4 6 9 3 7 6 9 4 4 7 7 5 3 5 4 4 5 5 7 3 3 7 4 6 6 4 5 5 2 2 7 4 3 3 6 3 1 5 4 5 5 4 6 1 1 4 6 6 13 1 4 8 3 3 5 3 2 4 3 6 2 5 5 2 4 8 8 2 4 5 2 1 8 5 4 4 4 6 4 6 2 3 3 8 7 5 7 4 4 4 3 2 5 6 3 7 2 6 9 7 4 3 7 4 2 6 5 6 4 5 8 3 3 4 5 6 1 1 4 4 7 9 3 7 5 6 6 5 7 4 4 4 6 10 0 6 5 7 5 10 5 7 3 5 9 7 6 6 2 7 3 8 4 5 4 7 7 5 4 8 5 5 3 4 1 2 5 2 5 2 6 5 6 2 6 4 4 8 1 4 4 3 7 6 7 7 5 4 5 4 4 7 5 2 5 5 6 4 6 7 5 4 2 3 6 6 5 5 4 8 5 4 5 7 5 3 5 6 4 5 2 2 7 4 6 6 2 6 4 3 3 8 4 6 4 4 4 7 5 8 2 6 3 4 5 8 4 5 3 2 3 3 3 5 3 10 1 6 2 8 3 3 3 5 3 5 3 1 3 7 2 5 5 4 3 5 4 2 4 6 3 6 8 3 5 9 2 5 10 5 1 1 9 9 1 7 8 5 6 6 6 5 10 7 8 7 4 2 5 3 4 6 6 6 8 9 4 4 2 7 3 7 5 6 8 8 6 8 5 8 6 6 3 8 6 5 5 7 3 8 3 7 5 13 8 3 5 10 3 5 5 4 4 3 9 6 3 7 4 6 3 4 8 6 6 4 2 3 7 6 1 5 7 8 2 4 4 8 7 7 3 9 6 3 6 9 6 4 7 2 3 12 5 3 6 5 4 15 4 6 4 7 3 6 5 5 8 7 
BTB PER SET COUNT: 2 1775 92 643 219 118 371 191 2 851 730 360 3 1532 1037 136 235 181 3 2 276 642 716 255 447 852 172 173 366 408 409 187 124 1271 449 265 861 237 162 1278 18 1682 6 10 740 749 4 144 308 762 563 19 708 5 2 323 502 1198 642 161 1146 541 2 16 67 15 182 277 4 798 1242 133 261 1018 22 903 2 432 828 242 870 196 171 552 528 3 650 2 550 1733 479 563 654 277 4 1 215 4 144 474 116 256 104 15 13 9 145 196 626 403 29 2 259 1281 4 255 243 21 259 2064 387 263 1676 4 319 948 12 302 1225 2 5 131 5 116 243 412 203 2 432 691 6 808 1055 315 5 301 8 16 64 396 153 444 5 824 4 1430 254 983 309 227 2 131 5 412 799 102 1 21 255 361 307 240 429 125 334 129 7 294 43 342 112 129 122 560 172 159 36 8 4 41 62 3 613 199 1 352 109 586 877 5 178 189 110 155 1 381 6 533 178 8 4 6 597 560 253 213 788 311 6 194 6 387 252 771 296 1151 176 4 396 1093 131 232 6 2738 7 241 12 234 269 575 496 167 382 180 331 198 7921 13 3 265 169 741 7 146 396 62 1772 207 508 1 452 37 313 302 14 418 13 465 409 48 297 296 14 206 431 241 123 306 136 669 616 2 351 537 4 161 1164 315 493 9 5 3 1191 302 434 163 6 3 397 10 867 180 1401 374 4 3 77 53 76 12 153 4 101 243 9 391 45 475 328 3 464 123 213 201 896 201 308 203 2 413 14 692 186 551 155 119 868 156 206 472 3 279 280 3 653 242 257 615 3 189 371 6 9 2 653 5 382 428 401 59 1300 391 24 668 87 2626 595 1073 4 318 864 576 1187 16 209 190 725 194 170 3 81 1074 36 829 1083 9 4 278 5 27 215 2 3 111 175 4 1752 2 270 154 880 341 305 4 331 670 2345 418 152 5 8 101 1 294 632 11 292 395 422 129 413 0 6 302 87 558 347 448 854 196 702 43 5 171 96 3 4 4 2 3 878 217 3 3 689 0 2407 36 346 165 947 954 290 192 218 2 402 21 756 333 876 12 34 925 1 565 201 76 8 521 178 1048 10 178 939 171 140 4 3 637 53 356 305 472 3 4 186 226 514 411 427 415 146 281 220 906 402 213 92 388 3 160 5 293 105 494 171 109 2 4 1009 5 916 916 3 111 627 991 442 227 307 27 911 4 141 1127 2 5 229 3 1265 546 5 8 11 223 776 494 7 7 147 518 765 1142 433 1463 792 1024 301 160 2 1578 1019 4 279 283 1118 0 5 92 538 2 542 304 135 3 1518 76 1844 231 129 297 1 1156 3 701 628 2 211 5 1 369 5 410 4 78 175 1 12 1480 226 314 419 917 254 1464 645 448 13 88 354 4 265 2 50 1103 1127 0 152 132 4 3 953 482 1 181 600 387 12737 525 163 112 118 2 276 231 271 35 144 10 704 1012 63 435 580 594 4 423 132 1756 4 133 497 3 5 428 249 202 7 392 355 4 237 1029 10 115 424 108 7 8 283 22 9 27 445 731 5 1257 295 1016 584 476 241 6 458 40 230 991 122 670 542 248 26 1167 332 489 203 1460 17 4 452 4 141 480 5 984 13 786 9 726 181 650 3 3 719 7 4 215 487 597 8 2 256 288 66 590 313 288 9 11 227 365 871 549 450 603 850 368 416 487 278 226 352 145 23 5 29 88 1 2040 195 893 309 181 111 6 14 84 8 611 512 3 218 258 50 411 678 2 5 766 159 12 64 159 274 7 187 2876 465 241 106 278 2 149 701 206 9 686 12 216 516 5 4 175 821 408 598 505 218 747 298 360 188 258 431 636 115 237 384 90 123 11 397 267 72 3 16 7 8 147 375 3 1 257 264 269 1360 385 266 7 412 319 114 3 203 1009 221 621 1582 287 483 172 59 662 5 73 844 7 2 92 12 756 373 5 398 7 145 738 115 867 3 234 11 237 297 28 469 261 165 2 0 296 5 412 589 10 173 232 613 12 513 202 125 9 3 3 1241 807 1 118 335 872 297 7 12 712 199 1016 1 0 1496 2 121 3 6 448 397 592 734 251 251 143 566 943 68 288 10 113 249 934 230 247 348 324 672 780 20 12 864 507 1391 1 259 193 3 3 1428 291 137 213 5 342 1221 309 171 174 4 718 1 230 562 86 5 6 770 52 4 3 480 2 660 1040 3 2 2084 493 1006 11 2020 262 231 206 344 187 222 3 609 141 4 195 86 5 5 401 2 5 72 1105 248 141 337 107 507 15 683 7 3 951 44 2 5 472 253 1009 228 7 80 1462 4 4 22 56 229 1602 10 9 387 1849 842 516 137 497 259 295 104 33 199 1230 4 85 332 391 194 41 424 305 609 802 8 75 212 4 508 344 108 555 258 103 1455 6 73 4 5 242 338 443 671 55 2 7 410 376 210 106 159 146 632 497 209 2 5 410 85 514 451 121 705 330 293 282 2 458 4 689 620 4 5 98 161 5 904 14 79 365 561 401 11 289 4 292 1015 922 360 100 331 247 2 4 96 3 223 926 341 1551 388 503 60 36 3 7 123 524 480 461 325 3 22 286 10 19 167 14 453 105 2 528 206 10 8 3 70 357 158 5 73 203 9 434 4 519 518 15728 419 302 160 43 2 235 132 26 3 145 1 154 150 467 10 576 956 40 4 2 75 287 2 9 353 111 8 476 359 5 390 7 199 613 7 5 13 130 540 1 893 144 4 7 71 327 362 362 624 275 198 1 1103 500 907 420 429 165 259 109 7 6 704 261 1060 2 227 390 902 6 649 1835 1 241 628 3 398 170 508 7 309 106 361 70 407 112 18 58 265 2 87 4 709 187 13 275 119 5 91 530 4 8 18 172 28 20 1 293 395 153 5 184 61 4 3 4 2 199 3 187 199 5 358 2 247 206 14 1004 128 7 509 4 189 413 150 379 505 4 284 24 18 405 4 505 210 629 1947 511 119 413 14 927 273 402 536 187 366 579 3 76 8 462 545 379 442 701 628 518 456 275 3 182 497 17 5 21 285 4 5 330 5 345 170 3 111 1461 174 1573 165 180 6 651 307 3 10 410 185 455 5 4 115 264 648 603 102 193 1401 528 848 3 6 252 9 2 401 3 4 17 320 657 755 253 12 2 225 11 11 566 3 74 183 1319 593 143 293 90 3 524 2 481 3 24 160 15 285 222 21 188 1 13 508 19 2 158 510 18 17 228 631 212 65 2 2 180 924 536 5 500 3 272 950 81 632 1097 28 4 2 610 463 192 89 70 72 500 249 4 28 2649 1422 3 404 3104 697 838 541 48 220 4 236 636 153 81 7 31 522 68 292 9 3 225 3 520 341 5 7 450 498 12 274 5 44 22 818 203 20 11 14 958 107 424 578 1 6 2 326 322 469 946 160 681 950 377 328 245 119 178 6 377 5 156 212 469 14 947 394 181 220 3 385 934 714 321 421 238 1128 502 217 3 215 392 1380 3 3 1239 29 357 727 1350 1162 1 11 1335 449 548 1117 298 960 1 147 8 688 22 156 482 4 21 2 662 74 3 272 23 13 313 143 669 82 2 510 125 178 17 78 44 41 480 193 607 473 654 489 296 13 187 2915 756 236 246 688 5 138 177 3 342 6 1155 10 1453 519 6 37 404 8 618 1013 6 133 366 134 16 5 559 612 8 4 715 71 126 185 310 304 417 291 555 751 12 1077 117 300 280 690 156 215 17 5 362 435 4 6 592 550 652 307 209 198 3 4 4 71 85 501 4 324 327 775 4 889 170 4 428 308 293 636 696 484 252 4 537 229 219 212 185 20 211 233 182 805 636 219 205 7 40 459 4 499 319 2 143 188 123 3 8 430 161 1 177 4 366 185 4 88 1 1 118 7 230 1703 2 119 1358 3 8 311 3 4 123 666 305 103 160 93 2 6 939 213 2 4 15 2 1 608 161 218 244 4 357 160 248 9 3 7 677 319 152 526 477 19 249 3 2 76 221 3 665 2 218 502 240 206 5 397 7 2 485 193 654 119 350 364 3 3 64 30 409 1 1 6 248 222 856 3 1061 118 386 218 289 1059 456 4 4 325 806 0 206 204 165 277 1482 309 379 3 485 1494 256 115 167 2 1060 3 701 6 144 271 15 81 10 73 522 8 314 716 4 1 2 8 2 693 2 328 388 71 2 337 6 6 179 1 206 121 329 305 686 716 409 177 40 333 4 153 674 8 15 102 12 217 693 29 701 381 441 2 284 193 1204 799 234 10 747 10 4 46 268 535 5 301 16 311 329 2 2 391 288 135 281 2 690 5459 240 80 833 180 873 341 5 263 1072 230 936 437 425 204 4 239 271 9 5 3 2 8 3 4 1560 6 523 2 119 295 136 3 47 369 9 4 263 5 1 3 603 2 59 1358 683 3 287 175 9 77 879 3 118 675 3 445 899 3 780 575 73 2 1 178 593 1 188 325 95 101 94 411 329 522 253 745 406 4 2 107 173 218 764 124 321 1175 510 48 119 2 614 103 308 183 483 295 1170 435 504 609 571 738 735 121 575 3071 704 10 225 118 425 85 895 339 1074 71 207 316 821 471 391 460 5 16 11 909 1214 18 1188 75 307 5 149 704 474 113 218 1334 232 126 240 1 12 262 518 2 188 214 820 576 619 166 920 438 1457 7 463 1892 16 139 3 4 1944 1354 7 234 520 132 1861 134 265 4 487 179 12 95 213 575 52 
To predecode: 0
Predecoding something: 0
Predecode request dropped: 0
sizeofblock_0 0
sizeofblock_1 204602
sizeofblock_2 216743
sizeofblock_3 0
sizeofblock_4 0
sizeofblock_5 0
sizeofblock_6 0
sizeofblock_7 0
sizeofblock_8 0
Variant_0 Correct: 1382852 Incorrect: 0 Accuracy: 1
Variant_1 Correct: 5406220 Incorrect: 0 Accuracy: 1
Variant_2 Correct: 0 Incorrect: 0 Accuracy: -nan
Variant_3 Correct: 0 Incorrect: 0 Accuracy: -nan
