
*** ChampSim Multicore Out-of-Order Simulator ***

Warmup Instructions: 50000000
Simulation Instructions: 50000000
Number of CPUs: 1
LLC sets: 2048
LLC ways: 16
Off-chip DRAM Size: 4096 MB Channels: 1 Width: 64-bit Data Rate: 6400 MT/s
CPU 0 runs ./micro_traces/srv414.trace.gz
.gz
ITLB has LRU replacement policy
DTLB has LRU replacement policy
STLB has LRU replacement policy
FDIP Prefetcher at L1I
L1I has LRU replacement policy
L1D has LRU replacement policy
Initialize SRRIP state for L2C
Initialize DRRIP state for LLC
Heartbeat_Variant_0 : 1407 0.343506 per_variant_size: 0 1407 0 0 0 0 0 0 0 
Heartbeat_Variant_1 : 1066 0.260254 per_variant_size: 0 170 896 0 0 0 0 0 0 
Heartbeat_Variant_2 : 901 0.219971 per_variant_size: 0 141 105 121 534 0 0 0 0 
Heartbeat_Variant_3 : 0 0 per_variant_size: 0 0 0 0 0 0 0 0 0 
Heartbeat_Variant_0_evicts 0 : 5592 1 : 1 2 : 2 3 : 0 
Heartbeat_Variant_1_evicts 0 : 1 1 : 0 2 : 193 3 : 0 
Heartbeat_Variant_2_evicts 0 : 0 1 : 195 2 : 0 3 : 0 
Heartbeat_Variant_3_evicts 0 : 0 1 : 0 2 : 0 3 : 0 
Heartbeat CPU 0 instructions: 10000003 cycles: 2796973 heartbeat IPC: 3.57529 cumulative IPC: 3.57529 (Simulation time: 0 hr 2 min 18 sec) 
Heartbeat_Variant_0 : 1407 0.343506 per_variant_size: 0 1407 0 0 0 0 0 0 0 
Heartbeat_Variant_1 : 1073 0.261963 per_variant_size: 0 174 899 0 0 0 0 0 0 
Heartbeat_Variant_2 : 902 0.220215 per_variant_size: 0 143 103 100 556 0 0 0 0 
Heartbeat_Variant_3 : 0 0 per_variant_size: 0 0 0 0 0 0 0 0 0 
Heartbeat_Variant_0_evicts 0 : 5520 1 : 0 2 : 0 3 : 0 
Heartbeat_Variant_1_evicts 0 : 0 1 : 0 2 : 196 3 : 0 
Heartbeat_Variant_2_evicts 0 : 0 1 : 195 2 : 0 3 : 0 
Heartbeat_Variant_3_evicts 0 : 0 1 : 0 2 : 0 3 : 0 
Heartbeat CPU 0 instructions: 20000000 cycles: 5592664 heartbeat IPC: 3.57693 cumulative IPC: 3.57611 (Simulation time: 0 hr 4 min 14 sec) 
Heartbeat_Variant_0 : 1410 0.344238 per_variant_size: 0 1410 0 0 0 0 0 0 0 
Heartbeat_Variant_1 : 1078 0.263184 per_variant_size: 0 171 907 0 0 0 0 0 0 
Heartbeat_Variant_2 : 903 0.220459 per_variant_size: 0 142 100 111 550 0 0 0 0 
Heartbeat_Variant_3 : 0 0 per_variant_size: 0 0 0 0 0 0 0 0 0 
Heartbeat_Variant_0_evicts 0 : 5633 1 : 0 2 : 0 3 : 0 
Heartbeat_Variant_1_evicts 0 : 0 1 : 0 2 : 197 3 : 0 
Heartbeat_Variant_2_evicts 0 : 0 1 : 197 2 : 0 3 : 0 
Heartbeat_Variant_3_evicts 0 : 0 1 : 0 2 : 0 3 : 0 
Heartbeat CPU 0 instructions: 30000000 cycles: 8389122 heartbeat IPC: 3.57595 cumulative IPC: 3.57606 (Simulation time: 0 hr 6 min 2 sec) 
Heartbeat_Variant_0 : 1410 0.344238 per_variant_size: 0 1410 0 0 0 0 0 0 0 
Heartbeat_Variant_1 : 1078 0.263184 per_variant_size: 0 171 907 0 0 0 0 0 0 
Heartbeat_Variant_2 : 903 0.220459 per_variant_size: 0 142 100 101 560 0 0 0 0 
Heartbeat_Variant_3 : 0 0 per_variant_size: 0 0 0 0 0 0 0 0 0 
Heartbeat_Variant_0_evicts 0 : 5574 1 : 0 2 : 0 3 : 0 
Heartbeat_Variant_1_evicts 0 : 0 1 : 0 2 : 195 3 : 0 
Heartbeat_Variant_2_evicts 0 : 0 1 : 195 2 : 0 3 : 0 
Heartbeat_Variant_3_evicts 0 : 0 1 : 0 2 : 0 3 : 0 
Heartbeat CPU 0 instructions: 40000000 cycles: 11186237 heartbeat IPC: 3.57511 cumulative IPC: 3.57582 (Simulation time: 0 hr 7 min 59 sec) 
Heartbeat_Variant_0 : 1410 0.344238 per_variant_size: 0 1410 0 0 0 0 0 0 0 
Heartbeat_Variant_1 : 1081 0.263916 per_variant_size: 0 172 909 0 0 0 0 0 0 
Heartbeat_Variant_2 : 903 0.220459 per_variant_size: 0 142 100 120 541 0 0 0 0 
Heartbeat_Variant_3 : 0 0 per_variant_size: 0 0 0 0 0 0 0 0 0 
Heartbeat_Variant_0_evicts 0 : 5730 1 : 0 2 : 0 3 : 0 
Heartbeat_Variant_1_evicts 0 : 0 1 : 0 2 : 199 3 : 0 
Heartbeat_Variant_2_evicts 0 : 0 1 : 199 2 : 0 3 : 0 
Heartbeat_Variant_3_evicts 0 : 0 1 : 0 2 : 0 3 : 0 
Heartbeat CPU 0 instructions: 50000000 cycles: 13982894 heartbeat IPC: 3.5757 cumulative IPC: 3.5758 (Simulation time: 0 hr 9 min 51 sec) 

Warmup complete CPU 0 instructions: 50000004 cycles: 13982895 (Simulation time: 0 hr 9 min 51 sec) 

Cycle: 20000000 FTQ IN: 58302726 FTQ occupancy: 19.7543 DECODE IN: 58302604 DECODE occupancy: 51.3476 ROB IN: 58302544 ROB occupancy: 312.912 ROB OUT: 58302196
Heartbeat_Variant_0 : 1421 0.346924 per_variant_size: 0 1421 0 0 0 0 0 0 0 
Heartbeat_Variant_1 : 1092 0.266602 per_variant_size: 0 167 925 0 0 0 0 0 0 
Heartbeat_Variant_2 : 911 0.222412 per_variant_size: 0 147 100 120 544 0 0 0 0 
Heartbeat_Variant_3 : 0 0 per_variant_size: 0 0 0 0 0 0 0 0 0 
Heartbeat_Variant_0_evicts 0 : 5697 1 : 0 2 : 0 3 : 0 
Heartbeat_Variant_1_evicts 0 : 0 1 : 0 2 : 198 3 : 0 
Heartbeat_Variant_2_evicts 0 : 0 1 : 198 2 : 0 3 : 0 
Heartbeat_Variant_3_evicts 0 : 0 1 : 0 2 : 0 3 : 0 
Heartbeat CPU 0 instructions: 60000001 cycles: 21220059 heartbeat IPC: 1.38176 cumulative IPC: 1.38176 (Simulation time: 0 hr 12 min 6 sec) 
Heartbeat_Variant_0 : 1421 0.346924 per_variant_size: 0 1421 0 0 0 0 0 0 0 
Heartbeat_Variant_1 : 1092 0.266602 per_variant_size: 0 171 921 0 0 0 0 0 0 
Heartbeat_Variant_2 : 912 0.222656 per_variant_size: 0 148 100 112 552 0 0 0 0 
Heartbeat_Variant_3 : 0 0 per_variant_size: 0 0 0 0 0 0 0 0 0 
Heartbeat_Variant_0_evicts 0 : 5586 1 : 0 2 : 0 3 : 0 
Heartbeat_Variant_1_evicts 0 : 0 1 : 0 2 : 196 3 : 0 
Heartbeat_Variant_2_evicts 0 : 0 1 : 196 2 : 0 3 : 0 
Heartbeat_Variant_3_evicts 0 : 0 1 : 0 2 : 0 3 : 0 
Heartbeat CPU 0 instructions: 70000001 cycles: 28535626 heartbeat IPC: 1.36695 cumulative IPC: 1.37431 (Simulation time: 0 hr 14 min 25 sec) 
Cycle: 30000000 FTQ IN: 13736581 FTQ occupancy: 12.5169 DECODE IN: 13736639 DECODE occupancy: 31.7983 ROB IN: 13736639 ROB occupancy: 230.89 ROB OUT: 13736635
Heartbeat_Variant_0 : 1421 0.346924 per_variant_size: 0 1421 0 0 0 0 0 0 0 
Heartbeat_Variant_1 : 1094 0.26709 per_variant_size: 0 172 922 0 0 0 0 0 0 
Heartbeat_Variant_2 : 913 0.2229 per_variant_size: 0 148 101 134 530 0 0 0 0 
Heartbeat_Variant_3 : 0 0 per_variant_size: 0 0 0 0 0 0 0 0 0 
Heartbeat_Variant_0_evicts 0 : 5652 1 : 0 2 : 0 3 : 0 
Heartbeat_Variant_1_evicts 0 : 0 1 : 0 2 : 197 3 : 0 
Heartbeat_Variant_2_evicts 0 : 0 1 : 197 2 : 0 3 : 0 
Heartbeat_Variant_3_evicts 0 : 0 1 : 0 2 : 0 3 : 0 
Heartbeat CPU 0 instructions: 80000000 cycles: 35783847 heartbeat IPC: 1.37965 cumulative IPC: 1.37609 (Simulation time: 0 hr 16 min 38 sec) 
Cycle: 40000000 FTQ IN: 13838138 FTQ occupancy: 12.4083 DECODE IN: 13838149 DECODE occupancy: 31.7537 ROB IN: 13838195 ROB occupancy: 231.679 ROB OUT: 13838277
Heartbeat_Variant_0 : 1456 0.355469 per_variant_size: 0 1456 0 0 0 0 0 0 0 
Heartbeat_Variant_1 : 1113 0.271729 per_variant_size: 0 176 937 0 0 0 0 0 0 
Heartbeat_Variant_2 : 934 0.228027 per_variant_size: 0 152 103 126 553 0 0 0 0 
Heartbeat_Variant_3 : 0 0 per_variant_size: 0 0 0 0 0 0 0 0 0 
Heartbeat_Variant_0_evicts 0 : 5654 1 : 0 2 : 0 3 : 0 
Heartbeat_Variant_1_evicts 0 : 1 1 : 0 2 : 196 3 : 0 
Heartbeat_Variant_2_evicts 0 : 0 1 : 196 2 : 0 3 : 0 
Heartbeat_Variant_3_evicts 0 : 0 1 : 0 2 : 0 3 : 0 
Heartbeat CPU 0 instructions: 90000003 cycles: 43118308 heartbeat IPC: 1.36343 cumulative IPC: 1.3729 (Simulation time: 0 hr 18 min 53 sec) 
Cycle: 50000000 FTQ IN: 13591713 FTQ occupancy: 12.4223 DECODE IN: 13591766 DECODE occupancy: 31.61 ROB IN: 13591780 ROB occupancy: 232.379 ROB OUT: 13591893
Heartbeat_Variant_0 : 1472 0.359375 per_variant_size: 0 1472 0 0 0 0 0 0 0 
Heartbeat_Variant_1 : 1139 0.278076 per_variant_size: 0 166 973 0 0 0 0 0 0 
Heartbeat_Variant_2 : 940 0.229492 per_variant_size: 0 149 103 128 560 0 0 0 0 
Heartbeat_Variant_3 : 0 0 per_variant_size: 0 0 0 0 0 0 0 0 0 
Heartbeat_Variant_0_evicts 0 : 5548 1 : 1 2 : 1 3 : 0 
Heartbeat_Variant_1_evicts 0 : 0 1 : 0 2 : 195 3 : 0 
Heartbeat_Variant_2_evicts 0 : 1 1 : 195 2 : 0 3 : 0 
Heartbeat_Variant_3_evicts 0 : 0 1 : 0 2 : 0 3 : 0 
Heartbeat CPU 0 instructions: 100000003 cycles: 50385143 heartbeat IPC: 1.37611 cumulative IPC: 1.37354 (Simulation time: 0 hr 21 min 8 sec) 
Finished CPU 0 instructions: 50000003 cycles: 36402249 cumulative IPC: 1.37354 (Simulation time: 0 hr 21 min 8 sec) 

ChampSim completed all CPUs

Region of Interest Statistics

CPU 0 cumulative IPC: 1.37354 instructions: 50000003 cycles: 36402249
 Fetch stage stalled: 55.7037  Sim cycles: 36402249 fetch stall cycle: 20277387
 Empty decode stage: 38.0372  Sim cycles: 36402249 fetch stall cycle: 13846383
ITLB TOTAL     ACCESS:    5833914  HIT:    5340595  MISS:     493319  HIT %:    91.5439  MISS %:    8.45606   MPKI: 9.86638
ITLB LOAD TRANSLATION INSTRUCTION	ACCESS:    5711553  HIT:    5218234  MISS:     493319  HIT %:    91.3628  MISS %:    8.63721  MPKI: 9.86638
ITLB TRANSLATION FROM L1D PREFETCHER INSTRUCTION	ACCESS:     122361  HIT:     122361  MISS:          0  HIT %:        100  MISS %:          0  MPKI: 0

ITLB AVERAGE MISS LATENCY: 9.05724 cycles
ITLB RQ	ACCESS:    7972221	FORWARD:          0	MERGED:    1689678	TO_CACHE:    6282543

DTLB TOTAL     ACCESS:    8969845  HIT:    8498706  MISS:     471139  HIT %:    94.7475  MISS %:    5.25248   MPKI: 9.42278
DTLB LOAD TRANSLATION DATA	ACCESS:    8969845  HIT:    8498706  MISS:     471139  HIT %:    94.7475  MISS %:    5.25248  MPKI: 9.42278

DTLB AVERAGE MISS LATENCY: 9.32163 cycles
DTLB RQ	ACCESS:   13340580	FORWARD:          0	MERGED:    4333523	TO_CACHE:    9007057

STLB TOTAL     ACCESS:    1213336  HIT:    1211256  MISS:       2080  HIT %:    99.8286  MISS %:   0.171428   MPKI: 0.0416
STLB LOAD TRANSLATION INSTRUCTION	ACCESS:     493319  HIT:     493052  MISS:        267  HIT %:    99.9459  MISS %:  0.0541232  MPKI: 0.00534
STLB LOAD TRANSLATION DATA	ACCESS:     471138  HIT:     469352  MISS:       1786  HIT %:    99.6209  MISS %:   0.379082  MPKI: 0.03572
STLB TRANSLATION FROM L1D PREFETCHER DATA	ACCESS:     248879  HIT:     248852  MISS:         27  HIT %:    99.9892  MISS %:  0.0108486  MPKI: 0.00054

STLB AVERAGE MISS LATENCY: 71.9962 cycles
STLB RQ	ACCESS:    1335076	FORWARD:          0	MERGED:     121702	TO_CACHE:    1213374

STLB Hit, L1D data hit: 0
STLB Hit, L2C data hit: 0
STLB Hit, LLC data hit: 0
STLB Hit, LLC data miss: 0
STLB STLB hints to L2: 0
L1D TOTAL     ACCESS:   13092054  HIT:   11979115  MISS:    1112939  HIT %:    91.4991  MISS %:    8.50087   MPKI: 22.2588
L1D LOAD DATA	ACCESS:    6558162  HIT:    5825585  MISS:     732577  HIT %:    88.8295  MISS %:    11.1705  MPKI: 14.6515
L1D RFO DATA	ACCESS:    6203516  HIT:    5918599  MISS:     284917  HIT %:    95.4072  MISS %:    4.59283  MPKI: 5.69834
L1D PREFETCH DATA	ACCESS:     330376  HIT:     234931  MISS:      95445  HIT %:    71.1102  MISS %:    28.8898  MPKI: 1.9089

L1D PREFETCH  REQUESTED:     741571  ISSUED:     741571  USEFUL:      33638  USELESS:      68853
L1D USEFUL LOAD PREFETCHES:      33638 PREFETCH ISSUED TO LOWER LEVEL:     102529  ACCURACY: 32.8083
 TIMELY PREFETCHES:      33638 LATE PREFETCHES: 7046 DROPPED PREFETCHES: 9
L1D AVERAGE MISS LATENCY: 207239 cycles
L1D RQ	ACCESS:   10694749	FORWARD:          0	MERGED:    3936312	TO_CACHE:    6594820
L1D WQ	ACCESS:    6943953	FORWARD:     163952	MERGED:     198193	TO_CACHE:    6745760
L1D PQ	ACCESS:     370953	FORWARD:          0	MERGED:          0	TO_CACHE:     370618

L1D UNIQUE REGIONS ACCESSED: 0
L1D REGIONS CONFLICTS: 0
L1D Cross Page Prefetch Requests: 6958
L1D Same Page Prefetch Requests: 752310
L1D ROI Sum of L1D PQ occupancy: 4707570
L1D PREFETCHES PUSHED FROM L2C: 0
L1I TOTAL     ACCESS:    7135506  HIT:    4375493  MISS:    2760013  HIT %:      61.32  MISS %:      38.68   MPKI: 55.2003
L1I LOAD INSTRUCTION	ACCESS:    6472464  HIT:    3712451  MISS:    2760013  HIT %:    57.3576  MISS %:    42.6424  MPKI: 55.2003
L1I PREFETCH INSTRUCTION	ACCESS:     663042  HIT:     663042  MISS:          0  HIT %:        100  MISS %:          0  MPKI: 0

L1I PREFETCH  REQUESTED:    1596959  ISSUED:    1596959  USEFUL:          0  USELESS:          0
L1I USEFUL LOAD PREFETCHES:          0 PREFETCH ISSUED TO LOWER LEVEL:          0  ACCURACY: -nan
 TIMELY PREFETCHES:          0 LATE PREFETCHES: 0 DROPPED PREFETCHES: 0
L1I AVERAGE MISS LATENCY: 17.8309 cycles
L1I RQ	ACCESS:    9500089	FORWARD:          0	MERGED:    2694731	TO_CACHE:    6805358
L1I PQ	ACCESS:    1596959	FORWARD:          0	MERGED:     430096	TO_CACHE:    1166863

L1BTB TOTAL     ACCESS:    5672235  HIT:    2047505  MISS:    3624730  HIT %:     36.097  MISS %:     63.903   MPKI: 72.4946
L1BTB BRANCH_DIRECT_JUMP	ACCESS:     549120  HIT:     145128  MISS:     403992	AVERAGE STALL: 40.4274
L1BTB BRANCH_INDIRECT	ACCESS:     183529  HIT:      66301  MISS:     117228	AVERAGE STALL: 100.97
L1BTB BRANCH_CONDITIONAL	ACCESS:    2714488  HIT:    1422416  MISS:    1292072	AVERAGE STALL: 74.238
L1BTB BRANCH_DIRECT_CALL	ACCESS:     941489  HIT:     104384  MISS:     837105	AVERAGE STALL: 69.2006
L1BTB BRANCH_INDIRECT_CALL	ACCESS:     171058  HIT:      20733  MISS:     150325	AVERAGE STALL: 132.469
L1BTB BRANCH_RETURN	ACCESS:    1112551  HIT:     288543  MISS:     824008	AVERAGE STALL: 50.917
L1BTB BRANCH_OTHER ACCESS:          0  HIT:          0  MISS:          0	AVERAGE STALL: -nan
L1BTB TOTAL ROB OCCUPANCY AT BTB MISS: 3.47096

L2BTB TOTAL     ACCESS:    3599220  HIT:    3521655  MISS:      77565  HIT %:    97.8449  MISS %:    2.15505   MPKI: 1.5513
L2BTB BRANCH_DIRECT_JUMP	ACCESS:     399793  HIT:     394741  MISS:       5052	AVERAGE STALL: 40.4274
L2BTB BRANCH_INDIRECT	ACCESS:     106911  HIT:     104247  MISS:       2664	AVERAGE STALL: 100.97
L2BTB BRANCH_CONDITIONAL	ACCESS:    1292072  HIT:    1280107  MISS:      11965	AVERAGE STALL: 74.238
L2BTB BRANCH_DIRECT_CALL	ACCESS:     837105  HIT:     835724  MISS:       1381	AVERAGE STALL: 69.2006
L2BTB BRANCH_INDIRECT_CALL	ACCESS:     140736  HIT:     130632  MISS:      10104	AVERAGE STALL: 132.469
L2BTB BRANCH_RETURN	ACCESS:     822603  HIT:     776204  MISS:      46399	AVERAGE STALL: 50.917
L2BTB BRANCH_OTHER ACCESS:          0  HIT:          0  MISS:          0	AVERAGE STALL: -nan
L2BTB TOTAL ROB OCCUPANCY AT BTB MISS: 162.203

L2C TOTAL     ACCESS:    4484994  HIT:    3924494  MISS:     560500  HIT %:    87.5028  MISS %:    12.4972   MPKI: 11.21
L2C LOAD INSTRUCTION	ACCESS:    2760013  HIT:    2442939  MISS:     317074  HIT %:    88.5119  MISS %:    11.4881  MPKI: 6.34148
L2C LOAD TRANSLATION INSTRUCTION	ACCESS:        298  HIT:         59  MISS:        239  HIT %:    19.7987  MISS %:    80.2013  MPKI: 0.00478
L2C LOAD DATA	ACCESS:     725513  HIT:     637483  MISS:      88030  HIT %:    87.8665  MISS %:    12.1335  MPKI: 1.7606
L2C RFO DATA	ACCESS:     284830  HIT:     227625  MISS:      57205  HIT %:    79.9161  MISS %:    20.0839  MPKI: 1.1441
L2C PREFETCH DATA	ACCESS:     192854  HIT:     116454  MISS:      76400  HIT %:    60.3845  MISS %:    39.6155  MPKI: 1.528
L2C WRITEBACK DATA	ACCESS:     519569  HIT:     499272  MISS:      20297  HIT %:    96.0935  MISS %:    3.90651  MPKI: 0.40594
L2C LOAD TRANSLATION DATA	ACCESS:       1866  HIT:        630  MISS:       1236  HIT %:    33.7621  MISS %:    66.2379  MPKI: 0.02472
L2C TRANSLATION FROM L1D PREFETCHER DATA	ACCESS:         51  HIT:         32  MISS:         19  HIT %:    62.7451  MISS %:    37.2549  MPKI: 0.00038

L2C PREFETCH  REQUESTED:      99849  ISSUED:      99849  USEFUL:       9378  USELESS:      67793
L2C USEFUL LOAD PREFETCHES:       9378 PREFETCH ISSUED TO LOWER LEVEL:      77171  ACCURACY: 12.1522
 TIMELY PREFETCHES:       9378 LATE PREFETCHES: 771 DROPPED PREFETCHES: 0
L2C AVERAGE MISS LATENCY: 36.7595 cycles
L2C RQ	ACCESS:    3772637	FORWARD:          0	MERGED:          0	TO_CACHE:    3772571
L2C WQ	ACCESS:     519569	FORWARD:         66	MERGED:          0	TO_CACHE:     519569
L2C PQ	ACCESS:     202378	FORWARD:          0	MERGED:       3283	TO_CACHE:     199095

L2C Dense regions hint from L2: 0
PSCL5 TOTAL     ACCESS:       4182  HIT:       2091  MISS:       2091  HIT %:         50  MISS %:         50   MPKI: 0.04182
PSCL5 LOAD TRANSLATION INSTRUCTION	ACCESS:       4082  HIT:       2041  MISS:       2041  HIT %:         50  MISS %:         50  MPKI: 0.04082
PSCL5 TRANSLATION FROM L1D PREFETCHER INSTRUCTION	ACCESS:        100  HIT:         50  MISS:         50  HIT %:         50  MISS %:         50  MPKI: 0.001


PSCL4 TOTAL     ACCESS:       3964  HIT:       1977  MISS:       1987  HIT %:    49.8739  MISS %:    50.1261   MPKI: 0.03974
PSCL4 LOAD TRANSLATION INSTRUCTION	ACCESS:       2530  HIT:       1928  MISS:        602  HIT %:    76.2055  MISS %:    23.7945  MPKI: 0.01204
PSCL4 TRANSLATION FROM L1D PREFETCHER INSTRUCTION	ACCESS:         65  HIT:         49  MISS:         16  HIT %:    75.3846  MISS %:    24.6154  MPKI: 0.00032
PSCL4 LOAD TRANSLATION DATA	ACCESS:       1336  HIT:          0  MISS:       1336  HIT %:          0  MISS %:        100  MPKI: 0.02672
PSCL4 TRANSLATION FROM L1D PREFETCHER DATA	ACCESS:         33  HIT:          0  MISS:         33  HIT %:          0  MISS %:        100  MPKI: 0.00066


PSCL3 TOTAL     ACCESS:       3968  HIT:       1979  MISS:       1989  HIT %:     49.874  MISS %:     50.126   MPKI: 0.03978
PSCL3 LOAD TRANSLATION INSTRUCTION	ACCESS:       2532  HIT:       1930  MISS:        602  HIT %:    76.2243  MISS %:    23.7757  MPKI: 0.01204
PSCL3 TRANSLATION FROM L1D PREFETCHER INSTRUCTION	ACCESS:         65  HIT:         49  MISS:         16  HIT %:    75.3846  MISS %:    24.6154  MPKI: 0.00032
PSCL3 LOAD TRANSLATION DATA	ACCESS:       1338  HIT:          0  MISS:       1338  HIT %:          0  MISS %:        100  MPKI: 0.02676
PSCL3 TRANSLATION FROM L1D PREFETCHER DATA	ACCESS:         33  HIT:          0  MISS:         33  HIT %:          0  MISS %:        100  MPKI: 0.00066


PSCL2 TOTAL     ACCESS:       4076  HIT:       1985  MISS:       2091  HIT %:    48.6997  MISS %:    51.3003   MPKI: 0.04182
PSCL2 LOAD TRANSLATION INSTRUCTION	ACCESS:       2203  HIT:       1936  MISS:        267  HIT %:    87.8802  MISS %:    12.1198  MPKI: 0.00534
PSCL2 TRANSLATION FROM L1D PREFETCHER INSTRUCTION	ACCESS:         49  HIT:         49  MISS:          0  HIT %:        100  MISS %:          0  MPKI: 0
PSCL2 LOAD TRANSLATION DATA	ACCESS:       1775  HIT:          0  MISS:       1775  HIT %:          0  MISS %:        100  MPKI: 0.0355
PSCL2 TRANSLATION FROM L1D PREFETCHER DATA	ACCESS:         49  HIT:          0  MISS:         49  HIT %:          0  MISS %:        100  MPKI: 0.00098


LLC TOTAL     ACCESS:     627072  HIT:     599275  MISS:      27797  HIT %:    95.5672  MISS %:    4.43282   MPKI: 0.55594
LLC LOAD INSTRUCTION	ACCESS:     317073  HIT:     316136  MISS:        937  HIT %:    99.7045  MISS %:   0.295516  MPKI: 0.01874
LLC LOAD TRANSLATION INSTRUCTION	ACCESS:        239  HIT:        206  MISS:         33  HIT %:    86.1925  MISS %:    13.8075  MPKI: 0.00066
LLC LOAD DATA	ACCESS:      87345  HIT:      83860  MISS:       3485  HIT %:    96.0101  MISS %:    3.98993  MPKI: 0.0697
LLC RFO DATA	ACCESS:      57084  HIT:      43803  MISS:      13281  HIT %:    76.7343  MISS %:    23.2657  MPKI: 0.26562
LLC PREFETCH DATA	ACCESS:      77171  HIT:      67515  MISS:       9656  HIT %:    87.4875  MISS %:    12.5125  MPKI: 0.19312
LLC WRITEBACK DATA	ACCESS:      86905  HIT:      86589  MISS:        316  HIT %:    99.6364  MISS %:   0.363615  MPKI: 0.00632
LLC LOAD TRANSLATION DATA	ACCESS:       1236  HIT:       1147  MISS:         89  HIT %:    92.7994  MISS %:    7.20065  MPKI: 0.00178
LLC TRANSLATION FROM L1D PREFETCHER DATA	ACCESS:         19  HIT:         19  MISS:          0  HIT %:        100  MISS %:          0  MPKI: 0

LLC AVERAGE MISS LATENCY: 157.088 cycles
LLC RQ	ACCESS:     463032	FORWARD:          0	MERGED:          0	TO_CACHE:     462996
LLC WQ	ACCESS:      86905	FORWARD:         36	MERGED:          0	TO_CACHE:      86905
LLC PQ	ACCESS:      77171	FORWARD:          0	MERGED:          0	TO_CACHE:      77171

LLC Dense regions hint to LLC: 0

RAW hits: 1940455
Loads Generated: 12635204
Loads sent to L1D: 10694749
Stores Generated: 6943942
Stores sent to L1D: 6943953
Major fault: 0 Minor fault: 2570
Allocated PAGES: 2570

stream: 
stream:times selected: 1193622
stream:pref_filled: 123366
stream:pref_useful: 24258
stream:pref_late: 6783
stream:misses: 8203
stream:misses_by_poll: 0

CS: 
CS:times selected: 178517
CS:pref_filled: 61294
CS:pref_useful: 37759
CS:pref_late: 6289
CS:misses: 15168
CS:misses_by_poll: 11

CPLX: 
CPLX:times selected: 1013784
CPLX:pref_filled: 19433
CPLX:pref_useful: 4463
CPLX:pref_late: 3164
CPLX:misses: 92496
CPLX:misses_by_poll: 2

NL_L1: 
NL:times selected: 21661
NL:pref_filled: 695
NL:pref_useful: 309
NL:pref_late: 339
NL:misses: 1838
NL:misses_by_poll: 0

total selections: 2407584
total_filled: 95445
total_useful: 33638
total_late: 17691
total_polluted: 13
total_misses_after_warmup: 769236
conflicts: 5517260

test: 118319

DRAM Statistics
 CHANNEL 0
 RQ ROW_BUFFER_HIT:       9902  ROW_BUFFER_MISS:      17572
 DBUS_CONGESTED:         12
 WQ ROW_BUFFER_HIT:       1480  ROW_BUFFER_MISS:      12457  FULL:          0

 AVG_CONGESTED_CYCLE: 4

CPU 0 Branch Prediction Accuracy: 99.8127% MPKI: 0.34248 Average ROB Occupancy at Mispredict: 180.159
Branch types
NOT_BRANCH: 40854756 81.7095%
BRANCH_DIRECT_JUMP: 549120 1.09824%
BRANCH_INDIRECT: 183529 0.367058%
BRANCH_CONDITIONAL: 6186993 12.374%
BRANCH_DIRECT_CALL: 941489 1.88298%
BRANCH_INDIRECT_CALL: 171058 0.342116%
BRANCH_RETURN: 1112551 2.2251%
BRANCH_OTHER: 0 0%

DRAM PAGES: 1048576
Allocated PAGES: 2570
Average_ROB_Occupancy: 232.625
Average_Decode_Occupancy: 31.6065
Average_FTQ_Occupancy: 12.4032
Indirect max targets: 14 Average targets: 1.16054
Branch_type:  BRANCH_DIRECT_JUMP:  Count Percentage: 3.67714 5.37838 4.25626 8.92568 5.66069 3.12611 1.70654 67.2692 
Branch_type:  BRANCH_INDIRECT:  Count Percentage: 11.7384 3.47967 2.59012 3.7202 3.33814 2.80501 1.99481 70.3336 
Branch_type:  BRANCH_CONDITIONAL:  Count Percentage: 21.7072 2.46025 1.9316 4.05815 2.97081 6.20143 0.904932 59.7656 
Branch_type:  BRANCH_DIRECT_CALL:  Count Percentage: 0.390629 1.74031 0.752653 3.8897 3.52927 2.36212 0.609896 86.7254 
Branch_type:  BRANCH_INDIRECT_CALL:  Count Percentage: 9.56145 0 2.99768 4.27258 0.000292542 2.04282 1.00137 80.1238 
Branch_type:  BRANCH_RETURN:  Count Percentage: 3.9125 1.99007 1.04197 3.16921 4.59426 6.99059 1.23621 77.0652 
Branch_type:  BRANCH_DIRECT_JUMP:  Total Count: 40300 58945 46647 97822 62039 34261 18703 737244 
Branch_type:  BRANCH_INDIRECT:  Total Count: 43045 12760 9498 13642 12241 10286 7315 257914 
Branch_type:  BRANCH_CONDITIONAL:  Total Count: 2683836 304180 238819 501741 367305 766732 111884 7389299 
Branch_type:  BRANCH_DIRECT_CALL:  Total Count: 7347 32732 14156 73158 66379 44427 11471 1631143 
Branch_type:  BRANCH_INDIRECT_CALL:  Total Count: 32684 0 10247 14605 1 6983 3423 273888 
Branch_type:  BRANCH_RETURN:  Total Count: 86994 44249 23168 70467 102153 155435 27487 1713537 
Number of unique branch instructions: 10261
Upper 32 bits: 
aaaa
ffff
ffff0000
Unique upper 32 bits: 3
Unique upper 36 bits: 3
Unique upper 40 bits: 5
Unique upper 44 bits: 32
Unique upper 48 bits: 154
Variant_0 : 1472 0.359375
Variant_1 : 1139 0.278076
Variant_2 : 940 0.229492
Variant_3 : 0 0
Offset_3 4234
Offset_4 256
Offset_5 477
Offset_6 526
Offset_7 610
Offset_8 531
Offset_9 493
Offset_10 400
Offset_11 331
Offset_12 293
Offset_13 217
Offset_14 236
Offset_15 192
Offset_16 232
Offset_17 152
Offset_18 127
Offset_19 243
Offset_20 142
Offset_21 249
Offset_22 406
Offset_23 242
Offset_24 350
Offset_25 96
Offset_47 85
Offset_64 1
decode_dispatch_called: 24689964 67.8254
Dispatch_width: 0 13226659 53.571 36.3347
Dispatch_width: 1 872158 3.53244 2.39589
Dispatch_width: 2 774046 3.13506 2.12637
Dispatch_width: 3 464188 1.88007 1.27516
Dispatch_width: 4 4878958 19.7609 13.4029
Dispatch_width: 5 172699 0.69947 0.474418
Dispatch_width: 6 4301256 17.4211 11.8159
Empty_decode_cycles: 11712285 32.1746
ROB_full_cycles: 7844374 21.5491
Starvation_cycles_per_kilo_instr: 242.566
Starvation_cycles_per_kilo_instr_3: 192.05
Starvation_cycles_per_kilo_instr_0: 170.946
Branch_type_1  (3,1)  (4,9)  (5,38)  (6,73)  (7,121)  (8,134)  (9,130)  (10,102)  (11,77)  (12,51)  (13,9)  (14,2)  (15,3)  (16,4)  (18,1)  (19,4)  (20,2)  (21,1)  (22,3)  (23,2)  (24,10)  (25,13)  (64,1) 
Branch_type_2  (3,1)  (5,1)  (8,3)  (9,3)  (12,1)  (13,1)  (14,1)  (16,3)  (17,2)  (20,2)  (21,2)  (23,5)  (24,1)  (47,39) 
Branch_type_3  (3,4232)  (4,247)  (5,434)  (6,437)  (7,459)  (8,331)  (9,273)  (10,162)  (11,138)  (12,58)  (13,8)  (24,1) 
Branch_type_4  (6,3)  (7,8)  (8,25)  (9,53)  (10,64)  (11,60)  (12,100)  (13,92)  (14,105)  (15,91)  (16,104)  (17,67)  (18,59)  (19,120)  (20,74)  (21,135)  (22,217)  (23,137)  (24,204)  (25,79) 
Branch_type_5  (8,2)  (9,1)  (10,4)  (11,5)  (12,3)  (13,14)  (14,16)  (15,11)  (16,20)  (17,13)  (18,16)  (19,12)  (20,11)  (21,13)  (22,42)  (23,26)  (24,37) 
Branch_type_6  (5,4)  (6,13)  (7,22)  (8,36)  (9,33)  (10,68)  (11,51)  (12,80)  (13,93)  (14,112)  (15,87)  (16,101)  (17,70)  (18,51)  (19,107)  (20,53)  (21,98)  (22,144)  (23,72)  (24,97)  (25,4)  (47,46) 
Unique trigger count: 
Variant_0_evicts_0 : 0
Variant_0_evicts_1 : 0
Variant_0_evicts_2 : 0
Variant_0_evicts_3 : 0
Variant_1_evicts_0 : 0
Variant_1_evicts_1 : 0
Variant_1_evicts_2 : 0
Variant_1_evicts_3 : 0
Variant_2_evicts_0 : 0
Variant_2_evicts_1 : 0
Variant_2_evicts_2 : 0
Variant_2_evicts_3 : 0
Variant_3_evicts_0 : 0
Variant_3_evicts_1 : 0
Variant_3_evicts_2 : 0
Variant_3_evicts_3 : 0
BTB PER SET UNIQUE ADDR: 19 19 23 23 25 25 27 27 32 27 31 31 28 29 19 31 28 19 19 23 20 30 24 23 34 23 29 25 33 30 25 22 28 30 28 22 26 29 25 35 30 24 30 22 27 24 24 19 20 21 36 24 24 29 22 21 21 27 26 28 29 30 25 24 21 29 20 31 27 28 32 29 22 28 24 38 22 23 30 28 30 18 28 28 24 32 24 26 18 23 27 23 23 25 25 24 22 26 25 28 23 31 24 31 35 30 24 16 27 24 24 31 30 21 32 22 31 24 27 30 32 26 34 25 22 25 22 29 26 26 20 26 29 29 26 23 34 29 31 29 27 22 22 23 34 26 20 27 25 20 30 28 31 27 23 24 28 18 28 27 24 29 29 24 22 27 17 28 20 23 21 23 21 29 21 24 26 30 31 27 27 28 27 31 33 25 30 27 26 23 21 25 29 32 30 24 21 29 29 26 20 25 25 25 26 30 24 29 22 28 30 27 23 21 33 34 28 36 22 31 32 25 22 22 28 28 21 20 25 24 25 24 30 26 21 26 25 29 26 32 30 21 27 26 21 32 23 27 22 25 36 27 25 27 32 29 
BTB PER SET COUNT: 20 26 24 28 35 276 27 4907 551 31 1917 2959 29 2444 24 124 32 1020 23 24 436 196 27 1668 537 23 31 28 1506 2225 25 25 1052 2283 2377 22 29 33 26 1098 30 489 32 22 30 26 25 19 1016 24 3127 232 2953 994 62 21 1025 29 28 32 35 32 527 1027 30 35 1025 132 2030 42 1035 31 524 118 30 1046 254 158 1030 31 1470 2018 32 1501 1028 40 120 29 22 14665 31 24 2441 26 31 28 27 22221 25 42 35 1029 1025 34 1041 31 29 17 35 4953 194 2978 32 23 40 1069 3399 1027 34 39 37 32 1609 2825 1951 32 26 3398 29 31 26 35 33 35 32 24 539 1127 1017 37 110 24 408 24 45 28 26 2950 28 22 1035 29 64 459 29 39 33 19 2036 31 24 5457 2955 1963 27 35 1019 282 2917 36 1025 26 23 995 28 28 991 110 1969 36 1961 30 77 33 41 490 3955 114 28 523 22 1318 997 1540 1805 1498 26 35 42 27 21 234 284 414 1953 1092 7160 1757 25 1496 428 43 23 23 46 35 1398 427 29 801 2732 416 405 989 2441 37 33 21 29 1500 2309 989 1051 30 22 159 28 31 8092 1037 38 23 969 1000 26 1033 1030 27 1487 102 4612 1952 29 33 36 37 
To predecode: 0
Predecoding something: 0
Predecode request dropped: 0
sizeofblock_0 0
sizeofblock_1 15119
sizeofblock_2 25056
sizeofblock_3 60693
sizeofblock_4 59208
sizeofblock_5 0
sizeofblock_6 0
sizeofblock_7 0
sizeofblock_8 0
Variant_0 Correct: 1613591 Incorrect: 0 Accuracy: 1
Variant_1 Correct: 2088195 Incorrect: 0 Accuracy: 1
Variant_2 Correct: 3607930 Incorrect: 513 Accuracy: 0.999858
Variant_3 Correct: 0 Incorrect: 0 Accuracy: -nan
