
*** ChampSim Multicore Out-of-Order Simulator ***

Warmup Instructions: 50000000
Simulation Instructions: 50000000
Number of CPUs: 1
LLC sets: 2048
LLC ways: 16
Off-chip DRAM Size: 4096 MB Channels: 1 Width: 64-bit Data Rate: 6400 MT/s
CPU 0 runs ./micro_traces/srv472.trace.gz
.gz
ITLB has LRU replacement policy
DTLB has LRU replacement policy
STLB has LRU replacement policy
FDIP Prefetcher at L1I
L1I has LRU replacement policy
L1D has LRU replacement policy
Initialize SRRIP state for L2C
Initialize DRRIP state for LLC
Heartbeat_Variant_0 : 1321 0.161255 per_variant_size: 0 1321 0 0 0 0 0 0 0 
Heartbeat_Variant_1 : 1410 0.172119 per_variant_size: 0 954 456 0 0 0 0 0 0 
Heartbeat_Variant_2 : 1502 0.18335 per_variant_size: 0 817 446 205 34 0 0 0 0 
Heartbeat_Variant_3 : 0 0 per_variant_size: 0 0 0 0 0 0 0 0 0 
Heartbeat_Variant_0_evicts 0 : 7255 1 : 731 2 : 1494 3 : 0 
Heartbeat_Variant_1_evicts 0 : 669 1 : 0 2 : 841 3 : 0 
Heartbeat_Variant_2_evicts 0 : 1441 1 : 609 2 : 0 3 : 0 
Heartbeat_Variant_3_evicts 0 : 0 1 : 0 2 : 0 3 : 0 
Heartbeat CPU 0 instructions: 10000002 cycles: 2796481 heartbeat IPC: 3.57592 cumulative IPC: 3.57592 (Simulation time: 0 hr 1 min 56 sec) 
Heartbeat_Variant_0 : 1317 0.160767 per_variant_size: 0 1317 0 0 0 0 0 0 0 
Heartbeat_Variant_1 : 1409 0.171997 per_variant_size: 0 950 459 0 0 0 0 0 0 
Heartbeat_Variant_2 : 1508 0.184082 per_variant_size: 0 821 448 204 35 0 0 0 0 
Heartbeat_Variant_3 : 0 0 per_variant_size: 0 0 0 0 0 0 0 0 0 
Heartbeat_Variant_0_evicts 0 : 7416 1 : 744 2 : 1456 3 : 0 
Heartbeat_Variant_1_evicts 0 : 672 1 : 0 2 : 681 3 : 0 
Heartbeat_Variant_2_evicts 0 : 1532 1 : 611 2 : 0 3 : 0 
Heartbeat_Variant_3_evicts 0 : 0 1 : 0 2 : 0 3 : 0 
Heartbeat CPU 0 instructions: 20000001 cycles: 5592106 heartbeat IPC: 3.57702 cumulative IPC: 3.57647 (Simulation time: 0 hr 3 min 33 sec) 
Heartbeat_Variant_0 : 1363 0.166382 per_variant_size: 0 1363 0 0 0 0 0 0 0 
Heartbeat_Variant_1 : 1461 0.178345 per_variant_size: 0 976 485 0 0 0 0 0 0 
Heartbeat_Variant_2 : 1529 0.186646 per_variant_size: 0 791 478 222 38 0 0 0 0 
Heartbeat_Variant_3 : 0 0 per_variant_size: 0 0 0 0 0 0 0 0 0 
Heartbeat_Variant_0_evicts 0 : 7236 1 : 753 2 : 1448 3 : 0 
Heartbeat_Variant_1_evicts 0 : 747 1 : 0 2 : 656 3 : 0 
Heartbeat_Variant_2_evicts 0 : 1438 1 : 641 2 : 0 3 : 0 
Heartbeat_Variant_3_evicts 0 : 0 1 : 0 2 : 0 3 : 0 
Heartbeat CPU 0 instructions: 30000000 cycles: 8388232 heartbeat IPC: 3.57638 cumulative IPC: 3.57644 (Simulation time: 0 hr 5 min 9 sec) 
Heartbeat_Variant_0 : 1359 0.165894 per_variant_size: 0 1359 0 0 0 0 0 0 0 
Heartbeat_Variant_1 : 1463 0.178589 per_variant_size: 0 977 486 0 0 0 0 0 0 
Heartbeat_Variant_2 : 1534 0.187256 per_variant_size: 0 796 478 221 39 0 0 0 0 
Heartbeat_Variant_3 : 0 0 per_variant_size: 0 0 0 0 0 0 0 0 0 
Heartbeat_Variant_0_evicts 0 : 7469 1 : 831 2 : 1573 3 : 0 
Heartbeat_Variant_1_evicts 0 : 834 1 : 0 2 : 696 3 : 0 
Heartbeat_Variant_2_evicts 0 : 1574 1 : 698 2 : 0 3 : 0 
Heartbeat_Variant_3_evicts 0 : 0 1 : 0 2 : 0 3 : 0 
Heartbeat CPU 0 instructions: 40000001 cycles: 11185293 heartbeat IPC: 3.57518 cumulative IPC: 3.57612 (Simulation time: 0 hr 6 min 46 sec) 
Heartbeat_Variant_0 : 1374 0.167725 per_variant_size: 0 1374 0 0 0 0 0 0 0 
Heartbeat_Variant_1 : 1477 0.180298 per_variant_size: 0 981 496 0 0 0 0 0 0 
Heartbeat_Variant_2 : 1549 0.189087 per_variant_size: 0 796 485 228 40 0 0 0 0 
Heartbeat_Variant_3 : 0 0 per_variant_size: 0 0 0 0 0 0 0 0 0 
Heartbeat_Variant_0_evicts 0 : 7417 1 : 829 2 : 1541 3 : 0 
Heartbeat_Variant_1_evicts 0 : 832 1 : 0 2 : 708 3 : 0 
Heartbeat_Variant_2_evicts 0 : 1536 1 : 707 2 : 0 3 : 0 
Heartbeat_Variant_3_evicts 0 : 0 1 : 0 2 : 0 3 : 0 
Heartbeat CPU 0 instructions: 50000001 cycles: 13982118 heartbeat IPC: 3.57548 cumulative IPC: 3.576 (Simulation time: 0 hr 8 min 30 sec) 

Warmup complete CPU 0 instructions: 50000001 cycles: 13982118 (Simulation time: 0 hr 8 min 30 sec) 

Cycle: 20000000 FTQ IN: 58099793 FTQ occupancy: 19.1775 DECODE IN: 58099769 DECODE occupancy: 49.7099 ROB IN: 58099753 ROB occupancy: 302.927 ROB OUT: 58099680
Heartbeat_Variant_0 : 1380 0.168457 per_variant_size: 0 1380 0 0 0 0 0 0 0 
Heartbeat_Variant_1 : 1485 0.181274 per_variant_size: 0 989 496 0 0 0 0 0 0 
Heartbeat_Variant_2 : 1549 0.189087 per_variant_size: 0 799 482 227 41 0 0 0 0 
Heartbeat_Variant_3 : 0 0 per_variant_size: 0 0 0 0 0 0 0 0 0 
Heartbeat_Variant_0_evicts 0 : 7459 1 : 821 2 : 1433 3 : 0 
Heartbeat_Variant_1_evicts 0 : 731 1 : 0 2 : 732 3 : 0 
Heartbeat_Variant_2_evicts 0 : 1518 1 : 642 2 : 0 3 : 0 
Heartbeat_Variant_3_evicts 0 : 0 1 : 0 2 : 0 3 : 0 
Heartbeat CPU 0 instructions: 60000000 cycles: 21405010 heartbeat IPC: 1.34718 cumulative IPC: 1.34718 (Simulation time: 0 hr 10 min 9 sec) 
Heartbeat_Variant_0 : 1392 0.169922 per_variant_size: 0 1392 0 0 0 0 0 0 0 
Heartbeat_Variant_1 : 1495 0.182495 per_variant_size: 0 994 501 0 0 0 0 0 0 
Heartbeat_Variant_2 : 1554 0.189697 per_variant_size: 0 798 486 231 39 0 0 0 0 
Heartbeat_Variant_3 : 0 0 per_variant_size: 0 0 0 0 0 0 0 0 0 
Heartbeat_Variant_0_evicts 0 : 7536 1 : 843 2 : 1443 3 : 0 
Heartbeat_Variant_1_evicts 0 : 737 1 : 0 2 : 767 3 : 0 
Heartbeat_Variant_2_evicts 0 : 1542 1 : 661 2 : 0 3 : 0 
Heartbeat_Variant_3_evicts 0 : 0 1 : 0 2 : 0 3 : 0 
Heartbeat CPU 0 instructions: 70000000 cycles: 28901061 heartbeat IPC: 1.33404 cumulative IPC: 1.34058 (Simulation time: 0 hr 11 min 45 sec) 
Cycle: 30000000 FTQ IN: 13387624 FTQ occupancy: 10.4686 DECODE IN: 13387648 DECODE occupancy: 25.8643 ROB IN: 13387664 ROB occupancy: 196.709 ROB OUT: 13387733
Heartbeat_Variant_0 : 1389 0.169556 per_variant_size: 0 1389 0 0 0 0 0 0 0 
Heartbeat_Variant_1 : 1500 0.183105 per_variant_size: 0 999 501 0 0 0 0 0 0 
Heartbeat_Variant_2 : 1554 0.189697 per_variant_size: 0 801 485 230 38 0 0 0 0 
Heartbeat_Variant_3 : 0 0 per_variant_size: 0 0 0 0 0 0 0 0 0 
Heartbeat_Variant_0_evicts 0 : 7382 1 : 797 2 : 1450 3 : 0 
Heartbeat_Variant_1_evicts 0 : 759 1 : 0 2 : 714 3 : 0 
Heartbeat_Variant_2_evicts 0 : 1491 1 : 673 2 : 0 3 : 0 
Heartbeat_Variant_3_evicts 0 : 0 1 : 0 2 : 0 3 : 0 
Heartbeat CPU 0 instructions: 80000002 cycles: 36318512 heartbeat IPC: 1.34817 cumulative IPC: 1.3431 (Simulation time: 0 hr 13 min 24 sec) 
Cycle: 40000000 FTQ IN: 13486155 FTQ occupancy: 10.3279 DECODE IN: 13486105 DECODE occupancy: 25.6985 ROB IN: 13486105 ROB occupancy: 195.974 ROB OUT: 13486034
Heartbeat_Variant_0 : 1387 0.169312 per_variant_size: 0 1387 0 0 0 0 0 0 0 
Heartbeat_Variant_1 : 1501 0.183228 per_variant_size: 0 1000 501 0 0 0 0 0 0 
Heartbeat_Variant_2 : 1556 0.189941 per_variant_size: 0 801 486 228 41 0 0 0 0 
Heartbeat_Variant_3 : 0 0 per_variant_size: 0 0 0 0 0 0 0 0 0 
Heartbeat_Variant_0_evicts 0 : 7507 1 : 821 2 : 1488 3 : 0 
Heartbeat_Variant_1_evicts 0 : 786 1 : 0 2 : 746 3 : 0 
Heartbeat_Variant_2_evicts 0 : 1525 1 : 710 2 : 0 3 : 0 
Heartbeat_Variant_3_evicts 0 : 0 1 : 0 2 : 0 3 : 0 
Heartbeat CPU 0 instructions: 90000002 cycles: 43813057 heartbeat IPC: 1.3343 cumulative IPC: 1.34089 (Simulation time: 0 hr 15 min 5 sec) 
Cycle: 50000000 FTQ IN: 13175055 FTQ occupancy: 10.4299 DECODE IN: 13175082 DECODE occupancy: 25.7133 ROB IN: 13175059 ROB occupancy: 195.182 ROB OUT: 13175040
Heartbeat_Variant_0 : 1459 0.178101 per_variant_size: 0 1459 0 0 0 0 0 0 0 
Heartbeat_Variant_1 : 1602 0.195557 per_variant_size: 0 1036 566 0 0 0 0 0 0 
Heartbeat_Variant_2 : 1589 0.19397 per_variant_size: 0 777 516 247 49 0 0 0 0 
Heartbeat_Variant_3 : 0 0 per_variant_size: 0 0 0 0 0 0 0 0 0 
Heartbeat_Variant_0_evicts 0 : 7412 1 : 807 2 : 1479 3 : 0 
Heartbeat_Variant_1_evicts 0 : 776 1 : 0 2 : 759 3 : 0 
Heartbeat_Variant_2_evicts 0 : 1504 1 : 694 2 : 0 3 : 0 
Heartbeat_Variant_3_evicts 0 : 0 1 : 0 2 : 0 3 : 0 
Heartbeat CPU 0 instructions: 100000001 cycles: 51376958 heartbeat IPC: 1.32207 cumulative IPC: 1.33708 (Simulation time: 0 hr 16 min 55 sec) 
Finished CPU 0 instructions: 50000000 cycles: 37394840 cumulative IPC: 1.33708 (Simulation time: 0 hr 16 min 55 sec) 

ChampSim completed all CPUs

Region of Interest Statistics

CPU 0 cumulative IPC: 1.33708 instructions: 50000000 cycles: 37394840
 Fetch stage stalled: 60.7342  Sim cycles: 37394840 fetch stall cycle: 22711448
 Empty decode stage: 47.6152  Sim cycles: 37394840 fetch stall cycle: 17805635
ITLB TOTAL     ACCESS:    5803802  HIT:    5314026  MISS:     489776  HIT %:    91.5611  MISS %:    8.43888   MPKI: 9.79552
ITLB LOAD TRANSLATION INSTRUCTION	ACCESS:    5684652  HIT:    5194876  MISS:     489776  HIT %:    91.3842  MISS %:    8.61576  MPKI: 9.79552
ITLB TRANSLATION FROM L1D PREFETCHER INSTRUCTION	ACCESS:     119150  HIT:     119150  MISS:          0  HIT %:        100  MISS %:          0  MPKI: 0

ITLB AVERAGE MISS LATENCY: 9.06216 cycles
ITLB RQ	ACCESS:    7872158	FORWARD:          0	MERGED:    1625224	TO_CACHE:    6246934

DTLB TOTAL     ACCESS:    9024341  HIT:    8552285  MISS:     472056  HIT %:    94.7691  MISS %:    5.23092   MPKI: 9.44112
DTLB LOAD TRANSLATION DATA	ACCESS:    9024341  HIT:    8552285  MISS:     472056  HIT %:    94.7691  MISS %:    5.23092  MPKI: 9.44112

DTLB AVERAGE MISS LATENCY: 9.33612 cycles
DTLB RQ	ACCESS:   13379161	FORWARD:          0	MERGED:    4318156	TO_CACHE:    9061005

STLB TOTAL     ACCESS:    1215852  HIT:    1213779  MISS:       2073  HIT %:    99.8295  MISS %:   0.170498   MPKI: 0.04146
STLB LOAD TRANSLATION INSTRUCTION	ACCESS:     489776  HIT:     489547  MISS:        229  HIT %:    99.9532  MISS %:  0.0467561  MPKI: 0.00458
STLB LOAD TRANSLATION DATA	ACCESS:     471844  HIT:     470014  MISS:       1830  HIT %:    99.6122  MISS %:    0.38784  MPKI: 0.0366
STLB TRANSLATION FROM L1D PREFETCHER DATA	ACCESS:     254232  HIT:     254218  MISS:         14  HIT %:    99.9945  MISS %: 0.00550678  MPKI: 0.00028

STLB AVERAGE MISS LATENCY: 76.0425 cycles
STLB RQ	ACCESS:    1345486	FORWARD:          0	MERGED:     129598	TO_CACHE:    1215888

STLB Hit, L1D data hit: 0
STLB Hit, L2C data hit: 0
STLB Hit, LLC data hit: 0
STLB Hit, LLC data miss: 0
STLB STLB hints to L2: 0
L1D TOTAL     ACCESS:   13139848  HIT:   12014250  MISS:    1125598  HIT %:    91.4337  MISS %:    8.56629   MPKI: 22.512
L1D LOAD DATA	ACCESS:    6606666  HIT:    5865599  MISS:     741067  HIT %:     88.783  MISS %:     11.217  MPKI: 14.8213
L1D RFO DATA	ACCESS:    6197320  HIT:    5911767  MISS:     285553  HIT %:    95.3923  MISS %:    4.60769  MPKI: 5.71106
L1D PREFETCH DATA	ACCESS:     335862  HIT:     236884  MISS:      98978  HIT %:    70.5302  MISS %:    29.4698  MPKI: 1.97956

L1D PREFETCH  REQUESTED:     767590  ISSUED:     767590  USEFUL:      37997  USELESS:      70297
L1D USEFUL LOAD PREFETCHES:      37997 PREFETCH ISSUED TO LOWER LEVEL:     108354  ACCURACY: 35.0675
 TIMELY PREFETCHES:      37997 LATE PREFETCHES: 9312 DROPPED PREFETCHES: 2
L1D AVERAGE MISS LATENCY: 277215 cycles
L1D RQ	ACCESS:   10721559	FORWARD:          0	MERGED:    3920472	TO_CACHE:    6641415
L1D WQ	ACCESS:    6928377	FORWARD:     159954	MERGED:     190631	TO_CACHE:    6737746
L1D PQ	ACCESS:     383936	FORWARD:          0	MERGED:          0	TO_CACHE:     383654

L1D UNIQUE REGIONS ACCESSED: 0
L1D REGIONS CONFLICTS: 0
L1D Cross Page Prefetch Requests: 6085
L1D Same Page Prefetch Requests: 777356
L1D ROI Sum of L1D PQ occupancy: 4880100
L1D PREFETCHES PUSHED FROM L2C: 0
L1I TOTAL     ACCESS:    7120258  HIT:    4376076  MISS:    2744182  HIT %:    61.4595  MISS %:    38.5405   MPKI: 54.8836
L1I LOAD INSTRUCTION	ACCESS:    6490585  HIT:    3746403  MISS:    2744182  HIT %:    57.7206  MISS %:    42.2794  MPKI: 54.8836
L1I PREFETCH INSTRUCTION	ACCESS:     629673  HIT:     629673  MISS:          0  HIT %:        100  MISS %:          0  MPKI: 0

L1I PREFETCH  REQUESTED:    1476445  ISSUED:    1476445  USEFUL:          0  USELESS:          0
L1I USEFUL LOAD PREFETCHES:          0 PREFETCH ISSUED TO LOWER LEVEL:          0  ACCURACY: -nan
 TIMELY PREFETCHES:          0 LATE PREFETCHES: 0 DROPPED PREFETCHES: 0
L1I AVERAGE MISS LATENCY: 17.2159 cycles
L1I RQ	ACCESS:    9481086	FORWARD:          0	MERGED:    2686164	TO_CACHE:    6794922
L1I PQ	ACCESS:    1476445	FORWARD:          0	MERGED:     399209	TO_CACHE:    1077236

L1BTB TOTAL     ACCESS:    5673592  HIT:    2065514  MISS:    3608078  HIT %:    36.4058  MISS %:    63.5942   MPKI: 72.1616
L1BTB BRANCH_DIRECT_JUMP	ACCESS:     548527  HIT:     145506  MISS:     403021	AVERAGE STALL: 45.6579
L1BTB BRANCH_INDIRECT	ACCESS:     183452  HIT:      66515  MISS:     116937	AVERAGE STALL: 96.8615
L1BTB BRANCH_CONDITIONAL	ACCESS:    2727409  HIT:    1440723  MISS:    1286686	AVERAGE STALL: 48.7479
L1BTB BRANCH_DIRECT_CALL	ACCESS:     936937  HIT:     103941  MISS:     832996	AVERAGE STALL: 50.6886
L1BTB BRANCH_INDIRECT_CALL	ACCESS:     170170  HIT:      20650  MISS:     149520	AVERAGE STALL: 120.91
L1BTB BRANCH_RETURN	ACCESS:    1107097  HIT:     288179  MISS:     818918	AVERAGE STALL: 43.4191
L1BTB BRANCH_OTHER ACCESS:          0  HIT:          0  MISS:          0	AVERAGE STALL: -nan
L1BTB TOTAL ROB OCCUPANCY AT BTB MISS: 6.76164

L2BTB TOTAL     ACCESS:    3582510  HIT:    3429634  MISS:     152876  HIT %:    95.7327  MISS %:    4.26729   MPKI: 3.05752
L2BTB BRANCH_DIRECT_JUMP	ACCESS:     398757  HIT:     383754  MISS:      15003	AVERAGE STALL: 45.6579
L2BTB BRANCH_INDIRECT	ACCESS:     106673  HIT:     103431  MISS:       3242	AVERAGE STALL: 96.8615
L2BTB BRANCH_CONDITIONAL	ACCESS:    1286685  HIT:    1231016  MISS:      55669	AVERAGE STALL: 48.7479
L2BTB BRANCH_DIRECT_CALL	ACCESS:     832996  HIT:     811697  MISS:      21299	AVERAGE STALL: 50.6886
L2BTB BRANCH_INDIRECT_CALL	ACCESS:     139880  HIT:     127778  MISS:      12102	AVERAGE STALL: 120.91
L2BTB BRANCH_RETURN	ACCESS:     817519  HIT:     771958  MISS:      45561	AVERAGE STALL: 43.4191
L2BTB BRANCH_OTHER ACCESS:          0  HIT:          0  MISS:          0	AVERAGE STALL: -nan
L2BTB TOTAL ROB OCCUPANCY AT BTB MISS: 159.584

L2C TOTAL     ACCESS:    4479352  HIT:    3992719  MISS:     486633  HIT %:    89.1361  MISS %:    10.8639   MPKI: 9.73266
L2C LOAD INSTRUCTION	ACCESS:    2744183  HIT:    2485978  MISS:     258205  HIT %:    90.5908  MISS %:    9.40918  MPKI: 5.1641
L2C LOAD TRANSLATION INSTRUCTION	ACCESS:        272  HIT:         75  MISS:        197  HIT %:    27.5735  MISS %:    72.4265  MPKI: 0.00394
L2C LOAD DATA	ACCESS:     731731  HIT:     649723  MISS:      82008  HIT %:    88.7926  MISS %:    11.2074  MPKI: 1.64016
L2C RFO DATA	ACCESS:     285469  HIT:     233587  MISS:      51882  HIT %:    81.8257  MISS %:    18.1743  MPKI: 1.03764
L2C PREFETCH DATA	ACCESS:     195098  HIT:     117641  MISS:      77457  HIT %:    60.2984  MISS %:    39.7016  MPKI: 1.54914
L2C WRITEBACK DATA	ACCESS:     520669  HIT:     505135  MISS:      15534  HIT %:    97.0165  MISS %:    2.98347  MPKI: 0.31068
L2C LOAD TRANSLATION DATA	ACCESS:       1911  HIT:        564  MISS:       1347  HIT %:    29.5133  MISS %:    70.4867  MPKI: 0.02694
L2C TRANSLATION FROM L1D PREFETCHER DATA	ACCESS:         19  HIT:         16  MISS:          3  HIT %:    84.2105  MISS %:    15.7895  MPKI: 6e-05

L2C PREFETCH  REQUESTED:      95033  ISSUED:      95033  USEFUL:       8390  USELESS:      69412
L2C USEFUL LOAD PREFETCHES:       8390 PREFETCH ISSUED TO LOWER LEVEL:      77917  ACCURACY: 10.7679
 TIMELY PREFETCHES:       8390 LATE PREFETCHES: 460 DROPPED PREFETCHES: 0
L2C AVERAGE MISS LATENCY: 38.5912 cycles
L2C RQ	ACCESS:    3763636	FORWARD:          0	MERGED:          0	TO_CACHE:    3763592
L2C WQ	ACCESS:     520669	FORWARD:         44	MERGED:          0	TO_CACHE:     520669
L2C PQ	ACCESS:     203387	FORWARD:          0	MERGED:       3386	TO_CACHE:     200001

L2C Dense regions hint from L2: 0
PSCL5 TOTAL     ACCESS:       4150  HIT:       2075  MISS:       2075  HIT %:         50  MISS %:         50   MPKI: 0.0415
PSCL5 LOAD TRANSLATION INSTRUCTION	ACCESS:       4112  HIT:       2056  MISS:       2056  HIT %:         50  MISS %:         50  MPKI: 0.04112
PSCL5 TRANSLATION FROM L1D PREFETCHER INSTRUCTION	ACCESS:         38  HIT:         19  MISS:         19  HIT %:         50  MISS %:         50  MPKI: 0.00038


PSCL4 TOTAL     ACCESS:       3971  HIT:       1979  MISS:       1992  HIT %:    49.8363  MISS %:    50.1637   MPKI: 0.03984
PSCL4 LOAD TRANSLATION INSTRUCTION	ACCESS:       2154  HIT:       1964  MISS:        190  HIT %:    91.1792  MISS %:     8.8208  MPKI: 0.0038
PSCL4 TRANSLATION FROM L1D PREFETCHER INSTRUCTION	ACCESS:         15  HIT:         15  MISS:          0  HIT %:        100  MISS %:          0  MPKI: 0
PSCL4 LOAD TRANSLATION DATA	ACCESS:       1787  HIT:          0  MISS:       1787  HIT %:          0  MISS %:        100  MPKI: 0.03574
PSCL4 TRANSLATION FROM L1D PREFETCHER DATA	ACCESS:         15  HIT:          0  MISS:         15  HIT %:          0  MISS %:        100  MPKI: 0.0003


PSCL3 TOTAL     ACCESS:       4055  HIT:       2021  MISS:       2034  HIT %:    49.8397  MISS %:    50.1603   MPKI: 0.04068
PSCL3 LOAD TRANSLATION INSTRUCTION	ACCESS:       2196  HIT:       2006  MISS:        190  HIT %:    91.3479  MISS %:    8.65209  MPKI: 0.0038
PSCL3 TRANSLATION FROM L1D PREFETCHER INSTRUCTION	ACCESS:         15  HIT:         15  MISS:          0  HIT %:        100  MISS %:          0  MPKI: 0
PSCL3 LOAD TRANSLATION DATA	ACCESS:       1829  HIT:          0  MISS:       1829  HIT %:          0  MISS %:        100  MPKI: 0.03658
PSCL3 TRANSLATION FROM L1D PREFETCHER DATA	ACCESS:         15  HIT:          0  MISS:         15  HIT %:          0  MISS %:        100  MPKI: 0.0003


PSCL2 TOTAL     ACCESS:       4048  HIT:       1973  MISS:       2075  HIT %:    48.7401  MISS %:    51.2599   MPKI: 0.0415
PSCL2 LOAD TRANSLATION INSTRUCTION	ACCESS:       2199  HIT:       1954  MISS:        245  HIT %:    88.8586  MISS %:    11.1414  MPKI: 0.0049
PSCL2 TRANSLATION FROM L1D PREFETCHER INSTRUCTION	ACCESS:         19  HIT:         19  MISS:          0  HIT %:        100  MISS %:          0  MPKI: 0
PSCL2 LOAD TRANSLATION DATA	ACCESS:       1811  HIT:          0  MISS:       1811  HIT %:          0  MISS %:        100  MPKI: 0.03622
PSCL2 TRANSLATION FROM L1D PREFETCHER DATA	ACCESS:         19  HIT:          0  MISS:         19  HIT %:          0  MISS %:        100  MPKI: 0.00038


LLC TOTAL     ACCESS:     547660  HIT:     518616  MISS:      29044  HIT %:    94.6967  MISS %:    5.30329   MPKI: 0.58088
LLC LOAD INSTRUCTION	ACCESS:     258205  HIT:     257104  MISS:       1101  HIT %:    99.5736  MISS %:   0.426405  MPKI: 0.02202
LLC LOAD TRANSLATION INSTRUCTION	ACCESS:        197  HIT:        158  MISS:         39  HIT %:     80.203  MISS %:     19.797  MPKI: 0.00078
LLC LOAD DATA	ACCESS:      81567  HIT:      77993  MISS:       3574  HIT %:    95.6183  MISS %:    4.38167  MPKI: 0.07148
LLC RFO DATA	ACCESS:      51856  HIT:      37784  MISS:      14072  HIT %:    72.8633  MISS %:    27.1367  MPKI: 0.28144
LLC PREFETCH DATA	ACCESS:      77915  HIT:      68078  MISS:       9837  HIT %:    87.3747  MISS %:    12.6253  MPKI: 0.19674
LLC WRITEBACK DATA	ACCESS:      76570  HIT:      76240  MISS:        330  HIT %:     99.569  MISS %:   0.430978  MPKI: 0.0066
LLC LOAD TRANSLATION DATA	ACCESS:       1347  HIT:       1256  MISS:         91  HIT %:    93.2442  MISS %:    6.75575  MPKI: 0.00182
LLC TRANSLATION FROM L1D PREFETCHER DATA	ACCESS:          3  HIT:          3  MISS:          0  HIT %:        100  MISS %:          0  MPKI: 0

LLC AVERAGE MISS LATENCY: 158.899 cycles
LLC RQ	ACCESS:     393182	FORWARD:          0	MERGED:          0	TO_CACHE:     393175
LLC WQ	ACCESS:      76570	FORWARD:          9	MERGED:          0	TO_CACHE:      76570
LLC PQ	ACCESS:      77917	FORWARD:          0	MERGED:          0	TO_CACHE:      77915

LLC Dense regions hint to LLC: 0

RAW hits: 1905593
Loads Generated: 12627151
Loads sent to L1D: 10721559
Stores Generated: 6928372
Stores sent to L1D: 6928377
Major fault: 0 Minor fault: 2616
Allocated PAGES: 2616

stream: 
stream:times selected: 1226062
stream:pref_filled: 124493
stream:pref_useful: 25495
stream:pref_late: 7728
stream:misses: 9312
stream:misses_by_poll: 0

CS: 
CS:times selected: 188127
CS:pref_filled: 66370
CS:pref_useful: 42107
CS:pref_late: 7276
CS:misses: 18490
CS:misses_by_poll: 10

CPLX: 
CPLX:times selected: 1036701
CPLX:pref_filled: 22204
CPLX:pref_useful: 6104
CPLX:pref_late: 3080
CPLX:misses: 104610
CPLX:misses_by_poll: 0

NL_L1: 
NL:times selected: 13094
NL:pref_filled: 1465
NL:pref_useful: 219
NL:pref_late: 254
NL:misses: 1549
NL:misses_by_poll: 0

total selections: 2463984
total_filled: 98978
total_useful: 37997
total_late: 19941
total_polluted: 10
total_misses_after_warmup: 775820
conflicts: 5520465

test: 122206

DRAM Statistics
 CHANNEL 0
 RQ ROW_BUFFER_HIT:      10401  ROW_BUFFER_MISS:      18304
 DBUS_CONGESTED:         11
 WQ ROW_BUFFER_HIT:       1478  ROW_BUFFER_MISS:      13087  FULL:          0

 AVG_CONGESTED_CYCLE: 5

CPU 0 Branch Prediction Accuracy: 99.813% MPKI: 0.34192 Average ROB Occupancy at Mispredict: 158.943
Branch types
NOT_BRANCH: 40856820 81.7136%
BRANCH_DIRECT_JUMP: 548527 1.09705%
BRANCH_INDIRECT: 183452 0.366904%
BRANCH_CONDITIONAL: 6196610 12.3932%
BRANCH_DIRECT_CALL: 936937 1.87387%
BRANCH_INDIRECT_CALL: 170170 0.34034%
BRANCH_RETURN: 1107097 2.21419%
BRANCH_OTHER: 0 0%

DRAM PAGES: 1048576
Allocated PAGES: 2616
Average_ROB_Occupancy: 197.365
Average_Decode_Occupancy: 25.7381
Average_FTQ_Occupancy: 10.3846
Indirect max targets: 14 Average targets: 1.17197
Branch_type:  BRANCH_DIRECT_JUMP:  Count Percentage: 3.35122 6.15945 4.3103 8.47946 2.23603 6.34166 1.35674 67.7651 
Branch_type:  BRANCH_INDIRECT:  Count Percentage: 11.7583 3.47054 16.0244 9.68511 3.33413 2.79722 0.932226 51.9981 
Branch_type:  BRANCH_CONDITIONAL:  Count Percentage: 21.2655 3.27237 2.7793 4.81463 1.64442 4.8918 3.7825 57.5495 
Branch_type:  BRANCH_DIRECT_CALL:  Count Percentage: 0.855329 1.27309 0.769727 4.37378 2.29129 2.63578 0.72252 87.0785 
Branch_type:  BRANCH_INDIRECT_CALL:  Count Percentage: 9.55695 0 2.99342 0.000881801 0.695153 1.71334 1.00437 84.0359 
Branch_type:  BRANCH_RETURN:  Count Percentage: 4.68833 1.39213 1.05061 4.37338 3.75834 5.36364 3.69071 75.6829 
Branch_type:  BRANCH_DIRECT_JUMP:  Total Count: 36710 67472 47216 92886 24494 69468 14862 742315 
Branch_type:  BRANCH_INDIRECT:  Total Count: 43099 12721 58736 35500 12221 10253 3417 190595 
Branch_type:  BRANCH_CONDITIONAL:  Total Count: 2633873 405305 344235 596324 203673 605882 468488 7127898 
Branch_type:  BRANCH_DIRECT_CALL:  Total Count: 16017 23840 14414 81904 42907 49358 13530 1630642 
Branch_type:  BRANCH_INDIRECT_CALL:  Total Count: 32514 0 10184 3 2365 5829 3417 285901 
Branch_type:  BRANCH_RETURN:  Total Count: 103784 30817 23257 96812 83197 118733 81700 1675365 
Number of unique branch instructions: 10499
Upper 32 bits: 
aaaa
ffff
ffff0000
Unique upper 32 bits: 3
Unique upper 36 bits: 3
Unique upper 40 bits: 5
Unique upper 44 bits: 32
Unique upper 48 bits: 158
Variant_0 : 1459 0.178101
Variant_1 : 1602 0.195557
Variant_2 : 1589 0.19397
Variant_3 : 0 0
Offset_3 4341
Offset_4 257
Offset_5 476
Offset_6 528
Offset_7 626
Offset_8 560
Offset_9 505
Offset_10 412
Offset_11 331
Offset_12 296
Offset_13 228
Offset_14 235
Offset_15 194
Offset_16 226
Offset_17 158
Offset_18 144
Offset_19 255
Offset_20 141
Offset_21 235
Offset_22 403
Offset_23 242
Offset_24 346
Offset_25 114
Offset_47 92
Offset_64 1
decode_dispatch_called: 22928151 61.3137
Dispatch_width: 0 12203877 53.2266 32.6352
Dispatch_width: 1 704707 3.07354 1.8845
Dispatch_width: 2 681831 2.97377 1.82333
Dispatch_width: 3 431527 1.88208 1.15397
Dispatch_width: 4 3287698 14.3391 8.79185
Dispatch_width: 5 225085 0.981697 0.601915
Dispatch_width: 6 5393426 23.5232 14.4229
Empty_decode_cycles: 14466689 38.6863
ROB_full_cycles: 5272629 14.0999
Starvation_cycles_per_kilo_instr: 267.288
Starvation_cycles_per_kilo_instr_3: 232.16
Starvation_cycles_per_kilo_instr_0: 213.979
Branch_type_1  (3,1)  (4,9)  (5,39)  (6,71)  (7,125)  (8,146)  (9,133)  (10,108)  (11,74)  (12,47)  (13,11)  (14,2)  (15,3)  (16,4)  (18,1)  (19,5)  (20,2)  (21,1)  (22,3)  (23,2)  (24,10)  (25,12) 
Branch_type_2  (3,1)  (4,1)  (5,1)  (8,4)  (9,4)  (10,1)  (12,1)  (13,1)  (14,1)  (16,3)  (17,2)  (20,2)  (21,2)  (23,5)  (24,1)  (47,42) 
Branch_type_3  (3,4339)  (4,247)  (5,432)  (6,441)  (7,470)  (8,344)  (9,276)  (10,166)  (11,128)  (12,54)  (13,10)  (64,1) 
Branch_type_4  (6,3)  (7,8)  (8,25)  (9,58)  (10,65)  (11,67)  (12,107)  (13,96)  (14,105)  (15,92)  (16,99)  (17,72)  (18,61)  (19,124)  (20,73)  (21,124)  (22,212)  (23,136)  (24,201)  (25,98) 
Branch_type_5  (8,3)  (9,1)  (10,4)  (11,5)  (12,3)  (13,14)  (14,16)  (15,11)  (16,22)  (17,11)  (18,23)  (19,14)  (20,11)  (21,13)  (22,43)  (23,26)  (24,38) 
Branch_type_6  (5,4)  (6,13)  (7,23)  (8,38)  (9,33)  (10,68)  (11,57)  (12,84)  (13,96)  (14,111)  (15,88)  (16,98)  (17,73)  (18,59)  (19,112)  (20,53)  (21,95)  (22,145)  (23,73)  (24,96)  (25,4)  (47,50) 
Unique trigger count: 
Variant_0_evicts_0 : 0
Variant_0_evicts_1 : 0
Variant_0_evicts_2 : 0
Variant_0_evicts_3 : 0
Variant_1_evicts_0 : 0
Variant_1_evicts_1 : 0
Variant_1_evicts_2 : 0
Variant_1_evicts_3 : 0
Variant_2_evicts_0 : 0
Variant_2_evicts_1 : 0
Variant_2_evicts_2 : 0
Variant_2_evicts_3 : 0
Variant_3_evicts_0 : 0
Variant_3_evicts_1 : 0
Variant_3_evicts_2 : 0
Variant_3_evicts_3 : 0
BTB PER SET UNIQUE ADDR: 3 4 3 3 1 1 3 2 4 0 2 0 5 3 1 3 3 2 3 5 2 4 2 3 4 5 1 4 3 2 6 5 4 3 4 2 1 5 5 2 4 4 4 6 6 3 4 4 6 3 3 2 3 1 0 3 4 3 3 3 1 4 2 3 1 4 5 4 3 5 5 1 1 4 2 3 3 6 1 4 2 2 1 4 3 4 2 5 3 3 6 5 3 5 2 0 3 4 2 3 3 4 3 3 3 2 1 2 3 2 2 2 3 6 2 6 2 4 4 1 5 4 2 0 1 2 2 2 7 4 6 2 4 1 6 4 2 2 3 3 4 4 4 2 1 5 3 5 4 4 3 9 3 5 4 1 4 4 3 3 4 6 4 4 5 5 2 2 8 3 2 3 4 3 1 2 4 3 8 1 3 4 7 4 6 6 3 1 2 3 5 3 3 4 4 4 3 3 3 5 3 2 5 2 3 3 2 4 2 1 2 3 5 4 4 2 3 5 4 0 1 2 2 4 3 2 4 3 0 3 7 3 3 4 3 4 5 2 2 2 1 0 5 3 10 7 1 3 4 4 2 2 1 4 2 6 3 4 4 3 4 4 4 2 3 6 3 2 4 2 3 2 2 3 4 2 1 1 2 3 4 3 6 2 5 5 3 3 1 1 0 3 1 5 2 1 5 3 2 2 3 3 2 2 3 2 4 2 7 5 4 1 3 2 5 2 6 6 2 3 4 6 3 4 2 3 2 7 1 2 5 0 2 4 5 2 2 2 6 0 3 0 1 5 5 3 1 3 3 5 4 6 5 3 5 3 2 0 5 1 2 5 2 4 6 5 1 1 2 2 3 2 2 4 4 4 3 4 3 3 5 3 1 5 3 2 5 2 6 1 5 4 4 2 3 1 5 0 1 3 4 2 5 2 2 4 4 3 1 1 1 3 6 3 2 3 5 3 1 3 1 1 4 4 3 4 2 0 2 5 2 2 9 3 5 5 3 3 4 0 3 4 5 4 5 6 2 4 3 2 4 3 1 3 5 1 1 4 7 2 3 3 4 6 1 3 5 2 3 3 0 4 5 2 2 1 4 5 1 1 2 1 2 2 0 4 3 0 5 1 4 2 3 4 0 6 3 3 3 1 5 1 1 1 1 2 2 2 2 3 3 2 3 7 2 1 2 5 4 6 4 5 4 2 6 5 1 6 6 4 4 3 4 6 3 4 2 1 4 1 2 5 6 2 6 2 7 3 7 9 3 6 3 6 1 3 3 1 4 3 7 2 5 3 2 1 4 3 2 7 4 2 3 8 3 2 3 4 1 6 5 2 2 0 1 0 0 9 5 3 6 8 1 2 3 3 7 2 4 2 6 2 5 6 2 4 3 4 3 2 5 3 3 2 2 2 2 0 3 1 5 3 7 2 2 4 3 5 2 3 5 4 3 3 4 4 3 4 3 2 7 1 4 4 1 0 4 3 3 4 3 2 5 2 3 0 3 3 2 3 5 2 5 4 6 4 5 3 2 4 5 4 4 3 5 6 3 3 3 2 3 2 4 2 5 3 5 3 4 3 1 4 2 3 3 3 6 4 5 4 0 6 0 3 3 3 3 1 3 1 3 3 3 1 2 1 8 2 0 3 2 0 1 1 1 3 1 4 2 4 5 4 2 1 3 4 7 3 2 2 2 3 2 4 2 2 3 2 2 2 0 2 1 4 2 2 3 6 4 1 3 3 1 5 4 4 8 2 2 2 4 3 0 3 3 4 5 2 1 3 4 4 0 3 8 6 3 3 0 2 2 4 1 1 4 7 7 2 2 2 5 3 5 3 4 3 3 3 1 2 1 3 4 0 5 3 1 2 0 4 5 2 4 2 2 2 3 2 4 4 3 1 3 2 5 2 2 2 5 3 2 2 3 4 2 4 6 5 5 2 6 3 5 4 5 5 3 2 5 4 3 6 2 1 9 3 3 4 5 3 1 3 3 6 4 0 2 3 5 4 3 6 4 5 5 3 2 3 2 4 4 2 3 4 3 1 6 4 2 1 5 2 1 4 5 5 4 5 3 5 5 4 1 3 1 5 0 2 6 2 6 4 5 3 4 2 3 2 5 8 5 4 9 7 6 4 6 4 2 6 4 2 1 4 4 6 5 5 4 4 6 1 5 4 2 3 6 6 4 2 2 2 4 5 2 6 9 5 6 3 2 3 0 4 6 1 7 5 1 3 7 5 3 4 2 1 2 3 3 2 5 4 2 7 4 4 4 5 3 5 3 2 4 2 2 5 4 3 3 4 5 3 4 3 6 2 5 2 2 5 5 2 9 5 2 4 3 2 2 3 3 7 6 2 3 2 3 2 2 1 3 2 4 4 1 4 6 5 4 6 0 3 3 4 4 4 2 1 3 2 3 1 2 1 4 1 3 3 3 5 2 8 5 3 2 1 9 1 2 4 1 2 5 5 3 6 3 4 5 5 3 5 3 1 1 1 5 1 4 4 3 8 4 1 6 4 6 2 3 4 5 3 5 7 4 4 6 1 4 5 7 4 3 3 4 3 6 6 3 5 6 6 4 3 5 4 1 2 3 5 1 3 2 1 3 5 2 3 5 2 2 5 4 2 5 1 6 3 3 2 3 1 3 5 3 4 3 4 2 6 2 3 7 3 3 5 3 5 2 8 3 5 3 8 6 2 6 1 5 2 1 2 4 3 3 1 3 4 3 1 2 2 4 4 3 3 3 4 2 5 2 5 4 5 0 5 3 3 2 6 8 1 7 0 1 4 5 2 5 1 3 3 4 1 1 2 4 5 3 4 1 4 4 6 5 1 4 3 3 6 10 4 3 7 6 5 1 1 3 5 6 3 2 2 4 3 4 4 5 3 1 4 2 3 6 8 5 3 3 6 1 2 6 3 4 1 3 2 6 8 3 3 3 3 4 5 2 5 5 6 5 2 1 5 4 2 4 3 4 3 4 4 6 3 5 4 3 5 5 3 1 7 4 4 3 3 3 2 3 3 2 2 5 4 3 3 5 2 1 3 3 8 5 3 3 4 2 4 4 3 4 3 2 1 4 2 4 2 5 3 3 4 2 1 2 6 1 4 2 4 2 4 6 1 1 5 4 3 3 3 5 2 3 4 5 5 4 4 4 3 3 3 2 4 5 2 4 1 5 0 8 3 3 6 4 4 5 7 3 2 3 3 2 3 4 1 4 2 4 2 0 5 2 6 2 3 3 4 3 2 5 3 4 2 4 1 7 2 0 3 4 2 1 4 1 5 4 3 6 3 2 2 2 3 2 2 7 2 3 5 3 3 3 4 2 2 5 0 2 3 4 3 2 1 2 0 4 0 4 2 4 3 3 3 2 1 2 5 4 2 7 1 3 3 2 2 5 5 3 2 7 0 1 2 3 1 1 2 3 3 5 3 1 1 7 3 1 4 1 7 1 4 2 3 6 2 3 2 1 3 3 1 3 3 4 2 3 3 1 3 0 5 2 3 3 0 4 3 5 3 5 3 3 4 1 3 1 1 1 3 4 0 2 3 3 3 4 1 3 3 2 9 7 2 3 2 4 1 1 3 5 2 3 0 3 2 4 2 3 5 6 5 8 0 4 1 8 4 4 5 3 7 2 4 8 3 0 6 4 3 3 5 3 3 2 1 1 5 2 2 2 3 2 3 6 3 5 3 6 1 1 5 4 3 3 5 4 3 6 2 5 5 2 6 4 3 3 1 3 7 5 3 2 3 3 3 4 4 2 2 3 1 3 1 3 7 0 2 2 3 3 3 5 3 4 2 6 1 2 2 5 2 4 5 6 1 1 7 2 4 2 3 4 7 2 3 2 4 6 3 4 3 5 3 5 9 3 3 3 5 2 5 4 3 2 3 0 2 2 4 4 3 2 4 3 5 4 2 4 8 0 3 2 4 4 3 3 4 3 6 3 4 1 5 3 3 4 2 3 0 2 5 0 7 2 6 5 1 4 3 2 0 4 2 3 5 3 6 2 3 2 2 3 5 6 1 3 3 0 3 2 3 5 3 2 3 5 2 3 2 6 4 3 1 4 3 0 2 4 1 1 8 2 0 4 2 4 3 2 3 6 3 2 6 1 5 4 7 2 7 5 3 3 2 7 1 4 0 3 3 4 4 3 4 2 1 2 4 0 3 0 3 4 6 2 2 5 2 3 3 3 1 2 2 4 2 4 2 5 3 2 3 1 1 3 2 3 2 3 4 2 1 1 2 2 5 1 5 1 5 4 3 3 2 5 1 2 3 5 4 2 4 5 6 3 3 3 4 3 2 0 3 2 0 2 1 2 2 4 2 5 2 2 3 4 1 2 4 3 2 3 8 3 2 7 7 4 2 4 2 3 5 3 4 5 3 4 1 2 4 5 4 2 4 3 2 5 3 5 7 3 3 0 4 1 0 2 3 0 4 4 6 1 3 3 7 5 0 2 2 4 2 5 2 3 3 8 3 2 2 3 7 2 7 3 4 7 0 1 3 1 4 4 2 0 2 3 4 5 4 1 0 3 4 6 1 1 1 3 6 2 1 5 5 3 3 4 4 1 6 2 6 2 1 2 2 2 2 6 1 3 3 3 3 4 1 4 3 5 3 4 2 1 3 6 4 3 0 
BTB PER SET COUNT: 3 4 3 3 1 2 4 2 6 0 2 0 8 3 1 3 3 3 3 1462 2 5 3 3 4 8 1 4 1457 2 9 5 6 4 5 2 2910 5 11 2 4 4 8 1167 4806 5 4 5 7 3 3 2 4 1 0 3 5 3 3 3 1 4 2 4 1 391 637 5 3 5 857 1 1 4 2 4 511 691 2 4 2 3 3 5 3 5 2 6 3 3 15 444 3 5 2 0 3 7 2 3 5 4 3 3 3 2 1 2 3 3 2 2 4 7 2 8 2 4 4 1 5 5 2 0 1 3 2 2 7 5 1022 2 4 2 17 4 3 2 3 3 5 9 6 2 1 985 5 6 4 4 3 105 3 5 14 1 4 4 1018 6 5 8 1020 6 12 1901 4 2 3434 5 2 3 5 3 1 6 4 3 961 1 3 4 13 5 7 8 4 1 2 3 6 4 3 4 5 5 3 3 4 5 3 2 6 2 4 3 2 1463 2 1 4 5 6 4 5 3 5 10 4 0 1 2 2 4 3 2 6 36 0 3 1236 3 3 5 3 5 8 2 2 2 1 0 6 3 14 12 1 3 4 4 2 2 1 4 2 7 4 4 5 4 7 4 4 3 1457 6 6 2 4 2 3 2 2 3 5 3 1 1 2 3 5 1017 8 2 5 1528 3 3 1 1 0 1896 1 6 6 1 10 3 2 3 3 3 2 2 4 2 4 2 2038 5 6 1 3 2 5 5 6 11 2 4 5 6 4 4 2 4 2 12 1 2 1023 0 2 4 1898 2 1018 2 9 0 3 0 1 1021 1022 3 1 3 5 7 4 9 6 3 7 5 2 0 8 1 3 5 2 5 10 8 1 2 3 3 4 2 2 8 6 4 6 4 4 4 27 3 1 6 4 2 11 2 7 1 5 5 4 2 4 1 1462 0 1 3 5 2 6 2 2 5 1458 4 1 947 1 3 6 6 948 3 209 4 1 94 1 1 7 6 3 5 6 0 2 7 118 2 2782 3 8 7 4 3 5 0 3 5 8 4 6 29 2 5 3 2 5 3 1 4 5 1 1 4 1041 2 3 4 4 8 1 4 5 2 3 3 0 6 2951 509 2 1 5 5 1 1 3 1 2 509 0 6 3 0 5 1 4 2 4 5 0 11 4 3 3 1 5 10 1 1 1 2 2 2 2 3 3 2 3 8 5 1 2 5 4 1024 5 1460 6 2 8 7 1 7 6 7 4 3 4 11 3 1022 4 1 8 1 3 5 10 5 1024 2 8 3 8 3054 6 16 5 7 1 3 5 1 4 3 10 1896 5 4 2 1 7 3 2 1027 4 3 3 2046 3 2 3 5 1 8 5 49 2 0 1 0 0 2372 6 3 9 23 2 2 949 3 7 2 5 2 7 2 5 6 2 4 3 4 5 2 5 4 5 2 2 3 880 0 4 1 6 513 12 3 3 4 4 9 2 3 513 1458 3 3 4 4 5 4 3 2 2060 1 4 4 1 0 5 3 3 4 4 2 9 2 6 0 4 3 2 4 7930 3 16 4 10 6 2918 1019 3 4 881 4 4 7 5 1024 3 3 4 2 4 4 4 1018 6 5 6 1457 4 3 2 1021 2 3 3 3 6 10 15 42 0 7 0 3 4 1020 5 1 3 2 3 3 5 1 1018 1 1470 2 0 3 2 0 1 1 1 5 1 1011 2 4 1896 4 948 1 4 4 17 3 3 2 2 3 3 4 2 2 512 2 2 1019 0 2 1 7 2 2 3 6 4 1 3 3 1 6 4 4 18 2 4 2 4 22 0 78 4 4 7 4 1 3 4 27 0 1895 778 16 5 3 0 2 2 1402 1 1 4 8 1162 2 2 2 5 3 5 1020 2036 6 5 3 2 5 1 3 5 0 7 5 1 2 0 4 11 2 4 2 2 2 3 2 6 59 3 1 3 2 9 1019 3 2 5 3 2 2 3 1459 2 8 2945 7 6 3 8 3 5 6 10 8 3 2 9 7 3 8 3 1 2591 949 3 5 7 7 1 5 3 17 6 0 4 3 5 4 3 6 5 6 8 3 2 3 2 5 6 2 3 4 3 1 8 4 2 1 5 2 1 48 13 6 5 5 3 10 5 4 1 3 1 5 0 2 8 2 10 4 6 3 7 2 3 2 5 1023 9 512 2956 1326 8 4 46 4 3 9 4 2 1 951 5 11 5 260 7 4 6 1 7 5 3 3 14 8 5 2 2 511 4 8 2 9 41 9 6 4 2 3 0 389 10 2 955 5 1 3 1024 8 511 6 2 3 2 5 3 2 7 1021 2 1022 4 6 4 2034 3 7 5 2 4 2 2 8 4 4 5 5 2039 4 2405 388 1703 5 9 2 2 6 700 5 2464 9 2 1020 4 2 2 3 3 24 6 5 4 1894 3 2 2 1 1018 2 6 4 1 4 10 7 4 6 0 3 3 4 1458 391 2 1 3 2 6 1 2 1 6 1 3 4 3 8 2 13 8 5 2 3 1903 1 2 4 1 2 6 99 4 13 3 4 6 5 4 5 3 1 1 1 9 1 1020 4 4 16 4 1 6 4 19 2 512 4 7 4 6 686 4 4 10 2 4 9 9 4 3 3 5 3 6 1007 3 5 6 949 6 3 6 8 1 2 3 5 1 3 2 1 3 8 4 5 1637 2 2 6 4 2 5 1 9 4 3 3 3 1 3 6 3 8 3 4 3 9 2 4 14 3 5 10 4 5 2 13 6 1020 3 1024 6 2 953 1 16 2 1 2 513 1018 3 1 4 126 4 1 2 510 5 4 3 3 5 4 2 1528 2 6 4 6 0 10 3 3 2 7 962 1 10 0 1 7 5 3 7 1 3 1526 9 1 1 2 5 4873 3 4 1 5 6 6 5 1 5 3 3 8 4508 1912 5 1537 9 5 1 1 5 5 8 6 2 2 4 3 4 4 5 3 1 6 2 3 6 481 8 4 3 9 1 2 6 3 4 1 3 2 6 1476 949 5 3 3 5 7 2 5 5 7 6 2 1 21 4 2 4 4 2912 3 6 4 7 3 5 4 1020 5 2541 1030 1 2213 4 4 3 3 3 3 3 3 2 2 6 4 3 3 5 2 1 4 4 2044 8 4 3 4 2 6 4 3 4 4 3 1 4 2 6 2 5 3 1020 5 2 1 2 6 1 4 2 4 2 7 12 1 1 5 4 949 3 3 11 2 3 52 8 6 5 4 4 3 3 3 3 6 7 4 6 1 7 0 8 3 3 9 6 4 5 2717 4 2 3 3 2 3 5 1 6 4 1020 4 0 5 2 7 2 4 3 7 3 2 1459 3 4 1334 8 1 448 2 0 3 5 2 1 1336 1 1020 4 3 6 4 3 2 2 4 2 2 3527 2 4 13 4 3 3 4 2 2 8 0 5 1023 4 949 2 1 2 0 4 0 4 2 6 3 3 4 1018 1 11 19 20 2 2548 1 3 3 2 2 7 1025 111 2 20381 0 1 2 3 1 1 3 3 4 273 376 1 1 42 3 1 4 1 9 1 4 2 4 26 2 15 2 1 3 3 1 4 3 4 2 3 4 1 3 0 3714 2 3 5 0 5 431 5 3 7 3 3 5 1 5 1 1 1 5 8 0 2 3 4 4 19 1 877 3 2 30 7 2 5 2 4 1 1 6 953 2 3 0 3 2 4 2 3 5 6 8 36 0 879 1 12 4 4 5 3 2545 2 6 4863 3 0 1021 1458 3 4 8 6 5 2 1 1 956 3 2 2 3 2 4 7 5 5 3 2916 3049 1 5 4 4 3 11 4 4 8 3 1019 5 2 6 7 1246 389 1 1457 16 6 176 9 3 3 3 5 4 2 13 4 1 3 1 3 8 0 3 2 3 3 3 514 3 4 3 13 1 2 2 9 2 1532 9 7 1 1 8 2 1021 2 3 4 8 511 3 2 1020 6 4 513 5 895 3 2036 6500 3 3 14554 1026 2 2038 1460 4 2 1018 0 2 2 4 4 3 2 6 3 5 5 2 167 12 0 2403 2 1458 176 3 4 4 5 7 3 739 1 5 6 4 6 2 1893 0 1017 576 0 2496 2 15 8 1 4 3 2 0 4 2 6 5 3 9 2 4 3 4 3 5 10 1 4 488 0 3 2 4 1021 1894 2 4 952 2 4 2 1475 4 3 1 4 3 0 2 21 1455 1 2834 2 0 4 3 4 3 4 5 9 3 455 9 1 5 4 10 226 1025 167 3 3 2 693 2 464 0 3 2911 5 5 3 6 2 1 2 442 0 4 0 3 4 11 2 2 1900 385 3 5 951 1 2 2 4 2 4 2 32 3 1017 3 1 1 471 2 3 2 3 6 2 1 1 2 2 5 1 8 1 3713 4 3 3 7 10 1 2 3 5 4 3 1020 9 8 3 4 3 4 3 2 0 3 3 0 2 1 2 2 4 5 5 2 2 3 7 1 2 4 3 2 3 18 4 2 1400 15 130 2 4 4 3 6 3 7 8 7 6 2 3 4 7 1020 2 6 3 2 5 3 6 12 3 5 0 1894 2 0 2 5 0 4 2912 781 1 3 3 980 7 0 4 2 7 3 8 2 5 3 4395 3 2 3 3 528 6 1023 3 5 5014 0 1 3 1 5 4 2 0 2 3 2910 6 4 1 0 6 6 8 1 1 1 3 9 2 1 5 7 3 4 4 4 1 29 2 6 8 2 2 2 2 2 11 1 3 3 3 4 5 1 4 3 372 3 4 2 2 4 1481 4 5 0 
To predecode: 0
Predecoding something: 0
Predecode request dropped: 0
sizeofblock_0 0
sizeofblock_1 118671
sizeofblock_2 84769
sizeofblock_3 62019
sizeofblock_4 5529
sizeofblock_5 0
sizeofblock_6 0
sizeofblock_7 0
sizeofblock_8 0
