
*** ChampSim Multicore Out-of-Order Simulator ***

Warmup Instructions: 50000000
Simulation Instructions: 50000000
Number of CPUs: 1
LLC sets: 2048
LLC ways: 16
Off-chip DRAM Size: 4096 MB Channels: 1 Width: 64-bit Data Rate: 6400 MT/s
CPU 0 runs ./micro_traces/srv458.trace.gz
.gz
ITLB has LRU replacement policy
DTLB has LRU replacement policy
STLB has LRU replacement policy
FDIP Prefetcher at L1I
L1I has LRU replacement policy
L1D has LRU replacement policy
Initialize SRRIP state for L2C
Initialize DRRIP state for LLC
Heartbeat CPU 0 instructions: 10000003 cycles: 2797405 heartbeat IPC: 3.57474 cumulative IPC: 3.57474 (Simulation time: 0 hr 2 min 11 sec) 
Heartbeat CPU 0 instructions: 20000000 cycles: 5594204 heartbeat IPC: 3.57552 cumulative IPC: 3.57513 (Simulation time: 0 hr 4 min 11 sec) 
Heartbeat CPU 0 instructions: 30000003 cycles: 8391220 heartbeat IPC: 3.57524 cumulative IPC: 3.57517 (Simulation time: 0 hr 6 min 21 sec) 
Heartbeat CPU 0 instructions: 40000001 cycles: 11187301 heartbeat IPC: 3.57643 cumulative IPC: 3.57548 (Simulation time: 0 hr 8 min 26 sec) 
Heartbeat CPU 0 instructions: 50000000 cycles: 13981995 heartbeat IPC: 3.57821 cumulative IPC: 3.57603 (Simulation time: 0 hr 10 min 22 sec) 

Warmup complete CPU 0 instructions: 50000004 cycles: 13981996 (Simulation time: 0 hr 10 min 22 sec) 

Cycle: 20000000 FTQ IN: 57804610 FTQ occupancy: 19.1711 DECODE IN: 57804472 DECODE occupancy: 49.4336 ROB IN: 57804412 ROB occupancy: 299.735 ROB OUT: 57804060
Heartbeat CPU 0 instructions: 60000001 cycles: 21794787 heartbeat IPC: 1.27995 cumulative IPC: 1.27995 (Simulation time: 0 hr 12 min 31 sec) 
Heartbeat CPU 0 instructions: 70000002 cycles: 29513882 heartbeat IPC: 1.29549 cumulative IPC: 1.28767 (Simulation time: 0 hr 14 min 48 sec) 
Cycle: 30000000 FTQ IN: 12824580 FTQ occupancy: 10.5096 DECODE IN: 12824633 DECODE occupancy: 25.1378 ROB IN: 12824693 ROB occupancy: 186.563 ROB OUT: 12824948
Heartbeat CPU 0 instructions: 80000000 cycles: 37317306 heartbeat IPC: 1.28149 cumulative IPC: 1.28561 (Simulation time: 0 hr 17 min 5 sec) 
Cycle: 40000000 FTQ IN: 12866706 FTQ occupancy: 10.5047 DECODE IN: 12866772 DECODE occupancy: 25.0622 ROB IN: 12866772 ROB occupancy: 185.434 ROB OUT: 12866867
Heartbeat CPU 0 instructions: 90000003 cycles: 45014926 heartbeat IPC: 1.2991 cumulative IPC: 1.28895 (Simulation time: 0 hr 19 min 15 sec) 
Cycle: 50000000 FTQ IN: 12927445 FTQ occupancy: 10.3496 DECODE IN: 12927464 DECODE occupancy: 24.8823 ROB IN: 12927464 ROB occupancy: 185.289 ROB OUT: 12927307
Heartbeat CPU 0 instructions: 100000001 cycles: 52873857 heartbeat IPC: 1.27244 cumulative IPC: 1.28562 (Simulation time: 0 hr 22 min 23 sec) 
Finished CPU 0 instructions: 50000001 cycles: 38891862 cumulative IPC: 1.28562 (Simulation time: 0 hr 22 min 23 sec) 

ChampSim completed all CPUs

Region of Interest Statistics

CPU 0 cumulative IPC: 1.28562 instructions: 50000001 cycles: 38891862
 Fetch stage stalled: 60.0908  Sim cycles: 38891862 fetch stall cycle: 23370439
 Empty decode stage: 45.7739  Sim cycles: 38891862 fetch stall cycle: 17802305
ITLB TOTAL     ACCESS:    5679975  HIT:    5186481  MISS:     493494  HIT %:    91.3117  MISS %:    8.68831   MPKI: 9.86988
ITLB LOAD TRANSLATION INSTRUCTION	ACCESS:    5552396  HIT:    5058902  MISS:     493494  HIT %:    91.1121  MISS %:    8.88795  MPKI: 9.86988
ITLB TRANSLATION FROM L1D PREFETCHER INSTRUCTION	ACCESS:     127579  HIT:     127579  MISS:          0  HIT %:        100  MISS %:          0  MPKI: 0

ITLB AVERAGE MISS LATENCY: 9.06273 cycles
ITLB RQ	ACCESS:    7648641	FORWARD:          0	MERGED:    1474127	TO_CACHE:    6174514

DTLB TOTAL     ACCESS:    9100370  HIT:    8626871  MISS:     473499  HIT %:    94.7969  MISS %:    5.20307   MPKI: 9.46998
DTLB LOAD TRANSLATION DATA	ACCESS:    9100370  HIT:    8626871  MISS:     473499  HIT %:    94.7969  MISS %:    5.20307  MPKI: 9.46998

DTLB AVERAGE MISS LATENCY: 9.31906 cycles
DTLB RQ	ACCESS:   13440983	FORWARD:          0	MERGED:    4304577	TO_CACHE:    9136406

STLB TOTAL     ACCESS:    1216380  HIT:    1214255  MISS:       2125  HIT %:    99.8253  MISS %:   0.174699   MPKI: 0.0425
STLB LOAD TRANSLATION INSTRUCTION	ACCESS:     493494  HIT:     493172  MISS:        322  HIT %:    99.9348  MISS %:   0.065249  MPKI: 0.00644
STLB LOAD TRANSLATION DATA	ACCESS:     473382  HIT:     471610  MISS:       1772  HIT %:    99.6257  MISS %:   0.374328  MPKI: 0.03544
STLB TRANSLATION FROM L1D PREFETCHER DATA	ACCESS:     249504  HIT:     249473  MISS:         31  HIT %:    99.9876  MISS %:  0.0124247  MPKI: 0.00062

STLB AVERAGE MISS LATENCY: 73.0922 cycles
STLB RQ	ACCESS:    1337464	FORWARD:          0	MERGED:     121046	TO_CACHE:    1216418

STLB Hit, L1D data hit: 0
STLB Hit, L2C data hit: 0
STLB Hit, LLC data hit: 0
STLB Hit, LLC data miss: 0
STLB STLB hints to L2: 0
L1D TOTAL     ACCESS:   13191043  HIT:   12074197  MISS:    1116846  HIT %:    91.5333  MISS %:     8.4667   MPKI: 22.3369
L1D LOAD DATA	ACCESS:    6644134  HIT:    5909437  MISS:     734697  HIT %:    88.9422  MISS %:    11.0578  MPKI: 14.6939
L1D RFO DATA	ACCESS:    6216794  HIT:    5930077  MISS:     286717  HIT %:     95.388  MISS %:    4.61198  MPKI: 5.73434
L1D PREFETCH DATA	ACCESS:     330115  HIT:     234683  MISS:      95432  HIT %:    71.0913  MISS %:    28.9087  MPKI: 1.90864

L1D PREFETCH  REQUESTED:     741269  ISSUED:     741269  USEFUL:      34785  USELESS:      68191
L1D USEFUL LOAD PREFETCHES:      34785 PREFETCH ISSUED TO LOWER LEVEL:     103086  ACCURACY: 33.7437
 TIMELY PREFETCHES:      34785 LATE PREFETCHES: 7570 DROPPED PREFETCHES: 10
L1D AVERAGE MISS LATENCY: 233135 cycles
L1D RQ	ACCESS:   10764106	FORWARD:          0	MERGED:    3920470	TO_CACHE:    6678545
L1D WQ	ACCESS:    6950203	FORWARD:     165418	MERGED:     187765	TO_CACHE:    6762438
L1D PQ	ACCESS:     370798	FORWARD:          0	MERGED:          0	TO_CACHE:     370471

L1D UNIQUE REGIONS ACCESSED: 0
L1D REGIONS CONFLICTS: 0
L1D Cross Page Prefetch Requests: 6863
L1D Same Page Prefetch Requests: 749137
L1D ROI Sum of L1D PQ occupancy: 4708673
L1D PREFETCHES PUSHED FROM L2C: 0
L1I TOTAL     ACCESS:    6986459  HIT:    4224942  MISS:    2761517  HIT %:    60.4733  MISS %:    39.5267   MPKI: 55.2303
L1I LOAD INSTRUCTION	ACCESS:    6400510  HIT:    3638993  MISS:    2761517  HIT %:    56.8547  MISS %:    43.1453  MPKI: 55.2303
L1I PREFETCH INSTRUCTION	ACCESS:     585949  HIT:     585949  MISS:          0  HIT %:        100  MISS %:          0  MPKI: 0

L1I PREFETCH  REQUESTED:    1367431  ISSUED:    1367431  USEFUL:          0  USELESS:          0
L1I USEFUL LOAD PREFETCHES:          0 PREFETCH ISSUED TO LOWER LEVEL:          0  ACCURACY: -nan
 TIMELY PREFETCHES:          0 LATE PREFETCHES: 0 DROPPED PREFETCHES: 0
L1I AVERAGE MISS LATENCY: 17.4477 cycles
L1I RQ	ACCESS:    9499736	FORWARD:          0	MERGED:    2832665	TO_CACHE:    6667071
L1I PQ	ACCESS:    1367431	FORWARD:          0	MERGED:     385861	TO_CACHE:     981570

L1BTB TOTAL     ACCESS:    5670510  HIT:    2045385  MISS:    3625125  HIT %:    36.0706  MISS %:    63.9294   MPKI: 72.5025
L1BTB BRANCH_DIRECT_JUMP	ACCESS:     548697 HIT:     144835 MISS:     403862 AVERAGE STALL: 43.1631 AVERAGE FETCH STALL: 19.7751 AVERAGE FETCH QUEUE STALL: 11.0774 AVERAGE DECODE STALL: 11.4753 AVERAGE EXECUTE STALL: 6.17299e+14
L1BTB BRANCH_INDIRECT	ACCESS:     183287 HIT:      66282 MISS:     117005 AVERAGE STALL: 99.6577 AVERAGE FETCH STALL: 12.896 AVERAGE FETCH QUEUE STALL: 12.2465 AVERAGE DECODE STALL: 10.3299 AVERAGE EXECUTE STALL: 63.2463
L1BTB BRANCH_CONDITIONAL	ACCESS:    2712313 HIT:    1420416 MISS:    1291897 AVERAGE STALL: 46.7211 AVERAGE FETCH STALL: 23.0946 AVERAGE FETCH QUEUE STALL: 12.8363 AVERAGE DECODE STALL: 10.027 AVERAGE EXECUTE STALL: 2.53445e+14
L1BTB BRANCH_DIRECT_CALL	ACCESS:     941975 HIT:     104407 MISS:     837568 AVERAGE STALL: 45.4524 AVERAGE FETCH STALL: 22.857 AVERAGE FETCH QUEUE STALL: 12.5154 AVERAGE DECODE STALL: 9.33352 AVERAGE EXECUTE STALL: 3.43841e+14
L1BTB BRANCH_INDIRECT_CALL	ACCESS:     171131 HIT:      20797 MISS:     150334 AVERAGE STALL: 122.398 AVERAGE FETCH STALL: 15.7174 AVERAGE FETCH QUEUE STALL: 11.3041 AVERAGE DECODE STALL: 8.52983 AVERAGE EXECUTE STALL: 86.3207
L1BTB BRANCH_RETURN	ACCESS:    1113107 HIT:     288648 MISS:     824459 AVERAGE STALL: 42.9835 AVERAGE FETCH STALL: 18.4701 AVERAGE FETCH QUEUE STALL: 6.86002 AVERAGE DECODE STALL: 6.54399 AVERAGE EXECUTE STALL: 2.64948e+14
L1BTB BRANCH_OTHER ACCESS:          0 HIT:          0 MISS:          0 AVERAGE STALL: -nan AVERAGE FETCH STALL: -nan AVERAGE FETCH QUEUE STALL: -nan AVERAGE DECODE STALL: -nan AVERAGE EXECUTE STALL: -nan
L1BTB TOTAL ROB OCCUPANCY AT BTB MISS: 9.46391

L2BTB TOTAL     ACCESS:    3599716  HIT:    3358833  MISS:     240883  HIT %:    93.3083  MISS %:    6.69172   MPKI: 4.81766
L2BTB BRANCH_DIRECT_JUMP	ACCESS:     399678 HIT:     373960 MISS:      25718 AVERAGE STALL: 43.1631 AVERAGE FETCH STALL: 19.7751 AVERAGE FETCH QUEUE STALL: 11.0774 AVERAGE DECODE STALL: 11.4753 AVERAGE EXECUTE STALL: 6.17299e+14
L2BTB BRANCH_INDIRECT	ACCESS:     106759 HIT:     102105 MISS:       4654 AVERAGE STALL: 99.6577 AVERAGE FETCH STALL: 12.896 AVERAGE FETCH QUEUE STALL: 12.2465 AVERAGE DECODE STALL: 10.3299 AVERAGE EXECUTE STALL: 63.2463
L2BTB BRANCH_CONDITIONAL	ACCESS:    1291897 HIT:    1218716 MISS:      73181 AVERAGE STALL: 46.7211 AVERAGE FETCH STALL: 23.0946 AVERAGE FETCH QUEUE STALL: 12.8363 AVERAGE DECODE STALL: 10.027 AVERAGE EXECUTE STALL: 2.53445e+14
L2BTB BRANCH_DIRECT_CALL	ACCESS:     837567 HIT:     783891 MISS:      53676 AVERAGE STALL: 45.4524 AVERAGE FETCH STALL: 22.857 AVERAGE FETCH QUEUE STALL: 12.5154 AVERAGE DECODE STALL: 9.33352 AVERAGE EXECUTE STALL: 3.43841e+14
L2BTB BRANCH_INDIRECT_CALL	ACCESS:     140764 HIT:     125354 MISS:      15410 AVERAGE STALL: 122.398 AVERAGE FETCH STALL: 15.7174 AVERAGE FETCH QUEUE STALL: 11.3041 AVERAGE DECODE STALL: 8.52983 AVERAGE EXECUTE STALL: 86.3207
L2BTB BRANCH_RETURN	ACCESS:     823051 HIT:     754807 MISS:      68244 AVERAGE STALL: 42.9835 AVERAGE FETCH STALL: 18.4701 AVERAGE FETCH QUEUE STALL: 6.86002 AVERAGE DECODE STALL: 6.54399 AVERAGE EXECUTE STALL: 2.64948e+14
L2BTB BRANCH_OTHER ACCESS:          0 HIT:          0 MISS:          0 AVERAGE STALL: -nan AVERAGE FETCH STALL: -nan AVERAGE FETCH QUEUE STALL: -nan AVERAGE DECODE STALL: -nan AVERAGE EXECUTE STALL: -nan
L2BTB TOTAL ROB OCCUPANCY AT BTB MISS: 142.425

L2C TOTAL     ACCESS:    4493839  HIT:    3985531  MISS:     508308  HIT %:    88.6888  MISS %:    11.3112   MPKI: 10.1662
L2C LOAD INSTRUCTION	ACCESS:    2761517  HIT:    2487622  MISS:     273895  HIT %:    90.0817  MISS %:    9.91828  MPKI: 5.4779
L2C LOAD TRANSLATION INSTRUCTION	ACCESS:        362  HIT:         91  MISS:        271  HIT %:    25.1381  MISS %:    74.8619  MPKI: 0.00542
L2C LOAD DATA	ACCESS:     727099  HIT:     646208  MISS:      80891  HIT %:    88.8748  MISS %:    11.1252  MPKI: 1.61782
L2C RFO DATA	ACCESS:     286599  HIT:     229952  MISS:      56647  HIT %:    80.2348  MISS %:    19.7652  MPKI: 1.13294
L2C PREFETCH DATA	ACCESS:     194590  HIT:     117405  MISS:      77185  HIT %:    60.3345  MISS %:    39.6655  MPKI: 1.5437
L2C WRITEBACK DATA	ACCESS:     521760  HIT:     503647  MISS:      18113  HIT %:    96.5285  MISS %:    3.47152  MPKI: 0.36226
L2C LOAD TRANSLATION DATA	ACCESS:       1854  HIT:        566  MISS:       1288  HIT %:    30.5286  MISS %:    69.4714  MPKI: 0.02576
L2C TRANSLATION FROM L1D PREFETCHER DATA	ACCESS:         58  HIT:         40  MISS:         18  HIT %:    68.9655  MISS %:    31.0345  MPKI: 0.00036

L2C PREFETCH  REQUESTED:      99488  ISSUED:      99488  USEFUL:       8125  USELESS:      69911
L2C USEFUL LOAD PREFETCHES:       8125 PREFETCH ISSUED TO LOWER LEVEL:      77753  ACCURACY: 10.4498
 TIMELY PREFETCHES:       8125 LATE PREFETCHES: 567 DROPPED PREFETCHES: 0
L2C AVERAGE MISS LATENCY: 38.4778 cycles
L2C RQ	ACCESS:    3777551	FORWARD:          0	MERGED:          0	TO_CACHE:    3777489
L2C WQ	ACCESS:     521760	FORWARD:         62	MERGED:          0	TO_CACHE:     521760
L2C PQ	ACCESS:     202574	FORWARD:          0	MERGED:       3668	TO_CACHE:     198906

L2C Dense regions hint from L2: 0
PSCL5 TOTAL     ACCESS:       4278  HIT:       2139  MISS:       2139  HIT %:         50  MISS %:         50   MPKI: 0.04278
PSCL5 LOAD TRANSLATION INSTRUCTION	ACCESS:       4164  HIT:       2082  MISS:       2082  HIT %:         50  MISS %:         50  MPKI: 0.04164
PSCL5 TRANSLATION FROM L1D PREFETCHER INSTRUCTION	ACCESS:        114  HIT:         57  MISS:         57  HIT %:         50  MISS %:         50  MPKI: 0.00114


PSCL4 TOTAL     ACCESS:       4006  HIT:       1997  MISS:       2009  HIT %:    49.8502  MISS %:    50.1498   MPKI: 0.04018
PSCL4 LOAD TRANSLATION INSTRUCTION	ACCESS:       2359  HIT:       1940  MISS:        419  HIT %:    82.2382  MISS %:    17.7618  MPKI: 0.00838
PSCL4 TRANSLATION FROM L1D PREFETCHER INSTRUCTION	ACCESS:         68  HIT:         57  MISS:         11  HIT %:    83.8235  MISS %:    16.1765  MPKI: 0.00022
PSCL4 LOAD TRANSLATION DATA	ACCESS:       1533  HIT:          0  MISS:       1533  HIT %:          0  MISS %:        100  MPKI: 0.03066
PSCL4 TRANSLATION FROM L1D PREFETCHER DATA	ACCESS:         46  HIT:          0  MISS:         46  HIT %:          0  MISS %:        100  MPKI: 0.00092


PSCL3 TOTAL     ACCESS:       4138  HIT:       2063  MISS:       2075  HIT %:     49.855  MISS %:     50.145   MPKI: 0.0415
PSCL3 LOAD TRANSLATION INSTRUCTION	ACCESS:       2425  HIT:       2006  MISS:        419  HIT %:    82.7216  MISS %:    17.2784  MPKI: 0.00838
PSCL3 TRANSLATION FROM L1D PREFETCHER INSTRUCTION	ACCESS:         68  HIT:         57  MISS:         11  HIT %:    83.8235  MISS %:    16.1765  MPKI: 0.00022
PSCL3 LOAD TRANSLATION DATA	ACCESS:       1599  HIT:          0  MISS:       1599  HIT %:          0  MISS %:        100  MPKI: 0.03198
PSCL3 TRANSLATION FROM L1D PREFETCHER DATA	ACCESS:         46  HIT:          0  MISS:         46  HIT %:          0  MISS %:        100  MPKI: 0.00092


PSCL2 TOTAL     ACCESS:       4164  HIT:       2025  MISS:       2139  HIT %:    48.6311  MISS %:    51.3689   MPKI: 0.04278
PSCL2 LOAD TRANSLATION INSTRUCTION	ACCESS:       2293  HIT:       1969  MISS:        324  HIT %:      85.87  MISS %:      14.13  MPKI: 0.00648
PSCL2 TRANSLATION FROM L1D PREFETCHER INSTRUCTION	ACCESS:         56  HIT:         56  MISS:          0  HIT %:        100  MISS %:          0  MPKI: 0
PSCL2 LOAD TRANSLATION DATA	ACCESS:       1759  HIT:          0  MISS:       1759  HIT %:          0  MISS %:        100  MPKI: 0.03518
PSCL2 TRANSLATION FROM L1D PREFETCHER DATA	ACCESS:         56  HIT:          0  MISS:         56  HIT %:          0  MISS %:        100  MPKI: 0.00112


LLC TOTAL     ACCESS:     572249  HIT:     541840  MISS:      30409  HIT %:    94.6861  MISS %:    5.31395   MPKI: 0.60818
LLC LOAD INSTRUCTION	ACCESS:     273895  HIT:     272583  MISS:       1312  HIT %:     99.521  MISS %:   0.479016  MPKI: 0.02624
LLC LOAD TRANSLATION INSTRUCTION	ACCESS:        271  HIT:        226  MISS:         45  HIT %:    83.3948  MISS %:    16.6052  MPKI: 0.0009
LLC LOAD DATA	ACCESS:      80423  HIT:      77038  MISS:       3385  HIT %:     95.791  MISS %:    4.20899  MPKI: 0.0677
LLC RFO DATA	ACCESS:      56544  HIT:      41219  MISS:      15325  HIT %:    72.8972  MISS %:    27.1028  MPKI: 0.3065
LLC PREFETCH DATA	ACCESS:      77752  HIT:      67879  MISS:       9873  HIT %:    87.3019  MISS %:    12.6981  MPKI: 0.19746
LLC WRITEBACK DATA	ACCESS:      82058  HIT:      81666  MISS:        392  HIT %:    99.5223  MISS %:   0.477711  MPKI: 0.00784
LLC LOAD TRANSLATION DATA	ACCESS:       1288  HIT:       1212  MISS:         76  HIT %:    94.0994  MISS %:    5.90062  MPKI: 0.00152
LLC TRANSLATION FROM L1D PREFETCHER DATA	ACCESS:         18  HIT:         17  MISS:          1  HIT %:    94.4444  MISS %:    5.55556  MPKI: 2e-05

LLC AVERAGE MISS LATENCY: 157.928 cycles
LLC RQ	ACCESS:     412443	FORWARD:          0	MERGED:          0	TO_CACHE:     412439
LLC WQ	ACCESS:      82058	FORWARD:          4	MERGED:          0	TO_CACHE:      82058
LLC PQ	ACCESS:      77753	FORWARD:          0	MERGED:          0	TO_CACHE:      77753

LLC Dense regions hint to LLC: 0

RAW hits: 1879004
Loads Generated: 12643108
Loads sent to L1D: 10764106
Stores Generated: 6950194
Stores sent to L1D: 6950203
Major fault: 0 Minor fault: 2546
Allocated PAGES: 2546

stream: 
stream:times selected: 1184438
stream:pref_filled: 122240
stream:pref_useful: 23995
stream:pref_late: 6769
stream:misses: 8231
stream:misses_by_poll: 0

CS: 
CS:times selected: 180440
CS:pref_filled: 60320
CS:pref_useful: 37038
CS:pref_late: 6921
CS:misses: 16389
CS:misses_by_poll: 1

CPLX: 
CPLX:times selected: 1002780
CPLX:pref_filled: 19624
CPLX:pref_useful: 4632
CPLX:pref_late: 3178
CPLX:misses: 93620
CPLX:misses_by_poll: 2

NL_L1: 
NL:times selected: 20686
NL:pref_filled: 687
NL:pref_useful: 313
NL:pref_late: 278
NL:misses: 1795
NL:misses_by_poll: 0

total selections: 2388344
total_filled: 95432
total_useful: 34785
total_late: 18458
total_polluted: 3
total_misses_after_warmup: 769109
conflicts: 5567506

test: 115554

DRAM Statistics
 CHANNEL 0
 RQ ROW_BUFFER_HIT:      11336  ROW_BUFFER_MISS:      18669
 DBUS_CONGESTED:          9
 WQ ROW_BUFFER_HIT:       1535  ROW_BUFFER_MISS:      12718  FULL:          0

 AVG_CONGESTED_CYCLE: 5

CPU 0 Branch Prediction Accuracy: 99.8221% MPKI: 0.32518 Average ROB Occupancy at Mispredict: 174.384
Branch types
NOT_BRANCH: 40857668 81.7153%
BRANCH_DIRECT_JUMP: 548697 1.09739%
BRANCH_INDIRECT: 183287 0.366574%
BRANCH_CONDITIONAL: 6183764 12.3675%
BRANCH_DIRECT_CALL: 941975 1.88395%
BRANCH_INDIRECT_CALL: 171131 0.342262%
BRANCH_RETURN: 1113107 2.22621%
BRANCH_OTHER: 0 0%

DRAM PAGES: 1048576
Allocated PAGES: 2546
Average_ROB_Occupancy: 186.798
Average_Decode_Occupancy: 24.9729
Average_FTQ_Occupancy: 10.4408
Indirect max targets: 14 Average targets: 1.15333
Branch_type:  BRANCH_DIRECT_JUMP:  Count Percentage: 3.40006 4.3777 5.99389 14.4965 1.69574 6.58066 0.939742 62.5157 
Branch_type:  BRANCH_INDIRECT:  Count Percentage: 11.7695 3.45676 12.1929 23.3643 1.33933 14.5217 1.07403 32.2815 
Branch_type:  BRANCH_CONDITIONAL:  Count Percentage: 21.2334 2.50698 3.0038 8.91859 1.3434 4.7309 0.583102 57.6798 
Branch_type:  BRANCH_DIRECT_CALL:  Count Percentage: 0.767899 1.27784 1.42731 4.94758 2.44448 2.72251 0.774411 85.638 
Branch_type:  BRANCH_INDIRECT_CALL:  Count Percentage: 9.57335 0.565196 3.00116 4.85357 0.000582977 3.56811 0 78.438 
Branch_type:  BRANCH_RETURN:  Count Percentage: 4.46581 0.698494 3.51495 9.43406 2.12679 5.28695 1.01253 73.4604 
Branch_type:  BRANCH_DIRECT_JUMP:  Total Count: 37230 47935 65632 158734 18568 72057 10290 684535 
Branch_type:  BRANCH_INDIRECT:  Total Count: 43033 12639 44581 85427 4897 53096 3927 118031 
Branch_type:  BRANCH_CONDITIONAL:  Total Count: 2623851 309792 371185 1102086 166006 584606 72055 7127600 
Branch_type:  BRANCH_DIRECT_CALL:  Total Count: 14503 24134 26957 93443 46168 51419 14626 1617411 
Branch_type:  BRANCH_INDIRECT_CALL:  Total Count: 32843 1939 10296 16651 2 12241 0 269095 
Branch_type:  BRANCH_RETURN:  Total Count: 99700 15594 78472 210617 47481 118032 22605 1640017 
Number of unique branch instructions: 9934
Upper 32 bits: 
aaaa
ffff
ffff0000
Unique upper 32 bits: 3
Unique upper 36 bits: 3
Unique upper 40 bits: 5
Unique upper 44 bits: 32
Unique upper 48 bits: 156
Offset_3 4093
Offset_4 256
Offset_5 454
Offset_6 502
Offset_7 580
Offset_8 509
Offset_9 474
Offset_10 383
Offset_11 310
Offset_12 273
Offset_13 202
Offset_14 226
Offset_15 188
Offset_16 218
Offset_17 149
Offset_18 118
Offset_19 234
Offset_20 136
Offset_21 261
Offset_22 390
Offset_23 241
Offset_24 340
Offset_25 88
Offset_47 84
Offset_64 2
decode_dispatch_called: 22514211 57.8893
Dispatch_width: 0 11765787 52.2594 30.2526
Dispatch_width: 1 696581 3.09396 1.79107
Dispatch_width: 2 703980 3.12683 1.8101
Dispatch_width: 3 419900 1.86504 1.07966
Dispatch_width: 4 3356142 14.9068 8.62942
Dispatch_width: 5 219957 0.97697 0.56556
Dispatch_width: 6 5351864 23.771 13.7609
Empty_decode_cycles: 16377651 42.1107
ROB_full_cycles: 5377841 13.8277
Starvation_cycles_per_kilo_instr: 281.622
Starvation_cycles_per_kilo_instr_3: 245.861
Starvation_cycles_per_kilo_instr_0: 227.656
Branch_type_1  (3,1)  (4,8)  (5,38)  (6,69)  (7,115)  (8,129)  (9,128)  (10,100)  (11,69)  (12,43)  (13,8)  (14,2)  (15,3)  (16,4)  (18,1)  (19,4)  (20,2)  (21,1)  (22,3)  (23,2)  (24,10)  (25,12) 
Branch_type_2  (3,1)  (5,1)  (8,3)  (9,3)  (12,1)  (13,1)  (14,1)  (16,3)  (17,2)  (20,2)  (21,2)  (23,5)  (24,1)  (47,38) 
Branch_type_3  (3,4091)  (4,248)  (5,411)  (6,418)  (7,435)  (8,319)  (9,261)  (10,154)  (11,123)  (12,50)  (13,7)  (64,1) 
Branch_type_4  (6,3)  (7,8)  (8,25)  (9,50)  (10,60)  (11,61)  (12,96)  (13,85)  (14,100)  (15,89)  (16,97)  (17,67)  (18,53)  (19,114)  (20,70)  (21,141)  (22,206)  (23,136)  (24,191)  (25,72)  (64,1) 
Branch_type_5  (8,2)  (9,1)  (10,4)  (11,5)  (12,3)  (13,14)  (14,16)  (15,11)  (16,20)  (17,11)  (18,16)  (19,13)  (20,11)  (21,13)  (22,42)  (23,26)  (24,40) 
Branch_type_6  (5,4)  (6,12)  (7,22)  (8,31)  (9,31)  (10,65)  (11,52)  (12,80)  (13,87)  (14,107)  (15,85)  (16,94)  (17,69)  (18,48)  (19,103)  (20,51)  (21,104)  (22,139)  (23,72)  (24,98)  (25,4)  (47,46) 
aaaaab1fc620: 2ac9e77e 2aca717c 2aca8eff 2acaf6bc 2acaf9aa 2acaf9f1 2acb1abc 2acb1b7f 2acd4e22 2acdb712 2acf5f9e 2ad0ef44 2ad3f15c 2ad414e6 2ad60e42 2ad8609c 2ad99830 2ada35cc 2ada4676 2ada6612 2adf183e 2adf30e5 2adf5602 2adf785c 2ae11572 2aeb2dcf 2aee101b 2aee1ae1 2b156a8c 2b156b61 2b156bea 2b167f35 2b177656 2b17feec 2b1a3e5a 
aaaaac68f310: 2ac9ec8c 2ac9fb44 2ac9fbd2 2aca59ab 2acac04c 2acaf6e0 2acaf6ec 2acaf6f9 2acaf700 2acaf708 2acf2d90 2ad3cfbd 2ad3cfc4 2ad3d000 2ad3f35f 2ad4955d 2ad49571 2ad4f3f2 2ad4f400 2ad5f240 2ad5f37c 2ad5f86a 2ad5f86f 2ad5f880 2ad5fc0d 2ad5fc14 2ad5fc21 2ad5fe1b 2ad873bb 2ad873e3 2ad8a6b2 2ad9086e 2ad93096 2ad9bbb2 2ada152c 2ada1554 2ada3332 2ada5522 2adf3130 2adf313c 2adf3a3f 2adf3bd9 2adf5788 2adf7a8d 2ae07f6b 2ae0857a 2ae0857e 2ae08630 2ae08634 2ae08637 2ae08642 2ae0866f 2ae086e4 2ae086ec 2ae08717 2ae0871b 2aee0170 2aee1d38 2aee75f4 2aee7662 2aee85ca 2aee85e4 2aee8eef 2af70b84 2af74e8f 2b17d843 
aaaaac690ef0: 2aca598b 2acb111b 2acb175f 2acb1772 2acbfaf4 2acbfb00 2acf374f 2acf6d43 2acfa5c8 2ad3baf1 2ad3d4ac 2ad3d4b8 2ad3f1cf 2ad486b2 2ad5a59b 2ad5fc64 2ad5fcf9 2ad6121c 2ad906e9 2ad907bf 2ad9bada 2ada16ce 2ada1ad5 2ada43df 2ada64c0 2ada72ee 2adeb71a 2adf3bcb 2adf7a38 2adf7c6a 2adf8872 2adf8880 2adf9959 2adf9abe 2ae07f78 2ae08503 2ae08754 2ae12e80 2aea3bea 2aecb509 2aee00b0 2aee2bdd 2aee5467 2aee5601 2aee8f20 2af703fd 2af7048b 2af74e74 
Unique trigger count: 
1 9472
2 501
3 84
4 34
5 11
6 6
7 8
8 1
9 2
10 1
11 2
12 1
13 3
16 2
17 2
19 3
35 1
48 1
66 1
BTB PER SET UNIQUE ADDR: 4 7 7 4 3 4 8 10 10 2 6 2 8 5 5 4 6 4 7 8 4 8 6 8 8 11 1 7 6 5 10 10 6 3 8 4 4 7 7 4 8 5 5 10 9 6 5 11 11 7 6 3 13 3 4 8 5 5 8 9 4 11 4 8 5 11 8 7 5 7 6 2 6 4 6 7 6 14 5 4 8 7 8 6 6 8 7 9 8 10 10 8 9 6 6 4 10 8 4 6 8 6 9 9 5 8 7 8 7 5 6 4 4 8 6 11 3 7 6 2 7 9 4 2 6 4 5 6 10 5 10 3 11 4 8 6 5 2 6 8 8 7 6 6 3 10 4 8 10 6 7 11 6 10 5 8 6 8 6 10 10 6 10 5 9 5 3 4 14 5 5 3 7 6 3 2 5 6 9 4 6 5 9 7 6 10 5 6 7 9 5 8 6 6 6 10 9 3 10 5 4 6 8 3 8 4 5 7 6 2 3 6 9 9 6 6 4 9 8 6 6 2 6 6 6 8 12 7 2 9 13 8 4 3 6 8 9 5 3 4 4 3 9 8 14 10 1 5 5 5 8 10 6 7 5 11 4 6 9 5 8 5 7 4 9 14 5 4 7 5 7 6 4 8 9 9 5 3 4 8 7 5 9 5 9 9 6 7 9 4 6 7 4 10 6 4 5 10 6 6 6 6 4 4 6 4 6 4 10 9 5 3 8 3 6 4 8 13 6 3 6 11 5 7 5 5 6 9 4 0 7 2 5 7 9 4 6 6 7 1 5 6 2 8 6 6 3 5 8 5 5 9 8 6 8 6 7 3 7 5 6 10 6 8 11 8 4 3 4 4 8 4 6 5 7 4 11 6 5 10 9 7 7 12 6 4 8 5 5 3 10 5 8 4 7 3 6 5 2 7 6 4 6 5 5 6 7 4 4 3 4 3 9 4 2 5 8 4 2 6 2 5 5 7 10 6 3 2 4 7 3 4 14 5 8 10 6 6 6 4 4 6 8 3 6 8 4 6 6 3 6 4 5 3 9 4 4 7 9 5 5 4 6 10 5 5 10 3 6 7 2 6 9 7 5 3 10 5 2 3 5 3 3 4 3 7 10 3 6 2 10 4 4 9 1 11 4 7 4 4 11 3 3 3 2 5 5 3 2 7 7 4 5 9 3 3 2 11 6 9 6 4 7 4 11 10 4 8 9 7 5 6 4 9 4 6 4 1 6 4 4 8 9 3 8 5 10 12 12 11 5 8 7 8 2 6 8 3 6 3 10 4 8 5 5 5 9 7 9 7 8 3 9 11 7 7 6 11 3 9 13 5 1 6 4 3 3 13 7 5 7 8 3 5 4 5 6 6 5 5 9 5 9 9 7 6 5 9 7 5 9 6 6 5 8 5 7 6 5 7 7 6 9 3 5 9 7 8 4 6 8 7 6 6 7 4 5 4 5 3 10 8 5 6 2 3 6 6 9 7 8 4 10 4 6 2 9 5 6 8 11 3 6 11 7 7 7 6 5 9 7 6 6 6 11 8 7 6 8 6 7 10 9 7 8 8 6 8 7 6 3 7 2 4 4 7 10 8 7 8 3 11 4 5 7 10 4 4 5 5 7 7 6 5 5 7 9 6 1 8 4 3 6 3 4 1 3 10 2 12 7 9 7 2 6 7 6 3 6 4 4 8 5 10 4 3 5 3 5 6 6 3 4 6 2 5 4 10 9 4 5 6 6 7 7 6 14 5 6 3 9 6 0 6 8 5 6 10 3 4 8 5 4 6 10 9 9 6 4 8 3 10 4 6 6 12 11 4 5 4 12 4 8 3 7 6 7 9 4 5 4 4 6 3 4 6 1 5 5 10 6 4 10 4 5 4 5 3 6 6 8 3 7 4 10 5 4 4 6 4 5 4 6 5 4 8 8 5 7 4 8 7 7 9 6 9 7 4 8 5 6 7 4 4 12 5 6 8 9 8 4 6 6 9 7 2 2 6 7 4 3 6 6 6 9 5 7 4 4 7 8 4 4 7 5 3 9 9 4 3 12 7 4 5 8 6 5 10 6 7 9 6 4 3 2 7 4 4 7 6 9 7 9 6 8 8 6 4 5 12 5 4 11 10 5 8 10 10 2 8 8 8 5 4 6 7 9 7 7 3 9 1 13 7 3 5 9 11 6 9 5 7 10 5 3 9 10 8 9 4 2 5 3 8 10 5 8 5 4 7 12 6 5 5 5 6 4 5 8 6 8 8 7 11 4 10 6 11 5 6 3 5 5 5 6 7 7 6 6 4 8 4 9 6 10 4 9 4 3 7 10 6 13 5 
BTB PER SET COUNT: 4 7 7 5 3 4 8 38 2919 5 6 2 8 5 5 6 7 4 7 1478 4 8 7 8 8 2439 1 7 1476 5 4381 396 7 4 9 5 2945 7 8 4 8 5 7 38 1982 6 5 5335 3167 8 6 4 11796 3 12 8 6 5 8 104 4 2549 4 8 5 1376 8 7 5 7 6 2 6 4 6 7 490 3554 5 4 8 8 9 6 491 9 7 11 8 478 2105 509 38 6 8 6 3408 8 4 6 8 6 15 2143 5 10 7 8 7 5 7 4 4 9 6 3988 3 7 6 2 7 13 5 2 491 5 5 6 2007 6 540 3 5188 6 8 6 5 2 7 8 9 10 8 6 3 37 4 8 3040 8 8 3300 6 3401 5 9 6 8 6 785 1141 7 3179 5 37 1977 3 4 9842 5 5 3 8 108 3 2 5 491 1001 4 6 5 12 7 6 1946 5 6 7 13 5 8 6 6 6 35 1001 3 14 5 4 6 8 4 10 4 5 2446 7 2 3 7 17 10 6 6 5 1669 8 6 6 2 6 6 6 8 5397 2017 3 3899 8245 8 4 3 6 8 3397 5 3 4 5 3 1461 8 12275 1492 1 5 5 5 8 517 6 7 5 3414 5 6 36 7 9 5 7 4 2228 9854 991 5 7 5 8 6 4 8 32 16 5 3 4 8 9 5 20 6 1491 3399 6 8 10 4 6 7 488 2918 6 9 8 4454 7 6 6 6 4 4 7 4 6 4 1497 1491 5 3 8 3 6 6 9 4623 8 3 6 424 6 8 5 5 9 25 4 0 976 2 5 7 1003 4 980 6 7 1 5 6 2 977 977 8 3 6 8 6 5 143 9 991 8 7 11 4 7 48 6 26 6 9 44 11 5 3 5 4 8 6 6 5 7 4 3990 8 5 2258 48 7 7 6206 8 4 9 5 5 3 34 5 8 6 7 5 1476 5 2 7 6 4 6 7 5 6 2947 4 4 2348 4 3 554 5 987 5 126 4 3 1454 2 6 5 8 50 8 5 2 4 9 127 4 5594 5 8 2026 6 6 6 4 4 6 8 3 8 8 5 991 6 3 6 5 7 3 347 6 4 8 499 5 974 4 17 72 26 5 1384 3 8 7 2 7 45 496 128 3 20958 5 2 3 5 3 3 488 4 7 276 383 6 2 35 4 5 14 1 2449 4 8 5 5 3863 14 3 3 2 5 5 3 2 8 7 4 5 27 5 3 2 6946 7 494 7 1474 8 451 256 15 4 8 38 7 5 7 4 13 4 493 5 1 6 4 4 8 26 6 9 5 27 4138 4856 4843 6 8 10 12 2 6 994 3 6 3 4465 4 8 6 5 5 43 11 2913 7 8 3 1492 3403 7 7 6 3399 3 31 7025 42 1 6 1475 3 4 5329 9 5 8 9 4 990 990 6 6 6 5 6 10 6 1244 84 10 2916 5 1753 8 6 15 8 6 5 8 6 1012 6 6 8 8 744 2915 3 1476 39 7 145 9 7 492 1477 8 12 7 4 5 4 5 3 2443 9 5 6 2 4 8 6 495 7 9 4 1002 4 6 2 2429 5 1460 8 11208 4 7 5929 7 977 2949 976 7 32 493 6 6 7 3886 978 492 6 616 6 7 1466 9 976 14718 978 6 1853 1477 7 3 979 2 4 4 7 2918 9 8 35 3 1963 4 5 158 4368 4 1475 5 1475 192 8 8 5 974 7 1492 743 1 9 4 4 6 3 5 1 3 624 2 3407 7 1254 993 2 8 7 6 3 6 4 4 8 5 6422 4 3 489 3 5 975 6 3 4 479 2 5 4 2932 2430 990 6 7 992 7 7 6 8386 5 7 3 10 7 0 110 8 1478 6 3554 3 4 8 6 4 7 1883 31 38 7 442 8 3 2883 4 6 230 3559 3433 4 5 4 3918 6 204 5 1946 1476 10 27 4 8 4 4 6 504 5 8 3 5 7 1354 6 4 1254 387 5 6 990 3 6 80 8 3 7 4 1109 8 4 5 6 4 199 4 8 1476 4 10 8 5 8 6 8 7 8 10 6 6437 7 5 9 12 6 7 4 4 6416 990 6 977 2429 8 4 6 6 22 7 2 3 6 7 4 3 6 9 6 133 11 7 4 4 8 8 4 4 7 5 4 9 1491 5 3 5437 7 108 48 8 9 5 1856 6 8 88 6 4 3 2 7 4 973 7 6 9 7 38 6 12 10 6 4 5 169 6 488 3411 2487 5 9 4964 1250 3 8 8 14 5 989 7 7 17 256 9 3 18 1 5537 9 4 5 40 4376 7 2667 5 492 2915 6 4 11 23 9 10 5 2 5 3 381 53 5 993 5 4 7 3417 6 489 6 5 8 4 6 9 6 8 13 7 3408 5 53 6 3885 5 8 3 7 5 6 6 8 8 6 7 4 1948 5 2481 379 1217 4 38 6 3 8 1504 7 3916 5 
