
*** ChampSim Multicore Out-of-Order Simulator ***

Warmup Instructions: 50000000
Simulation Instructions: 50000000
Number of CPUs: 1
LLC sets: 2048
LLC ways: 16
Off-chip DRAM Size: 4096 MB Channels: 1 Width: 64-bit Data Rate: 6400 MT/s
CPU 0 runs ./micro_traces/srv416.trace.gz
.gz
ITLB has LRU replacement policy
DTLB has LRU replacement policy
STLB has LRU replacement policy
FDIP Prefetcher at L1I
L1I has LRU replacement policy
L1D has LRU replacement policy
Initialize SRRIP state for L2C
Initialize DRRIP state for LLC
Heartbeat_Variant_0 : 1327 0.323975 per_variant_size: 0 1327 0 0 0 0 0 0 0 
Heartbeat_Variant_1 : 2528 0.617188 per_variant_size: 0 578 1950 0 0 0 0 0 0 
Heartbeat_Variant_2 : 0 0 per_variant_size: 0 0 0 0 0 0 0 0 0 
Heartbeat_Variant_3 : 0 0 per_variant_size: 0 0 0 0 0 0 0 0 0 
Heartbeat_Variant_0_evicts 0 : 5759 1 : 496 2 : 0 3 : 0 
Heartbeat_Variant_1_evicts 0 : 458 1 : 0 2 : 0 3 : 0 
Heartbeat_Variant_2_evicts 0 : 0 1 : 0 2 : 0 3 : 0 
Heartbeat_Variant_3_evicts 0 : 0 1 : 0 2 : 0 3 : 0 
Heartbeat CPU 0 instructions: 10000000 cycles: 2795757 heartbeat IPC: 3.57685 cumulative IPC: 3.57685 (Simulation time: 0 hr 1 min 42 sec) 
Heartbeat_Variant_0 : 1349 0.329346 per_variant_size: 0 1349 0 0 0 0 0 0 0 
Heartbeat_Variant_1 : 2577 0.62915 per_variant_size: 0 532 2045 0 0 0 0 0 0 
Heartbeat_Variant_2 : 0 0 per_variant_size: 0 0 0 0 0 0 0 0 0 
Heartbeat_Variant_3 : 0 0 per_variant_size: 0 0 0 0 0 0 0 0 0 
Heartbeat_Variant_0_evicts 0 : 5585 1 : 168 2 : 0 3 : 0 
Heartbeat_Variant_1_evicts 0 : 161 1 : 0 2 : 0 3 : 0 
Heartbeat_Variant_2_evicts 0 : 0 1 : 0 2 : 0 3 : 0 
Heartbeat_Variant_3_evicts 0 : 0 1 : 0 2 : 0 3 : 0 
Heartbeat CPU 0 instructions: 20000001 cycles: 5590040 heartbeat IPC: 3.57874 cumulative IPC: 3.57779 (Simulation time: 0 hr 3 min 17 sec) 
Heartbeat_Variant_0 : 1358 0.331543 per_variant_size: 0 1358 0 0 0 0 0 0 0 
Heartbeat_Variant_1 : 2609 0.636963 per_variant_size: 0 541 2068 0 0 0 0 0 0 
Heartbeat_Variant_2 : 0 0 per_variant_size: 0 0 0 0 0 0 0 0 0 
Heartbeat_Variant_3 : 0 0 per_variant_size: 0 0 0 0 0 0 0 0 0 
Heartbeat_Variant_0_evicts 0 : 5737 1 : 227 2 : 0 3 : 0 
Heartbeat_Variant_1_evicts 0 : 226 1 : 0 2 : 0 3 : 0 
Heartbeat_Variant_2_evicts 0 : 0 1 : 0 2 : 0 3 : 0 
Heartbeat_Variant_3_evicts 0 : 0 1 : 0 2 : 0 3 : 0 
Heartbeat CPU 0 instructions: 30000002 cycles: 8385749 heartbeat IPC: 3.57691 cumulative IPC: 3.5775 (Simulation time: 0 hr 4 min 52 sec) 
Heartbeat_Variant_0 : 1366 0.333496 per_variant_size: 0 1366 0 0 0 0 0 0 0 
Heartbeat_Variant_1 : 2615 0.638428 per_variant_size: 0 529 2086 0 0 0 0 0 0 
Heartbeat_Variant_2 : 0 0 per_variant_size: 0 0 0 0 0 0 0 0 0 
Heartbeat_Variant_3 : 0 0 per_variant_size: 0 0 0 0 0 0 0 0 0 
Heartbeat_Variant_0_evicts 0 : 5687 1 : 166 2 : 0 3 : 0 
Heartbeat_Variant_1_evicts 0 : 161 1 : 0 2 : 0 3 : 0 
Heartbeat_Variant_2_evicts 0 : 0 1 : 0 2 : 0 3 : 0 
Heartbeat_Variant_3_evicts 0 : 0 1 : 0 2 : 0 3 : 0 
Heartbeat CPU 0 instructions: 40000000 cycles: 11179700 heartbeat IPC: 3.57916 cumulative IPC: 3.57791 (Simulation time: 0 hr 6 min 28 sec) 
Heartbeat_Variant_0 : 1361 0.332275 per_variant_size: 0 1361 0 0 0 0 0 0 0 
Heartbeat_Variant_1 : 2625 0.640869 per_variant_size: 0 530 2095 0 0 0 0 0 0 
Heartbeat_Variant_2 : 0 0 per_variant_size: 0 0 0 0 0 0 0 0 0 
Heartbeat_Variant_3 : 0 0 per_variant_size: 0 0 0 0 0 0 0 0 0 
Heartbeat_Variant_0_evicts 0 : 5532 1 : 24 2 : 0 3 : 0 
Heartbeat_Variant_1_evicts 0 : 29 1 : 0 2 : 0 3 : 0 
Heartbeat_Variant_2_evicts 0 : 0 1 : 0 2 : 0 3 : 0 
Heartbeat_Variant_3_evicts 0 : 0 1 : 0 2 : 0 3 : 0 
Heartbeat CPU 0 instructions: 50000000 cycles: 13974411 heartbeat IPC: 3.57819 cumulative IPC: 3.57797 (Simulation time: 0 hr 8 min 6 sec) 

Warmup complete CPU 0 instructions: 50000004 cycles: 13974412 (Simulation time: 0 hr 8 min 6 sec) 

Cycle: 20000000 FTQ IN: 58365529 FTQ occupancy: 20.5064 DECODE IN: 58365450 DECODE occupancy: 53.2136 ROB IN: 58365390 ROB occupancy: 317.832 ROB OUT: 58365039
Heartbeat_Variant_0 : 1367 0.33374 per_variant_size: 0 1367 0 0 0 0 0 0 0 
Heartbeat_Variant_1 : 2634 0.643066 per_variant_size: 0 541 2093 0 0 0 0 0 0 
Heartbeat_Variant_2 : 0 0 per_variant_size: 0 0 0 0 0 0 0 0 0 
Heartbeat_Variant_3 : 0 0 per_variant_size: 0 0 0 0 0 0 0 0 0 
Heartbeat_Variant_0_evicts 0 : 5700 1 : 163 2 : 0 3 : 0 
Heartbeat_Variant_1_evicts 0 : 162 1 : 0 2 : 0 3 : 0 
Heartbeat_Variant_2_evicts 0 : 0 1 : 0 2 : 0 3 : 0 
Heartbeat_Variant_3_evicts 0 : 0 1 : 0 2 : 0 3 : 0 
Heartbeat CPU 0 instructions: 60000000 cycles: 21163211 heartbeat IPC: 1.39105 cumulative IPC: 1.39105 (Simulation time: 0 hr 9 min 57 sec) 
Heartbeat_Variant_0 : 1367 0.33374 per_variant_size: 0 1367 0 0 0 0 0 0 0 
Heartbeat_Variant_1 : 2634 0.643066 per_variant_size: 0 542 2092 0 0 0 0 0 0 
Heartbeat_Variant_2 : 0 0 per_variant_size: 0 0 0 0 0 0 0 0 0 
Heartbeat_Variant_3 : 0 0 per_variant_size: 0 0 0 0 0 0 0 0 0 
Heartbeat_Variant_0_evicts 0 : 5512 1 : 4 2 : 0 3 : 0 
Heartbeat_Variant_1_evicts 0 : 4 1 : 0 2 : 0 3 : 0 
Heartbeat_Variant_2_evicts 0 : 0 1 : 0 2 : 0 3 : 0 
Heartbeat_Variant_3_evicts 0 : 0 1 : 0 2 : 0 3 : 0 
Heartbeat CPU 0 instructions: 70000001 cycles: 28238917 heartbeat IPC: 1.41329 cumulative IPC: 1.40208 (Simulation time: 0 hr 11 min 43 sec) 
Cycle: 30000000 FTQ IN: 14140335 FTQ occupancy: 14.7328 DECODE IN: 14140400 DECODE occupancy: 37.7756 ROB IN: 14140460 ROB occupancy: 248.444 ROB OUT: 14140760
Heartbeat_Variant_0 : 1375 0.335693 per_variant_size: 0 1375 0 0 0 0 0 0 0 
Heartbeat_Variant_1 : 2630 0.64209 per_variant_size: 0 527 2103 0 0 0 0 0 0 
Heartbeat_Variant_2 : 0 0 per_variant_size: 0 0 0 0 0 0 0 0 0 
Heartbeat_Variant_3 : 0 0 per_variant_size: 0 0 0 0 0 0 0 0 0 
Heartbeat_Variant_0_evicts 0 : 5713 1 : 119 2 : 0 3 : 0 
Heartbeat_Variant_1_evicts 0 : 111 1 : 0 2 : 0 3 : 0 
Heartbeat_Variant_2_evicts 0 : 0 1 : 0 2 : 0 3 : 0 
Heartbeat_Variant_3_evicts 0 : 0 1 : 0 2 : 0 3 : 0 
Heartbeat CPU 0 instructions: 80000000 cycles: 35387412 heartbeat IPC: 1.3989 cumulative IPC: 1.40102 (Simulation time: 0 hr 13 min 36 sec) 
Cycle: 40000000 FTQ IN: 14034903 FTQ occupancy: 14.8434 DECODE IN: 14034812 DECODE occupancy: 37.7724 ROB IN: 14034752 ROB occupancy: 247.578 ROB OUT: 14034451
Heartbeat_Variant_0 : 1375 0.335693 per_variant_size: 0 1375 0 0 0 0 0 0 0 
Heartbeat_Variant_1 : 2631 0.642334 per_variant_size: 0 518 2113 0 0 0 0 0 0 
Heartbeat_Variant_2 : 0 0 per_variant_size: 0 0 0 0 0 0 0 0 0 
Heartbeat_Variant_3 : 0 0 per_variant_size: 0 0 0 0 0 0 0 0 0 
Heartbeat_Variant_0_evicts 0 : 5635 1 : 8 2 : 0 3 : 0 
Heartbeat_Variant_1_evicts 0 : 8 1 : 0 2 : 0 3 : 0 
Heartbeat_Variant_2_evicts 0 : 0 1 : 0 2 : 0 3 : 0 
Heartbeat_Variant_3_evicts 0 : 0 1 : 0 2 : 0 3 : 0 
Heartbeat CPU 0 instructions: 90000001 cycles: 42441392 heartbeat IPC: 1.41764 cumulative IPC: 1.40514 (Simulation time: 0 hr 15 min 29 sec) 
Heartbeat_Variant_0 : 1376 0.335938 per_variant_size: 0 1376 0 0 0 0 0 0 0 
Heartbeat_Variant_1 : 2637 0.643799 per_variant_size: 0 498 2139 0 0 0 0 0 0 
Heartbeat_Variant_2 : 0 0 per_variant_size: 0 0 0 0 0 0 0 0 0 
Heartbeat_Variant_3 : 0 0 per_variant_size: 0 0 0 0 0 0 0 0 0 
Heartbeat_Variant_0_evicts 0 : 5657 1 : 108 2 : 0 3 : 0 
Heartbeat_Variant_1_evicts 0 : 109 1 : 0 2 : 0 3 : 0 
Heartbeat_Variant_2_evicts 0 : 0 1 : 0 2 : 0 3 : 0 
Heartbeat_Variant_3_evicts 0 : 0 1 : 0 2 : 0 3 : 0 
Heartbeat CPU 0 instructions: 100000001 cycles: 49603173 heartbeat IPC: 1.3963 cumulative IPC: 1.40336 (Simulation time: 0 hr 17 min 23 sec) 
Finished CPU 0 instructions: 50000002 cycles: 35628773 cumulative IPC: 1.40336 (Simulation time: 0 hr 17 min 23 sec) 

ChampSim completed all CPUs

Region of Interest Statistics

CPU 0 cumulative IPC: 1.40336 instructions: 50000002 cycles: 35628773
 Fetch stage stalled: 45.9974  Sim cycles: 35628773 fetch stall cycle: 16388316
 Empty decode stage: 26.0232  Sim cycles: 35628773 fetch stall cycle: 9271764
ITLB TOTAL     ACCESS:    5824248  HIT:    5331822  MISS:     492426  HIT %:    91.5452  MISS %:    8.45476   MPKI: 9.84852
ITLB LOAD TRANSLATION INSTRUCTION	ACCESS:    5686460  HIT:    5194034  MISS:     492426  HIT %:    91.3404  MISS %:    8.65962  MPKI: 9.84852
ITLB TRANSLATION FROM L1D PREFETCHER INSTRUCTION	ACCESS:     137788  HIT:     137788  MISS:          0  HIT %:        100  MISS %:          0  MPKI: 0

ITLB AVERAGE MISS LATENCY: 9.06141 cycles
ITLB RQ	ACCESS:    7930643	FORWARD:          0	MERGED:    1623592	TO_CACHE:    6307051

DTLB TOTAL     ACCESS:    8956800  HIT:    8486391  MISS:     470409  HIT %:     94.748  MISS %:    5.25198   MPKI: 9.40818
DTLB LOAD TRANSLATION DATA	ACCESS:    8956800  HIT:    8486391  MISS:     470409  HIT %:     94.748  MISS %:    5.25198  MPKI: 9.40818

DTLB AVERAGE MISS LATENCY: 9.34666 cycles
DTLB RQ	ACCESS:   13323044	FORWARD:          0	MERGED:    4329186	TO_CACHE:    8993858

STLB TOTAL     ACCESS:    1212061  HIT:    1209867  MISS:       2194  HIT %:     99.819  MISS %:   0.181014   MPKI: 0.04388
STLB LOAD TRANSLATION INSTRUCTION	ACCESS:     492426  HIT:     492133  MISS:        293  HIT %:    99.9405  MISS %:  0.0595013  MPKI: 0.00586
STLB LOAD TRANSLATION DATA	ACCESS:     470406  HIT:     468533  MISS:       1873  HIT %:    99.6018  MISS %:   0.398167  MPKI: 0.03746
STLB TRANSLATION FROM L1D PREFETCHER DATA	ACCESS:     249229  HIT:     249201  MISS:         28  HIT %:    99.9888  MISS %:  0.0112346  MPKI: 0.00056

STLB AVERAGE MISS LATENCY: 73.0538 cycles
STLB RQ	ACCESS:    1333723	FORWARD:          0	MERGED:     121617	TO_CACHE:    1212106

STLB Hit, L1D data hit: 0
STLB Hit, L2C data hit: 0
STLB Hit, LLC data hit: 0
STLB Hit, LLC data miss: 0
STLB STLB hints to L2: 0
L1D TOTAL     ACCESS:   13138527  HIT:   12169473  MISS:     969054  HIT %:    92.6243  MISS %:    7.37567   MPKI: 19.3811
L1D LOAD DATA	ACCESS:    6544459  HIT:    5913959  MISS:     630500  HIT %:    90.3659  MISS %:     9.6341  MPKI: 12.61
L1D RFO DATA	ACCESS:    6259657  HIT:    6009118  MISS:     250539  HIT %:    95.9976  MISS %:    4.00244  MPKI: 5.01078
L1D PREFETCH DATA	ACCESS:     334411  HIT:     246396  MISS:      88015  HIT %:    73.6806  MISS %:    26.3194  MPKI: 1.7603

L1D PREFETCH  REQUESTED:     742180  ISSUED:     742180  USEFUL:      31679  USELESS:      64183
L1D USEFUL LOAD PREFETCHES:      31679 PREFETCH ISSUED TO LOWER LEVEL:      95948  ACCURACY: 33.0168
 TIMELY PREFETCHES:      31679 LATE PREFETCHES: 7845 DROPPED PREFETCHES: 5
L1D AVERAGE MISS LATENCY: 264173 cycles
L1D RQ	ACCESS:   10698383	FORWARD:          0	MERGED:    3955978	TO_CACHE:    6575682
L1D WQ	ACCESS:    6943242	FORWARD:     167127	MERGED:     195880	TO_CACHE:    6747362
L1D PQ	ACCESS:     371292	FORWARD:          0	MERGED:          0	TO_CACHE:     370888

L1D UNIQUE REGIONS ACCESSED: 0
L1D REGIONS CONFLICTS: 0
L1D Cross Page Prefetch Requests: 6964
L1D Same Page Prefetch Requests: 748543
L1D ROI Sum of L1D PQ occupancy: 4716140
L1D PREFETCHES PUSHED FROM L2C: 0
L1I TOTAL     ACCESS:    7107372  HIT:    4352877  MISS:    2754495  HIT %:    61.2445  MISS %:    38.7555   MPKI: 55.0899
L1I LOAD INSTRUCTION	ACCESS:    6441237  HIT:    3686742  MISS:    2754495  HIT %:    57.2366  MISS %:    42.7634  MPKI: 55.0899
L1I PREFETCH INSTRUCTION	ACCESS:     666135  HIT:     666135  MISS:          0  HIT %:        100  MISS %:          0  MPKI: 0

L1I PREFETCH  REQUESTED:    1614707  ISSUED:    1614707  USEFUL:          0  USELESS:          0
L1I USEFUL LOAD PREFETCHES:          0 PREFETCH ISSUED TO LOWER LEVEL:          0  ACCURACY: -nan
 TIMELY PREFETCHES:          0 LATE PREFETCHES: 0 DROPPED PREFETCHES: 0
L1I AVERAGE MISS LATENCY: 17.2684 cycles
L1I RQ	ACCESS:    9566017	FORWARD:          0	MERGED:    2824960	TO_CACHE:    6741057
L1I PQ	ACCESS:    1614707	FORWARD:          0	MERGED:     425121	TO_CACHE:    1189586

L1BTB TOTAL     ACCESS:    5669087  HIT:    2049257  MISS:    3619830  HIT %:    36.1479  MISS %:    63.8521   MPKI: 72.3966
L1BTB BRANCH_DIRECT_JUMP	ACCESS:     548261 HIT:     145296 MISS:     402965 AVERAGE STALL: 51.3375 AVERAGE FETCH STALL: 13.8708 AVERAGE FETCH QUEUE STALL: 17.2537 AVERAGE DECODE STALL: 19.279 AVERAGE EXECUTE STALL: 2.34602e+15
L1BTB BRANCH_INDIRECT	ACCESS:     182870 HIT:      66074 MISS:     116796 AVERAGE STALL: 116.142 AVERAGE FETCH STALL: 10.9872 AVERAGE FETCH QUEUE STALL: 19.3251 AVERAGE DECODE STALL: 14.3352 AVERAGE EXECUTE STALL: 70.5327
L1BTB BRANCH_CONDITIONAL	ACCESS:    2708678 HIT:    1418789 MISS:    1289889 AVERAGE STALL: 63.8039 AVERAGE FETCH STALL: 18.9299 AVERAGE FETCH QUEUE STALL: 25.0376 AVERAGE DECODE STALL: 19.0924 AVERAGE EXECUTE STALL: 3.13934e+15
L1BTB BRANCH_DIRECT_CALL	ACCESS:     942826 HIT:     106418 MISS:     836408 AVERAGE STALL: 75.169 AVERAGE FETCH STALL: 31.0819 AVERAGE FETCH QUEUE STALL: 25.1044 AVERAGE DECODE STALL: 18.2966 AVERAGE EXECUTE STALL: 1.33769e+16
L1BTB BRANCH_INDIRECT_CALL	ACCESS:     171813 HIT:      21723 MISS:     150090 AVERAGE STALL: 138.654 AVERAGE FETCH STALL: 12.1142 AVERAGE FETCH QUEUE STALL: 17.3295 AVERAGE DECODE STALL: 11.856 AVERAGE EXECUTE STALL: 96.866
L1BTB BRANCH_RETURN	ACCESS:    1114639 HIT:     290957 MISS:     823682 AVERAGE STALL: 50.736 AVERAGE FETCH STALL: 17.189 AVERAGE FETCH QUEUE STALL: 5.81535 AVERAGE DECODE STALL: 6.59159 AVERAGE EXECUTE STALL: 4.25285e+14
L1BTB BRANCH_OTHER ACCESS:          0 HIT:          0 MISS:          0 AVERAGE STALL: -nan AVERAGE FETCH STALL: -nan AVERAGE FETCH QUEUE STALL: -nan AVERAGE DECODE STALL: -nan AVERAGE EXECUTE STALL: -nan
L1BTB TOTAL ROB OCCUPANCY AT BTB MISS: 2.78649

L2BTB TOTAL     ACCESS:    3594441  HIT:    3528556  MISS:      65885  HIT %:     98.167  MISS %:    1.83297   MPKI: 1.3177
L2BTB BRANCH_DIRECT_JUMP	ACCESS:     398774 HIT:     395098 MISS:       3676 AVERAGE STALL: 51.3375 AVERAGE FETCH STALL: 13.8708 AVERAGE FETCH QUEUE STALL: 17.2537 AVERAGE DECODE STALL: 19.279 AVERAGE EXECUTE STALL: 2.34602e+15
L2BTB BRANCH_INDIRECT	ACCESS:     106557 HIT:     103872 MISS:       2685 AVERAGE STALL: 116.142 AVERAGE FETCH STALL: 10.9872 AVERAGE FETCH QUEUE STALL: 19.3251 AVERAGE DECODE STALL: 14.3352 AVERAGE EXECUTE STALL: 70.5327
L2BTB BRANCH_CONDITIONAL	ACCESS:    1289889 HIT:    1283932 MISS:       5957 AVERAGE STALL: 63.8039 AVERAGE FETCH STALL: 18.9299 AVERAGE FETCH QUEUE STALL: 25.0376 AVERAGE DECODE STALL: 19.0924 AVERAGE EXECUTE STALL: 3.13934e+15
L2BTB BRANCH_DIRECT_CALL	ACCESS:     836408 HIT:     835023 MISS:       1385 AVERAGE STALL: 75.169 AVERAGE FETCH STALL: 31.0819 AVERAGE FETCH QUEUE STALL: 25.1044 AVERAGE DECODE STALL: 18.2966 AVERAGE EXECUTE STALL: 1.33769e+16
L2BTB BRANCH_INDIRECT_CALL	ACCESS:     140532 HIT:     130339 MISS:      10193 AVERAGE STALL: 138.654 AVERAGE FETCH STALL: 12.1142 AVERAGE FETCH QUEUE STALL: 17.3295 AVERAGE DECODE STALL: 11.856 AVERAGE EXECUTE STALL: 96.866
L2BTB BRANCH_RETURN	ACCESS:     822281 HIT:     780292 MISS:      41989 AVERAGE STALL: 50.736 AVERAGE FETCH STALL: 17.189 AVERAGE FETCH QUEUE STALL: 5.81535 AVERAGE DECODE STALL: 6.59159 AVERAGE EXECUTE STALL: 4.25285e+14
L2BTB BRANCH_OTHER ACCESS:          0 HIT:          0 MISS:          0 AVERAGE STALL: -nan AVERAGE FETCH STALL: -nan AVERAGE FETCH QUEUE STALL: -nan AVERAGE DECODE STALL: -nan AVERAGE EXECUTE STALL: -nan
L2BTB TOTAL ROB OCCUPANCY AT BTB MISS: 153.094

L2C TOTAL     ACCESS:    4256499  HIT:    3774936  MISS:     481563  HIT %:    88.6864  MISS %:    11.3136   MPKI: 9.63126
L2C LOAD INSTRUCTION	ACCESS:    2754495  HIT:    2495921  MISS:     258574  HIT %:    90.6127  MISS %:    9.38735  MPKI: 5.17148
L2C LOAD TRANSLATION INSTRUCTION	ACCESS:        330  HIT:         74  MISS:        256  HIT %:    22.4242  MISS %:    77.5758  MPKI: 0.00512
L2C LOAD DATA	ACCESS:     622633  HIT:     552692  MISS:      69941  HIT %:    88.7669  MISS %:    11.2331  MPKI: 1.39882
L2C RFO DATA	ACCESS:     250423  HIT:     195572  MISS:      54851  HIT %:    78.0967  MISS %:    21.9033  MPKI: 1.09702
L2C PREFETCH DATA	ACCESS:     175887  HIT:     105247  MISS:      70640  HIT %:    59.8379  MISS %:    40.1621  MPKI: 1.4128
L2C WRITEBACK DATA	ACCESS:     450745  HIT:     424924  MISS:      25821  HIT %:    94.2715  MISS %:    5.72852  MPKI: 0.51642
L2C LOAD TRANSLATION DATA	ACCESS:       1931  HIT:        469  MISS:       1462  HIT %:    24.2879  MISS %:    75.7121  MPKI: 0.02924
L2C TRANSLATION FROM L1D PREFETCHER DATA	ACCESS:         55  HIT:         37  MISS:         18  HIT %:    67.2727  MISS %:    32.7273  MPKI: 0.00036

L2C PREFETCH  REQUESTED:      87368  ISSUED:      87368  USEFUL:       7219  USELESS:      64032
L2C USEFUL LOAD PREFETCHES:       7219 PREFETCH ISSUED TO LOWER LEVEL:      70968  ACCURACY: 10.1722
 TIMELY PREFETCHES:       7219 LATE PREFETCHES: 328 DROPPED PREFETCHES: 0
L2C AVERAGE MISS LATENCY: 38.4849 cycles
L2C RQ	ACCESS:    3629918	FORWARD:          0	MERGED:          0	TO_CACHE:    3629868
L2C WQ	ACCESS:     450746	FORWARD:         50	MERGED:          0	TO_CACHE:     450746
L2C PQ	ACCESS:     183316	FORWARD:          0	MERGED:       3114	TO_CACHE:     180202

L2C Dense regions hint from L2: 0
PSCL5 TOTAL     ACCESS:       4406  HIT:       2203  MISS:       2203  HIT %:         50  MISS %:         50   MPKI: 0.04406
PSCL5 LOAD TRANSLATION INSTRUCTION	ACCESS:       4298  HIT:       2149  MISS:       2149  HIT %:         50  MISS %:         50  MPKI: 0.04298
PSCL5 TRANSLATION FROM L1D PREFETCHER INSTRUCTION	ACCESS:        108  HIT:         54  MISS:         54  HIT %:         50  MISS %:         50  MPKI: 0.00108


PSCL4 TOTAL     ACCESS:       4287  HIT:       2140  MISS:       2147  HIT %:    49.9184  MISS %:    50.0816   MPKI: 0.04294
PSCL4 LOAD TRANSLATION INSTRUCTION	ACCESS:       3840  HIT:       2093  MISS:       1747  HIT %:    54.5052  MISS %:    45.4948  MPKI: 0.03494
PSCL4 TRANSLATION FROM L1D PREFETCHER INSTRUCTION	ACCESS:         94  HIT:         47  MISS:         47  HIT %:         50  MISS %:         50  MPKI: 0.00094
PSCL4 LOAD TRANSLATION DATA	ACCESS:        353  HIT:          0  MISS:        353  HIT %:          0  MISS %:        100  MPKI: 0.00706


PSCL3 TOTAL     ACCESS:       4297  HIT:       2145  MISS:       2152  HIT %:    49.9185  MISS %:    50.0815   MPKI: 0.04304
PSCL3 LOAD TRANSLATION INSTRUCTION	ACCESS:       3845  HIT:       2098  MISS:       1747  HIT %:    54.5644  MISS %:    45.4356  MPKI: 0.03494
PSCL3 TRANSLATION FROM L1D PREFETCHER INSTRUCTION	ACCESS:         94  HIT:         47  MISS:         47  HIT %:         50  MISS %:         50  MPKI: 0.00094
PSCL3 LOAD TRANSLATION DATA	ACCESS:        358  HIT:          0  MISS:        358  HIT %:          0  MISS %:        100  MPKI: 0.00716


PSCL2 TOTAL     ACCESS:       4307  HIT:       2104  MISS:       2203  HIT %:    48.8507  MISS %:    51.1493   MPKI: 0.04406
PSCL2 LOAD TRANSLATION INSTRUCTION	ACCESS:       2344  HIT:       2051  MISS:        293  HIT %:       87.5  MISS %:       12.5  MPKI: 0.00586
PSCL2 TRANSLATION FROM L1D PREFETCHER INSTRUCTION	ACCESS:         53  HIT:         53  MISS:          0  HIT %:        100  MISS %:          0  MPKI: 0
PSCL2 LOAD TRANSLATION DATA	ACCESS:       1857  HIT:          0  MISS:       1857  HIT %:          0  MISS %:        100  MPKI: 0.03714
PSCL2 TRANSLATION FROM L1D PREFETCHER DATA	ACCESS:         53  HIT:          0  MISS:         53  HIT %:          0  MISS %:        100  MPKI: 0.00106


LLC TOTAL     ACCESS:     532457  HIT:     502020  MISS:      30437  HIT %:    94.2837  MISS %:    5.71633   MPKI: 0.60874
LLC LOAD INSTRUCTION	ACCESS:     258574  HIT:     257532  MISS:       1042  HIT %:     99.597  MISS %:   0.402979  MPKI: 0.02084
LLC LOAD TRANSLATION INSTRUCTION	ACCESS:        256  HIT:        214  MISS:         42  HIT %:    83.5938  MISS %:    16.4062  MPKI: 0.00084
LLC LOAD DATA	ACCESS:      69632  HIT:      66161  MISS:       3471  HIT %:    95.0152  MISS %:    4.98478  MPKI: 0.06942
LLC RFO DATA	ACCESS:      54827  HIT:      39300  MISS:      15527  HIT %:      71.68  MISS %:      28.32  MPKI: 0.31054
LLC PREFETCH DATA	ACCESS:      70968  HIT:      61183  MISS:       9785  HIT %:    86.2121  MISS %:    13.7879  MPKI: 0.1957
LLC WRITEBACK DATA	ACCESS:      76720  HIT:      76229  MISS:        491  HIT %:      99.36  MISS %:    0.63999  MPKI: 0.00982
LLC LOAD TRANSLATION DATA	ACCESS:       1462  HIT:       1383  MISS:         79  HIT %:    94.5964  MISS %:    5.40356  MPKI: 0.00158
LLC TRANSLATION FROM L1D PREFETCHER DATA	ACCESS:         18  HIT:         18  MISS:          0  HIT %:        100  MISS %:          0  MPKI: 0

LLC AVERAGE MISS LATENCY: 158.343 cycles
LLC RQ	ACCESS:     384775	FORWARD:          0	MERGED:          0	TO_CACHE:     384769
LLC WQ	ACCESS:      76720	FORWARD:          6	MERGED:          0	TO_CACHE:      76720
LLC PQ	ACCESS:      70968	FORWARD:          0	MERGED:          0	TO_CACHE:      70968

LLC Dense regions hint to LLC: 0

RAW hits: 1939524
Loads Generated: 12637907
Loads sent to L1D: 10698383
Stores Generated: 6943219
Stores sent to L1D: 6943242
Major fault: 0 Minor fault: 2534
Allocated PAGES: 2534

stream: 
stream:times selected: 1185712
stream:pref_filled: 111727
stream:pref_useful: 20504
stream:pref_late: 6188
stream:misses: 6625
stream:misses_by_poll: 0

CS: 
CS:times selected: 178717
CS:pref_filled: 55506
CS:pref_useful: 33138
CS:pref_late: 6728
CS:misses: 15113
CS:misses_by_poll: 5

CPLX: 
CPLX:times selected: 1005854
CPLX:pref_filled: 18539
CPLX:pref_useful: 4123
CPLX:pref_late: 2932
CPLX:misses: 82254
CPLX:misses_by_poll: 2

NL_L1: 
NL:times selected: 20659
NL:pref_filled: 791
NL:pref_useful: 349
NL:pref_late: 283
NL:misses: 1455
NL:misses_by_poll: 0

total selections: 2390942
total_filled: 88015
total_useful: 31679
total_late: 17368
total_polluted: 7
total_misses_after_warmup: 661728
conflicts: 5512722

test: 117802

DRAM Statistics
 CHANNEL 0
 RQ ROW_BUFFER_HIT:      11263  ROW_BUFFER_MISS:      18678
 DBUS_CONGESTED:         13
 WQ ROW_BUFFER_HIT:       1559  ROW_BUFFER_MISS:      13037  FULL:          0

 AVG_CONGESTED_CYCLE: 6

CPU 0 Branch Prediction Accuracy: 99.8237% MPKI: 0.32234 Average ROB Occupancy at Mispredict: 197.732
Branch types
NOT_BRANCH: 40859280 81.7186%
BRANCH_DIRECT_JUMP: 548261 1.09652%
BRANCH_INDIRECT: 182870 0.36574%
BRANCH_CONDITIONAL: 6180328 12.3607%
BRANCH_DIRECT_CALL: 942826 1.88565%
BRANCH_INDIRECT_CALL: 171813 0.343626%
BRANCH_RETURN: 1114639 2.22928%
BRANCH_OTHER: 0 0%

DRAM PAGES: 1048576
Allocated PAGES: 2534
Average_ROB_Occupancy: 248.902
Average_Decode_Occupancy: 37.6958
Average_FTQ_Occupancy: 14.7962
Indirect max targets: 14 Average targets: 1.14626
Branch_type:  BRANCH_DIRECT_JUMP:  Count Percentage: 3.40022 6.12982 3.95465 15.1367 1.69431 5.38617 1.23445 63.0636 
Branch_type:  BRANCH_INDIRECT:  Count Percentage: 11.76 3.43969 12.2184 23.3731 1.33805 14.5418 1.07039 32.2586 
Branch_type:  BRANCH_CONDITIONAL:  Count Percentage: 21.8525 2.57708 2.37349 9.19548 1.06895 3.96091 0.849671 58.1219 
Branch_type:  BRANCH_DIRECT_CALL:  Count Percentage: 0.757869 1.29175 1.43331 5.40376 1.99213 2.66615 0.930872 85.5242 
Branch_type:  BRANCH_INDIRECT_CALL:  Count Percentage: 9.51574 0.567475 2.9815 4.82833 0 3.83576 0 78.2712 
Branch_type:  BRANCH_RETURN:  Count Percentage: 4.43764 0.696132 3.5222 9.44468 2.12278 4.90247 1.22802 73.6461 
Branch_type:  BRANCH_DIRECT_JUMP:  Total Count: 37251 67155 43325 165830 18562 59008 13524 690891 
Branch_type:  BRANCH_INDIRECT:  Total Count: 42969 12568 44644 85401 4889 53133 3911 117867 
Branch_type:  BRANCH_CONDITIONAL:  Total Count: 2699730 318380 293228 1136038 132062 489343 104971 7180558 
Branch_type:  BRANCH_DIRECT_CALL:  Total Count: 14316 24401 27075 102076 37631 50363 17584 1615535 
Branch_type:  BRANCH_INDIRECT_CALL:  Total Count: 32749 1953 10261 16617 0 13201 0 269375 
Branch_type:  BRANCH_RETURN:  Total Count: 99133 15551 78683 210986 47421 109517 27433 1645190 
Number of unique branch instructions: 9791
Upper 32 bits: 
aaaa
ffff
ffff0000
Unique upper 32 bits: 3
Unique upper 36 bits: 3
Unique upper 40 bits: 5
Unique upper 44 bits: 32
Unique upper 48 bits: 154
Variant_0 : 1376 0.335938
Variant_1 : 2637 0.643799
Variant_2 : 0 0
Variant_3 : 0 0
Offset_3 4035
Offset_4 246
Offset_5 451
Offset_6 502
Offset_7 578
Offset_8 498
Offset_9 459
Offset_10 377
Offset_11 305
Offset_12 269
Offset_13 199
Offset_14 225
Offset_15 186
Offset_16 220
Offset_17 141
Offset_18 118
Offset_19 234
Offset_20 137
Offset_21 235
Offset_22 392
Offset_23 241
Offset_24 326
Offset_25 88
Offset_47 80
Offset_64 2
decode_dispatch_called: 25978229 72.9136
Dispatch_width: 0 13909602 53.5433 39.0404
Dispatch_width: 1 1005583 3.87087 2.82239
Dispatch_width: 2 844562 3.25104 2.37045
Dispatch_width: 3 491285 1.89114 1.3789
Dispatch_width: 4 6211219 23.9093 17.4332
Dispatch_width: 5 109304 0.420752 0.306786
Dispatch_width: 6 3406674 13.1136 9.56158
Empty_decode_cycles: 9650544 27.0864
ROB_full_cycles: 9790122 27.4781
Starvation_cycles_per_kilo_instr: 224.32
Starvation_cycles_per_kilo_instr_3: 161.115
Starvation_cycles_per_kilo_instr_0: 137.7
Branch_type_1  (3,1)  (4,9)  (5,37)  (6,69)  (7,114)  (8,127)  (9,121)  (10,97)  (11,69)  (12,43)  (13,5)  (14,2)  (15,3)  (16,4)  (18,1)  (19,4)  (20,2)  (21,1)  (22,3)  (23,2)  (24,10)  (25,12) 
Branch_type_2  (3,1)  (5,1)  (8,3)  (9,3)  (12,1)  (13,1)  (14,1)  (16,3)  (17,2)  (20,2)  (21,2)  (23,5)  (24,1)  (47,36) 
Branch_type_3  (3,4033)  (4,237)  (5,409)  (6,418)  (7,435)  (8,308)  (9,252)  (10,153)  (11,123)  (12,50)  (13,4) 
Branch_type_4  (6,3)  (7,8)  (8,24)  (9,52)  (10,60)  (11,57)  (12,96)  (13,86)  (14,99)  (15,88)  (16,98)  (17,63)  (18,53)  (19,114)  (20,72)  (21,124)  (22,207)  (23,136)  (24,186)  (25,72)  (64,1) 
Branch_type_5  (8,2)  (9,1)  (10,3)  (11,5)  (12,3)  (13,14)  (14,16)  (15,11)  (16,20)  (17,11)  (18,16)  (19,12)  (20,10)  (21,13)  (22,42)  (23,26)  (24,37) 
Branch_type_6  (5,4)  (6,12)  (7,21)  (8,34)  (9,30)  (10,64)  (11,51)  (12,76)  (13,89)  (14,107)  (15,84)  (16,95)  (17,65)  (18,48)  (19,104)  (20,51)  (21,95)  (22,140)  (23,72)  (24,92)  (25,4)  (47,44)  (64,1) 
Unique trigger count: 
Variant_0_evicts_0 : 0
Variant_0_evicts_1 : 0
Variant_0_evicts_2 : 0
Variant_0_evicts_3 : 0
Variant_1_evicts_0 : 0
Variant_1_evicts_1 : 0
Variant_1_evicts_2 : 0
Variant_1_evicts_3 : 0
Variant_2_evicts_0 : 0
Variant_2_evicts_1 : 0
Variant_2_evicts_2 : 0
Variant_2_evicts_3 : 0
Variant_3_evicts_0 : 0
Variant_3_evicts_1 : 0
Variant_3_evicts_2 : 0
Variant_3_evicts_3 : 0
BTB PER SET UNIQUE ADDR: 7 13 10 11 10 10 9 7 9 10 12 13 10 7 10 8 9 8 13 8 8 12 10 14 9 12 9 12 12 9 9 12 11 8 5 12 11 14 6 10 10 7 7 11 10 10 8 7 5 8 12 10 11 11 7 4 9 8 9 12 9 12 10 11 5 11 10 9 11 7 12 10 15 9 9 6 7 10 7 13 11 6 8 9 11 9 12 11 7 7 8 7 14 9 8 10 7 11 20 13 16 7 8 10 9 8 9 8 7 11 12 8 10 7 5 6 9 8 8 9 9 8 10 8 12 8 6 12 15 12 6 15 8 15 11 7 9 12 9 11 6 9 9 9 8 8 13 9 7 9 9 9 9 9 11 12 11 12 12 10 9 12 13 11 9 10 11 11 13 9 9 8 10 10 10 7 11 9 11 8 7 9 10 9 9 15 5 9 10 9 8 8 10 10 14 8 7 15 8 7 10 8 9 10 7 10 11 10 11 10 8 12 6 9 6 8 13 12 10 12 8 12 8 9 9 10 12 13 7 11 7 9 8 9 6 9 18 12 8 7 11 11 12 10 10 9 7 7 13 13 10 16 15 7 10 12 9 4 8 9 8 7 6 15 10 8 9 11 9 8 9 9 9 7 8 7 10 12 7 13 9 13 7 9 8 8 9 9 13 12 14 7 11 7 7 11 10 10 11 13 7 14 7 10 8 12 11 10 8 7 11 12 9 12 11 3 13 12 10 13 7 10 10 9 12 10 8 8 9 7 9 14 6 9 10 10 5 7 8 13 8 11 7 9 9 10 9 9 9 13 11 9 10 11 11 12 10 8 9 10 9 11 10 13 7 10 5 7 12 11 10 9 10 7 9 13 11 11 11 8 13 8 7 11 10 12 11 11 10 9 10 9 8 12 6 8 7 6 12 6 9 11 11 12 13 7 15 10 8 11 16 5 8 12 9 8 9 6 15 14 11 10 13 8 15 9 13 9 8 8 9 8 11 10 11 10 10 9 8 7 11 8 7 10 12 8 10 8 13 10 5 15 11 9 14 14 12 11 8 13 11 9 10 13 10 6 10 12 5 11 9 13 12 10 13 15 7 12 10 6 11 12 12 12 9 10 8 13 14 10 8 11 7 8 10 8 13 13 11 9 8 11 8 11 9 8 8 9 10 10 10 13 13 8 14 12 8 12 6 7 8 5 10 7 9 9 13 7 10 10 15 9 12 8 10 12 9 11 7 14 10 9 10 12 12 16 8 10 9 4 11 9 11 10 7 11 12 7 18 7 8 11 10 10 7 14 9 9 9 10 11 7 8 10 10 13 9 14 7 9 13 10 6 13 14 9 10 10 9 7 11 11 10 8 10 10 9 10 8 10 12 7 10 6 6 10 9 7 10 11 11 17 8 7 4 11 8 11 10 11 17 7 6 10 11 13 11 13 8 13 10 10 9 15 7 12 8 11 12 8 11 10 11 6 8 9 10 10 16 7 8 10 9 6 15 12 8 11 10 9 12 6 12 13 8 12 8 9 8 10 10 11 9 8 10 9 12 12 12 10 9 11 11 12 12 10 10 6 9 9 11 10 9 6 9 9 9 12 7 12 8 10 8 12 7 16 9 7 7 9 11 14 8 9 10 8 17 15 9 11 8 7 10 8 9 10 10 11 7 8 12 8 12 10 10 12 10 9 9 9 9 10 10 13 14 10 9 10 6 9 12 10 9 10 8 10 13 11 6 8 11 6 9 13 11 9 8 12 10 12 11 8 8 8 7 8 10 9 7 10 6 11 8 7 9 9 9 11 8 6 7 6 10 10 12 11 9 11 12 10 13 10 12 17 10 9 12 10 13 8 8 18 13 9 9 13 13 12 6 10 10 14 6 12 11 10 4 9 8 15 10 14 12 8 9 9 13 9 9 10 10 13 11 13 11 17 12 10 7 9 13 8 7 9 10 12 10 11 8 10 12 7 9 8 9 5 11 8 9 5 7 14 14 6 11 6 8 14 8 9 13 9 11 11 9 12 9 9 10 11 16 7 12 10 7 9 13 12 7 8 9 9 14 13 4 12 10 9 10 9 10 11 9 9 15 8 10 8 6 13 13 7 10 7 8 8 5 9 9 9 11 10 10 9 10 12 9 14 8 11 6 15 8 8 7 8 11 12 9 11 8 11 7 10 8 10 8 11 12 10 10 8 13 9 12 9 12 12 8 11 10 13 11 9 11 9 14 11 14 13 11 13 12 8 7 16 16 7 13 9 13 11 7 11 7 9 10 10 11 8 13 14 8 10 9 14 6 12 8 11 13 7 9 8 6 6 4 9 7 10 9 12 7 8 
BTB PER SET COUNT: 983 15 1657 13 12 10 1471 7 841 15 23 1392 3384 9 10 9 135 9 21 12 12 221 498 119 18 14 11 14 246 9 404 20 13 9 5 19 11 16 6 1966 11 9 7 20 13 112 11 7 5 11 16 595 21 14 7 364 19 8 13 15 11 2168 17 11 6 12 10 648 13 11 1479 103 19 9 12 12 7 48 7 19 15 6 11 9 15 10 17 13 1474 32 10 802 383 404 10 12 1474 22 24 201 33 7 11 497 1466 9 14 8 13 139 15 10 137 7 5 992 9 14 1473 10 12 8 16 11 14 70 6 956 26 991 9 1185 9 18 17 9 986 14 14 13 7 10 14 9 8 8 967 9 12 14 11 278 998 11 14 19 14 15 13 10 11 18 16 11 1476 1620 13 13 15 1838 11 8 10 13 12 8 15 14 990 8 66 244 991 10 9 639 5 12 15 480 9 8 13 10 21 11 10 1001 8 7 15 11 988 14 7 12 16 13 160 1478 8 17 6 14358 9 9 19 22 1511 12 8 16 572 9 14 16 18 264 668 11 10 9 11 14 7 14 264 24 9 11 1214 15 22 340 13 15 7 8 15 18 13 20 19 11 13 26 86 6 8 10 8 8 8 34 11 12 10 17 2345 9 10 10 497 8 239 8 11 15 7 14 16 16 12 139 12 10 10 9 13 15 17 7 12 854 7 12 15 11 14 97 8 18 7 11 9 166 15 13 11 22 81 16 12 14 1525 978 13 14 15 19 8 2949 15 16 217 12 11 14 12 7 11 23 12 12 17 13 8 9 13 24 9 48 7 12 13 11 13 14 10 84 17 387 13 16 12 13 10 8 106 16 10 11 17 20 7 1474 5 8 15 20 13 371 10 7 984 16 13 15 160 9 147 11 9 11 15 23 1000 14 10 10 14 9 10 1306 6 747 7 7 691 1662 14 16 14 17 19 7 22 499 8 14 249 5 8 12 10 12 14 17414 17 19 15 16 20 8 24 11 24 15 20 8 9 10 19 13 17 19 98 25 9 7 19 10 8 15 657 8 793 10 19 13 5 2919 14 9 24 298 18 12 9 14 11 9 17 25 11 139 329 12 5 17 10 18 13 12 15 22 7 15 11 9 12 15 12 13 12 14 9 21 21 16 10 17 10 10 14 9 1639 15 11 11 13 13 8 15 10 8 10 11 17 10 525 29 424 640 18 17 25 13 10 7 9 5 16 238 9 10 16 1480 13 2948 27 12 17 10 11 14 15 39 9 16 14 9 35 17 24 694 9 13 12 4 16 10 851 18 10 18 14 17 26 10 10 12 12 12 8 23 16 11 16 10 535 8 9 11 12 16 49 17 7 11 16 15 10 1561 14 11 13 10 14 13 14 332 12 8 17 12 2178 854 9 12 16 7 14 6 6 10 11 9 14 14 13 25 10 8 4 13 8 13 14 24 23 9 6 12 12 19 11 14 1095 991 25 13 9 17 7 20 12 990 16 9 13 15 12 983 2091 11 184 14 31 9 9 11 11 10 1292 13 12 20 12 162 19 6 13 21 9 17 9 1522 1478 13 12 13 996 8 62 10 22 15 19 15 10 16 991 31 36 11 11 7 10 12 14 11 10 7 2248 10 10 138 7 19 11 20 9 19 12 23 10 11 9 9 143 16 989 13 497 110 29 28 14 17 10 538 17 15 10 17 18 18 985 8 382 8 15 117 15 15 501 15 226 14 9 12 989 18 189 10 20 12 6 9 12 13 10 14 8 12 15 15 6 10 11 6 15 37 16 11 8 13 19 375 14 9 8 11 8 11 12 883 7 11 1471 14 259 7 11 192 12 11 9 7 16 846 11 13 1101 14 10 16 15 1105 179 13 15 25 126 12 14 12 17 15 9 2203 17 18 12 719 230 14 8 19 14 963 6 23 13 14 4 9 9 23 13 20 16 9 528 9 14 12 12 119 12 56 17 24 853 26 18 13 7 14 1056 9 10 11 12 14 11 13 8 12 985 11 11 8 988 7 20 13 11 5 11 33 18 10 12 7 11 20 8 9 20 12 74 13 10 28 10 12 14 347 24 1222 14 5967 7 12 15 13 8 11 13 11 33 352 4 15 11 14 128 11 26 14 12 10 26 12 55 9 7 18 17 7 10 7 8 11 7 11 9 9 20 11 12 17 12 42 9 18 9 12 6 517 9 10 7 983 19 12 9 11 9 991 984 370 9 10 11 18 79 17 14 13 19 10 23 9 1479 18 8 11 14 14 16 11 484 11 21 16 505 15 864 1411 261 989 7 301 1275 7 13 10 15 1167 8 32 1473 10 13 1482 12 8 18 19 10 16 9 17 6 15 12 839 512 9 10 10 7 6 5 11 8 11 11 355 7 8 
To predecode: 0
Predecoding something: 0
Predecode request dropped: 0
sizeofblock_0 0
sizeofblock_1 56363
sizeofblock_2 80286
sizeofblock_3 0
sizeofblock_4 0
sizeofblock_5 0
sizeofblock_6 0
sizeofblock_7 0
sizeofblock_8 0
Variant_0 Correct: 1612814 Incorrect: 0 Accuracy: 1
Variant_1 Correct: 5730793 Incorrect: 0 Accuracy: 1
Variant_2 Correct: 0 Incorrect: 0 Accuracy: -nan
Variant_3 Correct: 0 Incorrect: 0 Accuracy: -nan
