
*** ChampSim Multicore Out-of-Order Simulator ***

Warmup Instructions: 50000000
Simulation Instructions: 50000000
Number of CPUs: 1
LLC sets: 2048
LLC ways: 16
Off-chip DRAM Size: 4096 MB Channels: 1 Width: 64-bit Data Rate: 6400 MT/s
CPU 0 runs ./micro_traces/srv458.trace.gz
.gz
ITLB has LRU replacement policy
DTLB has LRU replacement policy
STLB has LRU replacement policy
FDIP Prefetcher at L1I
L1I has LRU replacement policy
L1D has LRU replacement policy
Initialize SRRIP state for L2C
Initialize DRRIP state for LLC
Heartbeat_Variant_0 : 1026 0.333984 per_variant_size: 0 1026 0 0 0 0 0 0 0 
Heartbeat_Variant_1 : 2032 0.661458 per_variant_size: 0 364 1668 0 0 0 0 0 0 
Heartbeat_Variant_2 : 0 0 per_variant_size: 0 0 0 0 0 0 0 0 0 
Heartbeat_Variant_3 : 0 0 per_variant_size: 0 0 0 0 0 0 0 0 0 
Heartbeat_Variant_0_evicts 0 : 17405 1 : 24898 2 : 0 3 : 0 
Heartbeat_Variant_1_evicts 0 : 24794 1 : 0 2 : 0 3 : 0 
Heartbeat_Variant_2_evicts 0 : 0 1 : 0 2 : 0 3 : 0 
Heartbeat_Variant_3_evicts 0 : 0 1 : 0 2 : 0 3 : 0 
Heartbeat CPU 0 instructions: 10000003 cycles: 2797283 heartbeat IPC: 3.5749 cumulative IPC: 3.5749 (Simulation time: 0 hr 2 min 1 sec) 
Heartbeat_Variant_0 : 993 0.323242 per_variant_size: 0 993 0 0 0 0 0 0 0 
Heartbeat_Variant_1 : 2072 0.674479 per_variant_size: 0 378 1694 0 0 0 0 0 0 
Heartbeat_Variant_2 : 0 0 per_variant_size: 0 0 0 0 0 0 0 0 0 
Heartbeat_Variant_3 : 0 0 per_variant_size: 0 0 0 0 0 0 0 0 0 
Heartbeat_Variant_0_evicts 0 : 18052 1 : 25657 2 : 0 3 : 0 
Heartbeat_Variant_1_evicts 0 : 25692 1 : 0 2 : 0 3 : 0 
Heartbeat_Variant_2_evicts 0 : 0 1 : 0 2 : 0 3 : 0 
Heartbeat_Variant_3_evicts 0 : 0 1 : 0 2 : 0 3 : 0 
Heartbeat CPU 0 instructions: 20000000 cycles: 5594016 heartbeat IPC: 3.5756 cumulative IPC: 3.57525 (Simulation time: 0 hr 3 min 44 sec) 
Heartbeat_Variant_0 : 1010 0.328776 per_variant_size: 0 1010 0 0 0 0 0 0 0 
Heartbeat_Variant_1 : 2055 0.668945 per_variant_size: 0 361 1694 0 0 0 0 0 0 
Heartbeat_Variant_2 : 0 0 per_variant_size: 0 0 0 0 0 0 0 0 0 
Heartbeat_Variant_3 : 0 0 per_variant_size: 0 0 0 0 0 0 0 0 0 
Heartbeat_Variant_0_evicts 0 : 17244 1 : 24877 2 : 0 3 : 0 
Heartbeat_Variant_1_evicts 0 : 24860 1 : 0 2 : 0 3 : 0 
Heartbeat_Variant_2_evicts 0 : 0 1 : 0 2 : 0 3 : 0 
Heartbeat_Variant_3_evicts 0 : 0 1 : 0 2 : 0 3 : 0 
Heartbeat CPU 0 instructions: 30000003 cycles: 8390989 heartbeat IPC: 3.57529 cumulative IPC: 3.57526 (Simulation time: 0 hr 5 min 33 sec) 
Heartbeat_Variant_0 : 968 0.315104 per_variant_size: 0 968 0 0 0 0 0 0 0 
Heartbeat_Variant_1 : 2097 0.682617 per_variant_size: 0 392 1705 0 0 0 0 0 0 
Heartbeat_Variant_2 : 0 0 per_variant_size: 0 0 0 0 0 0 0 0 0 
Heartbeat_Variant_3 : 0 0 per_variant_size: 0 0 0 0 0 0 0 0 0 
Heartbeat_Variant_0_evicts 0 : 17693 1 : 25721 2 : 0 3 : 0 
Heartbeat_Variant_1_evicts 0 : 25763 1 : 0 2 : 0 3 : 0 
Heartbeat_Variant_2_evicts 0 : 0 1 : 0 2 : 0 3 : 0 
Heartbeat_Variant_3_evicts 0 : 0 1 : 0 2 : 0 3 : 0 
Heartbeat CPU 0 instructions: 40000001 cycles: 11186955 heartbeat IPC: 3.57658 cumulative IPC: 3.57559 (Simulation time: 0 hr 7 min 20 sec) 
Heartbeat_Variant_0 : 999 0.325195 per_variant_size: 0 999 0 0 0 0 0 0 0 
Heartbeat_Variant_1 : 2066 0.672526 per_variant_size: 0 346 1720 0 0 0 0 0 0 
Heartbeat_Variant_2 : 0 0 per_variant_size: 0 0 0 0 0 0 0 0 0 
Heartbeat_Variant_3 : 0 0 per_variant_size: 0 0 0 0 0 0 0 0 0 
Heartbeat_Variant_0_evicts 0 : 17654 1 : 25740 2 : 0 3 : 0 
Heartbeat_Variant_1_evicts 0 : 25709 1 : 0 2 : 0 3 : 0 
Heartbeat_Variant_2_evicts 0 : 0 1 : 0 2 : 0 3 : 0 
Heartbeat_Variant_3_evicts 0 : 0 1 : 0 2 : 0 3 : 0 
Heartbeat CPU 0 instructions: 50000000 cycles: 13981589 heartbeat IPC: 3.57829 cumulative IPC: 3.57613 (Simulation time: 0 hr 9 min 5 sec) 

Warmup complete CPU 0 instructions: 50000004 cycles: 13981590 (Simulation time: 0 hr 9 min 5 sec) 

Cycle: 20000000 FTQ IN: 56463977 FTQ occupancy: 18.0423 DECODE IN: 56463973 DECODE occupancy: 46.0921 ROB IN: 56463973 ROB occupancy: 277.24 ROB OUT: 56463655
Heartbeat_Variant_0 : 996 0.324219 per_variant_size: 0 996 0 0 0 0 0 0 0 
Heartbeat_Variant_1 : 2069 0.673503 per_variant_size: 0 375 1694 0 0 0 0 0 0 
Heartbeat_Variant_2 : 0 0 per_variant_size: 0 0 0 0 0 0 0 0 0 
Heartbeat_Variant_3 : 0 0 per_variant_size: 0 0 0 0 0 0 0 0 0 
Heartbeat_Variant_0_evicts 0 : 17602 1 : 25532 2 : 0 3 : 0 
Heartbeat_Variant_1_evicts 0 : 25535 1 : 0 2 : 0 3 : 0 
Heartbeat_Variant_2_evicts 0 : 0 1 : 0 2 : 0 3 : 0 
Heartbeat_Variant_3_evicts 0 : 0 1 : 0 2 : 0 3 : 0 
Heartbeat CPU 0 instructions: 60000001 cycles: 23332885 heartbeat IPC: 1.06937 cumulative IPC: 1.06937 (Simulation time: 0 hr 10 min 26 sec) 
Cycle: 30000000 FTQ IN: 10797456 FTQ occupancy: 7.06452 DECODE IN: 10797392 DECODE occupancy: 15.1007 ROB IN: 10797392 ROB occupancy: 121.502 ROB OUT: 10797672
Heartbeat_Variant_0 : 1003 0.326497 per_variant_size: 0 1003 0 0 0 0 0 0 0 
Heartbeat_Variant_1 : 2062 0.671224 per_variant_size: 0 352 1710 0 0 0 0 0 0 
Heartbeat_Variant_2 : 0 0 per_variant_size: 0 0 0 0 0 0 0 0 0 
Heartbeat_Variant_3 : 0 0 per_variant_size: 0 0 0 0 0 0 0 0 0 
Heartbeat_Variant_0_evicts 0 : 17361 1 : 25581 2 : 0 3 : 0 
Heartbeat_Variant_1_evicts 0 : 25574 1 : 0 2 : 0 3 : 0 
Heartbeat_Variant_2_evicts 0 : 0 1 : 0 2 : 0 3 : 0 
Heartbeat_Variant_3_evicts 0 : 0 1 : 0 2 : 0 3 : 0 
Heartbeat CPU 0 instructions: 70000002 cycles: 32541297 heartbeat IPC: 1.08596 cumulative IPC: 1.0776 (Simulation time: 0 hr 11 min 57 sec) 
Cycle: 40000000 FTQ IN: 10864153 FTQ occupancy: 6.77638 DECODE IN: 10864221 DECODE occupancy: 14.4199 ROB IN: 10864214 ROB occupancy: 117.223 ROB OUT: 10863905
Heartbeat_Variant_0 : 981 0.319336 per_variant_size: 0 981 0 0 0 0 0 0 0 
Heartbeat_Variant_1 : 2084 0.678385 per_variant_size: 0 350 1734 0 0 0 0 0 0 
Heartbeat_Variant_2 : 0 0 per_variant_size: 0 0 0 0 0 0 0 0 0 
Heartbeat_Variant_3 : 0 0 per_variant_size: 0 0 0 0 0 0 0 0 0 
Heartbeat_Variant_0_evicts 0 : 17527 1 : 25784 2 : 0 3 : 0 
Heartbeat_Variant_1_evicts 0 : 25806 1 : 0 2 : 0 3 : 0 
Heartbeat_Variant_2_evicts 0 : 0 1 : 0 2 : 0 3 : 0 
Heartbeat_Variant_3_evicts 0 : 0 1 : 0 2 : 0 3 : 0 
Heartbeat CPU 0 instructions: 80000000 cycles: 41885353 heartbeat IPC: 1.0702 cumulative IPC: 1.07512 (Simulation time: 0 hr 13 min 27 sec) 
Cycle: 50000000 FTQ IN: 10630431 FTQ occupancy: 6.78649 DECODE IN: 10630412 DECODE occupancy: 14.2229 ROB IN: 10630419 ROB occupancy: 113.102 ROB OUT: 10630740
Heartbeat_Variant_0 : 1005 0.327148 per_variant_size: 0 1005 0 0 0 0 0 0 0 
Heartbeat_Variant_1 : 2060 0.670573 per_variant_size: 0 371 1689 0 0 0 0 0 0 
Heartbeat_Variant_2 : 0 0 per_variant_size: 0 0 0 0 0 0 0 0 0 
Heartbeat_Variant_3 : 0 0 per_variant_size: 0 0 0 0 0 0 0 0 0 
Heartbeat_Variant_0_evicts 0 : 17907 1 : 26375 2 : 0 3 : 0 
Heartbeat_Variant_1_evicts 0 : 26351 1 : 0 2 : 0 3 : 0 
Heartbeat_Variant_2_evicts 0 : 0 1 : 0 2 : 0 3 : 0 
Heartbeat_Variant_3_evicts 0 : 0 1 : 0 2 : 0 3 : 0 
Heartbeat CPU 0 instructions: 90000003 cycles: 51143083 heartbeat IPC: 1.08018 cumulative IPC: 1.07638 (Simulation time: 0 hr 14 min 56 sec) 
Cycle: 60000000 FTQ IN: 10717179 FTQ occupancy: 6.57955 DECODE IN: 10717198 DECODE occupancy: 13.8271 ROB IN: 10717198 ROB occupancy: 113.915 ROB OUT: 10717116
Heartbeat_Variant_0 : 981 0.319336 per_variant_size: 0 981 0 0 0 0 0 0 0 
Heartbeat_Variant_1 : 2085 0.678711 per_variant_size: 0 343 1742 0 0 0 0 0 0 
Heartbeat_Variant_2 : 0 0 per_variant_size: 0 0 0 0 0 0 0 0 0 
Heartbeat_Variant_3 : 0 0 per_variant_size: 0 0 0 0 0 0 0 0 0 
Heartbeat_Variant_0_evicts 0 : 17956 1 : 26727 2 : 0 3 : 0 
Heartbeat_Variant_1_evicts 0 : 26752 1 : 0 2 : 0 3 : 0 
Heartbeat_Variant_2_evicts 0 : 0 1 : 0 2 : 0 3 : 0 
Heartbeat_Variant_3_evicts 0 : 0 1 : 0 2 : 0 3 : 0 
Heartbeat CPU 0 instructions: 100000001 cycles: 60628312 heartbeat IPC: 1.05427 cumulative IPC: 1.07189 (Simulation time: 0 hr 16 min 26 sec) 
Finished CPU 0 instructions: 50000001 cycles: 46646723 cumulative IPC: 1.07189 (Simulation time: 0 hr 16 min 26 sec) 

ChampSim completed all CPUs

Region of Interest Statistics

CPU 0 cumulative IPC: 1.07189 instructions: 50000001 cycles: 46646723
 Fetch stage stalled: 71.0768  Sim cycles: 46646723 fetch stall cycle: 33154983
 Empty decode stage: 57.6699  Sim cycles: 46646723 fetch stall cycle: 26901132
ITLB TOTAL     ACCESS:    5535178  HIT:    5041794  MISS:     493384  HIT %:    91.0864  MISS %:    8.91361   MPKI: 9.86768
ITLB LOAD TRANSLATION INSTRUCTION	ACCESS:    5427137  HIT:    4933753  MISS:     493384  HIT %:    90.9089  MISS %:    9.09105  MPKI: 9.86768
ITLB TRANSLATION FROM L1D PREFETCHER INSTRUCTION	ACCESS:     108041  HIT:     108041  MISS:          0  HIT %:        100  MISS %:          0  MPKI: 0

ITLB AVERAGE MISS LATENCY: 9.05292 cycles
ITLB RQ	ACCESS:    7301835	FORWARD:          0	MERGED:    1243967	TO_CACHE:    6057868

DTLB TOTAL     ACCESS:    9394485  HIT:    8920651  MISS:     473834  HIT %:    94.9563  MISS %:    5.04375   MPKI: 9.47668
DTLB LOAD TRANSLATION DATA	ACCESS:    9394485  HIT:    8920651  MISS:     473834  HIT %:    94.9563  MISS %:    5.04375  MPKI: 9.47668

DTLB AVERAGE MISS LATENCY: 9.31754 cycles
DTLB RQ	ACCESS:   13660302	FORWARD:          0	MERGED:    4232122	TO_CACHE:    9428180

STLB TOTAL     ACCESS:    1219081  HIT:    1216955  MISS:       2126  HIT %:    99.8256  MISS %:   0.174394   MPKI: 0.04252
STLB LOAD TRANSLATION INSTRUCTION	ACCESS:     493384  HIT:     493062  MISS:        322  HIT %:    99.9347  MISS %:  0.0652636  MPKI: 0.00644
STLB LOAD TRANSLATION DATA	ACCESS:     473694  HIT:     471918  MISS:       1776  HIT %:    99.6251  MISS %:   0.374926  MPKI: 0.03552
STLB TRANSLATION FROM L1D PREFETCHER DATA	ACCESS:     252003  HIT:     251975  MISS:         28  HIT %:    99.9889  MISS %:   0.011111  MPKI: 0.00056

STLB AVERAGE MISS LATENCY: 71.5974 cycles
STLB RQ	ACCESS:    1341140	FORWARD:          0	MERGED:     122017	TO_CACHE:    1219123

STLB Hit, L1D data hit: 0
STLB Hit, L2C data hit: 0
STLB Hit, LLC data hit: 0
STLB Hit, LLC data miss: 0
STLB STLB hints to L2: 0
L1D TOTAL     ACCESS:   13429599  HIT:   12312330  MISS:    1117269  HIT %:    91.6805  MISS %:    8.31945   MPKI: 22.3454
L1D LOAD DATA	ACCESS:    6847070  HIT:    6113032  MISS:     734038  HIT %:    89.2795  MISS %:    10.7205  MPKI: 14.6808
L1D RFO DATA	ACCESS:    6249604  HIT:    5962342  MISS:     287262  HIT %:    95.4035  MISS %:    4.59648  MPKI: 5.74524
L1D PREFETCH DATA	ACCESS:     332925  HIT:     236956  MISS:      95969  HIT %:     71.174  MISS %:     28.826  MPKI: 1.91938

L1D PREFETCH  REQUESTED:     748103  ISSUED:     748103  USEFUL:      34864  USELESS:      68838
L1D USEFUL LOAD PREFETCHES:      34864 PREFETCH ISSUED TO LOWER LEVEL:     103766  ACCURACY: 33.5987
 TIMELY PREFETCHES:      34864 LATE PREFETCHES: 7766 DROPPED PREFETCHES: 12
L1D AVERAGE MISS LATENCY: 264686 cycles
L1D RQ	ACCESS:   10933662	FORWARD:          0	MERGED:    3890073	TO_CACHE:    6878299
L1D WQ	ACCESS:    6950203	FORWARD:     165549	MERGED:     168200	TO_CACHE:    6782003
L1D PQ	ACCESS:     374181	FORWARD:          0	MERGED:          0	TO_CACHE:     373922

L1D UNIQUE REGIONS ACCESSED: 0
L1D REGIONS CONFLICTS: 0
L1D Cross Page Prefetch Requests: 6911
L1D Same Page Prefetch Requests: 752543
L1D ROI Sum of L1D PQ occupancy: 4753844
L1D PREFETCHES PUSHED FROM L2C: 0
L1I TOTAL     ACCESS:    6869924  HIT:    4108163  MISS:    2761761  HIT %:    59.7992  MISS %:    40.2008   MPKI: 55.2352
L1I LOAD INSTRUCTION	ACCESS:    6419845  HIT:    3658084  MISS:    2761761  HIT %:    56.9809  MISS %:    43.0191  MPKI: 55.2352
L1I PREFETCH INSTRUCTION	ACCESS:     450079  HIT:     450079  MISS:          0  HIT %:        100  MISS %:          0  MPKI: 0

L1I PREFETCH  REQUESTED:     985419  ISSUED:     985419  USEFUL:          0  USELESS:          0
L1I USEFUL LOAD PREFETCHES:          0 PREFETCH ISSUED TO LOWER LEVEL:          0  ACCURACY: -nan
 TIMELY PREFETCHES:          0 LATE PREFETCHES: 0 DROPPED PREFETCHES: 0
L1I AVERAGE MISS LATENCY: 17.4617 cycles
L1I RQ	ACCESS:    9463221	FORWARD:          0	MERGED:    2859844	TO_CACHE:    6603377
L1I PQ	ACCESS:     985419	FORWARD:          0	MERGED:     286961	TO_CACHE:     698458

L1BTB TOTAL     ACCESS:    5670527  HIT:    2045388  MISS:    3625139  HIT %:    36.0705  MISS %:    63.9295   MPKI: 72.5028
L1BTB BRANCH_DIRECT_JUMP	ACCESS:     548697 HIT:     144832 MISS:     403865 AVERAGE STALL: 35.3908 AVERAGE FETCH STALL: 19.6298 AVERAGE FETCH QUEUE STALL: 7.82309 AVERAGE DECODE STALL: 7.09002 AVERAGE EXECUTE STALL: 2.9072e+14
L1BTB BRANCH_INDIRECT	ACCESS:     183287 HIT:      66287 MISS:     117000 AVERAGE STALL: 88.2601 AVERAGE FETCH STALL: 14.8852 AVERAGE FETCH QUEUE STALL: 9.3719 AVERAGE DECODE STALL: 7.1631 AVERAGE EXECUTE STALL: 55.9039
L1BTB BRANCH_CONDITIONAL	ACCESS:    2712330 HIT:    1420412 MISS:    1291918 AVERAGE STALL: 35.6273 AVERAGE FETCH STALL: 21.6913 AVERAGE FETCH QUEUE STALL: 6.55847 AVERAGE DECODE STALL: 6.63653 AVERAGE EXECUTE STALL: 1.0005e+14
L1BTB BRANCH_DIRECT_CALL	ACCESS:     941975 HIT:     104410 MISS:     837565 AVERAGE STALL: 37.5178 AVERAGE FETCH STALL: 22.3215 AVERAGE FETCH QUEUE STALL: 7.49079 AVERAGE DECODE STALL: 6.95071 AVERAGE EXECUTE STALL: 9.26278e+13
L1BTB BRANCH_INDIRECT_CALL	ACCESS:     171131 HIT:      20796 MISS:     150335 AVERAGE STALL: 115.41 AVERAGE FETCH STALL: 18.226 AVERAGE FETCH QUEUE STALL: 6.79791 AVERAGE DECODE STALL: 6.72109 AVERAGE EXECUTE STALL: 83.1101
L1BTB BRANCH_RETURN	ACCESS:    1113107 HIT:     288651 MISS:     824456 AVERAGE STALL: 36.9784 AVERAGE FETCH STALL: 18.9223 AVERAGE FETCH QUEUE STALL: 6.28064 AVERAGE DECODE STALL: 6.45075 AVERAGE EXECUTE STALL: 1.46614e+14
L1BTB BRANCH_OTHER ACCESS:          0 HIT:          0 MISS:          0 AVERAGE STALL: -nan AVERAGE FETCH STALL: -nan AVERAGE FETCH QUEUE STALL: -nan AVERAGE DECODE STALL: -nan AVERAGE EXECUTE STALL: -nan
L1BTB TOTAL ROB OCCUPANCY AT BTB MISS: 15.9207

L2BTB TOTAL     ACCESS:    3599715  HIT:    2981251  MISS:     618464  HIT %:    82.8191  MISS %:    17.1809   MPKI: 12.3693
L2BTB BRANCH_DIRECT_JUMP	ACCESS:     399682 HIT:     340389 MISS:      59293 AVERAGE STALL: 35.3908 AVERAGE FETCH STALL: 19.6298 AVERAGE FETCH QUEUE STALL: 7.82309 AVERAGE DECODE STALL: 7.09002 AVERAGE EXECUTE STALL: 2.9072e+14
L2BTB BRANCH_INDIRECT	ACCESS:     106738 HIT:      95927 MISS:      10811 AVERAGE STALL: 88.2601 AVERAGE FETCH STALL: 14.8852 AVERAGE FETCH QUEUE STALL: 9.3719 AVERAGE DECODE STALL: 7.1631 AVERAGE EXECUTE STALL: 55.9039
L2BTB BRANCH_CONDITIONAL	ACCESS:    1291918 HIT:    1106488 MISS:     185430 AVERAGE STALL: 35.6273 AVERAGE FETCH STALL: 21.6913 AVERAGE FETCH QUEUE STALL: 6.55847 AVERAGE DECODE STALL: 6.63653 AVERAGE EXECUTE STALL: 1.0005e+14
L2BTB BRANCH_DIRECT_CALL	ACCESS:     837564 HIT:     638350 MISS:     199214 AVERAGE STALL: 37.5178 AVERAGE FETCH STALL: 22.3215 AVERAGE FETCH QUEUE STALL: 7.49079 AVERAGE DECODE STALL: 6.95071 AVERAGE EXECUTE STALL: 9.26278e+13
L2BTB BRANCH_INDIRECT_CALL	ACCESS:     140765 HIT:     101511 MISS:      39254 AVERAGE STALL: 115.41 AVERAGE FETCH STALL: 18.226 AVERAGE FETCH QUEUE STALL: 6.79791 AVERAGE DECODE STALL: 6.72109 AVERAGE EXECUTE STALL: 83.1101
L2BTB BRANCH_RETURN	ACCESS:     823048 HIT:     698586 MISS:     124462 AVERAGE STALL: 36.9784 AVERAGE FETCH STALL: 18.9223 AVERAGE FETCH QUEUE STALL: 6.28064 AVERAGE DECODE STALL: 6.45075 AVERAGE EXECUTE STALL: 1.46614e+14
L2BTB BRANCH_OTHER ACCESS:          0 HIT:          0 MISS:          0 AVERAGE STALL: -nan AVERAGE FETCH STALL: -nan AVERAGE FETCH QUEUE STALL: -nan AVERAGE DECODE STALL: -nan AVERAGE EXECUTE STALL: -nan
L2BTB TOTAL ROB OCCUPANCY AT BTB MISS: 93.3196

L2C TOTAL     ACCESS:    4493172  HIT:    3979974  MISS:     513198  HIT %:    88.5783  MISS %:    11.4217   MPKI: 10.264
L2C LOAD INSTRUCTION	ACCESS:    2761761  HIT:    2487380  MISS:     274381  HIT %:     90.065  MISS %:      9.935  MPKI: 5.48762
L2C LOAD TRANSLATION INSTRUCTION	ACCESS:        362  HIT:         69  MISS:        293  HIT %:    19.0608  MISS %:    80.9392  MPKI: 0.00586
L2C LOAD DATA	ACCESS:     726254  HIT:     646898  MISS:      79356  HIT %:    89.0732  MISS %:    10.9268  MPKI: 1.58712
L2C RFO DATA	ACCESS:     287219  HIT:     227643  MISS:      59576  HIT %:    79.2576  MISS %:    20.7424  MPKI: 1.19152
L2C PREFETCH DATA	ACCESS:     194100  HIT:     115300  MISS:      78800  HIT %:    59.4024  MISS %:    40.5976  MPKI: 1.576
L2C WRITEBACK DATA	ACCESS:     521562  HIT:     502108  MISS:      19454  HIT %:    96.2701  MISS %:    3.72995  MPKI: 0.38908
L2C LOAD TRANSLATION DATA	ACCESS:       1857  HIT:        535  MISS:       1322  HIT %:    28.8099  MISS %:    71.1901  MPKI: 0.02644
L2C TRANSLATION FROM L1D PREFETCHER DATA	ACCESS:         57  HIT:         41  MISS:         16  HIT %:    71.9298  MISS %:    28.0702  MPKI: 0.00032

L2C PREFETCH  REQUESTED:      97537  ISSUED:      97537  USEFUL:       9348  USELESS:      70217
L2C USEFUL LOAD PREFETCHES:       9348 PREFETCH ISSUED TO LOWER LEVEL:      79212  ACCURACY: 11.8012
 TIMELY PREFETCHES:       9348 LATE PREFETCHES: 412 DROPPED PREFETCHES: 0
L2C AVERAGE MISS LATENCY: 38.1931 cycles
L2C RQ	ACCESS:    3777543	FORWARD:          0	MERGED:          0	TO_CACHE:    3777513
L2C WQ	ACCESS:     521562	FORWARD:         30	MERGED:          0	TO_CACHE:     521562
L2C PQ	ACCESS:     201303	FORWARD:          0	MERGED:       3379	TO_CACHE:     197924

L2C Dense regions hint from L2: 0
PSCL5 TOTAL     ACCESS:       4282  HIT:       2141  MISS:       2141  HIT %:         50  MISS %:         50   MPKI: 0.04282
PSCL5 LOAD TRANSLATION INSTRUCTION	ACCESS:       4170  HIT:       2085  MISS:       2085  HIT %:         50  MISS %:         50  MPKI: 0.0417
PSCL5 TRANSLATION FROM L1D PREFETCHER INSTRUCTION	ACCESS:        112  HIT:         56  MISS:         56  HIT %:         50  MISS %:         50  MPKI: 0.00112


PSCL4 TOTAL     ACCESS:       4008  HIT:       1998  MISS:       2010  HIT %:    49.8503  MISS %:    50.1497   MPKI: 0.0402
PSCL4 LOAD TRANSLATION INSTRUCTION	ACCESS:       2361  HIT:       1944  MISS:        417  HIT %:     82.338  MISS %:     17.662  MPKI: 0.00834
PSCL4 TRANSLATION FROM L1D PREFETCHER INSTRUCTION	ACCESS:         67  HIT:         54  MISS:         13  HIT %:     80.597  MISS %:     19.403  MPKI: 0.00026
PSCL4 LOAD TRANSLATION DATA	ACCESS:       1539  HIT:          0  MISS:       1539  HIT %:          0  MISS %:        100  MPKI: 0.03078
PSCL4 TRANSLATION FROM L1D PREFETCHER DATA	ACCESS:         41  HIT:          0  MISS:         41  HIT %:          0  MISS %:        100  MPKI: 0.00082


PSCL3 TOTAL     ACCESS:       4140  HIT:       2064  MISS:       2076  HIT %:    49.8551  MISS %:    50.1449   MPKI: 0.04152
PSCL3 LOAD TRANSLATION INSTRUCTION	ACCESS:       2427  HIT:       2010  MISS:        417  HIT %:    82.8183  MISS %:    17.1817  MPKI: 0.00834
PSCL3 TRANSLATION FROM L1D PREFETCHER INSTRUCTION	ACCESS:         67  HIT:         54  MISS:         13  HIT %:     80.597  MISS %:     19.403  MPKI: 0.00026
PSCL3 LOAD TRANSLATION DATA	ACCESS:       1605  HIT:          0  MISS:       1605  HIT %:          0  MISS %:        100  MPKI: 0.0321
PSCL3 TRANSLATION FROM L1D PREFETCHER DATA	ACCESS:         41  HIT:          0  MISS:         41  HIT %:          0  MISS %:        100  MPKI: 0.00082


PSCL2 TOTAL     ACCESS:       4168  HIT:       2027  MISS:       2141  HIT %:    48.6324  MISS %:    51.3676   MPKI: 0.04282
PSCL2 LOAD TRANSLATION INSTRUCTION	ACCESS:       2296  HIT:       1972  MISS:        324  HIT %:    85.8885  MISS %:    14.1115  MPKI: 0.00648
PSCL2 TRANSLATION FROM L1D PREFETCHER INSTRUCTION	ACCESS:         55  HIT:         55  MISS:          0  HIT %:        100  MISS %:          0  MPKI: 0
PSCL2 LOAD TRANSLATION DATA	ACCESS:       1762  HIT:          0  MISS:       1762  HIT %:          0  MISS %:        100  MPKI: 0.03524
PSCL2 TRANSLATION FROM L1D PREFETCHER DATA	ACCESS:         55  HIT:          0  MISS:         55  HIT %:          0  MISS %:        100  MPKI: 0.0011


LLC TOTAL     ACCESS:     579806  HIT:     549661  MISS:      30145  HIT %:    94.8008  MISS %:    5.19915   MPKI: 0.6029
LLC LOAD INSTRUCTION	ACCESS:     274381  HIT:     273277  MISS:       1104  HIT %:    99.5976  MISS %:    0.40236  MPKI: 0.02208
LLC LOAD TRANSLATION INSTRUCTION	ACCESS:        293  HIT:        258  MISS:         35  HIT %:    88.0546  MISS %:    11.9454  MPKI: 0.0007
LLC LOAD DATA	ACCESS:      78989  HIT:      75568  MISS:       3421  HIT %:     95.669  MISS %:    4.33098  MPKI: 0.06842
LLC RFO DATA	ACCESS:      59524  HIT:      44167  MISS:      15357  HIT %:    74.2003  MISS %:    25.7997  MPKI: 0.30714
LLC PREFETCH DATA	ACCESS:      79211  HIT:      69477  MISS:       9734  HIT %:    87.7113  MISS %:    12.2887  MPKI: 0.19468
LLC WRITEBACK DATA	ACCESS:      86070  HIT:      85652  MISS:        418  HIT %:    99.5143  MISS %:   0.485651  MPKI: 0.00836
LLC LOAD TRANSLATION DATA	ACCESS:       1322  HIT:       1247  MISS:         75  HIT %:    94.3268  MISS %:    5.67322  MPKI: 0.0015
LLC TRANSLATION FROM L1D PREFETCHER DATA	ACCESS:         16  HIT:         15  MISS:          1  HIT %:      93.75  MISS %:       6.25  MPKI: 2e-05

LLC AVERAGE MISS LATENCY: 157.168 cycles
LLC RQ	ACCESS:     414532	FORWARD:          0	MERGED:          0	TO_CACHE:     414525
LLC WQ	ACCESS:      86070	FORWARD:          8	MERGED:          0	TO_CACHE:      86070
LLC PQ	ACCESS:      79212	FORWARD:          0	MERGED:          0	TO_CACHE:      79211

LLC Dense regions hint to LLC: 0

RAW hits: 1709448
Loads Generated: 12643108
Loads sent to L1D: 10933662
Stores Generated: 6950194
Stores sent to L1D: 6950203
Major fault: 0 Minor fault: 2546
Allocated PAGES: 2546

stream: 
stream:times selected: 1186139
stream:pref_filled: 122906
stream:pref_useful: 24334
stream:pref_late: 6658
stream:misses: 7959
stream:misses_by_poll: 0

CS: 
CS:times selected: 180278
CS:pref_filled: 60587
CS:pref_useful: 36902
CS:pref_late: 6931
CS:misses: 16389
CS:misses_by_poll: 3

CPLX: 
CPLX:times selected: 1004735
CPLX:pref_filled: 20168
CPLX:pref_useful: 4778
CPLX:pref_late: 3178
CPLX:misses: 94397
CPLX:misses_by_poll: 0

NL_L1: 
NL:times selected: 20729
NL:pref_filled: 735
NL:pref_useful: 323
NL:pref_late: 286
NL:misses: 1804
NL:misses_by_poll: 0

total selections: 2391881
total_filled: 95969
total_useful: 34864
total_late: 18353
total_polluted: 3
total_misses_after_warmup: 765268
conflicts: 5663741

test: 115541

DRAM Statistics
 CHANNEL 0
 RQ ROW_BUFFER_HIT:      11164  ROW_BUFFER_MISS:      18543
 DBUS_CONGESTED:         10
 WQ ROW_BUFFER_HIT:       1433  ROW_BUFFER_MISS:      12604  FULL:          0

 AVG_CONGESTED_CYCLE: 6

CPU 0 Branch Prediction Accuracy: 99.8221% MPKI: 0.32518 Average ROB Occupancy at Mispredict: 137.525
Branch types
NOT_BRANCH: 40857679 81.7154%
BRANCH_DIRECT_JUMP: 548697 1.09739%
BRANCH_INDIRECT: 183287 0.366574%
BRANCH_CONDITIONAL: 6183772 12.3675%
BRANCH_DIRECT_CALL: 941975 1.88395%
BRANCH_INDIRECT_CALL: 171131 0.342262%
BRANCH_RETURN: 1113107 2.22621%
BRANCH_OTHER: 0 0%

DRAM PAGES: 1048576
Allocated PAGES: 2546
Average_ROB_Occupancy: 116.842
Average_Decode_Occupancy: 14.328
Average_FTQ_Occupancy: 6.78492
Indirect max targets: 14 Average targets: 1.15333
Branch_type:  BRANCH_DIRECT_JUMP:  Count Percentage: 3.40006 4.3777 5.99389 14.4965 1.69574 6.58066 0.939742 62.5157 
Branch_type:  BRANCH_INDIRECT:  Count Percentage: 11.7695 3.45676 12.1929 23.3643 1.33933 14.5217 1.07403 32.2815 
Branch_type:  BRANCH_CONDITIONAL:  Count Percentage: 21.2334 2.50698 3.0038 8.91858 1.3434 4.7309 0.583102 57.6798 
Branch_type:  BRANCH_DIRECT_CALL:  Count Percentage: 0.767899 1.27784 1.42731 4.94758 2.44448 2.72251 0.774411 85.638 
Branch_type:  BRANCH_INDIRECT_CALL:  Count Percentage: 9.57335 0.565196 3.00116 4.85357 0.000582977 3.56811 0 78.438 
Branch_type:  BRANCH_RETURN:  Count Percentage: 4.46581 0.698494 3.51495 9.43406 2.12679 5.28695 1.01253 73.4604 
Branch_type:  BRANCH_DIRECT_JUMP:  Total Count: 37230 47935 65632 158734 18568 72057 10290 684535 
Branch_type:  BRANCH_INDIRECT:  Total Count: 43033 12639 44581 85427 4897 53096 3927 118031 
Branch_type:  BRANCH_CONDITIONAL:  Total Count: 2623851 309792 371185 1102086 166006 584606 72055 7127608 
Branch_type:  BRANCH_DIRECT_CALL:  Total Count: 14503 24134 26957 93443 46168 51419 14626 1617411 
Branch_type:  BRANCH_INDIRECT_CALL:  Total Count: 32843 1939 10296 16651 2 12241 0 269095 
Branch_type:  BRANCH_RETURN:  Total Count: 99700 15594 78472 210617 47481 118032 22605 1640017 
Number of unique branch instructions: 9934
Upper 32 bits: 
aaaa
ffff
ffff0000
Unique upper 32 bits: 3
Unique upper 36 bits: 3
Unique upper 40 bits: 5
Unique upper 44 bits: 32
Unique upper 48 bits: 156
Variant_0 : 981 0.319336
Variant_1 : 2085 0.678711
Variant_2 : 0 0
Variant_3 : 0 0
Offset_3 4093
Offset_4 256
Offset_5 454
Offset_6 502
Offset_7 580
Offset_8 509
Offset_9 474
Offset_10 383
Offset_11 310
Offset_12 273
Offset_13 202
Offset_14 226
Offset_15 188
Offset_16 218
Offset_17 149
Offset_18 118
Offset_19 234
Offset_20 136
Offset_21 261
Offset_22 390
Offset_23 241
Offset_24 340
Offset_25 88
Offset_47 84
Offset_64 2
decode_dispatch_called: 19608482 42.0361
Dispatch_width: 0 9514148 48.5206 20.3962
Dispatch_width: 1 542123 2.76474 1.16219
Dispatch_width: 2 668091 3.40715 1.43224
Dispatch_width: 3 447667 2.28303 0.959697
Dispatch_width: 4 1762443 8.98817 3.77828
Dispatch_width: 5 315401 1.60849 0.676148
Dispatch_width: 6 6358609 32.4278 13.6314
Empty_decode_cycles: 27038241 57.9639
ROB_full_cycles: 2443502 5.23831
Starvation_cycles_per_kilo_instr: 378.446
Starvation_cycles_per_kilo_instr_3: 357.668
Starvation_cycles_per_kilo_instr_0: 341.089
Branch_type_1  (3,1)  (4,8)  (5,38)  (6,69)  (7,115)  (8,129)  (9,128)  (10,100)  (11,69)  (12,43)  (13,8)  (14,2)  (15,3)  (16,4)  (18,1)  (19,4)  (20,2)  (21,1)  (22,3)  (23,2)  (24,10)  (25,12) 
Branch_type_2  (3,1)  (5,1)  (8,3)  (9,3)  (12,1)  (13,1)  (14,1)  (16,3)  (17,2)  (20,2)  (21,2)  (23,5)  (24,1)  (47,38) 
Branch_type_3  (3,4091)  (4,248)  (5,411)  (6,418)  (7,435)  (8,319)  (9,261)  (10,154)  (11,123)  (12,50)  (13,7)  (64,1) 
Branch_type_4  (6,3)  (7,8)  (8,25)  (9,50)  (10,60)  (11,61)  (12,96)  (13,85)  (14,100)  (15,89)  (16,97)  (17,67)  (18,53)  (19,114)  (20,70)  (21,141)  (22,206)  (23,136)  (24,191)  (25,72)  (64,1) 
Branch_type_5  (8,2)  (9,1)  (10,4)  (11,5)  (12,3)  (13,14)  (14,16)  (15,11)  (16,20)  (17,11)  (18,16)  (19,13)  (20,11)  (21,13)  (22,42)  (23,26)  (24,40) 
Branch_type_6  (5,4)  (6,12)  (7,22)  (8,31)  (9,31)  (10,65)  (11,52)  (12,80)  (13,87)  (14,107)  (15,85)  (16,94)  (17,69)  (18,48)  (19,103)  (20,51)  (21,104)  (22,139)  (23,72)  (24,98)  (25,4)  (47,46) 
Unique trigger count: 
Variant_0_evicts_0 : 0
Variant_0_evicts_1 : 0
Variant_0_evicts_2 : 0
Variant_0_evicts_3 : 0
Variant_1_evicts_0 : 0
Variant_1_evicts_1 : 0
Variant_1_evicts_2 : 0
Variant_1_evicts_3 : 0
Variant_2_evicts_0 : 0
Variant_2_evicts_1 : 0
Variant_2_evicts_2 : 0
Variant_2_evicts_3 : 0
Variant_3_evicts_0 : 0
Variant_3_evicts_1 : 0
Variant_3_evicts_2 : 0
Variant_3_evicts_3 : 0
BTB PER SET UNIQUE ADDR: 15 19 10 19 18 19 16 15 9 20 10 19 22 19 16 11 14 11 18 17 17 16 16 16 16 20 17 18 19 16 12 18 20 6 15 14 15 16 14 16 16 16 18 19 17 13 17 12 21 15 23 13 17 16 15 7 12 13 13 18 14 22 21 14 20 20 14 14 24 20 13 15 23 13 12 8 10 17 11 22 21 8 19 21 17 17 11 18 15 29 13 11 20 14 9 20 16 11 20 19 28 24 19 16 19 12 16 20 10 16 12 24 21 14 14 12 18 21 15 19 19 13 17 9 16 11 8 15 24 13 13 20 17 18 14 20 12 18 14 23 14 24 18 16 19 16 18 13 11 16 17 18 14 15 15 26 21 20 18 13 14 17 15 19 13 16 19 13 19 11 14 18 18 19 17 14 15 14 17 20 14 16 11 21 21 23 9 19 15 13 20 16 11 17 15 13 16 19 15 15 24 16 11 17 10 17 18 17 13 18 14 20 16 20 15 18 13 19 11 23 13 14 12 13 18 14 18 22 11 20 14 11 17 21 19 21 17 16 18 10 17 16 20 16 11 14 15 18 18 15 23 14 13 12 23 16 14 12 15 11 15 13 8 15 16 11 12 13 16 14 12 19 11 14 11 12 17 17 16 17 8 18 12 17 19 13 14 25 23 21 13 11 17 21 10 20 17 14 14 19 14 15 12 26 16 24 17 18 20 17 16 19 14 28 13 11 21 15 17 23 16 16 12 16 14 21 14 9 17 13 15 20 16 16 16 19 18 16 13 30 15 18 12 22 23 17 14 13 13 16 15 13 13 18 14 19 17 17 10 13 17 20 10 23 14 19 9 19 13 19 18 15 18 19 11 25 18 22 14 16 18 15 9 11 11 14 18 21 17 12 22 11 21 23 12 11 15 13 17 18 17 21 18 17 17 17 17 18 21 20 13 9 13 22 13 18 15 19 22 21 15 16 16 19 18 18 19 16 17 15 21 15 11 21 23 19 22 11 17 19 18 16 15 23 27 12 14 16 22 20 20 27 20 14 20 29 20 18 12 26 12 16 11 21 23 11 16 19 21 18 16 14 15 14 18 26 16 23 13 15 21 22 14 18 12 20 22 28 22 18 14 21 16 12 9 16 21 23 14 17 15 25 16 24 14 14 17 29 22 19 18 24 16 16 13 21 14 26 12 13 11 17 17 11 18 20 24 10 12 21 22 23 18 14 16 22 15 16 19 17 16 14 17 17 21 20 7 18 13 17 14 21 19 13 14 17 18 15 17 20 18 26 17 11 17 18 9 25 19 21 18 20 22 21 16 22 19 18 17 12 14 21 11 16 18 18 12 17 25 16 13 18 16 12 22 16 11 18 19 14 17 15 15 11 19 16 26 12 13 20 23 21 14 12 7 27 13 20 13 18 21 17 12 12 14 22 15 20 14 21 8 20 22 18 16 21 18 21 11 18 20 12 18 26 19 19 16 20 27 12 13 17 12 14 16 12 15 20 17 16 15 9 21 22 13 20 13 15 9 15 19 15 15 18 30 16 19 16 19 23 20 16 15 18 19 14 18 18 22 22 15 21 18 11 11 16 12 21 16 20 12 16 23 20 12 16 13 15 13 13 15 19 14 15 15 15 20 14 12 21 16 16 17 16 16 14 18 12 17 14 22 16 17 13 14 14 18 18 29 15 14 12 15 18 19 20 15 17 16 10 19 14 18 14 14 16 22 16 11 9 15 11 11 18 17 21 12 18 15 22 17 20 12 15 15 9 22 18 16 21 13 17 18 13 17 20 12 18 12 8 13 9 20 20 17 27 16 11 23 16 26 18 26 22 26 16 19 11 18 13 20 24 26 23 16 23 24 25 10 23 17 15 11 15 20 15 11 13 15 19 20 16 21 19 12 22 16 18 22 14 21 16 13 14 17 20 16 21 17 19 17 15 12 15 17 24 21 18 21 18 16 19 13 14 22 11 18 14 22 13 14 16 21 16 17 6 19 15 14 19 21 8 18 20 16 16 20 15 19 16 19 15 16 13 15 18 25 15 10 16 17 16 14 17 11 19 16 19 12 22 17 17 16 18 15 15 29 19 18 17 18 16 13 17 16 13 8 18 17 14 21 22 19 15 12 22 17 12 20 16 11 21 18 16 16 18 18 20 13 14 13 19 16 20 15 15 18 20 20 14 22 18 18 22 25 17 18 22 11 14 16 20 18 16 19 15 19 21 23 28 16 21 21 16 17 21 29 16 18 17 19 23 23 16 16 12 17 14 19 16 22 21 14 20 16 19 9 23 17 17 18 19 18 15 13 12 11 14 8 11 17 24 11 12 
BTB PER SET COUNT: 1711 1214 2270 1124 2014 1198 2234 843 1794 1374 480 1225 1653 1375 1052 469 1138 491 1348 902 1409 1239 963 1111 854 1713 744 1356 1795 1641 523 1059 1375 142 954 1023 1012 875 568 1866 801 1038 1073 1912 2214 680 1128 901 1928 711 1671 935 894 1177 1276 305 516 893 971 1299 741 2141 1550 1051 1484 2155 679 1839 1973 1691 1355 1462 1950 925 435 593 555 1692 779 1627 1982 214 1522 1354 1039 714 416 1465 1983 2608 542 685 1302 1118 222 1360 687 700 1552 2656 2708 1886 1133 816 2616 384 1386 1222 2287 804 936 1977 2267 1101 1193 944 1083 1414 1505 1792 1702 932 1431 434 597 562 443 1674 2263 1378 915 2022 1269 1055 1260 1573 906 1146 579 1634 1035 1618 1448 872 1097 1091 1282 731 548 1436 1109 976 1571 858 579 2393 2047 1454 1103 1589 600 1261 1321 1069 771 1830 893 602 1415 1971 512 895 1239 987 1431 717 540 584 1482 2100 1146 611 849 1212 1472 2198 353 1045 1224 564 1362 740 367 1358 853 539 877 2099 793 587 1491 1040 1644 948 702 1369 1105 929 1028 1949 1279 1170 734 4156 1181 1492 951 1734 786 1659 580 1021 674 832 1056 1149 816 1565 623 1762 771 408 772 1097 1607 9790 1024 1122 1165 533 1102 1255 1898 1569 919 858 1967 1457 1044 1235 1365 553 560 513 1665 1443 685 962 785 540 976 579 284 1408 855 399 687 873 957 879 643 1123 314 560 590 643 1188 749 1009 1609 149 1516 857 1336 1187 1004 562 1410 1545 1323 926 374 488 1586 471 993 1776 739 972 1367 469 961 260 1921 1121 1820 929 1628 1707 1068 1281 977 624 2099 2327 1329 1515 931 1510 2035 1126 3625 410 889 418 1905 736 468 1180 500 685 1992 1399 564 860 1727 809 1500 695 2546 784 1993 805 1510 1746 1084 595 906 600 1387 753 1013 688 1365 540 995 917 1467 634 726 948 1417 706 1947 786 1847 258 1261 750 1182 1280 797 1132 2075 201 1588 758 1564 789 1609 1642 1032 285 457 687 561 1797 1733 653 563 1750 400 1468 1681 465 538 1018 919 1315 2060 1284 1023 1810 1133 1083 1313 899 1443 873 1927 620 231 598 1510 690 854 992 4491 1943 1380 761 860 1411 1147 992 1362 1873 1265 1208 679 1965 662 367 1434 2081 1689 1213 745 1078 938 1722 1316 1000 1820 2389 926 1679 1203 1852 1321 1653 2769 1399 996 1546 2449 1252 862 663 2077 832 989 547 1360 1500 768 8639 1076 1688 1326 1281 988 820 793 1071 1873 990 2240 887 858 2027 1855 874 1140 1311 1252 1502 2062 2285 1145 1237 1470 4647 661 264 1287 2257 1585 1103 791 698 1490 949 1853 1405 589 844 2345 1933 1053 1285 3093 1663 1443 582 1907 628 1769 600 378 533 1148 941 486 1420 1813 1871 1164 994 3468 2385 1417 1319 728 1115 1878 677 1900 1431 1444 932 699 939 1201 985 1602 104 1311 762 1624 897 1487 1340 652 958 403 1124 761 992 1530 692 2061 751 778 1788 1024 526 1840 1558 1782 1908 1722 1465 1543 941 1533 1455 1511 877 720 698 1590 512 2769 941 1456 495 721 2364 827 786 1306 975 651 1139 939 365 1556 1312 690 678 1180 1229 751 1143 1234 2063 1925 420 1034 1683 2009 846 428 224 1886 375 1441 1742 1184 1900 901 517 896 807 1621 844 2088 813 1726 255 1691 1838 1045 739 1308 1674 1075 633 1147 1611 798 1366 1817 2031 1855 885 1742 2759 734 645 1067 437 1031 2378 686 1057 1534 838 855 1338 244 1305 1577 9701 1174 948 1432 1141 1340 1085 836 1713 1314 2361 1707 1501 888 1354 2482 1225 1334 1472 1067 2247 914 1302 1106 1777 2071 634 1942 1215 644 3587 1002 923 2631 1169 1393 655 1061 2155 1608 705 1173 639 962 541 851 978 1404 1271 939 993 887 1970 880 779 1728 1677 1400 780 1041 629 773 1037 1077 1086 1643 1846 1090 1177 1004 702 2737 1605 1488 2683 641 1364 230 1014 900 1754 1528 1406 723 1488 698 1913 917 1652 895 696 899 1455 1580 666 295 1097 524 340 1302 1567 1682 542 1559 389 1614 865 1726 775 1200 1154 598 1639 1844 651 1729 2380 1299 1772 738 999 1189 781 1206 616 353 651 891 1390 1315 1141 2211 959 523 1336 1306 2074 879 2293 2144 1636 910 1636 872 1535 926 982 3953 1886 1774 1012 2316 1320 2912 697 2814 1233 1732 839 1151 2120 785 637 877 998 2017 1145 1343 1387 1415 327 2428 1066 1069 1388 584 1494 1156 810 853 725 950 1136 1310 936 5721 1525 1099 466 902 1319 2008 1696 1523 1892 1075 1550 778 783 611 1988 402 1076 577 1293 672 1320 1227 1371 972 1055 6 1023 778 2398 1284 1584 158 1048 1094 1178 1457 625 1024 1193 1648 1781 737 2508 511 747 1299 2031 963 823 1090 1423 946 890 1782 698 1520 928 1839 908 1482 1425 1615 1137 1597 1063 1546 3248 1784 998 1166 1188 1631 275 1627 776 1001 64 1446 895 710 1807 1606 863 569 738 2542 1229 823 1422 1369 526 2148 1432 1110 1030 1503 1084 1660 753 931 671 1665 1448 2217 1014 899 1284 1327 1520 626 1536 1220 1366 1174 1827 790 1708 1788 467 915 937 2142 981 691 1164 1191 1453 1352 1763 2608 1210 1829 1852 1342 970 1528 2714 1047 1438 1585 1177 3043 1808 1476 1035 813 1014 2410 952 1687 1531 2035 1146 1518 813 1218 332 1890 1376 1047 1690 1708 1092 849 696 769 753 1088 306 399 952 2785 571 674 
To predecode: 0
Predecoding something: 0
Predecode request dropped: 0
sizeofblock_0 0
sizeofblock_1 298089
sizeofblock_2 552431
sizeofblock_3 0
sizeofblock_4 0
sizeofblock_5 0
sizeofblock_6 0
sizeofblock_7 0
sizeofblock_8 0
Variant_0 Correct: 1234755 Incorrect: 0 Accuracy: 1
Variant_1 Correct: 5001479 Incorrect: 0 Accuracy: 1
Variant_2 Correct: 0 Incorrect: 0 Accuracy: -nan
Variant_3 Correct: 0 Incorrect: 0 Accuracy: -nan
