
*** ChampSim Multicore Out-of-Order Simulator ***

Warmup Instructions: 50000000
Simulation Instructions: 50000000
Number of CPUs: 1
LLC sets: 2048
LLC ways: 16
Off-chip DRAM Size: 4096 MB Channels: 1 Width: 64-bit Data Rate: 6400 MT/s
CPU 0 runs ./micro_traces/srv458.trace.gz
.gz
ITLB has LRU replacement policy
DTLB has LRU replacement policy
STLB has LRU replacement policy
FDIP Prefetcher at L1I
L1I has LRU replacement policy
L1D has LRU replacement policy
Initialize SRRIP state for L2C
Initialize DRRIP state for LLC
Heartbeat_Variant_0 : 1296 0.316406 per_variant_size: 0 1296 0 0 0 0 0 0 0 
Heartbeat_Variant_1 : 1186 0.289551 per_variant_size: 0 593 593 0 0 0 0 0 0 
Heartbeat_Variant_2 : 1279 0.312256 per_variant_size: 0 535 362 209 173 0 0 0 0 
Heartbeat_Variant_3 : 0 0 per_variant_size: 0 0 0 0 0 0 0 0 0 
Heartbeat_Variant_0_evicts 0 : 5810 1 : 186 2 : 214 3 : 0 
Heartbeat_Variant_1_evicts 0 : 178 1 : 0 2 : 374 3 : 0 
Heartbeat_Variant_2_evicts 0 : 176 1 : 374 2 : 0 3 : 0 
Heartbeat_Variant_3_evicts 0 : 0 1 : 0 2 : 0 3 : 0 
Heartbeat CPU 0 instructions: 10000003 cycles: 2797378 heartbeat IPC: 3.57478 cumulative IPC: 3.57478 (Simulation time: 0 hr 1 min 38 sec) 
Heartbeat_Variant_0 : 1349 0.329346 per_variant_size: 0 1349 0 0 0 0 0 0 0 
Heartbeat_Variant_1 : 1243 0.303467 per_variant_size: 0 584 659 0 0 0 0 0 0 
Heartbeat_Variant_2 : 1319 0.322021 per_variant_size: 0 523 356 235 205 0 0 0 0 
Heartbeat_Variant_3 : 0 0 per_variant_size: 0 0 0 0 0 0 0 0 0 
Heartbeat_Variant_0_evicts 0 : 5712 1 : 173 2 : 187 3 : 0 
Heartbeat_Variant_1_evicts 0 : 167 1 : 0 2 : 330 3 : 0 
Heartbeat_Variant_2_evicts 0 : 187 1 : 320 2 : 0 3 : 0 
Heartbeat_Variant_3_evicts 0 : 0 1 : 0 2 : 0 3 : 0 
Heartbeat CPU 0 instructions: 20000000 cycles: 5594205 heartbeat IPC: 3.57548 cumulative IPC: 3.57513 (Simulation time: 0 hr 3 min 14 sec) 
Heartbeat_Variant_0 : 1349 0.329346 per_variant_size: 0 1349 0 0 0 0 0 0 0 
Heartbeat_Variant_1 : 1246 0.304199 per_variant_size: 0 586 660 0 0 0 0 0 0 
Heartbeat_Variant_2 : 1316 0.321289 per_variant_size: 0 519 357 228 212 0 0 0 0 
Heartbeat_Variant_3 : 0 0 per_variant_size: 0 0 0 0 0 0 0 0 0 
Heartbeat_Variant_0_evicts 0 : 5496 1 : 0 2 : 2 3 : 0 
Heartbeat_Variant_1_evicts 0 : 1 1 : 0 2 : 195 3 : 0 
Heartbeat_Variant_2_evicts 0 : 1 1 : 193 2 : 0 3 : 0 
Heartbeat_Variant_3_evicts 0 : 0 1 : 0 2 : 0 3 : 0 
Heartbeat CPU 0 instructions: 30000003 cycles: 8391310 heartbeat IPC: 3.57513 cumulative IPC: 3.57513 (Simulation time: 0 hr 4 min 53 sec) 
Heartbeat_Variant_0 : 1358 0.331543 per_variant_size: 0 1358 0 0 0 0 0 0 0 
Heartbeat_Variant_1 : 1247 0.304443 per_variant_size: 0 585 662 0 0 0 0 0 0 
Heartbeat_Variant_2 : 1331 0.324951 per_variant_size: 0 530 352 240 209 0 0 0 0 
Heartbeat_Variant_3 : 0 0 per_variant_size: 0 0 0 0 0 0 0 0 0 
Heartbeat_Variant_0_evicts 0 : 5604 1 : 77 2 : 84 3 : 0 
Heartbeat_Variant_1_evicts 0 : 74 1 : 0 2 : 259 3 : 0 
Heartbeat_Variant_2_evicts 0 : 82 1 : 270 2 : 0 3 : 0 
Heartbeat_Variant_3_evicts 0 : 0 1 : 0 2 : 0 3 : 0 
Heartbeat CPU 0 instructions: 40000001 cycles: 11187455 heartbeat IPC: 3.57635 cumulative IPC: 3.57543 (Simulation time: 0 hr 6 min 30 sec) 
Heartbeat_Variant_0 : 1357 0.331299 per_variant_size: 0 1357 0 0 0 0 0 0 0 
Heartbeat_Variant_1 : 1258 0.307129 per_variant_size: 0 600 658 0 0 0 0 0 0 
Heartbeat_Variant_2 : 1339 0.326904 per_variant_size: 0 538 361 240 200 0 0 0 0 
Heartbeat_Variant_3 : 0 0 per_variant_size: 0 0 0 0 0 0 0 0 0 
Heartbeat_Variant_0_evicts 0 : 5676 1 : 65 2 : 82 3 : 0 
Heartbeat_Variant_1_evicts 0 : 69 1 : 0 2 : 264 3 : 0 
Heartbeat_Variant_2_evicts 0 : 83 1 : 263 2 : 0 3 : 0 
Heartbeat_Variant_3_evicts 0 : 0 1 : 0 2 : 0 3 : 0 
Heartbeat CPU 0 instructions: 50000000 cycles: 13982284 heartbeat IPC: 3.57804 cumulative IPC: 3.57595 (Simulation time: 0 hr 8 min 7 sec) 

Warmup complete CPU 0 instructions: 50000004 cycles: 13982285 (Simulation time: 0 hr 8 min 7 sec) 

Cycle: 20000000 FTQ IN: 57856134 FTQ occupancy: 18.6792 DECODE IN: 57856134 DECODE occupancy: 48.2099 ROB IN: 57856134 ROB occupancy: 296.35 ROB OUT: 57856121
Heartbeat_Variant_0 : 1362 0.33252 per_variant_size: 0 1362 0 0 0 0 0 0 0 
Heartbeat_Variant_1 : 1256 0.306641 per_variant_size: 0 601 655 0 0 0 0 0 0 
Heartbeat_Variant_2 : 1339 0.326904 per_variant_size: 0 528 365 251 195 0 0 0 0 
Heartbeat_Variant_3 : 0 0 per_variant_size: 0 0 0 0 0 0 0 0 0 
Heartbeat_Variant_0_evicts 0 : 5657 1 : 35 2 : 31 3 : 0 
Heartbeat_Variant_1_evicts 0 : 34 1 : 0 2 : 218 3 : 0 
Heartbeat_Variant_2_evicts 0 : 29 1 : 219 2 : 0 3 : 0 
Heartbeat_Variant_3_evicts 0 : 0 1 : 0 2 : 0 3 : 0 
Heartbeat CPU 0 instructions: 60000001 cycles: 21669184 heartbeat IPC: 1.30091 cumulative IPC: 1.30091 (Simulation time: 0 hr 9 min 41 sec) 
Heartbeat_Variant_0 : 1364 0.333008 per_variant_size: 0 1364 0 0 0 0 0 0 0 
Heartbeat_Variant_1 : 1266 0.309082 per_variant_size: 0 609 657 0 0 0 0 0 0 
Heartbeat_Variant_2 : 1338 0.32666 per_variant_size: 0 512 385 240 201 0 0 0 0 
Heartbeat_Variant_3 : 0 0 per_variant_size: 0 0 0 0 0 0 0 0 0 
Heartbeat_Variant_0_evicts 0 : 5616 1 : 36 2 : 48 3 : 0 
Heartbeat_Variant_1_evicts 0 : 40 1 : 0 2 : 236 3 : 0 
Heartbeat_Variant_2_evicts 0 : 43 1 : 236 2 : 0 3 : 0 
Heartbeat_Variant_3_evicts 0 : 0 1 : 0 2 : 0 3 : 0 
Heartbeat CPU 0 instructions: 70000002 cycles: 29276384 heartbeat IPC: 1.31454 cumulative IPC: 1.30769 (Simulation time: 0 hr 11 min 14 sec) 
Cycle: 30000000 FTQ IN: 13100863 FTQ occupancy: 8.5561 DECODE IN: 13100749 DECODE occupancy: 20.3111 ROB IN: 13100689 ROB occupancy: 171.134 ROB OUT: 13100350
Heartbeat_Variant_0 : 1365 0.333252 per_variant_size: 0 1365 0 0 0 0 0 0 0 
Heartbeat_Variant_1 : 1266 0.309082 per_variant_size: 0 606 660 0 0 0 0 0 0 
Heartbeat_Variant_2 : 1342 0.327637 per_variant_size: 0 516 384 243 199 0 0 0 0 
Heartbeat_Variant_3 : 0 0 per_variant_size: 0 0 0 0 0 0 0 0 0 
Heartbeat_Variant_0_evicts 0 : 5599 1 : 15 2 : 6 3 : 0 
Heartbeat_Variant_1_evicts 0 : 13 1 : 0 2 : 207 3 : 0 
Heartbeat_Variant_2_evicts 0 : 8 1 : 208 2 : 0 3 : 0 
Heartbeat_Variant_3_evicts 0 : 0 1 : 0 2 : 0 3 : 0 
Heartbeat CPU 0 instructions: 80000000 cycles: 36942136 heartbeat IPC: 1.3045 cumulative IPC: 1.30663 (Simulation time: 0 hr 12 min 47 sec) 
Cycle: 40000000 FTQ IN: 13114507 FTQ occupancy: 8.83779 DECODE IN: 13114479 DECODE occupancy: 21.0268 ROB IN: 13114479 ROB occupancy: 173.406 ROB OUT: 13114566
Heartbeat_Variant_0 : 1365 0.333252 per_variant_size: 0 1365 0 0 0 0 0 0 0 
Heartbeat_Variant_1 : 1270 0.310059 per_variant_size: 0 608 662 0 0 0 0 0 0 
Heartbeat_Variant_2 : 1346 0.328613 per_variant_size: 0 527 374 241 204 0 0 0 0 
Heartbeat_Variant_3 : 0 0 per_variant_size: 0 0 0 0 0 0 0 0 0 
Heartbeat_Variant_0_evicts 0 : 5721 1 : 55 2 : 51 3 : 0 
Heartbeat_Variant_1_evicts 0 : 52 1 : 0 2 : 254 3 : 0 
Heartbeat_Variant_2_evicts 0 : 56 1 : 251 2 : 0 3 : 0 
Heartbeat_Variant_3_evicts 0 : 0 1 : 0 2 : 0 3 : 0 
Heartbeat CPU 0 instructions: 90000003 cycles: 44506468 heartbeat IPC: 1.32199 cumulative IPC: 1.31044 (Simulation time: 0 hr 14 min 16 sec) 
Cycle: 50000000 FTQ IN: 13113108 FTQ occupancy: 8.44293 DECODE IN: 13113113 DECODE occupancy: 20.0056 ROB IN: 13113113 ROB occupancy: 170.321 ROB OUT: 13113026
Heartbeat_Variant_0 : 1383 0.337646 per_variant_size: 0 1383 0 0 0 0 0 0 0 
Heartbeat_Variant_1 : 1278 0.312012 per_variant_size: 0 604 674 0 0 0 0 0 0 
Heartbeat_Variant_2 : 1346 0.328613 per_variant_size: 0 498 384 260 204 0 0 0 0 
Heartbeat_Variant_3 : 0 0 per_variant_size: 0 0 0 0 0 0 0 0 0 
Heartbeat_Variant_0_evicts 0 : 5748 1 : 137 2 : 104 3 : 0 
Heartbeat_Variant_1_evicts 0 : 127 1 : 0 2 : 304 3 : 0 
Heartbeat_Variant_2_evicts 0 : 106 1 : 296 2 : 0 3 : 0 
Heartbeat_Variant_3_evicts 0 : 0 1 : 0 2 : 0 3 : 0 
Heartbeat CPU 0 instructions: 100000001 cycles: 52222369 heartbeat IPC: 1.29602 cumulative IPC: 1.30753 (Simulation time: 0 hr 15 min 47 sec) 
Finished CPU 0 instructions: 50000001 cycles: 38240085 cumulative IPC: 1.30753 (Simulation time: 0 hr 15 min 47 sec) 

ChampSim completed all CPUs

Region of Interest Statistics

CPU 0 cumulative IPC: 1.30753 instructions: 50000001 cycles: 38240085
 Fetch stage stalled: 64.8455  Sim cycles: 38240085 fetch stall cycle: 24796971
 Empty decode stage: 62.629  Sim cycles: 38240085 fetch stall cycle: 23949371
ITLB TOTAL     ACCESS:    5859534  HIT:    5365337  MISS:     494197  HIT %:    91.5659  MISS %:    8.43407   MPKI: 9.88394
ITLB LOAD TRANSLATION INSTRUCTION	ACCESS:    5752093  HIT:    5257896  MISS:     494197  HIT %:    91.4084  MISS %:     8.5916  MPKI: 9.88394
ITLB TRANSLATION FROM L1D PREFETCHER INSTRUCTION	ACCESS:     107441  HIT:     107441  MISS:          0  HIT %:        100  MISS %:          0  MPKI: 0

ITLB AVERAGE MISS LATENCY: 9.05797 cycles
ITLB RQ	ACCESS:    7986173	FORWARD:          0	MERGED:    1716941	TO_CACHE:    6269232

DTLB TOTAL     ACCESS:    9114543  HIT:    8640281  MISS:     474262  HIT %:    94.7966  MISS %:    5.20335   MPKI: 9.48524
DTLB LOAD TRANSLATION DATA	ACCESS:    9114543  HIT:    8640281  MISS:     474262  HIT %:    94.7966  MISS %:    5.20335  MPKI: 9.48524

DTLB AVERAGE MISS LATENCY: 9.3174 cycles
DTLB RQ	ACCESS:   13453385	FORWARD:          0	MERGED:    4302474	TO_CACHE:    9150911

STLB TOTAL     ACCESS:    1217604  HIT:    1215481  MISS:       2123  HIT %:    99.8256  MISS %:   0.174359   MPKI: 0.04246
STLB LOAD TRANSLATION INSTRUCTION	ACCESS:     494197  HIT:     493877  MISS:        320  HIT %:    99.9352  MISS %:  0.0647515  MPKI: 0.0064
STLB LOAD TRANSLATION DATA	ACCESS:     474216  HIT:     472443  MISS:       1773  HIT %:    99.6261  MISS %:    0.37388  MPKI: 0.03546
STLB TRANSLATION FROM L1D PREFETCHER DATA	ACCESS:     249191  HIT:     249161  MISS:         30  HIT %:     99.988  MISS %:   0.012039  MPKI: 0.0006

STLB AVERAGE MISS LATENCY: 69.7235 cycles
STLB RQ	ACCESS:    1339685	FORWARD:          0	MERGED:     122039	TO_CACHE:    1217646

STLB Hit, L1D data hit: 0
STLB Hit, L2C data hit: 0
STLB Hit, LLC data hit: 0
STLB Hit, LLC data miss: 0
STLB STLB hints to L2: 0
L1D TOTAL     ACCESS:   13203041  HIT:   12085420  MISS:    1117621  HIT %:    91.5351  MISS %:    8.46488   MPKI: 22.3524
L1D LOAD DATA	ACCESS:    6656491  HIT:    5922209  MISS:     734282  HIT %:    88.9689  MISS %:    11.0311  MPKI: 14.6856
L1D RFO DATA	ACCESS:    6216276  HIT:    5928700  MISS:     287576  HIT %:    95.3738  MISS %:    4.62618  MPKI: 5.75152
L1D PREFETCH DATA	ACCESS:     330274  HIT:     234511  MISS:      95763  HIT %:     71.005  MISS %:     28.995  MPKI: 1.91526

L1D PREFETCH  REQUESTED:     742842  ISSUED:     742842  USEFUL:      35036  USELESS:      68614
L1D USEFUL LOAD PREFETCHES:      35036 PREFETCH ISSUED TO LOWER LEVEL:     103734  ACCURACY: 33.7748
 TIMELY PREFETCHES:      35036 LATE PREFETCHES: 7913 DROPPED PREFETCHES: 12
L1D AVERAGE MISS LATENCY: 241133 cycles
L1D RQ	ACCESS:   10763517	FORWARD:          0	MERGED:    3910701	TO_CACHE:    6691304
L1D WQ	ACCESS:    6950203	FORWARD:     161902	MERGED:     188122	TO_CACHE:    6762081
L1D PQ	ACCESS:     371616	FORWARD:          0	MERGED:          0	TO_CACHE:     371226

L1D UNIQUE REGIONS ACCESSED: 0
L1D REGIONS CONFLICTS: 0
L1D Cross Page Prefetch Requests: 6890
L1D Same Page Prefetch Requests: 749543
L1D ROI Sum of L1D PQ occupancy: 4717212
L1D PREFETCHES PUSHED FROM L2C: 0
L1I TOTAL     ACCESS:    7233865  HIT:    4471930  MISS:    2761935  HIT %:    61.8194  MISS %:    38.1806   MPKI: 55.2387
L1I LOAD INSTRUCTION	ACCESS:    6591877  HIT:    3829942  MISS:    2761935  HIT %:    58.1009  MISS %:    41.8991  MPKI: 55.2387
L1I PREFETCH INSTRUCTION	ACCESS:     641988  HIT:     641988  MISS:          0  HIT %:        100  MISS %:          0  MPKI: 0

L1I PREFETCH  REQUESTED:    1535061  ISSUED:    1535061  USEFUL:          0  USELESS:          0
L1I USEFUL LOAD PREFETCHES:          0 PREFETCH ISSUED TO LOWER LEVEL:          0  ACCURACY: -nan
 TIMELY PREFETCHES:          0 LATE PREFETCHES: 0 DROPPED PREFETCHES: 0
L1I AVERAGE MISS LATENCY: 17.5295 cycles
L1I RQ	ACCESS:    9439242	FORWARD:          0	MERGED:    2563077	TO_CACHE:    6876165
L1I PQ	ACCESS:    1535061	FORWARD:          0	MERGED:     425053	TO_CACHE:    1110008

L1BTB TOTAL     ACCESS:    5670542  HIT:    2045410  MISS:    3625132  HIT %:    36.0708  MISS %:    63.9292   MPKI: 72.5026
L1BTB BRANCH_DIRECT_JUMP	ACCESS:     548699  HIT:     144830  MISS:     403869	AVERAGE STALL: 37.5045
L1BTB BRANCH_INDIRECT	ACCESS:     183289  HIT:      66283  MISS:     117006	AVERAGE STALL: 77.5555
L1BTB BRANCH_CONDITIONAL	ACCESS:    2712333  HIT:    1420439  MISS:    1291894	AVERAGE STALL: 46.6009
L1BTB BRANCH_DIRECT_CALL	ACCESS:     941980  HIT:     104407  MISS:     837573	AVERAGE STALL: 57.9941
L1BTB BRANCH_INDIRECT_CALL	ACCESS:     171131  HIT:      20797  MISS:     150334	AVERAGE STALL: 103.469
L1BTB BRANCH_RETURN	ACCESS:    1113110  HIT:     288654  MISS:     824456	AVERAGE STALL: 40.783
L1BTB BRANCH_OTHER ACCESS:          0  HIT:          0  MISS:          0	AVERAGE STALL: -nan
L1BTB TOTAL ROB OCCUPANCY AT BTB MISS: 1.93543

L2BTB TOTAL     ACCESS:    3599696  HIT:    3533769  MISS:      65927  HIT %:    98.1685  MISS %:    1.83146   MPKI: 1.31854
L2BTB BRANCH_DIRECT_JUMP	ACCESS:     399681  HIT:     395584  MISS:       4097	AVERAGE STALL: 37.5045
L2BTB BRANCH_INDIRECT	ACCESS:     106737  HIT:     104079  MISS:       2658	AVERAGE STALL: 77.5555
L2BTB BRANCH_CONDITIONAL	ACCESS:    1291894  HIT:    1287299  MISS:       4595	AVERAGE STALL: 46.6009
L2BTB BRANCH_DIRECT_CALL	ACCESS:     837572  HIT:     836198  MISS:       1374	AVERAGE STALL: 57.9941
L2BTB BRANCH_INDIRECT_CALL	ACCESS:     140764  HIT:     130548  MISS:      10216	AVERAGE STALL: 103.469
L2BTB BRANCH_RETURN	ACCESS:     823048  HIT:     780061  MISS:      42987	AVERAGE STALL: 40.783
L2BTB BRANCH_OTHER ACCESS:          0  HIT:          0  MISS:          0	AVERAGE STALL: -nan
L2BTB TOTAL ROB OCCUPANCY AT BTB MISS: 106.423

L2C TOTAL     ACCESS:    4495393  HIT:    3960656  MISS:     534737  HIT %:    88.1048  MISS %:    11.8952   MPKI: 10.6947
L2C LOAD INSTRUCTION	ACCESS:    2761935  HIT:    2469498  MISS:     292437  HIT %:    89.4119  MISS %:    10.5881  MPKI: 5.84874
L2C LOAD TRANSLATION INSTRUCTION	ACCESS:        360  HIT:         99  MISS:        261  HIT %:       27.5  MISS %:       72.5  MPKI: 0.00522
L2C LOAD DATA	ACCESS:     726346  HIT:     642362  MISS:      83984  HIT %:    88.4375  MISS %:    11.5625  MPKI: 1.67968
L2C RFO DATA	ACCESS:     287475  HIT:     229029  MISS:      58446  HIT %:    79.6692  MISS %:    20.3308  MPKI: 1.16892
L2C PREFETCH DATA	ACCESS:     195509  HIT:     117145  MISS:      78364  HIT %:     59.918  MISS %:     40.082  MPKI: 1.56728
L2C WRITEBACK DATA	ACCESS:     521855  HIT:     501842  MISS:      20013  HIT %:     96.165  MISS %:    3.83497  MPKI: 0.40026
L2C LOAD TRANSLATION DATA	ACCESS:       1856  HIT:        641  MISS:       1215  HIT %:    34.5366  MISS %:    65.4634  MPKI: 0.0243
L2C TRANSLATION FROM L1D PREFETCHER DATA	ACCESS:         57  HIT:         40  MISS:         17  HIT %:    70.1754  MISS %:    29.8246  MPKI: 0.00034

L2C PREFETCH  REQUESTED:     100427  ISSUED:     100427  USEFUL:       8258  USELESS:      70903
L2C USEFUL LOAD PREFETCHES:       8258 PREFETCH ISSUED TO LOWER LEVEL:      78852  ACCURACY: 10.4728
 TIMELY PREFETCHES:       8258 LATE PREFETCHES: 487 DROPPED PREFETCHES: 0
L2C AVERAGE MISS LATENCY: 37.8815 cycles
L2C RQ	ACCESS:    3778097	FORWARD:          0	MERGED:          0	TO_CACHE:    3778030
L2C WQ	ACCESS:     521855	FORWARD:         67	MERGED:          0	TO_CACHE:     521855
L2C PQ	ACCESS:     204161	FORWARD:          0	MERGED:       4172	TO_CACHE:     199989

L2C Dense regions hint from L2: 0
PSCL5 TOTAL     ACCESS:       4276  HIT:       2138  MISS:       2138  HIT %:         50  MISS %:         50   MPKI: 0.04276
PSCL5 LOAD TRANSLATION INSTRUCTION	ACCESS:       4164  HIT:       2082  MISS:       2082  HIT %:         50  MISS %:         50  MPKI: 0.04164
PSCL5 TRANSLATION FROM L1D PREFETCHER INSTRUCTION	ACCESS:        112  HIT:         56  MISS:         56  HIT %:         50  MISS %:         50  MPKI: 0.00112


PSCL4 TOTAL     ACCESS:       4002  HIT:       1995  MISS:       2007  HIT %:    49.8501  MISS %:    50.1499   MPKI: 0.04014
PSCL4 LOAD TRANSLATION INSTRUCTION	ACCESS:       2356  HIT:       1941  MISS:        415  HIT %:    82.3854  MISS %:    17.6146  MPKI: 0.0083
PSCL4 TRANSLATION FROM L1D PREFETCHER INSTRUCTION	ACCESS:         66  HIT:         54  MISS:         12  HIT %:    81.8182  MISS %:    18.1818  MPKI: 0.00024
PSCL4 LOAD TRANSLATION DATA	ACCESS:       1538  HIT:          0  MISS:       1538  HIT %:          0  MISS %:        100  MPKI: 0.03076
PSCL4 TRANSLATION FROM L1D PREFETCHER DATA	ACCESS:         42  HIT:          0  MISS:         42  HIT %:          0  MISS %:        100  MPKI: 0.00084


PSCL3 TOTAL     ACCESS:       4132  HIT:       2060  MISS:       2072  HIT %:    49.8548  MISS %:    50.1452   MPKI: 0.04144
PSCL3 LOAD TRANSLATION INSTRUCTION	ACCESS:       2421  HIT:       2006  MISS:        415  HIT %:    82.8583  MISS %:    17.1417  MPKI: 0.0083
PSCL3 TRANSLATION FROM L1D PREFETCHER INSTRUCTION	ACCESS:         66  HIT:         54  MISS:         12  HIT %:    81.8182  MISS %:    18.1818  MPKI: 0.00024
PSCL3 LOAD TRANSLATION DATA	ACCESS:       1603  HIT:          0  MISS:       1603  HIT %:          0  MISS %:        100  MPKI: 0.03206
PSCL3 TRANSLATION FROM L1D PREFETCHER DATA	ACCESS:         42  HIT:          0  MISS:         42  HIT %:          0  MISS %:        100  MPKI: 0.00084


PSCL2 TOTAL     ACCESS:       4162  HIT:       2024  MISS:       2138  HIT %:    48.6305  MISS %:    51.3695   MPKI: 0.04276
PSCL2 LOAD TRANSLATION INSTRUCTION	ACCESS:       2291  HIT:       1969  MISS:        322  HIT %:     85.945  MISS %:     14.055  MPKI: 0.00644
PSCL2 TRANSLATION FROM L1D PREFETCHER INSTRUCTION	ACCESS:         55  HIT:         55  MISS:          0  HIT %:        100  MISS %:          0  MPKI: 0
PSCL2 LOAD TRANSLATION DATA	ACCESS:       1761  HIT:          0  MISS:       1761  HIT %:          0  MISS %:        100  MPKI: 0.03522
PSCL2 TRANSLATION FROM L1D PREFETCHER DATA	ACCESS:         55  HIT:          0  MISS:         55  HIT %:          0  MISS %:        100  MPKI: 0.0011


LLC TOTAL     ACCESS:     597748  HIT:     567604  MISS:      30144  HIT %:    94.9571  MISS %:    5.04293   MPKI: 0.60288
LLC LOAD INSTRUCTION	ACCESS:     292437  HIT:     291282  MISS:       1155  HIT %:     99.605  MISS %:   0.394957  MPKI: 0.0231
LLC LOAD TRANSLATION INSTRUCTION	ACCESS:        261  HIT:        225  MISS:         36  HIT %:    86.2069  MISS %:    13.7931  MPKI: 0.00072
LLC LOAD DATA	ACCESS:      83521  HIT:      80142  MISS:       3379  HIT %:    95.9543  MISS %:    4.04569  MPKI: 0.06758
LLC RFO DATA	ACCESS:      58405  HIT:      43034  MISS:      15371  HIT %:     73.682  MISS %:     26.318  MPKI: 0.30742
LLC PREFETCH DATA	ACCESS:      78851  HIT:      69126  MISS:       9725  HIT %:    87.6666  MISS %:    12.3334  MPKI: 0.1945
LLC WRITEBACK DATA	ACCESS:      83041  HIT:      82634  MISS:        407  HIT %:    99.5099  MISS %:   0.490119  MPKI: 0.00814
LLC LOAD TRANSLATION DATA	ACCESS:       1215  HIT:       1146  MISS:         69  HIT %:     94.321  MISS %:    5.67901  MPKI: 0.00138
LLC TRANSLATION FROM L1D PREFETCHER DATA	ACCESS:         17  HIT:         15  MISS:          2  HIT %:    88.2353  MISS %:    11.7647  MPKI: 4e-05

LLC AVERAGE MISS LATENCY: 158.149 cycles
LLC RQ	ACCESS:     435873	FORWARD:          0	MERGED:          0	TO_CACHE:     435856
LLC WQ	ACCESS:      83041	FORWARD:         17	MERGED:          0	TO_CACHE:      83041
LLC PQ	ACCESS:      78852	FORWARD:          0	MERGED:          0	TO_CACHE:      78852

LLC Dense regions hint to LLC: 0

RAW hits: 1879593
Loads Generated: 12643108
Loads sent to L1D: 10763517
Stores Generated: 6950194
Stores sent to L1D: 6950203
Major fault: 0 Minor fault: 2546
Allocated PAGES: 2546

stream: 
stream:times selected: 1183823
stream:pref_filled: 121986
stream:pref_useful: 24135
stream:pref_late: 6769
stream:misses: 8022
stream:misses_by_poll: 0

CS: 
CS:times selected: 178219
CS:pref_filled: 60334
CS:pref_useful: 37157
CS:pref_late: 6818
CS:misses: 16493
CS:misses_by_poll: 4

CPLX: 
CPLX:times selected: 1004473
CPLX:pref_filled: 19967
CPLX:pref_useful: 4744
CPLX:pref_late: 3076
CPLX:misses: 94221
CPLX:misses_by_poll: 0

NL_L1: 
NL:times selected: 20621
NL:pref_filled: 675
NL:pref_useful: 301
NL:pref_late: 302
NL:misses: 1770
NL:misses_by_poll: 0

total selections: 2387136
total_filled: 95763
total_useful: 35036
total_late: 18531
total_polluted: 4
total_misses_after_warmup: 769096
conflicts: 5572133

test: 115288

DRAM Statistics
 CHANNEL 0
 RQ ROW_BUFFER_HIT:      11169  ROW_BUFFER_MISS:      18559
 DBUS_CONGESTED:          8
 WQ ROW_BUFFER_HIT:       1493  ROW_BUFFER_MISS:      12906  FULL:          0

 AVG_CONGESTED_CYCLE: 4

CPU 0 Branch Prediction Accuracy: 99.8222% MPKI: 0.32518 Average ROB Occupancy at Mispredict: 154.954
Branch types
NOT_BRANCH: 40857867 81.7157%
BRANCH_DIRECT_JUMP: 548699 1.0974%
BRANCH_INDIRECT: 183289 0.366578%
BRANCH_CONDITIONAL: 6183805 12.3676%
BRANCH_DIRECT_CALL: 941980 1.88396%
BRANCH_INDIRECT_CALL: 171131 0.342262%
BRANCH_RETURN: 1113110 2.22622%
BRANCH_OTHER: 0 0%

DRAM PAGES: 1048576
Allocated PAGES: 2546
Average_ROB_Occupancy: 173.523
Average_Decode_Occupancy: 20.5252
Average_FTQ_Occupancy: 8.65029
Indirect max targets: 14 Average targets: 1.15333
Branch_type:  BRANCH_DIRECT_JUMP:  Count Percentage: 3.40005 4.37769 5.99388 14.4965 1.69573 6.58065 0.939741 62.5158 
Branch_type:  BRANCH_INDIRECT:  Count Percentage: 11.7695 3.45674 12.1928 23.3641 1.33932 1.2023 1.07403 45.6012 
Branch_type:  BRANCH_CONDITIONAL:  Count Percentage: 21.5476 2.50697 3.00379 8.91856 1.34339 4.73089 0.5831 57.3657 
Branch_type:  BRANCH_DIRECT_CALL:  Count Percentage: 0.767896 1.27783 1.4273 4.94757 2.44448 2.7225 0.774409 85.638 
Branch_type:  BRANCH_INDIRECT_CALL:  Count Percentage: 9.57335 0.565196 3.00116 4.85357 0.000582977 3.56811 0 78.438 
Branch_type:  BRANCH_RETURN:  Count Percentage: 4.4658 0.698493 3.51495 9.43404 2.12679 5.28694 1.01253 73.4605 
Branch_type:  BRANCH_DIRECT_JUMP:  Total Count: 37230 47935 65632 158734 18568 72057 10290 684537 
Branch_type:  BRANCH_INDIRECT:  Total Count: 43033 12639 44581 85427 4897 4396 3927 166733 
Branch_type:  BRANCH_CONDITIONAL:  Total Count: 2662681 309792 371185 1102086 166006 584606 72055 7088811 
Branch_type:  BRANCH_DIRECT_CALL:  Total Count: 14503 24134 26957 93443 46168 51419 14626 1617416 
Branch_type:  BRANCH_INDIRECT_CALL:  Total Count: 32843 1939 10296 16651 2 12241 0 269095 
Branch_type:  BRANCH_RETURN:  Total Count: 99700 15594 78472 210617 47481 118032 22605 1640020 
Number of unique branch instructions: 9934
Upper 32 bits: 
aaaa
ffff
ffff0000
Unique upper 32 bits: 3
Unique upper 36 bits: 3
Unique upper 40 bits: 5
Unique upper 44 bits: 32
Unique upper 48 bits: 156
Variant_0 : 1383 0.337646
Variant_1 : 1278 0.312012
Variant_2 : 1346 0.328613
Variant_3 : 0 0
Offset_3 4093
Offset_4 256
Offset_5 454
Offset_6 502
Offset_7 580
Offset_8 509
Offset_9 474
Offset_10 383
Offset_11 310
Offset_12 273
Offset_13 202
Offset_14 226
Offset_15 188
Offset_16 218
Offset_17 149
Offset_18 118
Offset_19 234
Offset_20 136
Offset_21 261
Offset_22 390
Offset_23 241
Offset_24 340
Offset_25 88
Offset_47 84
Offset_64 2
decode_dispatch_called: 21668812 56.6652
Dispatch_width: 0 11164783 51.5247 29.1965
Dispatch_width: 1 664477 3.06651 1.73765
Dispatch_width: 2 685247 3.16237 1.79196
Dispatch_width: 3 465286 2.14726 1.21675
Dispatch_width: 4 2638943 12.1785 6.90099
Dispatch_width: 5 287056 1.32474 0.750668
Dispatch_width: 6 5763020 26.5959 15.0706
Empty_decode_cycles: 16571273 43.3348
ROB_full_cycles: 4022758 10.5197
Starvation_cycles_per_kilo_instr: 284.543
Starvation_cycles_per_kilo_instr_3: 255.283
Starvation_cycles_per_kilo_instr_0: 237.133
Branch_type_1  (3,1)  (4,8)  (5,38)  (6,69)  (7,115)  (8,129)  (9,128)  (10,100)  (11,69)  (12,43)  (13,8)  (14,2)  (15,3)  (16,4)  (18,1)  (19,4)  (20,2)  (21,1)  (22,3)  (23,2)  (24,10)  (25,12) 
Branch_type_2  (3,1)  (5,1)  (8,3)  (9,3)  (12,1)  (13,1)  (14,1)  (16,3)  (17,2)  (20,2)  (21,2)  (23,5)  (24,1)  (47,38) 
Branch_type_3  (3,4091)  (4,248)  (5,411)  (6,418)  (7,435)  (8,319)  (9,261)  (10,154)  (11,123)  (12,50)  (13,7)  (64,1) 
Branch_type_4  (6,3)  (7,8)  (8,25)  (9,50)  (10,60)  (11,61)  (12,96)  (13,85)  (14,100)  (15,89)  (16,97)  (17,67)  (18,53)  (19,114)  (20,70)  (21,141)  (22,206)  (23,136)  (24,191)  (25,72)  (64,1) 
Branch_type_5  (8,2)  (9,1)  (10,4)  (11,5)  (12,3)  (13,14)  (14,16)  (15,11)  (16,20)  (17,11)  (18,16)  (19,13)  (20,11)  (21,13)  (22,42)  (23,26)  (24,40) 
Branch_type_6  (5,4)  (6,12)  (7,22)  (8,31)  (9,31)  (10,65)  (11,52)  (12,80)  (13,87)  (14,107)  (15,85)  (16,94)  (17,69)  (18,48)  (19,103)  (20,51)  (21,104)  (22,139)  (23,72)  (24,98)  (25,4)  (47,46) 
Unique trigger count: 
Variant_0_evicts_0 : 0
Variant_0_evicts_1 : 0
Variant_0_evicts_2 : 0
Variant_0_evicts_3 : 0
Variant_1_evicts_0 : 0
Variant_1_evicts_1 : 0
Variant_1_evicts_2 : 0
Variant_1_evicts_3 : 0
Variant_2_evicts_0 : 0
Variant_2_evicts_1 : 0
Variant_2_evicts_2 : 0
Variant_2_evicts_3 : 0
Variant_3_evicts_0 : 0
Variant_3_evicts_1 : 0
Variant_3_evicts_2 : 0
Variant_3_evicts_3 : 0
BTB PER SET UNIQUE ADDR: 11 15 8 16 12 7 6 11 9 11 8 13 10 15 9 11 9 10 8 13 12 10 9 11 12 11 12 7 12 8 16 18 8 8 8 10 14 11 5 13 7 9 7 14 8 10 9 7 12 7 16 11 12 9 6 5 7 9 7 10 12 11 8 8 9 11 13 9 12 8 9 11 13 11 11 7 9 12 12 10 11 7 8 13 12 12 11 10 9 8 7 5 15 5 10 14 6 8 9 16 13 22 14 11 12 7 14 8 9 6 12 16 13 11 12 5 11 11 10 10 11 8 10 8 11 14 4 10 14 11 7 9 8 11 8 10 5 8 14 15 11 10 9 12 10 9 9 9 8 11 13 13 9 11 8 16 15 12 11 9 12 8 14 13 9 14 11 9 12 9 10 10 12 8 11 9 9 7 10 9 11 9 9 12 16 15 7 11 11 10 10 9 11 16 9 12 8 10 9 12 9 10 9 7 10 10 10 10 7 12 11 13 13 6 9 8 10 11 9 22 7 12 8 5 7 10 14 10 7 13 6 6 7 14 9 10 7 12 12 10 7 13 14 10 8 11 9 11 9 14 13 10 14 11 11 11 8 8 12 7 11 11 7 11 10 8 6 10 10 11 7 10 7 6 8 6 7 16 11 8 9 10 8 10 12 8 13 16 14 14 11 8 12 11 5 16 6 14 9 13 9 10 6 15 13 12 11 8 15 11 15 12 11 23 11 10 16 10 9 14 8 13 11 12 11 12 11 11 6 8 11 11 5 7 7 10 10 10 7 11 10 10 6 11 10 11 14 11 8 7 11 10 10 6 7 15 12 9 9 7 12 8 7 11 10 10 7 13 7 10 12 10 11 15 10 14 14 13 10 10 8 8 8 6 7 12 13 12 12 14 11 5 11 16 11 8 10 8 10 14 6 12 13 12 19 10 8 9 12 10 14 5 11 9 9 13 11 10 12 14 9 12 10 15 13 9 10 7 7 11 9 11 9 11 16 11 14 9 8 14 9 9 8 13 15 6 8 8 12 11 15 11 11 10 15 12 14 12 10 15 13 6 13 17 19 12 9 10 11 9 15 9 11 12 10 15 8 14 8 13 11 12 12 12 8 9 15 10 13 9 7 15 12 6 10 8 11 8 14 8 11 12 9 18 10 10 9 10 13 8 12 12 9 13 10 10 11 14 10 6 10 12 8 7 12 11 15 8 8 14 13 12 9 11 10 13 10 9 14 15 8 11 13 14 13 12 9 12 6 14 12 14 8 9 8 13 10 8 13 11 9 13 9 9 9 11 10 10 15 16 11 9 12 14 11 18 15 13 13 8 7 10 6 11 14 15 16 10 15 11 9 13 7 12 9 9 6 8 12 14 13 8 7 5 9 9 14 9 11 10 12 10 7 12 4 17 8 6 11 10 19 15 7 7 12 13 8 14 10 15 8 16 12 6 9 11 11 11 7 12 9 12 10 11 12 9 10 10 9 12 10 11 12 12 9 7 11 10 16 14 8 5 11 15 9 11 8 9 5 9 12 10 9 12 8 7 13 12 9 8 8 12 7 11 11 12 10 13 10 13 12 12 11 4 9 9 8 11 10 10 7 8 13 9 7 10 6 8 8 8 14 10 9 5 9 8 11 8 6 12 8 6 13 7 8 11 10 8 7 9 14 9 8 9 11 13 13 7 17 6 11 12 10 11 9 10 13 9 8 13 10 13 11 10 10 13 14 8 7 10 10 7 5 13 8 15 6 12 6 11 8 14 8 6 7 9 12 12 14 10 8 13 9 8 10 12 9 10 9 10 7 7 12 8 15 14 8 10 15 6 15 10 13 13 13 14 10 12 9 12 11 13 8 14 10 19 17 15 6 15 11 15 5 14 7 16 10 10 11 9 15 15 12 11 10 12 10 6 9 11 18 9 13 7 9 13 11 16 13 9 10 11 9 13 11 16 12 11 11 8 13 8 8 7 20 11 12 8 12 8 7 13 14 8 13 4 14 8 10 10 9 7 11 13 11 16 13 8 13 16 8 8 9 13 7 10 11 8 9 7 12 9 10 11 6 7 11 14 17 12 10 6 11 15 11 15 13 10 11 11 10 15 12 10 10 9 10 9 11 7 15 13 16 13 12 19 11 10 14 11 9 17 9 13 9 10 11 14 8 18 15 10 10 10 10 9 10 12 13 11 15 12 10 14 12 7 9 12 7 14 9 16 14 9 12 8 16 12 16 17 8 17 12 11 12 19 12 14 15 11 11 16 8 11 7 12 9 8 17 13 10 15 8 7 8 13 9 10 10 14 13 11 12 8 15 10 4 9 5 9 10 14 9 10 
BTB PER SET COUNT: 775 16 1953 21 1265 7 6 12 1479 13 9 14 11 138 11 11 9 2110 8 14 15 13 725 25 22 20 18 7 88 10 17 705 9 11 8 10 20 18 5 1031 8 12 13 61 546 13 12 9 1168 7 18 28 23 10 8 5 8 12 485 12 21 14 15 8 9 120 14 9 15 14 13 982 22 15 15 11 14 988 18 14 153 8 10 21 17 73 16 12 1180 11 10 5 237 5 12 14 490 8 12 4887 22 1140 19 13 691 7 15 10 14 2908 15 34 199 12 19 5 11 12 1481 998 265 11 10 10 13 15 4 16 18 913 11 11 10 12 9 16 7 11 15 23 16 11 10 12 14 57 11 15 9 205 17 16 1181 15 9 29 95 12 11 16 16 8 25 15 11 21 19 9 13 1830 13 12 14 10 13 19 10 7 335 629 12 12 9 19 28 21 9 17 13 992 10 14 13 22 10 13 8 496 14 32 12 14 10 9 10 11 13 56 9 15 12 15 17 6 20 1036 10 15 131 35 11 13 10 5 9 12 21 261 455 17 7 6 9 21 795 12 978 619 16 16 1230 16 20 133 14 215 10 14 12 20 19 16 19 14 15 15 82 10 13 7 13 14 12 13 16 8 8 14 2068 17 7 978 8 6 978 6 7 19 13 12 9 16 11 12 12 8 15 25 16 18 15 12 12 13 8 21 6 17 9 21 9 14 1007 16 16 18 72 10 18 1000 365 23 12 26 1486 1127 25 13 11 24 9 5895 15 14 12 918 12 13 7 16 12 21 11 9 7 935 17 10 7 16 11 1996 6 16 13 12 19 13 8 7 20 942 14 9 8 17 14 9 122 11 15 8 11 21 13 17 7 16 7 12 14 740 12 25 16 168 20 18 16 12 9 9 993 8 12 17 3052 18 13 19 33 5 13 145 16 10 10 9 1267 1489 7 20 13 16 31 19 9 18 17 15 29 8 13 12 9 16 13 37 14 16 15 12 11 21 25 9 193 7 8 13 9 13 10 13 535 14 396 15 10 17 10 15 8 14 2473 6 11 9 17 15 433 14 17 11 55 330 18 14 15 16 40 6 21 23 26 15 1446 10 15 12 33 10 13 14 15 26 8 20 10 21 13 17 12 13 979 15 20 12 16 17 13 21 3687 6 12 8 982 9 20 10 12 18 11 174 16 12 9 15 15 9 15 55 10 724 19 14 22 23 22 6 17 15 9 431 20 12 298 9 8 375 14 138 13 20 19 16 12 1003 17 463 8 14 39 24 15 326 9 13 8 1016 23 17 998 9 11 18 13 8 15 14 11 32 10 17 10 12 136 12 22 35 1459 10 12 23 2467 22 30 1273 13 8 8 15 8 18 21 19 26 10 25 12 13 17 7 16 22 11 6 11 17 21 14 11 8 5 14 12 18 705 11 11 14 1470 15 16 4 21 282 6 13 890 27 18 15 976 14 17 10 307 10 18 10 25 838 6 10 14 12 152 8 21 11 16 18 60 15 176 941 11 9 12 15 14 15 15 21 8 15 10 23 19 10 5 11 18 21558 17 10 9 1475 11 13 13 367 14 8 14 17 15 13 11 8 22 160 19 14 13 12 18 211 13 13 20 13 4 591 10 8 1379 12 15 605 19 1488 11 7 10 7 12 9 11 310 12 654 7 146 110 17 11 15 698 8 1031 19 7 2016 13 21 12 7 9 25 5653 8 11 13 17 985 7 22 7 13 17 591 15 10 15 564 9 10 18 10 16 13 1967 1211 17 14 9 9 18 15 7 5 102 2919 25 6 797 8 20 13 37 10 6 8 10 15 487 19 10 104 19 11 9 16 12 11 10 10 15 7 992 24 10 20 980 112 14 24 380 15 18 395 243 16 15 12 16 10 69 14 16 9 49 11 613 462 1490 8 389 16 756 6 17 1461 17 11 15 14 12 21 18 22 17 13 1150 11 6 12 14 29 10 19 7 28 18 15 28 16 8569 228 146 11 16 1554 30 14 13 13 8 432 11 958 9 388 20 14 10 12 11 11 18 23 9 14 4 18 8 10 11 10 8 14 16 15 1857 16 9 15 22 9 8 11 20 9 12 16 9 1977 8 17 10 10 15 10 9 13 23 32 17 199 6 13 21 16 549 66 346 15 15 15 631 18 12 14 10 11 13 11 9 18 15 46 20 18 30 14 10 1426 14 11 131 11 16 9 10 18 20 9 28 26 96 1170 121 11 11 197 13 19 13 514 17 494 16 22 8 26 13 45 19 14 1817 16 9 465 9 20 16 386 20 11 18 13 419 12 1886 15 314 21 15 12 555 10 13 10 17 10 1479 34 17 119 48 9 7 8 15 11 12 14 999 18 12 18 10 21 14 5 13 6 9 10 22 11 11 
To predecode: 0
Predecoding something: 0
Predecode request dropped: 0
sizeofblock_0 0
sizeofblock_1 40707
sizeofblock_2 31514
sizeofblock_3 41548
sizeofblock_4 26107
sizeofblock_5 0
sizeofblock_6 0
sizeofblock_7 0
sizeofblock_8 0
Variant_0 Correct: 1615900 Incorrect: 0 Accuracy: 1
Variant_1 Correct: 2091651 Incorrect: 0 Accuracy: 1
Variant_2 Correct: 3647284 Incorrect: 0 Accuracy: 1
Variant_3 Correct: 0 Incorrect: 0 Accuracy: -nan
