
*** ChampSim Multicore Out-of-Order Simulator ***

Warmup Instructions: 50000000
Simulation Instructions: 50000000
Number of CPUs: 1
LLC sets: 2048
LLC ways: 16
Off-chip DRAM Size: 4096 MB Channels: 1 Width: 64-bit Data Rate: 6400 MT/s
CPU 0 runs ./micro_traces/srv472.trace.gz
.gz
ITLB has LRU replacement policy
DTLB has LRU replacement policy
STLB has LRU replacement policy
FDIP Prefetcher at L1I
L1I has LRU replacement policy
L1D has LRU replacement policy
Initialize SRRIP state for L2C
Initialize DRRIP state for LLC
Heartbeat_Variant_0 : 1319 0.322021 per_variant_size: 0 1319 0 0 0 0 0 0 0 
Heartbeat_Variant_1 : 2524 0.616211 per_variant_size: 0 515 2009 0 0 0 0 0 0 
Heartbeat_Variant_2 : 0 0 per_variant_size: 0 0 0 0 0 0 0 0 0 
Heartbeat_Variant_3 : 0 0 per_variant_size: 0 0 0 0 0 0 0 0 0 
Heartbeat_Variant_0_evicts 0 : 5768 1 : 405 2 : 0 3 : 0 
Heartbeat_Variant_1_evicts 0 : 356 1 : 0 2 : 0 3 : 0 
Heartbeat_Variant_2_evicts 0 : 0 1 : 0 2 : 0 3 : 0 
Heartbeat_Variant_3_evicts 0 : 0 1 : 0 2 : 0 3 : 0 
Heartbeat CPU 0 instructions: 10000002 cycles: 2796564 heartbeat IPC: 3.57582 cumulative IPC: 3.57582 (Simulation time: 0 hr 1 min 41 sec) 
Heartbeat_Variant_0 : 1322 0.322754 per_variant_size: 0 1322 0 0 0 0 0 0 0 
Heartbeat_Variant_1 : 2527 0.616943 per_variant_size: 0 513 2014 0 0 0 0 0 0 
Heartbeat_Variant_2 : 0 0 per_variant_size: 0 0 0 0 0 0 0 0 0 
Heartbeat_Variant_3 : 0 0 per_variant_size: 0 0 0 0 0 0 0 0 0 
Heartbeat_Variant_0_evicts 0 : 5672 1 : 15 2 : 0 3 : 0 
Heartbeat_Variant_1_evicts 0 : 12 1 : 0 2 : 0 3 : 0 
Heartbeat_Variant_2_evicts 0 : 0 1 : 0 2 : 0 3 : 0 
Heartbeat_Variant_3_evicts 0 : 0 1 : 0 2 : 0 3 : 0 
Heartbeat CPU 0 instructions: 20000001 cycles: 5592152 heartbeat IPC: 3.57706 cumulative IPC: 3.57644 (Simulation time: 0 hr 3 min 18 sec) 
Heartbeat_Variant_0 : 1353 0.330322 per_variant_size: 0 1353 0 0 0 0 0 0 0 
Heartbeat_Variant_1 : 2571 0.627686 per_variant_size: 0 452 2119 0 0 0 0 0 0 
Heartbeat_Variant_2 : 0 0 per_variant_size: 0 0 0 0 0 0 0 0 0 
Heartbeat_Variant_3 : 0 0 per_variant_size: 0 0 0 0 0 0 0 0 0 
Heartbeat_Variant_0_evicts 0 : 5618 1 : 198 2 : 0 3 : 0 
Heartbeat_Variant_1_evicts 0 : 197 1 : 0 2 : 0 3 : 0 
Heartbeat_Variant_2_evicts 0 : 0 1 : 0 2 : 0 3 : 0 
Heartbeat_Variant_3_evicts 0 : 0 1 : 0 2 : 0 3 : 0 
Heartbeat CPU 0 instructions: 30000000 cycles: 8388353 heartbeat IPC: 3.57628 cumulative IPC: 3.57639 (Simulation time: 0 hr 4 min 54 sec) 
Heartbeat_Variant_0 : 1358 0.331543 per_variant_size: 0 1358 0 0 0 0 0 0 0 
Heartbeat_Variant_1 : 2572 0.62793 per_variant_size: 0 455 2117 0 0 0 0 0 0 
Heartbeat_Variant_2 : 0 0 per_variant_size: 0 0 0 0 0 0 0 0 0 
Heartbeat_Variant_3 : 0 0 per_variant_size: 0 0 0 0 0 0 0 0 0 
Heartbeat_Variant_0_evicts 0 : 5683 1 : 32 2 : 0 3 : 0 
Heartbeat_Variant_1_evicts 0 : 27 1 : 0 2 : 0 3 : 0 
Heartbeat_Variant_2_evicts 0 : 0 1 : 0 2 : 0 3 : 0 
Heartbeat_Variant_3_evicts 0 : 0 1 : 0 2 : 0 3 : 0 
Heartbeat CPU 0 instructions: 40000001 cycles: 11185426 heartbeat IPC: 3.57517 cumulative IPC: 3.57608 (Simulation time: 0 hr 6 min 34 sec) 
Heartbeat_Variant_0 : 1361 0.332275 per_variant_size: 0 1361 0 0 0 0 0 0 0 
Heartbeat_Variant_1 : 2602 0.635254 per_variant_size: 0 475 2127 0 0 0 0 0 0 
Heartbeat_Variant_2 : 0 0 per_variant_size: 0 0 0 0 0 0 0 0 0 
Heartbeat_Variant_3 : 0 0 per_variant_size: 0 0 0 0 0 0 0 0 0 
Heartbeat_Variant_0_evicts 0 : 5727 1 : 179 2 : 0 3 : 0 
Heartbeat_Variant_1_evicts 0 : 181 1 : 0 2 : 0 3 : 0 
Heartbeat_Variant_2_evicts 0 : 0 1 : 0 2 : 0 3 : 0 
Heartbeat_Variant_3_evicts 0 : 0 1 : 0 2 : 0 3 : 0 
Heartbeat CPU 0 instructions: 50000001 cycles: 13982195 heartbeat IPC: 3.57555 cumulative IPC: 3.57598 (Simulation time: 0 hr 8 min 8 sec) 

Warmup complete CPU 0 instructions: 50000001 cycles: 13982195 (Simulation time: 0 hr 8 min 8 sec) 

Cycle: 20000000 FTQ IN: 58188723 FTQ occupancy: 19.2373 DECODE IN: 58188671 DECODE occupancy: 50.0482 ROB IN: 58188620 ROB occupancy: 306.501 ROB OUT: 58188272
Heartbeat_Variant_0 : 1371 0.334717 per_variant_size: 0 1371 0 0 0 0 0 0 0 
Heartbeat_Variant_1 : 2606 0.63623 per_variant_size: 0 465 2141 0 0 0 0 0 0 
Heartbeat_Variant_2 : 0 0 per_variant_size: 0 0 0 0 0 0 0 0 0 
Heartbeat_Variant_3 : 0 0 per_variant_size: 0 0 0 0 0 0 0 0 0 
Heartbeat_Variant_0_evicts 0 : 5677 1 : 89 2 : 0 3 : 0 
Heartbeat_Variant_1_evicts 0 : 83 1 : 0 2 : 0 3 : 0 
Heartbeat_Variant_2_evicts 0 : 0 1 : 0 2 : 0 3 : 0 
Heartbeat_Variant_3_evicts 0 : 0 1 : 0 2 : 0 3 : 0 
Heartbeat CPU 0 instructions: 60000000 cycles: 21320223 heartbeat IPC: 1.36276 cumulative IPC: 1.36276 (Simulation time: 0 hr 9 min 47 sec) 
Heartbeat_Variant_0 : 1369 0.334229 per_variant_size: 0 1369 0 0 0 0 0 0 0 
Heartbeat_Variant_1 : 2624 0.640625 per_variant_size: 0 469 2155 0 0 0 0 0 0 
Heartbeat_Variant_2 : 0 0 per_variant_size: 0 0 0 0 0 0 0 0 0 
Heartbeat_Variant_3 : 0 0 per_variant_size: 0 0 0 0 0 0 0 0 0 
Heartbeat_Variant_0_evicts 0 : 5790 1 : 109 2 : 0 3 : 0 
Heartbeat_Variant_1_evicts 0 : 113 1 : 0 2 : 0 3 : 0 
Heartbeat_Variant_2_evicts 0 : 0 1 : 0 2 : 0 3 : 0 
Heartbeat_Variant_3_evicts 0 : 0 1 : 0 2 : 0 3 : 0 
Heartbeat CPU 0 instructions: 70000000 cycles: 28730525 heartbeat IPC: 1.34947 cumulative IPC: 1.35609 (Simulation time: 0 hr 11 min 27 sec) 
Cycle: 30000000 FTQ IN: 13543055 FTQ occupancy: 10.7193 DECODE IN: 13542981 DECODE occupancy: 27.2673 ROB IN: 13542972 ROB occupancy: 209.794 ROB OUT: 13542968
Heartbeat_Variant_0 : 1376 0.335938 per_variant_size: 0 1376 0 0 0 0 0 0 0 
Heartbeat_Variant_1 : 2625 0.640869 per_variant_size: 0 449 2176 0 0 0 0 0 0 
Heartbeat_Variant_2 : 0 0 per_variant_size: 0 0 0 0 0 0 0 0 0 
Heartbeat_Variant_3 : 0 0 per_variant_size: 0 0 0 0 0 0 0 0 0 
Heartbeat_Variant_0_evicts 0 : 5624 1 : 85 2 : 0 3 : 0 
Heartbeat_Variant_1_evicts 0 : 79 1 : 0 2 : 0 3 : 0 
Heartbeat_Variant_2_evicts 0 : 0 1 : 0 2 : 0 3 : 0 
Heartbeat_Variant_3_evicts 0 : 0 1 : 0 2 : 0 3 : 0 
Heartbeat CPU 0 instructions: 80000002 cycles: 36070653 heartbeat IPC: 1.36237 cumulative IPC: 1.35818 (Simulation time: 0 hr 13 min 7 sec) 
Cycle: 40000000 FTQ IN: 13647740 FTQ occupancy: 10.5809 DECODE IN: 13647818 DECODE occupancy: 27.2226 ROB IN: 13647875 ROB occupancy: 210.786 ROB OUT: 13648212
Heartbeat_Variant_0 : 1373 0.335205 per_variant_size: 0 1373 0 0 0 0 0 0 0 
Heartbeat_Variant_1 : 2632 0.642578 per_variant_size: 0 463 2169 0 0 0 0 0 0 
Heartbeat_Variant_2 : 0 0 per_variant_size: 0 0 0 0 0 0 0 0 0 
Heartbeat_Variant_3 : 0 0 per_variant_size: 0 0 0 0 0 0 0 0 0 
Heartbeat_Variant_0_evicts 0 : 5721 1 : 57 2 : 0 3 : 0 
Heartbeat_Variant_1_evicts 0 : 63 1 : 0 2 : 0 3 : 0 
Heartbeat_Variant_2_evicts 0 : 0 1 : 0 2 : 0 3 : 0 
Heartbeat_Variant_3_evicts 0 : 0 1 : 0 2 : 0 3 : 0 
Heartbeat CPU 0 instructions: 90000002 cycles: 43475128 heartbeat IPC: 1.35053 cumulative IPC: 1.35626 (Simulation time: 0 hr 14 min 47 sec) 
Cycle: 50000000 FTQ IN: 13235854 FTQ occupancy: 10.4044 DECODE IN: 13235846 DECODE occupancy: 26.2501 ROB IN: 13235789 ROB occupancy: 204.269 ROB OUT: 13235452
Heartbeat_Variant_0 : 1380 0.336914 per_variant_size: 0 1380 0 0 0 0 0 0 0 
Heartbeat_Variant_1 : 2673 0.652588 per_variant_size: 0 415 2258 0 0 0 0 0 0 
Heartbeat_Variant_2 : 0 0 per_variant_size: 0 0 0 0 0 0 0 0 0 
Heartbeat_Variant_3 : 0 0 per_variant_size: 0 0 0 0 0 0 0 0 0 
Heartbeat_Variant_0_evicts 0 : 6005 1 : 827 2 : 0 3 : 0 
Heartbeat_Variant_1_evicts 0 : 830 1 : 0 2 : 0 3 : 0 
Heartbeat_Variant_2_evicts 0 : 0 1 : 0 2 : 0 3 : 0 
Heartbeat_Variant_3_evicts 0 : 0 1 : 0 2 : 0 3 : 0 
Heartbeat CPU 0 instructions: 100000001 cycles: 51020034 heartbeat IPC: 1.3254 cumulative IPC: 1.34997 (Simulation time: 0 hr 16 min 27 sec) 
Finished CPU 0 instructions: 50000000 cycles: 37037839 cumulative IPC: 1.34997 (Simulation time: 0 hr 16 min 27 sec) 

ChampSim completed all CPUs

Region of Interest Statistics

CPU 0 cumulative IPC: 1.34997 instructions: 50000000 cycles: 37037839
 Fetch stage stalled: 60.2151  Sim cycles: 37037839 fetch stall cycle: 22302367
 Empty decode stage: 49.5401  Sim cycles: 37037839 fetch stall cycle: 18348594
ITLB TOTAL     ACCESS:    5856486  HIT:    5366637  MISS:     489849  HIT %:    91.6358  MISS %:    8.36421   MPKI: 9.79698
ITLB LOAD TRANSLATION INSTRUCTION	ACCESS:    5731848  HIT:    5241999  MISS:     489849  HIT %:    91.4539  MISS %:    8.54609  MPKI: 9.79698
ITLB TRANSLATION FROM L1D PREFETCHER INSTRUCTION	ACCESS:     124638  HIT:     124638  MISS:          0  HIT %:        100  MISS %:          0  MPKI: 0

ITLB AVERAGE MISS LATENCY: 9.06103 cycles
ITLB RQ	ACCESS:    7986307	FORWARD:          0	MERGED:    1706879	TO_CACHE:    6279428

DTLB TOTAL     ACCESS:    9012317  HIT:    8540099  MISS:     472218  HIT %:    94.7603  MISS %:     5.2397   MPKI: 9.44436
DTLB LOAD TRANSLATION DATA	ACCESS:    9012317  HIT:    8540099  MISS:     472218  HIT %:    94.7603  MISS %:     5.2397  MPKI: 9.44436

DTLB AVERAGE MISS LATENCY: 9.33896 cycles
DTLB RQ	ACCESS:   13368997	FORWARD:          0	MERGED:    4320256	TO_CACHE:    9048741

STLB TOTAL     ACCESS:    1215154  HIT:    1213081  MISS:       2073  HIT %:    99.8294  MISS %:   0.170596   MPKI: 0.04146
STLB LOAD TRANSLATION INSTRUCTION	ACCESS:     489849  HIT:     489620  MISS:        229  HIT %:    99.9533  MISS %:  0.0467491  MPKI: 0.00458
STLB LOAD TRANSLATION DATA	ACCESS:     472213  HIT:     470387  MISS:       1826  HIT %:    99.6133  MISS %:    0.38669  MPKI: 0.03652
STLB TRANSLATION FROM L1D PREFETCHER DATA	ACCESS:     253092  HIT:     253074  MISS:         18  HIT %:    99.9929  MISS %: 0.00711204  MPKI: 0.00036

STLB AVERAGE MISS LATENCY: 76.2774 cycles
STLB RQ	ACCESS:    1344306	FORWARD:          0	MERGED:     129125	TO_CACHE:    1215181

STLB Hit, L1D data hit: 0
STLB Hit, L2C data hit: 0
STLB Hit, LLC data hit: 0
STLB Hit, LLC data miss: 0
STLB STLB hints to L2: 0
L1D TOTAL     ACCESS:   13126268  HIT:   12001405  MISS:    1124863  HIT %:    91.4304  MISS %:    8.56956   MPKI: 22.4973
L1D LOAD DATA	ACCESS:    6596359  HIT:    5855536  MISS:     740823  HIT %:    88.7692  MISS %:    11.2308  MPKI: 14.8165
L1D RFO DATA	ACCESS:    6195542  HIT:    5910051  MISS:     285491  HIT %:     95.392  MISS %:    4.60801  MPKI: 5.70982
L1D PREFETCH DATA	ACCESS:     334367  HIT:     235818  MISS:      98549  HIT %:    70.5267  MISS %:    29.4733  MPKI: 1.97098

L1D PREFETCH  REQUESTED:     764783  ISSUED:     764783  USEFUL:      38020  USELESS:      69839
L1D USEFUL LOAD PREFETCHES:      38020 PREFETCH ISSUED TO LOWER LEVEL:     107911  ACCURACY: 35.2327
 TIMELY PREFETCHES:      38020 LATE PREFETCHES: 9300 DROPPED PREFETCHES: 5
L1D AVERAGE MISS LATENCY: 275007 cycles
L1D RQ	ACCESS:   10719357	FORWARD:          0	MERGED:    3926732	TO_CACHE:    6631769
L1D WQ	ACCESS:    6928377	FORWARD:     161161	MERGED:     191149	TO_CACHE:    6737228
L1D PQ	ACCESS:     382544	FORWARD:          0	MERGED:          0	TO_CACHE:     382239

L1D UNIQUE REGIONS ACCESSED: 0
L1D REGIONS CONFLICTS: 0
L1D Cross Page Prefetch Requests: 6050
L1D Same Page Prefetch Requests: 776200
L1D ROI Sum of L1D PQ occupancy: 4864392
L1D PREFETCHES PUSHED FROM L2C: 0
L1I TOTAL     ACCESS:    7195195  HIT:    4450369  MISS:    2744826  HIT %:     61.852  MISS %:     38.148   MPKI: 54.8965
L1I LOAD INSTRUCTION	ACCESS:    6533094  HIT:    3788268  MISS:    2744826  HIT %:    57.9858  MISS %:    42.0142  MPKI: 54.8965
L1I PREFETCH INSTRUCTION	ACCESS:     662101  HIT:     662101  MISS:          0  HIT %:        100  MISS %:          0  MPKI: 0

L1I PREFETCH  REQUESTED:    1582313  ISSUED:    1582313  USEFUL:          0  USELESS:          0
L1I USEFUL LOAD PREFETCHES:          0 PREFETCH ISSUED TO LOWER LEVEL:          0  ACCURACY: -nan
 TIMELY PREFETCHES:          0 LATE PREFETCHES: 0 DROPPED PREFETCHES: 0
L1I AVERAGE MISS LATENCY: 17.3365 cycles
L1I RQ	ACCESS:    9467267	FORWARD:          0	MERGED:    2628110	TO_CACHE:    6839157
L1I PQ	ACCESS:    1582313	FORWARD:          0	MERGED:     435163	TO_CACHE:    1147150

L1BTB TOTAL     ACCESS:    5673762  HIT:    2065694  MISS:    3608068  HIT %:    36.4078  MISS %:    63.5922   MPKI: 72.1614
L1BTB BRANCH_DIRECT_JUMP	ACCESS:     548532 HIT:     145508 MISS:     403024 AVERAGE STALL: 44.2395 AVERAGE FETCH STALL: 18.4725 AVERAGE FETCH QUEUE STALL: 10.3693 AVERAGE DECODE STALL: 14.4793 AVERAGE EXECUTE STALL: 2.02289e+15
L1BTB BRANCH_INDIRECT	ACCESS:     183452 HIT:      66517 MISS:     116935 AVERAGE STALL: 93.7301 AVERAGE FETCH STALL: 10.9325 AVERAGE FETCH QUEUE STALL: 12.3909 AVERAGE DECODE STALL: 10.9083 AVERAGE EXECUTE STALL: 58.5379
L1BTB BRANCH_CONDITIONAL	ACCESS:    2727573 HIT:    1440898 MISS:    1286675 AVERAGE STALL: 47.4695 AVERAGE FETCH STALL: 24.5547 AVERAGE FETCH QUEUE STALL: 12.8332 AVERAGE DECODE STALL: 9.3825 AVERAGE EXECUTE STALL: 3.09873e+15
L1BTB BRANCH_DIRECT_CALL	ACCESS:     936938 HIT:     103941 MISS:     832997 AVERAGE STALL: 58.1181 AVERAGE FETCH STALL: 24.3908 AVERAGE FETCH QUEUE STALL: 20.0432 AVERAGE DECODE STALL: 13.083 AVERAGE EXECUTE STALL: 4.98561e+15
L1BTB BRANCH_INDIRECT_CALL	ACCESS:     170170 HIT:      20650 MISS:     149520 AVERAGE STALL: 114.01 AVERAGE FETCH STALL: 12.6985 AVERAGE FETCH QUEUE STALL: 6.94071 AVERAGE DECODE STALL: 7.90769 AVERAGE EXECUTE STALL: 85.9788
L1BTB BRANCH_RETURN	ACCESS:    1107097 HIT:     288180 MISS:     818917 AVERAGE STALL: 41.9479 AVERAGE FETCH STALL: 16.1692 AVERAGE FETCH QUEUE STALL: 4.54478 AVERAGE DECODE STALL: 5.56074 AVERAGE EXECUTE STALL: 4.22142e+14
L1BTB BRANCH_OTHER ACCESS:          0 HIT:          0 MISS:          0 AVERAGE STALL: -nan AVERAGE FETCH STALL: -nan AVERAGE FETCH QUEUE STALL: -nan AVERAGE DECODE STALL: -nan AVERAGE EXECUTE STALL: -nan
L1BTB TOTAL ROB OCCUPANCY AT BTB MISS: 2.48217

L2BTB TOTAL     ACCESS:    3582491  HIT:    3512252  MISS:      70239  HIT %:    98.0394  MISS %:    1.96062   MPKI: 1.40478
L2BTB BRANCH_DIRECT_JUMP	ACCESS:     398760 HIT:     393868 MISS:       4892 AVERAGE STALL: 44.2395 AVERAGE FETCH STALL: 18.4725 AVERAGE FETCH QUEUE STALL: 10.3693 AVERAGE DECODE STALL: 14.4793 AVERAGE EXECUTE STALL: 2.02289e+15
L2BTB BRANCH_INDIRECT	ACCESS:     106663 HIT:     103915 MISS:       2748 AVERAGE STALL: 93.7301 AVERAGE FETCH STALL: 10.9325 AVERAGE FETCH QUEUE STALL: 12.3909 AVERAGE DECODE STALL: 10.9083 AVERAGE EXECUTE STALL: 58.5379
L2BTB BRANCH_CONDITIONAL	ACCESS:    1286674 HIT:    1280593 MISS:       6081 AVERAGE STALL: 47.4695 AVERAGE FETCH STALL: 24.5547 AVERAGE FETCH QUEUE STALL: 12.8332 AVERAGE DECODE STALL: 9.3825 AVERAGE EXECUTE STALL: 3.09873e+15
L2BTB BRANCH_DIRECT_CALL	ACCESS:     832997 HIT:     829236 MISS:       3761 AVERAGE STALL: 58.1181 AVERAGE FETCH STALL: 24.3908 AVERAGE FETCH QUEUE STALL: 20.0432 AVERAGE DECODE STALL: 13.083 AVERAGE EXECUTE STALL: 4.98561e+15
L2BTB BRANCH_INDIRECT_CALL	ACCESS:     139879 HIT:     129461 MISS:      10418 AVERAGE STALL: 114.01 AVERAGE FETCH STALL: 12.6985 AVERAGE FETCH QUEUE STALL: 6.94071 AVERAGE DECODE STALL: 7.90769 AVERAGE EXECUTE STALL: 85.9788
L2BTB BRANCH_RETURN	ACCESS:     817518 HIT:     775179 MISS:      42339 AVERAGE STALL: 41.9479 AVERAGE FETCH STALL: 16.1692 AVERAGE FETCH QUEUE STALL: 4.54478 AVERAGE DECODE STALL: 5.56074 AVERAGE EXECUTE STALL: 4.22142e+14
L2BTB BRANCH_OTHER ACCESS:          0 HIT:          0 MISS:          0 AVERAGE STALL: -nan AVERAGE FETCH STALL: -nan AVERAGE FETCH QUEUE STALL: -nan AVERAGE DECODE STALL: -nan AVERAGE EXECUTE STALL: -nan
L2BTB TOTAL ROB OCCUPANCY AT BTB MISS: 127.505

L2C TOTAL     ACCESS:    4480838  HIT:    3976170  MISS:     504668  HIT %:    88.7372  MISS %:    11.2628   MPKI: 10.0934
L2C LOAD INSTRUCTION	ACCESS:    2744827  HIT:    2473241  MISS:     271586  HIT %:    90.1055  MISS %:    9.89447  MPKI: 5.43172
L2C LOAD TRANSLATION INSTRUCTION	ACCESS:        272  HIT:         78  MISS:        194  HIT %:    28.6765  MISS %:    71.3235  MPKI: 0.00388
L2C LOAD DATA	ACCESS:     731496  HIT:     647504  MISS:      83992  HIT %:    88.5178  MISS %:    11.4822  MPKI: 1.67984
L2C RFO DATA	ACCESS:     285403  HIT:     232782  MISS:      52621  HIT %:    81.5626  MISS %:    18.4374  MPKI: 1.05242
L2C PREFETCH DATA	ACCESS:     196326  HIT:     116759  MISS:      79567  HIT %:     59.472  MISS %:     40.528  MPKI: 1.59134
L2C WRITEBACK DATA	ACCESS:     520581  HIT:     505241  MISS:      15340  HIT %:    97.0533  MISS %:    2.94671  MPKI: 0.3068
L2C LOAD TRANSLATION DATA	ACCESS:       1907  HIT:        542  MISS:       1365  HIT %:    28.4216  MISS %:    71.5784  MPKI: 0.0273
L2C TRANSLATION FROM L1D PREFETCHER DATA	ACCESS:         26  HIT:         23  MISS:          3  HIT %:    88.4615  MISS %:    11.5385  MPKI: 6e-05

L2C PREFETCH  REQUESTED:      97091  ISSUED:      97091  USEFUL:       9511  USELESS:      70479
L2C USEFUL LOAD PREFETCHES:       9511 PREFETCH ISSUED TO LOWER LEVEL:      80121  ACCURACY: 11.8708
 TIMELY PREFETCHES:       9511 LATE PREFETCHES: 554 DROPPED PREFETCHES: 0
L2C AVERAGE MISS LATENCY: 38.4221 cycles
L2C RQ	ACCESS:    3763985	FORWARD:          0	MERGED:          0	TO_CACHE:    3763931
L2C WQ	ACCESS:     520582	FORWARD:         54	MERGED:          0	TO_CACHE:     520582
L2C PQ	ACCESS:     205002	FORWARD:          0	MERGED:       3371	TO_CACHE:     201631

L2C Dense regions hint from L2: 0
PSCL5 TOTAL     ACCESS:       4156  HIT:       2078  MISS:       2078  HIT %:         50  MISS %:         50   MPKI: 0.04156
PSCL5 LOAD TRANSLATION INSTRUCTION	ACCESS:       4104  HIT:       2052  MISS:       2052  HIT %:         50  MISS %:         50  MPKI: 0.04104
PSCL5 TRANSLATION FROM L1D PREFETCHER INSTRUCTION	ACCESS:         52  HIT:         26  MISS:         26  HIT %:         50  MISS %:         50  MPKI: 0.00052


PSCL4 TOTAL     ACCESS:       3977  HIT:       1982  MISS:       1995  HIT %:    49.8366  MISS %:    50.1634   MPKI: 0.0399
PSCL4 LOAD TRANSLATION INSTRUCTION	ACCESS:       2149  HIT:       1959  MISS:        190  HIT %:    91.1587  MISS %:    8.84132  MPKI: 0.0038
PSCL4 TRANSLATION FROM L1D PREFETCHER INSTRUCTION	ACCESS:         23  HIT:         23  MISS:          0  HIT %:        100  MISS %:          0  MPKI: 0
PSCL4 LOAD TRANSLATION DATA	ACCESS:       1782  HIT:          0  MISS:       1782  HIT %:          0  MISS %:        100  MPKI: 0.03564
PSCL4 TRANSLATION FROM L1D PREFETCHER DATA	ACCESS:         23  HIT:          0  MISS:         23  HIT %:          0  MISS %:        100  MPKI: 0.00046


PSCL3 TOTAL     ACCESS:       4061  HIT:       2024  MISS:       2037  HIT %:    49.8399  MISS %:    50.1601   MPKI: 0.04074
PSCL3 LOAD TRANSLATION INSTRUCTION	ACCESS:       2191  HIT:       2001  MISS:        190  HIT %:    91.3282  MISS %:    8.67184  MPKI: 0.0038
PSCL3 TRANSLATION FROM L1D PREFETCHER INSTRUCTION	ACCESS:         23  HIT:         23  MISS:          0  HIT %:        100  MISS %:          0  MPKI: 0
PSCL3 LOAD TRANSLATION DATA	ACCESS:       1824  HIT:          0  MISS:       1824  HIT %:          0  MISS %:        100  MPKI: 0.03648
PSCL3 TRANSLATION FROM L1D PREFETCHER DATA	ACCESS:         23  HIT:          0  MISS:         23  HIT %:          0  MISS %:        100  MPKI: 0.00046


PSCL2 TOTAL     ACCESS:       4054  HIT:       1976  MISS:       2078  HIT %:     48.742  MISS %:     51.258   MPKI: 0.04156
PSCL2 LOAD TRANSLATION INSTRUCTION	ACCESS:       2195  HIT:       1950  MISS:        245  HIT %:    88.8383  MISS %:    11.1617  MPKI: 0.0049
PSCL2 TRANSLATION FROM L1D PREFETCHER INSTRUCTION	ACCESS:         26  HIT:         26  MISS:          0  HIT %:        100  MISS %:          0  MPKI: 0
PSCL2 LOAD TRANSLATION DATA	ACCESS:       1807  HIT:          0  MISS:       1807  HIT %:          0  MISS %:        100  MPKI: 0.03614
PSCL2 TRANSLATION FROM L1D PREFETCHER DATA	ACCESS:         26  HIT:          0  MISS:         26  HIT %:          0  MISS %:        100  MPKI: 0.00052


LLC TOTAL     ACCESS:     566847  HIT:     537516  MISS:      29331  HIT %:    94.8256  MISS %:    5.17441   MPKI: 0.58662
LLC LOAD INSTRUCTION	ACCESS:     271586  HIT:     270425  MISS:       1161  HIT %:    99.5725  MISS %:   0.427489  MPKI: 0.02322
LLC LOAD TRANSLATION INSTRUCTION	ACCESS:        194  HIT:        154  MISS:         40  HIT %:    79.3814  MISS %:    20.6186  MPKI: 0.0008
LLC LOAD DATA	ACCESS:      83493  HIT:      79820  MISS:       3673  HIT %:    95.6008  MISS %:    4.39917  MPKI: 0.07346
LLC RFO DATA	ACCESS:      52557  HIT:      38449  MISS:      14108  HIT %:    73.1568  MISS %:    26.8432  MPKI: 0.28216
LLC PREFETCH DATA	ACCESS:      80121  HIT:      70225  MISS:       9896  HIT %:    87.6487  MISS %:    12.3513  MPKI: 0.19792
LLC WRITEBACK DATA	ACCESS:      77528  HIT:      77162  MISS:        366  HIT %:    99.5279  MISS %:   0.472088  MPKI: 0.00732
LLC LOAD TRANSLATION DATA	ACCESS:       1365  HIT:       1278  MISS:         87  HIT %:    93.6264  MISS %:    6.37363  MPKI: 0.00174
LLC TRANSLATION FROM L1D PREFETCHER DATA	ACCESS:          3  HIT:          3  MISS:          0  HIT %:        100  MISS %:          0  MPKI: 0

LLC AVERAGE MISS LATENCY: 159.338 cycles
LLC RQ	ACCESS:     409207	FORWARD:          0	MERGED:          0	TO_CACHE:     409198
LLC WQ	ACCESS:      77528	FORWARD:          9	MERGED:          0	TO_CACHE:      77528
LLC PQ	ACCESS:      80121	FORWARD:          0	MERGED:          0	TO_CACHE:      80121

LLC Dense regions hint to LLC: 0

RAW hits: 1907795
Loads Generated: 12627151
Loads sent to L1D: 10719357
Stores Generated: 6928372
Stores sent to L1D: 6928377
Major fault: 0 Minor fault: 2616
Allocated PAGES: 2616

stream: 
stream:times selected: 1225787
stream:pref_filled: 124458
stream:pref_useful: 25632
stream:pref_late: 7758
stream:misses: 9301
stream:misses_by_poll: 0

CS: 
CS:times selected: 189089
CS:pref_filled: 66434
CS:pref_useful: 42110
CS:pref_late: 7235
CS:misses: 18601
CS:misses_by_poll: 18

CPLX: 
CPLX:times selected: 1035485
CPLX:pref_filled: 21770
CPLX:pref_useful: 6022
CPLX:pref_late: 3061
CPLX:misses: 104664
CPLX:misses_by_poll: 1

NL_L1: 
NL:times selected: 13057
NL:pref_filled: 1469
NL:pref_useful: 208
NL:pref_late: 250
NL:misses: 1538
NL:misses_by_poll: 0

total selections: 2463418
total_filled: 98549
total_useful: 38020
total_late: 20027
total_polluted: 19
total_misses_after_warmup: 776233
conflicts: 5517082

test: 122121

DRAM Statistics
 CHANNEL 0
 RQ ROW_BUFFER_HIT:      10406  ROW_BUFFER_MISS:      18553
 DBUS_CONGESTED:         19
 WQ ROW_BUFFER_HIT:       1581  ROW_BUFFER_MISS:      13100  FULL:          0

 AVG_CONGESTED_CYCLE: 5

CPU 0 Branch Prediction Accuracy: 99.813% MPKI: 0.34194 Average ROB Occupancy at Mispredict: 167.221
Branch types
NOT_BRANCH: 40857102 81.7142%
BRANCH_DIRECT_JUMP: 548532 1.09706%
BRANCH_INDIRECT: 183452 0.366904%
BRANCH_CONDITIONAL: 6196668 12.3933%
BRANCH_DIRECT_CALL: 936938 1.87388%
BRANCH_INDIRECT_CALL: 170170 0.34034%
BRANCH_RETURN: 1107097 2.21419%
BRANCH_OTHER: 0 0%

DRAM PAGES: 1048576
Allocated PAGES: 2616
Average_ROB_Occupancy: 209.461
Average_Decode_Occupancy: 26.8727
Average_FTQ_Occupancy: 10.5447
Indirect max targets: 14 Average targets: 1.17197
Branch_type:  BRANCH_DIRECT_JUMP:  Count Percentage: 3.3512 6.65895 3.81093 7.89582 2.23602 6.34163 1.35673 68.3487 
Branch_type:  BRANCH_INDIRECT:  Count Percentage: 11.7583 3.47054 16.0244 9.68511 3.33413 2.79722 0.932226 51.9981 
Branch_type:  BRANCH_CONDITIONAL:  Count Percentage: 21.3842 3.04929 2.77929 4.65976 1.64442 4.89177 3.78248 57.8088 
Branch_type:  BRANCH_DIRECT_CALL:  Count Percentage: 0.855329 1.27309 0.769727 4.37378 2.29129 2.63578 0.72252 87.0785 
Branch_type:  BRANCH_INDIRECT_CALL:  Count Percentage: 9.55695 0 2.99342 0.000881801 0.695153 1.71334 1.00437 84.0359 
Branch_type:  BRANCH_RETURN:  Count Percentage: 4.68833 1.39213 1.05061 4.37338 3.75834 5.36364 3.69071 75.6829 
Branch_type:  BRANCH_DIRECT_JUMP:  Total Count: 36710 72944 41746 86493 24494 69468 14862 748711 
Branch_type:  BRANCH_INDIRECT:  Total Count: 43099 12721 58736 35500 12221 10253 3417 190595 
Branch_type:  BRANCH_CONDITIONAL:  Total Count: 2648593 377677 344235 577145 203673 605882 468488 7160043 
Branch_type:  BRANCH_DIRECT_CALL:  Total Count: 16017 23840 14414 81904 42907 49358 13530 1630643 
Branch_type:  BRANCH_INDIRECT_CALL:  Total Count: 32514 0 10184 3 2365 5829 3417 285901 
Branch_type:  BRANCH_RETURN:  Total Count: 103784 30817 23257 96812 83197 118733 81700 1675365 
Number of unique branch instructions: 10499
Upper 32 bits: 
aaaa
ffff
ffff0000
Unique upper 32 bits: 3
Unique upper 36 bits: 3
Unique upper 40 bits: 5
Unique upper 44 bits: 32
Unique upper 48 bits: 158
Variant_0 : 1380 0.336914
Variant_1 : 2673 0.652588
Variant_2 : 0 0
Variant_3 : 0 0
Offset_3 4341
Offset_4 257
Offset_5 476
Offset_6 528
Offset_7 626
Offset_8 560
Offset_9 505
Offset_10 412
Offset_11 331
Offset_12 296
Offset_13 228
Offset_14 235
Offset_15 194
Offset_16 226
Offset_17 158
Offset_18 144
Offset_19 255
Offset_20 141
Offset_21 235
Offset_22 403
Offset_23 242
Offset_24 346
Offset_25 114
Offset_47 92
Offset_64 1
decode_dispatch_called: 23481535 63.3988
Dispatch_width: 0 12324296 52.4851 33.2749
Dispatch_width: 1 811797 3.45717 2.1918
Dispatch_width: 2 764945 3.25764 2.06531
Dispatch_width: 3 465870 1.98398 1.25782
Dispatch_width: 4 4103175 17.474 11.0783
Dispatch_width: 5 220709 0.939926 0.595901
Dispatch_width: 6 4790743 20.4022 12.9347
Empty_decode_cycles: 13556304 36.6012
ROB_full_cycles: 6418093 17.3285
Starvation_cycles_per_kilo_instr: 258.29
Starvation_cycles_per_kilo_instr_3: 215.051
Starvation_cycles_per_kilo_instr_0: 194.625
Branch_type_1  (3,1)  (4,9)  (5,39)  (6,71)  (7,125)  (8,146)  (9,133)  (10,108)  (11,74)  (12,47)  (13,11)  (14,2)  (15,3)  (16,4)  (18,1)  (19,5)  (20,2)  (21,1)  (22,3)  (23,2)  (24,10)  (25,12) 
Branch_type_2  (3,1)  (4,1)  (5,1)  (8,4)  (9,4)  (10,1)  (12,1)  (13,1)  (14,1)  (16,3)  (17,2)  (20,2)  (21,2)  (23,5)  (24,1)  (47,42) 
Branch_type_3  (3,4339)  (4,247)  (5,432)  (6,441)  (7,470)  (8,344)  (9,276)  (10,166)  (11,128)  (12,54)  (13,10)  (64,1) 
Branch_type_4  (6,3)  (7,8)  (8,25)  (9,58)  (10,65)  (11,67)  (12,107)  (13,96)  (14,105)  (15,92)  (16,99)  (17,72)  (18,61)  (19,124)  (20,73)  (21,124)  (22,212)  (23,136)  (24,201)  (25,98) 
Branch_type_5  (8,3)  (9,1)  (10,4)  (11,5)  (12,3)  (13,14)  (14,16)  (15,11)  (16,22)  (17,11)  (18,23)  (19,14)  (20,11)  (21,13)  (22,43)  (23,26)  (24,38) 
Branch_type_6  (5,4)  (6,13)  (7,23)  (8,38)  (9,33)  (10,68)  (11,57)  (12,84)  (13,96)  (14,111)  (15,88)  (16,98)  (17,73)  (18,59)  (19,112)  (20,53)  (21,95)  (22,145)  (23,73)  (24,96)  (25,4)  (47,50) 
Unique trigger count: 
Variant_0_evicts_0 : 0
Variant_0_evicts_1 : 0
Variant_0_evicts_2 : 0
Variant_0_evicts_3 : 0
Variant_1_evicts_0 : 0
Variant_1_evicts_1 : 0
Variant_1_evicts_2 : 0
Variant_1_evicts_3 : 0
Variant_2_evicts_0 : 0
Variant_2_evicts_1 : 0
Variant_2_evicts_2 : 0
Variant_2_evicts_3 : 0
Variant_3_evicts_0 : 0
Variant_3_evicts_1 : 0
Variant_3_evicts_2 : 0
Variant_3_evicts_3 : 0
BTB PER SET UNIQUE ADDR: 14 12 12 14 11 13 7 10 6 9 11 15 15 10 11 5 13 9 11 16 11 10 14 12 9 12 11 10 15 10 13 12 13 7 7 9 9 11 7 8 10 13 15 18 10 10 12 9 9 10 18 11 9 11 10 8 10 11 10 14 11 16 14 13 12 14 10 12 13 11 11 11 15 11 11 8 8 13 9 14 10 7 8 13 10 11 15 9 9 16 10 9 11 11 6 13 10 7 11 11 13 14 11 8 8 12 8 11 6 10 8 14 15 14 10 8 8 12 9 10 10 8 8 10 12 8 11 13 19 12 8 8 13 12 9 13 9 16 12 14 8 10 14 10 11 15 17 11 6 14 13 7 13 7 10 11 13 12 13 16 10 10 13 12 7 13 10 10 11 8 13 11 9 13 9 9 8 6 9 11 10 9 11 10 13 14 4 12 13 11 14 10 10 8 16 9 10 9 9 15 9 17 8 15 8 9 13 11 11 11 12 16 12 11 9 13 11 14 12 15 8 16 9 13 8 15 13 12 8 12 12 5 12 16 9 13 9 12 10 9 12 7 12 21 9 12 14 7 11 11 18 15 10 10 10 18 11 7 9 7 12 8 7 10 10 10 8 8 11 10 12 14 8 7 10 12 15 10 10 8 9 10 13 9 11 12 9 12 12 13 10 8 12 13 12 11 8 10 8 13 12 9 10 17 12 14 9 12 13 7 10 13 6 12 14 8 12 10 9 16 11 10 7 11 11 17 9 11 7 7 12 13 10 13 13 11 9 13 9 15 10 12 6 12 13 9 10 16 11 19 11 11 9 11 11 8 9 14 8 10 12 18 11 10 9 10 9 13 10 13 11 8 12 11 11 13 14 14 13 13 13 9 9 12 10 16 14 13 13 14 8 8 8 11 8 8 12 10 14 9 9 11 13 9 16 9 12 15 11 14 10 9 12 11 12 10 10 12 16 15 13 14 12 12 14 11 16 11 10 10 16 12 9 10 9 17 10 10 10 11 12 10 9 14 20 7 9 11 17 13 12 16 15 11 13 8 15 11 8 15 6 12 10 14 15 12 8 13 12 11 10 12 13 10 15 13 14 16 7 15 13 12 11 12 10 17 18 12 12 12 10 13 10 9 9 13 9 11 8 11 14 15 9 16 12 7 8 12 10 10 9 11 12 9 11 14 14 15 9 9 11 13 10 10 12 14 14 8 10 16 13 15 13 10 13 13 11 13 10 16 11 11 12 12 14 14 11 10 14 14 12 11 14 15 9 8 12 9 12 12 11 15 6 12 11 10 11 14 10 12 13 14 15 15 11 12 12 14 12 8 10 13 5 7 11 8 14 8 13 7 8 11 13 10 12 9 13 13 17 11 11 9 10 7 9 15 15 10 10 12 13 12 11 8 5 15 11 11 14 11 14 13 8 10 15 19 10 14 10 13 14 14 18 13 13 11 16 15 9 16 10 9 13 11 11 12 11 14 12 12 7 14 8 12 12 12 14 10 10 11 11 8 15 14 11 13 12 10 11 8 11 13 9 11 15 12 8 11 9 13 7 13 13 14 13 10 10 14 14 16 12 12 10 9 13 8 11 16 12 15 8 16 6 12 11 12 12 11 8 8 10 14 8 12 10 11 17 13 3 10 11 10 12 12 8 7 10 9 13 12 13 7 9 12 9 14 14 13 11 10 10 13 11 13 16 14 12 14 11 6 14 10 8 15 10 14 17 10 12 10 11 8 9 13 13 15 8 18 11 10 11 10 9 9 12 8 12 13 10 9 9 15 16 12 10 8 13 10 10 8 8 10 12 10 12 14 9 13 12 11 18 15 12 17 12 11 15 10 12 7 14 19 11 16 12 15 17 16 7 17 12 17 12 12 13 14 9 14 8 16 13 14 12 10 8 11 8 15 11 11 9 13 8 12 13 11 10 17 12 11 8 11 12 13 10 16 13 9 18 12 10 8 11 9 14 6 10 9 12 9 12 13 12 9 14 9 8 9 9 8 12 9 11 12 11 15 15 9 11 8 14 9 13 12 11 18 12 10 9 9 13 11 13 12 5 12 13 16 11 14 9 9 10 14 13 13 17 10 12 12 9 10 11 15 13 10 7 9 8 8 12 17 13 10 11 10 11 11 15 13 10 11 9 11 10 10 16 14 8 12 11 11 8 15 8 9 10 10 15 12 14 12 11 12 14 11 11 13 10 11 12 13 13 8 14 14 18 13 12 16 12 17 12 12 11 16 18 11 8 13 13 9 13 12 9 8 9 13 10 10 15 12 12 14 10 11 11 15 10 13 14 12 11 10 10 10 6 9 6 10 8 16 15 7 
BTB PER SET COUNT: 326 14 2036 17 17 16 7 20 1460 9 13 522 22 16 12 5 1432 17 14 26 18 220 767 17 17 16 15 11 22 14 19 819 17 7 8 11 10 13 7 10 12 24 23 176 1409 11 16 11 12 38 23 105 13 14 15 396 13 15 15 19 13 22 66 14 19 15 11 143 20 25 19 12 30 19 17 11 8 16 11 23 60 7 54 22 11 1109 18 12 14 25 14 776 498 749 7 16 59 956 11 18 15 18 11 10 3143 16 13 13 8 15 10 23 119 20 15 8 11 18 465 245 14 9 9 11 13 299 15 21 31 1026 9 13 19 25 21 14 673 28 17 15 12 13 23 12 15 64 455 13 8 29 22 282 86 9 12 14 970 17 15 2271 11 235 22 13 117 17 14 13 15 375 17 17 11 18 12 11 10 7 953 1031 1023 12 103 10 31 603 5 13 17 17 19 13 17 10 20 10 17 247 12 42 10 28 53 15 8 10 18 14 14 3321 14 24 16 13 9 446 13 20 1440 22 11 25 124 21 9 29 18 14 772 15 20 8 13 28 10 44 10 44 15 9 17 9 19 40 12 514 1538 7 12 17 26 23 12 13 13 26 14 11 9 11 19 11 9 522 10 13 9 13 1514 14 12 17 1007 10 55 18 19 11 12 506 11 21 23 516 12 18 9 786 15 15 13 10 13 24 16 13 1328 15 11 108 13 9 12 26 17 19 14 500 32 11 14 17 7 18 2392 8 14 12 9 56 16 4388 9 13 13 2098 10 16 7 10 13 15 11 24 17 16 12 62 9 25 12 93 6 18 455 14 13 20 16 220 99 152 11 16 14 8 9 21 451 13 14 26 15 13 10 3439 9 22 18 17 20 8 23 11 30 16 20 15 14 150 969 9 293 14 11 18 2289 15 17 19 9 11 12 42 9 319 17 12 29 9 11 19 160 15 26 12 20 538 17 20 13 9 13 15 15 24 14 64 301 20 17 18 17 19 18 12 1388 15 13 14 26 14 10 19 14 21 10 25 10 16 19 17 12 26 88 10 13 16 21 18 1034 22 19 15 21 123 18 12 10 21 24 256 11 34 27 17 14991 18 14 12 13 16 16 14 22 25 25 21 10 23 17 64 11 16 54 24 352 12 17 21 14 18 116 170 12 20 1475 311 9 11 19 18 9 59 14 8 10 15 12 10 11 23 2366 963 14 20 26 25 9 10 12 18 14 452 17 22 18 9 11 1475 17 20 28 14 17 18 13 1031 12 22 13 16 18 19 22 16 13 10 26 927 19 11 119 240 9 12 14 10 23 18 16 15 6 12 256 14 19 25 21 12 42 17 22 19 1470 14 68 920 17 8 13 19 5 2917 13 11 20 8 20 10 1441 22 16 11 19 19 128 406 257 11 13 13 11 12 14 24 20 756 13 13 15 14 33 8 5 25 364 14 25 23 20 19 9 524 21 32 11 21 12 21 16 18 24 16 13 15 29 545 14 30 11 11 16 14 13 18 525 19 12 16 7 31 9 12 21 66 18 27 16 15 11 9 20 18 20354 15 14 960 386 11 13 25 25 11 20 23 10 12 17 17 8 16 25 512 108 10 14 26 208 22 15 12 10 13 2040 9 917 2965 18 17 11 23 6 16 16 17 19 15 9 8 394 508 1026 13 12 11 554 17 4 13 283 959 15 2319 8 10 20 14 15 16 19 11 25 16 12 1763 36 23 13 10 12 16 22 20 64 21 146 16 15 6 1095 13 1478 150 1468 23 24 12 18 16 18 13 10 19 3032 21 8 694 12 10 11 13 11 15 21 9 16 827 13 12 1532 19 155 16 15 10 19 12 13 9 10 956 19 13 19 69 9 21 17 256 117 21 15 34 15 15 22 12 20 50 19 824 20 23 14 19 26 2421 11 26 21 22 18 12 1542 18 12 15 11 22 14 24 14 11 8 1905 14 731 983 14 14 926 10 16 913 14 12 24 15 15 11 845 16 16 666 22 154 11 29 13 942 745 14 13 18 6 10 10 17 45 541 44 14 10 18 9 11 11 45 13 14 10 132 123 14 26 17 12 12 190 18 13 413 7194 17 25 21 17 12 10 22 16 19 194 5 13 18 22 16 17 18 1012 13 17 21 23 460 12 22 15 11 1030 523 22 20 13 10 24 8 24 16 27 1014 16 13 10 14 17 1328 31 10 51 9 12 17 853 21 19 15 15 20 13 14 1454 9 10 10 17 20 56 498 17 881 17 18 12 11 18 92 13 58 739 18 11 17 24 21 15 13 963 143 23 74 21 13 993 27 1036 9 16 21 12 15 1203 22 8 11 1474 12 12 21 753 19 21 12 16 12 19 12 14 46 13 16 14 15 12 8 398 7 12 10 622 28 9 
To predecode: 0
Predecoding something: 0
Predecode request dropped: 0
sizeofblock_0 0
sizeofblock_1 53011
sizeofblock_2 89633
sizeofblock_3 0
sizeofblock_4 0
sizeofblock_5 0
sizeofblock_6 0
sizeofblock_7 0
sizeofblock_8 0
Variant_0 Correct: 1603537 Incorrect: 0 Accuracy: 1
Variant_1 Correct: 5692924 Incorrect: 0 Accuracy: 1
Variant_2 Correct: 0 Incorrect: 0 Accuracy: -nan
Variant_3 Correct: 0 Incorrect: 0 Accuracy: -nan
