
*** ChampSim Multicore Out-of-Order Simulator ***

Warmup Instructions: 50000000
Simulation Instructions: 50000000
Number of CPUs: 1
LLC sets: 2048
LLC ways: 16
Off-chip DRAM Size: 4096 MB Channels: 1 Width: 64-bit Data Rate: 6400 MT/s
CPU 0 runs ./micro_traces/srv439.trace.gz
.gz
ITLB has LRU replacement policy
DTLB has LRU replacement policy
STLB has LRU replacement policy
FDIP Prefetcher at L1I
L1I has LRU replacement policy
L1D has LRU replacement policy
Initialize SRRIP state for L2C
Initialize DRRIP state for LLC
Heartbeat_Variant_0 : 1296 0.316406 per_variant_size: 0 1296 0 0 0 0 0 0 0 
Heartbeat_Variant_1 : 2341 0.571533 per_variant_size: 0 322 2019 0 0 0 0 0 0 
Heartbeat_Variant_2 : 0 0 per_variant_size: 0 0 0 0 0 0 0 0 0 
Heartbeat_Variant_3 : 0 0 per_variant_size: 0 0 0 0 0 0 0 0 0 
Heartbeat_Variant_0_evicts 0 : 5647 1 : 24 2 : 0 3 : 0 
Heartbeat_Variant_1_evicts 0 : 16 1 : 0 2 : 0 3 : 0 
Heartbeat_Variant_2_evicts 0 : 0 1 : 0 2 : 0 3 : 0 
Heartbeat_Variant_3_evicts 0 : 0 1 : 0 2 : 0 3 : 0 
Heartbeat CPU 0 instructions: 10000003 cycles: 2797851 heartbeat IPC: 3.57417 cumulative IPC: 3.57417 (Simulation time: 0 hr 1 min 52 sec) 
Heartbeat_Variant_0 : 1373 0.335205 per_variant_size: 0 1373 0 0 0 0 0 0 0 
Heartbeat_Variant_1 : 2495 0.609131 per_variant_size: 0 285 2210 0 0 0 0 0 0 
Heartbeat_Variant_2 : 0 0 per_variant_size: 0 0 0 0 0 0 0 0 0 
Heartbeat_Variant_3 : 0 0 per_variant_size: 0 0 0 0 0 0 0 0 0 
Heartbeat_Variant_0_evicts 0 : 5650 1 : 50 2 : 0 3 : 0 
Heartbeat_Variant_1_evicts 0 : 47 1 : 0 2 : 0 3 : 0 
Heartbeat_Variant_2_evicts 0 : 0 1 : 0 2 : 0 3 : 0 
Heartbeat_Variant_3_evicts 0 : 0 1 : 0 2 : 0 3 : 0 
Heartbeat CPU 0 instructions: 20000002 cycles: 5594736 heartbeat IPC: 3.57541 cumulative IPC: 3.57479 (Simulation time: 0 hr 3 min 29 sec) 
Heartbeat_Variant_0 : 1415 0.345459 per_variant_size: 0 1415 0 0 0 0 0 0 0 
Heartbeat_Variant_1 : 2640 0.644531 per_variant_size: 0 230 2410 0 0 0 0 0 0 
Heartbeat_Variant_2 : 0 0 per_variant_size: 0 0 0 0 0 0 0 0 0 
Heartbeat_Variant_3 : 0 0 per_variant_size: 0 0 0 0 0 0 0 0 0 
Heartbeat_Variant_0_evicts 0 : 5711 1 : 239 2 : 0 3 : 0 
Heartbeat_Variant_1_evicts 0 : 252 1 : 0 2 : 0 3 : 0 
Heartbeat_Variant_2_evicts 0 : 0 1 : 0 2 : 0 3 : 0 
Heartbeat_Variant_3_evicts 0 : 0 1 : 0 2 : 0 3 : 0 
Heartbeat CPU 0 instructions: 30000001 cycles: 8391980 heartbeat IPC: 3.57495 cumulative IPC: 3.57484 (Simulation time: 0 hr 5 min 5 sec) 
Heartbeat_Variant_0 : 1421 0.346924 per_variant_size: 0 1421 0 0 0 0 0 0 0 
Heartbeat_Variant_1 : 2637 0.643799 per_variant_size: 0 218 2419 0 0 0 0 0 0 
Heartbeat_Variant_2 : 0 0 per_variant_size: 0 0 0 0 0 0 0 0 0 
Heartbeat_Variant_3 : 0 0 per_variant_size: 0 0 0 0 0 0 0 0 0 
Heartbeat_Variant_0_evicts 0 : 5588 1 : 73 2 : 0 3 : 0 
Heartbeat_Variant_1_evicts 0 : 69 1 : 0 2 : 0 3 : 0 
Heartbeat_Variant_2_evicts 0 : 0 1 : 0 2 : 0 3 : 0 
Heartbeat_Variant_3_evicts 0 : 0 1 : 0 2 : 0 3 : 0 
Heartbeat CPU 0 instructions: 40000000 cycles: 11189086 heartbeat IPC: 3.57512 cumulative IPC: 3.57491 (Simulation time: 0 hr 6 min 44 sec) 
Heartbeat_Variant_0 : 1428 0.348633 per_variant_size: 0 1428 0 0 0 0 0 0 0 
Heartbeat_Variant_1 : 2641 0.644775 per_variant_size: 0 175 2466 0 0 0 0 0 0 
Heartbeat_Variant_2 : 0 0 per_variant_size: 0 0 0 0 0 0 0 0 0 
Heartbeat_Variant_3 : 0 0 per_variant_size: 0 0 0 0 0 0 0 0 0 
Heartbeat_Variant_0_evicts 0 : 5573 1 : 86 2 : 0 3 : 0 
Heartbeat_Variant_1_evicts 0 : 81 1 : 0 2 : 0 3 : 0 
Heartbeat_Variant_2_evicts 0 : 0 1 : 0 2 : 0 3 : 0 
Heartbeat_Variant_3_evicts 0 : 0 1 : 0 2 : 0 3 : 0 
Heartbeat CPU 0 instructions: 50000001 cycles: 13986029 heartbeat IPC: 3.57533 cumulative IPC: 3.575 (Simulation time: 0 hr 8 min 22 sec) 

Warmup complete CPU 0 instructions: 50000001 cycles: 13986029 (Simulation time: 0 hr 8 min 22 sec) 

Cycle: 20000000 FTQ IN: 58260751 FTQ occupancy: 20.1014 DECODE IN: 58260679 DECODE occupancy: 52.2558 ROB IN: 58260619 ROB occupancy: 314.356 ROB OUT: 58260443
Heartbeat_Variant_0 : 1431 0.349365 per_variant_size: 0 1431 0 0 0 0 0 0 0 
Heartbeat_Variant_1 : 2642 0.64502 per_variant_size: 0 188 2454 0 0 0 0 0 0 
Heartbeat_Variant_2 : 0 0 per_variant_size: 0 0 0 0 0 0 0 0 0 
Heartbeat_Variant_3 : 0 0 per_variant_size: 0 0 0 0 0 0 0 0 0 
Heartbeat_Variant_0_evicts 0 : 5737 1 : 90 2 : 0 3 : 0 
Heartbeat_Variant_1_evicts 0 : 89 1 : 0 2 : 0 3 : 0 
Heartbeat_Variant_2_evicts 0 : 0 1 : 0 2 : 0 3 : 0 
Heartbeat_Variant_3_evicts 0 : 0 1 : 0 2 : 0 3 : 0 
Heartbeat CPU 0 instructions: 60000002 cycles: 21255701 heartbeat IPC: 1.37558 cumulative IPC: 1.37558 (Simulation time: 0 hr 10 min 12 sec) 
Heartbeat_Variant_0 : 1432 0.349609 per_variant_size: 0 1432 0 0 0 0 0 0 0 
Heartbeat_Variant_1 : 2643 0.645264 per_variant_size: 0 193 2450 0 0 0 0 0 0 
Heartbeat_Variant_2 : 0 0 per_variant_size: 0 0 0 0 0 0 0 0 0 
Heartbeat_Variant_3 : 0 0 per_variant_size: 0 0 0 0 0 0 0 0 0 
Heartbeat_Variant_0_evicts 0 : 5595 1 : 49 2 : 0 3 : 0 
Heartbeat_Variant_1_evicts 0 : 48 1 : 0 2 : 0 3 : 0 
Heartbeat_Variant_2_evicts 0 : 0 1 : 0 2 : 0 3 : 0 
Heartbeat_Variant_3_evicts 0 : 0 1 : 0 2 : 0 3 : 0 
Heartbeat CPU 0 instructions: 70000000 cycles: 28496503 heartbeat IPC: 1.38106 cumulative IPC: 1.37831 (Simulation time: 0 hr 12 min 0 sec) 
Cycle: 30000000 FTQ IN: 13698054 FTQ occupancy: 13.3694 DECODE IN: 13698046 DECODE occupancy: 34.5347 ROB IN: 13698063 ROB occupancy: 236.892 ROB OUT: 13697887
Heartbeat_Variant_0 : 1431 0.349365 per_variant_size: 0 1431 0 0 0 0 0 0 0 
Heartbeat_Variant_1 : 2647 0.64624 per_variant_size: 0 195 2452 0 0 0 0 0 0 
Heartbeat_Variant_2 : 0 0 per_variant_size: 0 0 0 0 0 0 0 0 0 
Heartbeat_Variant_3 : 0 0 per_variant_size: 0 0 0 0 0 0 0 0 0 
Heartbeat_Variant_0_evicts 0 : 5555 1 : 38 2 : 0 3 : 0 
Heartbeat_Variant_1_evicts 0 : 39 1 : 0 2 : 0 3 : 0 
Heartbeat_Variant_2_evicts 0 : 0 1 : 0 2 : 0 3 : 0 
Heartbeat_Variant_3_evicts 0 : 0 1 : 0 2 : 0 3 : 0 
Heartbeat CPU 0 instructions: 80000000 cycles: 35818186 heartbeat IPC: 1.36581 cumulative IPC: 1.37412 (Simulation time: 0 hr 13 min 50 sec) 
Cycle: 40000000 FTQ IN: 13801667 FTQ occupancy: 13.3531 DECODE IN: 13801628 DECODE occupancy: 34.7288 ROB IN: 13801611 ROB occupancy: 238.857 ROB OUT: 13801731
Heartbeat_Variant_0 : 1427 0.348389 per_variant_size: 0 1427 0 0 0 0 0 0 0 
Heartbeat_Variant_1 : 2656 0.648438 per_variant_size: 0 211 2445 0 0 0 0 0 0 
Heartbeat_Variant_2 : 0 0 per_variant_size: 0 0 0 0 0 0 0 0 0 
Heartbeat_Variant_3 : 0 0 per_variant_size: 0 0 0 0 0 0 0 0 0 
Heartbeat_Variant_0_evicts 0 : 5587 1 : 92 2 : 0 3 : 0 
Heartbeat_Variant_1_evicts 0 : 96 1 : 0 2 : 0 3 : 0 
Heartbeat_Variant_2_evicts 0 : 0 1 : 0 2 : 0 3 : 0 
Heartbeat_Variant_3_evicts 0 : 0 1 : 0 2 : 0 3 : 0 
Heartbeat CPU 0 instructions: 90000002 cycles: 43089697 heartbeat IPC: 1.37523 cumulative IPC: 1.3744 (Simulation time: 0 hr 15 min 40 sec) 
Cycle: 50000000 FTQ IN: 13640272 FTQ occupancy: 13.1987 DECODE IN: 13640378 DECODE occupancy: 33.8354 ROB IN: 13640436 ROB occupancy: 234.886 ROB OUT: 13640369
Heartbeat_Variant_0 : 1440 0.351562 per_variant_size: 0 1440 0 0 0 0 0 0 0 
Heartbeat_Variant_1 : 2649 0.646729 per_variant_size: 0 192 2457 0 0 0 0 0 0 
Heartbeat_Variant_2 : 0 0 per_variant_size: 0 0 0 0 0 0 0 0 0 
Heartbeat_Variant_3 : 0 0 per_variant_size: 0 0 0 0 0 0 0 0 0 
Heartbeat_Variant_0_evicts 0 : 5583 1 : 136 2 : 0 3 : 0 
Heartbeat_Variant_1_evicts 0 : 126 1 : 0 2 : 0 3 : 0 
Heartbeat_Variant_2_evicts 0 : 0 1 : 0 2 : 0 3 : 0 
Heartbeat_Variant_3_evicts 0 : 0 1 : 0 2 : 0 3 : 0 
Heartbeat CPU 0 instructions: 100000003 cycles: 50437010 heartbeat IPC: 1.36104 cumulative IPC: 1.37171 (Simulation time: 0 hr 17 min 25 sec) 
Finished CPU 0 instructions: 50000002 cycles: 36450981 cumulative IPC: 1.37171 (Simulation time: 0 hr 17 min 25 sec) 

ChampSim completed all CPUs

Region of Interest Statistics

CPU 0 cumulative IPC: 1.37171 instructions: 50000002 cycles: 36450981
 Fetch stage stalled: 53.2241  Sim cycles: 36450981 fetch stall cycle: 19400713
 Empty decode stage: 34.0376  Sim cycles: 36450981 fetch stall cycle: 12407055
ITLB TOTAL     ACCESS:    5872209  HIT:    5376279  MISS:     495930  HIT %:    91.5546  MISS %:    8.44537   MPKI: 9.9186
ITLB LOAD TRANSLATION INSTRUCTION	ACCESS:    5751574  HIT:    5255644  MISS:     495930  HIT %:    91.3775  MISS %:    8.62251  MPKI: 9.9186
ITLB TRANSLATION FROM L1D PREFETCHER INSTRUCTION	ACCESS:     120635  HIT:     120635  MISS:          0  HIT %:        100  MISS %:          0  MPKI: 0

ITLB AVERAGE MISS LATENCY: 9.07728 cycles
ITLB RQ	ACCESS:    8017300	FORWARD:          0	MERGED:    1698008	TO_CACHE:    6319292

DTLB TOTAL     ACCESS:    8980748  HIT:    8509237  MISS:     471511  HIT %:    94.7498  MISS %:    5.25024   MPKI: 9.43022
DTLB LOAD TRANSLATION DATA	ACCESS:    8980748  HIT:    8509237  MISS:     471511  HIT %:    94.7498  MISS %:    5.25024  MPKI: 9.43022

DTLB AVERAGE MISS LATENCY: 9.35054 cycles
DTLB RQ	ACCESS:   13344936	FORWARD:          0	MERGED:    4327868	TO_CACHE:    9017068

STLB TOTAL     ACCESS:    1214809  HIT:    1212584  MISS:       2225  HIT %:    99.8168  MISS %:   0.183156   MPKI: 0.0445
STLB LOAD TRANSLATION INSTRUCTION	ACCESS:     495930  HIT:     495630  MISS:        300  HIT %:    99.9395  MISS %:  0.0604924  MPKI: 0.006
STLB LOAD TRANSLATION DATA	ACCESS:     471510  HIT:     469615  MISS:       1895  HIT %:    99.5981  MISS %:     0.4019  MPKI: 0.0379
STLB TRANSLATION FROM L1D PREFETCHER DATA	ACCESS:     247369  HIT:     247339  MISS:         30  HIT %:    99.9879  MISS %:  0.0121276  MPKI: 0.0006

STLB AVERAGE MISS LATENCY: 78.2499 cycles
STLB RQ	ACCESS:    1335011	FORWARD:          0	MERGED:     120163	TO_CACHE:    1214848

STLB Hit, L1D data hit: 0
STLB Hit, L2C data hit: 0
STLB Hit, LLC data hit: 0
STLB Hit, LLC data miss: 0
STLB STLB hints to L2: 0
L1D TOTAL     ACCESS:   13086396  HIT:   11961171  MISS:    1125225  HIT %:    91.4016  MISS %:    8.59843   MPKI: 22.5045
L1D LOAD DATA	ACCESS:    6554317  HIT:    5812344  MISS:     741973  HIT %:    88.6796  MISS %:    11.3204  MPKI: 14.8395
L1D RFO DATA	ACCESS:    6205755  HIT:    5917824  MISS:     287931  HIT %:    95.3603  MISS %:    4.63974  MPKI: 5.75862
L1D PREFETCH DATA	ACCESS:     326324  HIT:     231003  MISS:      95321  HIT %:    70.7895  MISS %:    29.2105  MPKI: 1.90642

L1D PREFETCH  REQUESTED:     735484  ISSUED:     735484  USEFUL:      35191  USELESS:      68303
L1D USEFUL LOAD PREFETCHES:      35191 PREFETCH ISSUED TO LOWER LEVEL:     103536  ACCURACY: 33.9891
 TIMELY PREFETCHES:      35191 LATE PREFETCHES: 8174 DROPPED PREFETCHES: 12
L1D AVERAGE MISS LATENCY: 233290 cycles
L1D RQ	ACCESS:   10692578	FORWARD:          0	MERGED:    3940501	TO_CACHE:    6589241
L1D WQ	ACCESS:    6955226	FORWARD:     163180	MERGED:     199531	TO_CACHE:    6755695
L1D PQ	ACCESS:     367914	FORWARD:          0	MERGED:          0	TO_CACHE:     367570

L1D UNIQUE REGIONS ACCESSED: 0
L1D REGIONS CONFLICTS: 0
L1D Cross Page Prefetch Requests: 6927
L1D Same Page Prefetch Requests: 746680
L1D ROI Sum of L1D PQ occupancy: 4669361
L1D PREFETCHES PUSHED FROM L2C: 0
L1I TOTAL     ACCESS:    7172696  HIT:    4400184  MISS:    2772512  HIT %:    61.3463  MISS %:    38.6537   MPKI: 55.4502
L1I LOAD INSTRUCTION	ACCESS:    6508309  HIT:    3735797  MISS:    2772512  HIT %:    57.4004  MISS %:    42.5996  MPKI: 55.4502
L1I PREFETCH INSTRUCTION	ACCESS:     664387  HIT:     664387  MISS:          0  HIT %:        100  MISS %:          0  MPKI: 0

L1I PREFETCH  REQUESTED:    1611445  ISSUED:    1611445  USEFUL:          0  USELESS:          0
L1I USEFUL LOAD PREFETCHES:          0 PREFETCH ISSUED TO LOWER LEVEL:          0  ACCURACY: -nan
 TIMELY PREFETCHES:          0 LATE PREFETCHES: 0 DROPPED PREFETCHES: 0
L1I AVERAGE MISS LATENCY: 17.7497 cycles
L1I RQ	ACCESS:    9509493	FORWARD:          0	MERGED:    2669061	TO_CACHE:    6840432
L1I PQ	ACCESS:    1611445	FORWARD:          0	MERGED:     434577	TO_CACHE:    1176868

L1BTB TOTAL     ACCESS:    5668977  HIT:    2030785  MISS:    3638192  HIT %:    35.8228  MISS %:    64.1772   MPKI: 72.7638
L1BTB BRANCH_DIRECT_JUMP	ACCESS:     546722 HIT:     143064 MISS:     403658 AVERAGE STALL: 45.4669 AVERAGE FETCH STALL: 13.2927 AVERAGE FETCH QUEUE STALL: 14.4688 AVERAGE DECODE STALL: 16.7915 AVERAGE EXECUTE STALL: 2.12251e+15
L1BTB BRANCH_INDIRECT	ACCESS:     182359 HIT:      65547 MISS:     116812 AVERAGE STALL: 107.273 AVERAGE FETCH STALL: 10.8018 AVERAGE FETCH QUEUE STALL: 14.8249 AVERAGE DECODE STALL: 11.9196 AVERAGE EXECUTE STALL: 68.7631
L1BTB BRANCH_CONDITIONAL	ACCESS:    2702637 HIT:    1407519 MISS:    1295118 AVERAGE STALL: 63.1394 AVERAGE FETCH STALL: 20.9152 AVERAGE FETCH QUEUE STALL: 22.8676 AVERAGE DECODE STALL: 18.535 AVERAGE EXECUTE STALL: 5.37806e+15
L1BTB BRANCH_DIRECT_CALL	ACCESS:     946875 HIT:     104015 MISS:     842860 AVERAGE STALL: 66.6185 AVERAGE FETCH STALL: 24.9683 AVERAGE FETCH QUEUE STALL: 22.4651 AVERAGE DECODE STALL: 18.5311 AVERAGE EXECUTE STALL: 1.169e+16
L1BTB BRANCH_INDIRECT_CALL	ACCESS:     171762 HIT:      20939 MISS:     150823 AVERAGE STALL: 131.035 AVERAGE FETCH STALL: 12.6968 AVERAGE FETCH QUEUE STALL: 12.703 AVERAGE DECODE STALL: 10.0296 AVERAGE EXECUTE STALL: 95.114
L1BTB BRANCH_RETURN	ACCESS:    1118622 HIT:     289701 MISS:     828921 AVERAGE STALL: 46.7452 AVERAGE FETCH STALL: 16.6179 AVERAGE FETCH QUEUE STALL: 4.31567 AVERAGE DECODE STALL: 6.13742 AVERAGE EXECUTE STALL: 4.26032e+14
L1BTB BRANCH_OTHER ACCESS:          0 HIT:          0 MISS:          0 AVERAGE STALL: -nan AVERAGE FETCH STALL: -nan AVERAGE FETCH QUEUE STALL: -nan AVERAGE DECODE STALL: -nan AVERAGE EXECUTE STALL: -nan
L1BTB TOTAL ROB OCCUPANCY AT BTB MISS: 2.50105

L2BTB TOTAL     ACCESS:    3612865  HIT:    3548492  MISS:      64373  HIT %:    98.2182  MISS %:    1.78177   MPKI: 1.28746
L2BTB BRANCH_DIRECT_JUMP	ACCESS:     399546 HIT:     394964 MISS:       4582 AVERAGE STALL: 45.4669 AVERAGE FETCH STALL: 13.2927 AVERAGE FETCH QUEUE STALL: 14.4688 AVERAGE DECODE STALL: 16.7915 AVERAGE EXECUTE STALL: 2.12251e+15
L2BTB BRANCH_INDIRECT	ACCESS:     106490 HIT:     103757 MISS:       2733 AVERAGE STALL: 107.273 AVERAGE FETCH STALL: 10.8018 AVERAGE FETCH QUEUE STALL: 14.8249 AVERAGE DECODE STALL: 11.9196 AVERAGE EXECUTE STALL: 68.7631
L2BTB BRANCH_CONDITIONAL	ACCESS:    1295118 HIT:    1291625 MISS:       3493 AVERAGE STALL: 63.1394 AVERAGE FETCH STALL: 20.9152 AVERAGE FETCH QUEUE STALL: 22.8676 AVERAGE DECODE STALL: 18.535 AVERAGE EXECUTE STALL: 5.37806e+15
L2BTB BRANCH_DIRECT_CALL	ACCESS:     842860 HIT:     841260 MISS:       1600 AVERAGE STALL: 66.6185 AVERAGE FETCH STALL: 24.9683 AVERAGE FETCH QUEUE STALL: 22.4651 AVERAGE DECODE STALL: 18.5311 AVERAGE EXECUTE STALL: 1.169e+16
L2BTB BRANCH_INDIRECT_CALL	ACCESS:     141338 HIT:     131277 MISS:      10061 AVERAGE STALL: 131.035 AVERAGE FETCH STALL: 12.6968 AVERAGE FETCH QUEUE STALL: 12.703 AVERAGE DECODE STALL: 10.0296 AVERAGE EXECUTE STALL: 95.114
L2BTB BRANCH_RETURN	ACCESS:     827513 HIT:     785609 MISS:      41904 AVERAGE STALL: 46.7452 AVERAGE FETCH STALL: 16.6179 AVERAGE FETCH QUEUE STALL: 4.31567 AVERAGE DECODE STALL: 6.13742 AVERAGE EXECUTE STALL: 4.26032e+14
L2BTB BRANCH_OTHER ACCESS:          0 HIT:          0 MISS:          0 AVERAGE STALL: -nan AVERAGE FETCH STALL: -nan AVERAGE FETCH QUEUE STALL: -nan AVERAGE DECODE STALL: -nan AVERAGE EXECUTE STALL: -nan
L2BTB TOTAL ROB OCCUPANCY AT BTB MISS: 141.353

L2C TOTAL     ACCESS:    4514194  HIT:    3979094  MISS:     535100  HIT %:    88.1463  MISS %:    11.8537   MPKI: 10.702
L2C LOAD INSTRUCTION	ACCESS:    2772512  HIT:    2462089  MISS:     310423  HIT %:    88.8035  MISS %:    11.1965  MPKI: 6.20846
L2C LOAD TRANSLATION INSTRUCTION	ACCESS:        339  HIT:         76  MISS:        263  HIT %:    22.4189  MISS %:    77.5811  MPKI: 0.00526
L2C LOAD DATA	ACCESS:     733754  HIT:     654262  MISS:      79492  HIT %:    89.1664  MISS %:    10.8336  MPKI: 1.58984
L2C RFO DATA	ACCESS:     287852  HIT:     234587  MISS:      53265  HIT %:    81.4957  MISS %:    18.5043  MPKI: 1.0653
L2C PREFETCH DATA	ACCESS:     192427  HIT:     117786  MISS:      74641  HIT %:    61.2107  MISS %:    38.7893  MPKI: 1.49282
L2C WRITEBACK DATA	ACCESS:     525276  HIT:     509612  MISS:      15664  HIT %:    97.0179  MISS %:    2.98205  MPKI: 0.31328
L2C LOAD TRANSLATION DATA	ACCESS:       1977  HIT:        639  MISS:       1338  HIT %:    32.3217  MISS %:    67.6783  MPKI: 0.02676
L2C TRANSLATION FROM L1D PREFETCHER DATA	ACCESS:         57  HIT:         43  MISS:         14  HIT %:    75.4386  MISS %:    24.5614  MPKI: 0.00028

L2C PREFETCH  REQUESTED:      97650  ISSUED:      97650  USEFUL:       8147  USELESS:      67308
L2C USEFUL LOAD PREFETCHES:       8147 PREFETCH ISSUED TO LOWER LEVEL:      75403  ACCURACY: 10.8046
 TIMELY PREFETCHES:       8147 LATE PREFETCHES: 762 DROPPED PREFETCHES: 0
L2C AVERAGE MISS LATENCY: 38.1775 cycles
L2C RQ	ACCESS:    3796575	FORWARD:          0	MERGED:          0	TO_CACHE:    3796493
L2C WQ	ACCESS:     525276	FORWARD:         82	MERGED:          0	TO_CACHE:     525276
L2C PQ	ACCESS:     201186	FORWARD:          0	MERGED:       3672	TO_CACHE:     197514

L2C Dense regions hint from L2: 0
PSCL5 TOTAL     ACCESS:       4478  HIT:       2239  MISS:       2239  HIT %:         50  MISS %:         50   MPKI: 0.04478
PSCL5 LOAD TRANSLATION INSTRUCTION	ACCESS:       4364  HIT:       2182  MISS:       2182  HIT %:         50  MISS %:         50  MPKI: 0.04364
PSCL5 TRANSLATION FROM L1D PREFETCHER INSTRUCTION	ACCESS:        114  HIT:         57  MISS:         57  HIT %:         50  MISS %:         50  MPKI: 0.00114


PSCL4 TOTAL     ACCESS:       4041  HIT:       2017  MISS:       2024  HIT %:    49.9134  MISS %:    50.0866   MPKI: 0.04048
PSCL4 LOAD TRANSLATION INSTRUCTION	ACCESS:       1966  HIT:       1966  MISS:          0  HIT %:        100  MISS %:          0  MPKI: 0
PSCL4 TRANSLATION FROM L1D PREFETCHER INSTRUCTION	ACCESS:         51  HIT:         51  MISS:          0  HIT %:        100  MISS %:          0  MPKI: 0
PSCL4 LOAD TRANSLATION DATA	ACCESS:       1973  HIT:          0  MISS:       1973  HIT %:          0  MISS %:        100  MPKI: 0.03946
PSCL4 TRANSLATION FROM L1D PREFETCHER DATA	ACCESS:         51  HIT:          0  MISS:         51  HIT %:          0  MISS %:        100  MPKI: 0.00102


PSCL3 TOTAL     ACCESS:       4051  HIT:       2022  MISS:       2029  HIT %:    49.9136  MISS %:    50.0864   MPKI: 0.04058
PSCL3 LOAD TRANSLATION INSTRUCTION	ACCESS:       1971  HIT:       1971  MISS:          0  HIT %:        100  MISS %:          0  MPKI: 0
PSCL3 TRANSLATION FROM L1D PREFETCHER INSTRUCTION	ACCESS:         51  HIT:         51  MISS:          0  HIT %:        100  MISS %:          0  MPKI: 0
PSCL3 LOAD TRANSLATION DATA	ACCESS:       1978  HIT:          0  MISS:       1978  HIT %:          0  MISS %:        100  MPKI: 0.03956
PSCL3 TRANSLATION FROM L1D PREFETCHER DATA	ACCESS:         51  HIT:          0  MISS:         51  HIT %:          0  MISS %:        100  MPKI: 0.00102


PSCL2 TOTAL     ACCESS:       4358  HIT:       2119  MISS:       2239  HIT %:    48.6232  MISS %:    51.3768   MPKI: 0.04478
PSCL2 LOAD TRANSLATION INSTRUCTION	ACCESS:       2360  HIT:       2062  MISS:        298  HIT %:    87.3729  MISS %:    12.6271  MPKI: 0.00596
PSCL2 TRANSLATION FROM L1D PREFETCHER INSTRUCTION	ACCESS:         57  HIT:         57  MISS:          0  HIT %:        100  MISS %:          0  MPKI: 0
PSCL2 LOAD TRANSLATION DATA	ACCESS:       1884  HIT:          0  MISS:       1884  HIT %:          0  MISS %:        100  MPKI: 0.03768
PSCL2 TRANSLATION FROM L1D PREFETCHER DATA	ACCESS:         57  HIT:          0  MISS:         57  HIT %:          0  MISS %:        100  MPKI: 0.00114


LLC TOTAL     ACCESS:     595449  HIT:     564924  MISS:      30525  HIT %:    94.8736  MISS %:    5.12638   MPKI: 0.6105
LLC LOAD INSTRUCTION	ACCESS:     310423  HIT:     309458  MISS:        965  HIT %:    99.6891  MISS %:   0.310866  MPKI: 0.0193
LLC LOAD TRANSLATION INSTRUCTION	ACCESS:        263  HIT:        204  MISS:         59  HIT %:    77.5665  MISS %:    22.4335  MPKI: 0.00118
LLC LOAD DATA	ACCESS:      78761  HIT:      75068  MISS:       3693  HIT %:    95.3111  MISS %:    4.68887  MPKI: 0.07386
LLC RFO DATA	ACCESS:      53212  HIT:      37967  MISS:      15245  HIT %:    71.3504  MISS %:    28.6496  MPKI: 0.3049
LLC PREFETCH DATA	ACCESS:      75403  HIT:      65345  MISS:      10058  HIT %:     86.661  MISS %:     13.339  MPKI: 0.20116
LLC WRITEBACK DATA	ACCESS:      76035  HIT:      75629  MISS:        406  HIT %:     99.466  MISS %:   0.533965  MPKI: 0.00812
LLC LOAD TRANSLATION DATA	ACCESS:       1338  HIT:       1239  MISS:         99  HIT %:    92.6009  MISS %:     7.3991  MPKI: 0.00198
LLC TRANSLATION FROM L1D PREFETCHER DATA	ACCESS:         14  HIT:         14  MISS:          0  HIT %:        100  MISS %:          0  MPKI: 0

LLC AVERAGE MISS LATENCY: 157.309 cycles
LLC RQ	ACCESS:     444033	FORWARD:          0	MERGED:          0	TO_CACHE:     444011
LLC WQ	ACCESS:      76035	FORWARD:         22	MERGED:          0	TO_CACHE:      76035
LLC PQ	ACCESS:      75403	FORWARD:          0	MERGED:          0	TO_CACHE:      75403

LLC Dense regions hint to LLC: 0

RAW hits: 1946282
Loads Generated: 12638860
Loads sent to L1D: 10692578
Stores Generated: 6955224
Stores sent to L1D: 6955226
Major fault: 0 Minor fault: 2610
Allocated PAGES: 2610

stream: 
stream:times selected: 1181664
stream:pref_filled: 121981
stream:pref_useful: 24253
stream:pref_late: 6924
stream:misses: 7813
stream:misses_by_poll: 0

CS: 
CS:times selected: 177104
CS:pref_filled: 58964
CS:pref_useful: 35788
CS:pref_late: 7202
CS:misses: 16944
CS:misses_by_poll: 3

CPLX: 
CPLX:times selected: 1003416
CPLX:pref_filled: 19465
CPLX:pref_useful: 4657
CPLX:pref_late: 3227
CPLX:misses: 94345
CPLX:misses_by_poll: 0

NL_L1: 
NL:times selected: 20811
NL:pref_filled: 731
NL:pref_useful: 327
NL:pref_late: 258
NL:misses: 1654
NL:misses_by_poll: 0

total selections: 2382995
total_filled: 95321
total_useful: 35191
total_late: 18901
total_polluted: 3
total_misses_after_warmup: 776896
conflicts: 5529725

test: 115606

DRAM Statistics
 CHANNEL 0
 RQ ROW_BUFFER_HIT:      11347  ROW_BUFFER_MISS:      18770
 DBUS_CONGESTED:          5
 WQ ROW_BUFFER_HIT:       1434  ROW_BUFFER_MISS:      12719  FULL:          0

 AVG_CONGESTED_CYCLE: 5

CPU 0 Branch Prediction Accuracy: 99.8224% MPKI: 0.3247 Average ROB Occupancy at Mispredict: 189.189
Branch types
NOT_BRANCH: 40856601 81.7132%
BRANCH_DIRECT_JUMP: 546722 1.09344%
BRANCH_INDIRECT: 182359 0.364718%
BRANCH_CONDITIONAL: 6176978 12.354%
BRANCH_DIRECT_CALL: 946875 1.89375%
BRANCH_INDIRECT_CALL: 171762 0.343524%
BRANCH_RETURN: 1118622 2.23724%
BRANCH_OTHER: 0 0%

DRAM PAGES: 1048576
Allocated PAGES: 2610
Average_ROB_Occupancy: 237.813
Average_Decode_Occupancy: 34.3198
Average_FTQ_Occupancy: 13.3088
Indirect max targets: 14 Average targets: 1.18153
Branch_type:  BRANCH_DIRECT_JUMP:  Count Percentage: 3.64059 5.51221 4.15484 8.95434 2.234 6.02354 1.29554 68.1849 
Branch_type:  BRANCH_INDIRECT:  Count Percentage: 6.13022 3.40258 8.15639 9.6754 3.35112 2.81441 3.08454 63.3853 
Branch_type:  BRANCH_CONDITIONAL:  Count Percentage: 24.8755 3.11724 1.43078 4.60604 1.84534 3.60133 1.07319 59.4506 
Branch_type:  BRANCH_DIRECT_CALL:  Count Percentage: 0.897876 1.27962 0.724862 3.95515 2.38908 2.81638 1.0938 86.8432 
Branch_type:  BRANCH_INDIRECT_CALL:  Count Percentage: 9.57775 0 3.0034 0.000874521 0 2.27142 3.28528 81.8613 
Branch_type:  BRANCH_RETURN:  Count Percentage: 8.31836 1.22712 1.02689 3.93619 3.53837 3.67503 1.45792 76.8201 
Branch_type:  BRANCH_DIRECT_JUMP:  Total Count: 39864 60358 45495 98049 24462 65957 14186 746617 
Branch_type:  BRANCH_INDIRECT:  Total Count: 22398 12432 29801 35351 12244 10283 11270 231591 
Branch_type:  BRANCH_CONDITIONAL:  Total Count: 3073339 385132 176771 569072 227990 444941 132592 7345069 
Branch_type:  BRANCH_DIRECT_CALL:  Total Count: 16970 24185 13700 74753 45154 53230 20673 1641350 
Branch_type:  BRANCH_INDIRECT_CALL:  Total Count: 32856 0 10303 3 0 7792 11270 280821 
Branch_type:  BRANCH_RETURN:  Total Count: 185827 27413 22940 87932 79045 82098 32569 1716114 
Number of unique branch instructions: 10659
Upper 32 bits: 
aaaa
ffff
ffff0000
Unique upper 32 bits: 3
Unique upper 36 bits: 3
Unique upper 40 bits: 5
Unique upper 44 bits: 32
Unique upper 48 bits: 157
Variant_0 : 1440 0.351562
Variant_1 : 2649 0.646729
Variant_2 : 0 0
Variant_3 : 0 0
Offset_3 4421
Offset_4 254
Offset_5 475
Offset_6 535
Offset_7 630
Offset_8 575
Offset_9 508
Offset_10 413
Offset_11 343
Offset_12 322
Offset_13 240
Offset_14 245
Offset_15 197
Offset_16 223
Offset_17 165
Offset_18 152
Offset_19 258
Offset_20 144
Offset_21 235
Offset_22 405
Offset_23 241
Offset_24 348
Offset_25 117
Offset_47 94
Offset_64 1
decode_dispatch_called: 25596534 70.2218
Dispatch_width: 0 13797543 53.904 37.8523
Dispatch_width: 1 958215 3.74353 2.62878
Dispatch_width: 2 818244 3.1967 2.24478
Dispatch_width: 3 478214 1.86828 1.31194
Dispatch_width: 4 5577169 21.7888 15.3005
Dispatch_width: 5 140913 0.550516 0.386582
Dispatch_width: 6 3826236 14.9483 10.4969
Empty_decode_cycles: 10854447 29.7782
ROB_full_cycles: 8985078 24.6498
Starvation_cycles_per_kilo_instr: 236.397
Starvation_cycles_per_kilo_instr_3: 179.216
Starvation_cycles_per_kilo_instr_0: 156.669
Branch_type_1  (3,1)  (4,7)  (5,38)  (6,73)  (7,124)  (8,146)  (9,134)  (10,109)  (11,75)  (12,55)  (13,11)  (14,2)  (15,3)  (16,4)  (18,1)  (19,5)  (20,2)  (21,1)  (22,3)  (23,2)  (24,10)  (25,12) 
Branch_type_2  (3,1)  (4,1)  (5,1)  (8,4)  (9,4)  (10,1)  (12,1)  (13,1)  (14,1)  (16,3)  (17,2)  (20,2)  (21,2)  (23,5)  (24,1)  (47,43)  (64,1) 
Branch_type_3  (3,4419)  (4,246)  (5,432)  (6,445)  (7,475)  (8,360)  (9,277)  (10,164)  (11,132)  (12,62)  (13,10) 
Branch_type_4  (6,4)  (7,8)  (8,26)  (9,55)  (10,66)  (11,70)  (12,113)  (13,102)  (14,111)  (15,93)  (16,98)  (17,76)  (18,65)  (19,124)  (20,73)  (21,124)  (22,213)  (23,136)  (24,204)  (25,101) 
Branch_type_5  (8,3)  (9,1)  (10,4)  (11,5)  (12,3)  (13,14)  (14,16)  (15,11)  (16,22)  (17,11)  (18,23)  (19,14)  (20,11)  (21,13)  (22,43)  (23,26)  (24,37) 
Branch_type_6  (5,4)  (6,13)  (7,23)  (8,36)  (9,37)  (10,69)  (11,61)  (12,88)  (13,102)  (14,115)  (15,90)  (16,96)  (17,76)  (18,63)  (19,115)  (20,56)  (21,95)  (22,146)  (23,72)  (24,96)  (25,4)  (47,51) 
Unique trigger count: 
Variant_0_evicts_0 : 0
Variant_0_evicts_1 : 0
Variant_0_evicts_2 : 0
Variant_0_evicts_3 : 0
Variant_1_evicts_0 : 0
Variant_1_evicts_1 : 0
Variant_1_evicts_2 : 0
Variant_1_evicts_3 : 0
Variant_2_evicts_0 : 0
Variant_2_evicts_1 : 0
Variant_2_evicts_2 : 0
Variant_2_evicts_3 : 0
Variant_3_evicts_0 : 0
Variant_3_evicts_1 : 0
Variant_3_evicts_2 : 0
Variant_3_evicts_3 : 0
BTB PER SET UNIQUE ADDR: 22 18 16 24 18 27 20 13 17 22 27 14 19 16 12 25 19 24 18 17 26 17 17 29 18 17 20 21 13 24 23 17 14 21 23 23 24 16 18 25 34 20 15 21 15 26 21 16 17 15 17 26 14 21 20 18 18 23 20 17 21 18 18 25 17 20 25 16 21 20 17 24 23 18 17 14 16 19 15 16 27 16 16 19 17 23 22 17 18 28 29 16 23 17 12 27 22 16 16 20 15 26 20 18 15 23 26 17 31 16 17 28 18 22 25 15 24 17 17 28 20 16 14 15 19 28 23 15 16 15 23 16 23 18 12 22 17 20 17 27 19 22 28 17 26 17 13 33 17 26 22 16 12 22 27 16 32 16 13 22 24 19 18 20 20 21 22 20 15 19 26 18 24 15 19 25 15 26 17 14 21 17 17 19 24 15 17 18 18 24 18 15 19 17 15 26 12 17 18 16 17 27 26 17 23 13 21 24 17 21 25 15 21 17 20 26 18 17 18 19 17 17 24 14 16 26 22 14 23 14 15 19 24 18 19 21 12 23 19 14 23 18 16 20 15 16 25 23 13 23 23 16 24 20 18 21 15 27 25 15 21 18 24 22 19 18 20 19 20 22 23 20 25 17 17 27 15 23 27 14 17 27 22 16 28 17 15 28 20 15 17 21 18 20 22 19 13 22 26 23 32 16 18 24 14 16 21 17 18 15 17 19 16 13 19 25 14 25 26 17 24 16 17 17 15 24 22 22 18 22 17 13 24 18 15 24 14 28 22 13 24 18 19 22 23 21 17 27 17 29 24 19 17 26 21 15 21 17 18 26 17 16 16 27 17 24 29 14 18 14 14 17 17 27 24 18 16 22 17 16 25 19 14 19 25 23 17 18 13 23 26 13 15 18 21 18 29 15 17 21 22 30 22 19 19 19 19 30 23 16 22 29 20 21 26 15 16 27 26 15 20 16 16 23 24 17 20 26 18 22 22 16 23 20 19 28 14 21 23 19 19 19 23 17 21 17 17 27 16 21 23 14 22 17 20 28 26 18 15 21 18 20 20 15 24 13 14 27 13 25 21 18 16 20 25 17 22 16 15 25 20 18 19 29 14 27 21 16 18 26 20 22 19 16 17 20 15 22 24 16 20 19 15 19 19 15 13 24 16 21 21 13 
BTB PER SET COUNT: 127 20 16 2315 20 900 1561 13 31 23 188 14 587 609 1393 1638 25 32 22 396 10452 21 19 32 20 19 616 509 13 133 27 1609 498 21 30 26 29 16 19 92 45 20 15 22 16 28 21 18 1490 16 24 274 14 529 20 18 503 26 22 19 23 21 18 2075 18 167 30 17 22 1280 171 25 26 126 18 14 18 21 1907 16 310 19 16 1278 495 25 26 20 21 35 30 16 667 17 15 698 1295 16 18 146 16 32 738 2785 112 656 37 18 432 18 503 41 19 26 319 15 29 518 17 36 167 17 15 10675 20 838 33 15 18 16 26 17 67 18 36 23 504 20 20 31 22 1498 39 502 27 9293 339 47 18 426 23 803 496 23 183 17 1463 20 213 991 1012 398 19 8781 1475 24 2213 347 15 20 28 2373 24 2202 20 231 19 176 880 59 181 17 32 19 529 17 20 424 1105 672 20 691 19 208 20 118 12 985 20 16 19 30 32 19 35 13 23 43 29 221 27 16 22 985 31 26 19 1807 40 297 18 18 25 20 18 32 390 998 936 15 1532 1005 26 25 20 949 13 25 1491 891 670 2456 37 719 17 18 27 26 1949 1038 26 422 29 23 340 25 17 37 26 15 26 19 24 26 21 22 68 21 308 653 1064 24 1388 18 22 35 15 292 29 14 17 440 22 16 29 18 15 255 29 23 17 497 18 27 902 19 15 22 27 2088 33 16 19 26 14 22 21 20 19 22 4056 1727 21 13 1852 29 15 665 28 19 26 21 382 144 17 369 28 531 19 24 921 14 1396 23 15 26 14 123 25 13 26 20 74 25 24 1374 17 91 17 35 94 20 412 29 27 16 28 18 18 125 17 17 18 180 245 28 32 15 22 2837 14 692 935 166 26 18 20 27 23 308 530 20 43 20 1772 145 21 22 17 306 317 2915 16 21 25 19 165 502 381 25 24 96 27 19 20 128 19 429 24 16 27 1452 22 21 1283 15 17 514 31 1990 625 18 291 27 28 20 269 164 18 24 6523 503 23 1259 1476 30 15 215 26 20 2962 19 23 3150 22 17 17 461 18 35 169 14 25 17 22 516 31 25 15 23 18 599 21 15 2598 14 14 30 13 34 781 18 25 130 27 1973 2169 17 20 26 419 19 19 33 14 34 27 755 19 746 23 23 20 18 18 21 15 25 26 16 23 19 227 90 21 87 14 28 16 1492 29 13 
To predecode: 0
Predecoding something: 0
Predecode request dropped: 0
sizeofblock_0 0
sizeofblock_1 42198
sizeofblock_2 93630
sizeofblock_3 0
sizeofblock_4 0
sizeofblock_5 0
sizeofblock_6 0
sizeofblock_7 0
sizeofblock_8 0
Variant_0 Correct: 1616839 Incorrect: 0 Accuracy: 1
Variant_1 Correct: 5743254 Incorrect: 0 Accuracy: 1
Variant_2 Correct: 0 Incorrect: 0 Accuracy: -nan
Variant_3 Correct: 0 Incorrect: 0 Accuracy: -nan
