
*** ChampSim Multicore Out-of-Order Simulator ***

Warmup Instructions: 50000000
Simulation Instructions: 50000000
Number of CPUs: 1
LLC sets: 2048
LLC ways: 16
Off-chip DRAM Size: 4096 MB Channels: 1 Width: 64-bit Data Rate: 6400 MT/s
CPU 0 runs ./micro_traces/srv423.trace.gz
.gz
ITLB has LRU replacement policy
DTLB has LRU replacement policy
STLB has LRU replacement policy
FDIP Prefetcher at L1I
L1I has LRU replacement policy
L1D has LRU replacement policy
Initialize SRRIP state for L2C
Initialize DRRIP state for LLC
Heartbeat_Variant_0 : 1394 0.170166 per_variant_size: 0 1394 0 0 0 0 0 0 0 
Heartbeat_Variant_1 : 1446 0.176514 per_variant_size: 0 961 485 0 0 0 0 0 0 
Heartbeat_Variant_2 : 1728 0.210938 per_variant_size: 0 995 451 185 97 0 0 0 0 
Heartbeat_Variant_3 : 0 0 per_variant_size: 0 0 0 0 0 0 0 0 0 
Heartbeat_Variant_0_evicts 0 : 5600 1 : 2 2 : 2 3 : 0 
Heartbeat_Variant_1_evicts 0 : 2 1 : 0 2 : 197 3 : 0 
Heartbeat_Variant_2_evicts 0 : 2 1 : 197 2 : 0 3 : 0 
Heartbeat_Variant_3_evicts 0 : 0 1 : 0 2 : 0 3 : 0 
Heartbeat CPU 0 instructions: 10000002 cycles: 2797437 heartbeat IPC: 3.5747 cumulative IPC: 3.5747 (Simulation time: 0 hr 1 min 37 sec) 
Heartbeat_Variant_0 : 1394 0.170166 per_variant_size: 0 1394 0 0 0 0 0 0 0 
Heartbeat_Variant_1 : 1452 0.177246 per_variant_size: 0 961 491 0 0 0 0 0 0 
Heartbeat_Variant_2 : 1731 0.211304 per_variant_size: 0 994 453 190 94 0 0 0 0 
Heartbeat_Variant_3 : 0 0 per_variant_size: 0 0 0 0 0 0 0 0 0 
Heartbeat_Variant_0_evicts 0 : 5607 1 : 0 2 : 0 3 : 0 
Heartbeat_Variant_1_evicts 0 : 0 1 : 0 2 : 195 3 : 0 
Heartbeat_Variant_2_evicts 0 : 0 1 : 196 2 : 0 3 : 0 
Heartbeat_Variant_3_evicts 0 : 0 1 : 0 2 : 0 3 : 0 
Heartbeat CPU 0 instructions: 20000001 cycles: 5594066 heartbeat IPC: 3.57573 cumulative IPC: 3.57522 (Simulation time: 0 hr 3 min 17 sec) 
Heartbeat_Variant_0 : 1440 0.175781 per_variant_size: 0 1440 0 0 0 0 0 0 0 
Heartbeat_Variant_1 : 1505 0.183716 per_variant_size: 0 982 523 0 0 0 0 0 0 
Heartbeat_Variant_2 : 1771 0.216187 per_variant_size: 0 994 467 207 103 0 0 0 0 
Heartbeat_Variant_3 : 0 0 per_variant_size: 0 0 0 0 0 0 0 0 0 
Heartbeat_Variant_0_evicts 0 : 5595 1 : 3 2 : 0 3 : 0 
Heartbeat_Variant_1_evicts 0 : 1 1 : 0 2 : 197 3 : 0 
Heartbeat_Variant_2_evicts 0 : 0 1 : 198 2 : 0 3 : 0 
Heartbeat_Variant_3_evicts 0 : 0 1 : 0 2 : 0 3 : 0 
Heartbeat CPU 0 instructions: 30000000 cycles: 8391230 heartbeat IPC: 3.57505 cumulative IPC: 3.57516 (Simulation time: 0 hr 4 min 51 sec) 
Heartbeat_Variant_0 : 1440 0.175781 per_variant_size: 0 1440 0 0 0 0 0 0 0 
Heartbeat_Variant_1 : 1506 0.183838 per_variant_size: 0 983 523 0 0 0 0 0 0 
Heartbeat_Variant_2 : 1772 0.216309 per_variant_size: 0 995 468 207 102 0 0 0 0 
Heartbeat_Variant_3 : 0 0 per_variant_size: 0 0 0 0 0 0 0 0 0 
Heartbeat_Variant_0_evicts 0 : 5702 1 : 0 2 : 0 3 : 0 
Heartbeat_Variant_1_evicts 0 : 0 1 : 0 2 : 199 3 : 0 
Heartbeat_Variant_2_evicts 0 : 1 1 : 199 2 : 0 3 : 0 
Heartbeat_Variant_3_evicts 0 : 0 1 : 0 2 : 0 3 : 0 
Heartbeat CPU 0 instructions: 40000001 cycles: 11189414 heartbeat IPC: 3.57375 cumulative IPC: 3.57481 (Simulation time: 0 hr 6 min 28 sec) 
Heartbeat_Variant_0 : 1440 0.175781 per_variant_size: 0 1440 0 0 0 0 0 0 0 
Heartbeat_Variant_1 : 1506 0.183838 per_variant_size: 0 982 524 0 0 0 0 0 0 
Heartbeat_Variant_2 : 1772 0.216309 per_variant_size: 0 994 468 207 103 0 0 0 0 
Heartbeat_Variant_3 : 0 0 per_variant_size: 0 0 0 0 0 0 0 0 0 
Heartbeat_Variant_0_evicts 0 : 5610 1 : 0 2 : 0 3 : 0 
Heartbeat_Variant_1_evicts 0 : 0 1 : 0 2 : 196 3 : 0 
Heartbeat_Variant_2_evicts 0 : 0 1 : 196 2 : 0 3 : 0 
Heartbeat_Variant_3_evicts 0 : 0 1 : 0 2 : 0 3 : 0 
Heartbeat CPU 0 instructions: 50000002 cycles: 13985327 heartbeat IPC: 3.57665 cumulative IPC: 3.57518 (Simulation time: 0 hr 8 min 0 sec) 

Warmup complete CPU 0 instructions: 50000002 cycles: 13985327 (Simulation time: 0 hr 8 min 0 sec) 

Cycle: 20000000 FTQ IN: 58365378 FTQ occupancy: 19.9089 DECODE IN: 58365301 DECODE occupancy: 52.1587 ROB IN: 58365241 ROB occupancy: 316.255 ROB OUT: 58365120
Heartbeat_Variant_0 : 1472 0.179688 per_variant_size: 0 1472 0 0 0 0 0 0 0 
Heartbeat_Variant_1 : 1531 0.18689 per_variant_size: 0 987 544 0 0 0 0 0 0 
Heartbeat_Variant_2 : 1798 0.219482 per_variant_size: 0 985 487 222 104 0 0 0 0 
Heartbeat_Variant_3 : 0 0 per_variant_size: 0 0 0 0 0 0 0 0 0 
Heartbeat_Variant_0_evicts 0 : 5658 1 : 2 2 : 1 3 : 0 
Heartbeat_Variant_1_evicts 0 : 2 1 : 0 2 : 196 3 : 0 
Heartbeat_Variant_2_evicts 0 : 1 1 : 197 2 : 0 3 : 0 
Heartbeat_Variant_3_evicts 0 : 0 1 : 0 2 : 0 3 : 0 
Heartbeat CPU 0 instructions: 60000002 cycles: 21287100 heartbeat IPC: 1.36953 cumulative IPC: 1.36953 (Simulation time: 0 hr 9 min 49 sec) 
Heartbeat_Variant_0 : 1473 0.17981 per_variant_size: 0 1473 0 0 0 0 0 0 0 
Heartbeat_Variant_1 : 1539 0.187866 per_variant_size: 0 995 544 0 0 0 0 0 0 
Heartbeat_Variant_2 : 1803 0.220093 per_variant_size: 0 989 485 226 103 0 0 0 0 
Heartbeat_Variant_3 : 0 0 per_variant_size: 0 0 0 0 0 0 0 0 0 
Heartbeat_Variant_0_evicts 0 : 5618 1 : 0 2 : 0 3 : 0 
Heartbeat_Variant_1_evicts 0 : 0 1 : 0 2 : 197 3 : 0 
Heartbeat_Variant_2_evicts 0 : 0 1 : 196 2 : 0 3 : 0 
Heartbeat_Variant_3_evicts 0 : 0 1 : 0 2 : 0 3 : 0 
Heartbeat CPU 0 instructions: 70000003 cycles: 28479624 heartbeat IPC: 1.39033 cumulative IPC: 1.37985 (Simulation time: 0 hr 11 min 40 sec) 
Cycle: 30000000 FTQ IN: 13758059 FTQ occupancy: 12.9279 DECODE IN: 13758136 DECODE occupancy: 33.9516 ROB IN: 13758159 ROB occupancy: 239.689 ROB OUT: 13757928
Heartbeat_Variant_0 : 1483 0.18103 per_variant_size: 0 1483 0 0 0 0 0 0 0 
Heartbeat_Variant_1 : 1545 0.188599 per_variant_size: 0 993 552 0 0 0 0 0 0 
Heartbeat_Variant_2 : 1808 0.220703 per_variant_size: 0 993 484 224 107 0 0 0 0 
Heartbeat_Variant_3 : 0 0 per_variant_size: 0 0 0 0 0 0 0 0 0 
Heartbeat_Variant_0_evicts 0 : 5636 1 : 1 2 : 0 3 : 0 
Heartbeat_Variant_1_evicts 0 : 0 1 : 0 2 : 196 3 : 0 
Heartbeat_Variant_2_evicts 0 : 0 1 : 196 2 : 0 3 : 0 
Heartbeat_Variant_3_evicts 0 : 0 1 : 0 2 : 0 3 : 0 
Heartbeat CPU 0 instructions: 80000003 cycles: 35738952 heartbeat IPC: 1.37754 cumulative IPC: 1.37908 (Simulation time: 0 hr 13 min 31 sec) 
Cycle: 40000000 FTQ IN: 13843200 FTQ occupancy: 13.0332 DECODE IN: 13843200 DECODE occupancy: 34.2203 ROB IN: 13843237 ROB occupancy: 241.101 ROB OUT: 13843506
Heartbeat_Variant_0 : 1483 0.18103 per_variant_size: 0 1483 0 0 0 0 0 0 0 
Heartbeat_Variant_1 : 1545 0.188599 per_variant_size: 0 993 552 0 0 0 0 0 0 
Heartbeat_Variant_2 : 1808 0.220703 per_variant_size: 0 992 483 225 108 0 0 0 0 
Heartbeat_Variant_3 : 0 0 per_variant_size: 0 0 0 0 0 0 0 0 0 
Heartbeat_Variant_0_evicts 0 : 5631 1 : 0 2 : 0 3 : 0 
Heartbeat_Variant_1_evicts 0 : 0 1 : 0 2 : 197 3 : 0 
Heartbeat_Variant_2_evicts 0 : 0 1 : 197 2 : 0 3 : 0 
Heartbeat_Variant_3_evicts 0 : 0 1 : 0 2 : 0 3 : 0 
Heartbeat CPU 0 instructions: 90000000 cycles: 42881221 heartbeat IPC: 1.40011 cumulative IPC: 1.38428 (Simulation time: 0 hr 15 min 20 sec) 
Cycle: 50000000 FTQ IN: 13879614 FTQ occupancy: 13.0333 DECODE IN: 13879477 DECODE occupancy: 34.3415 ROB IN: 13879417 ROB occupancy: 241.626 ROB OUT: 13879211
Heartbeat_Variant_0 : 1483 0.18103 per_variant_size: 0 1483 0 0 0 0 0 0 0 
Heartbeat_Variant_1 : 1545 0.188599 per_variant_size: 0 994 551 0 0 0 0 0 0 
Heartbeat_Variant_2 : 1808 0.220703 per_variant_size: 0 993 483 225 107 0 0 0 0 
Heartbeat_Variant_3 : 0 0 per_variant_size: 0 0 0 0 0 0 0 0 0 
Heartbeat_Variant_0_evicts 0 : 5613 1 : 0 2 : 0 3 : 0 
Heartbeat_Variant_1_evicts 0 : 0 1 : 0 2 : 197 3 : 0 
Heartbeat_Variant_2_evicts 0 : 0 1 : 197 2 : 0 3 : 0 
Heartbeat_Variant_3_evicts 0 : 0 1 : 0 2 : 0 3 : 0 
Heartbeat CPU 0 instructions: 100000001 cycles: 50114853 heartbeat IPC: 1.38243 cumulative IPC: 1.38391 (Simulation time: 0 hr 17 min 6 sec) 
Finished CPU 0 instructions: 50000003 cycles: 36129527 cumulative IPC: 1.38391 (Simulation time: 0 hr 17 min 6 sec) 

ChampSim completed all CPUs

Region of Interest Statistics

CPU 0 cumulative IPC: 1.38391 instructions: 50000003 cycles: 36129527
 Fetch stage stalled: 53.4719  Sim cycles: 36129527 fetch stall cycle: 19319131
 Empty decode stage: 34.5026  Sim cycles: 36129527 fetch stall cycle: 12465628
ITLB TOTAL     ACCESS:    5854990  HIT:    5362812  MISS:     492178  HIT %:    91.5939  MISS %:    8.40613   MPKI: 9.84356
ITLB LOAD TRANSLATION INSTRUCTION	ACCESS:    5732082  HIT:    5239904  MISS:     492178  HIT %:    91.4136  MISS %:    8.58637  MPKI: 9.84356
ITLB TRANSLATION FROM L1D PREFETCHER INSTRUCTION	ACCESS:     122908  HIT:     122908  MISS:          0  HIT %:        100  MISS %:          0  MPKI: 0

ITLB AVERAGE MISS LATENCY: 9.07906 cycles
ITLB RQ	ACCESS:    7995386	FORWARD:          0	MERGED:    1696750	TO_CACHE:    6298636

DTLB TOTAL     ACCESS:    8969448  HIT:    8497643  MISS:     471805  HIT %:    94.7399  MISS %:    5.26013   MPKI: 9.4361
DTLB LOAD TRANSLATION DATA	ACCESS:    8969448  HIT:    8497643  MISS:     471805  HIT %:    94.7399  MISS %:    5.26013  MPKI: 9.4361

DTLB AVERAGE MISS LATENCY: 9.34439 cycles
DTLB RQ	ACCESS:   13341560	FORWARD:          0	MERGED:    4335377	TO_CACHE:    9006183

STLB TOTAL     ACCESS:    1213614  HIT:    1211251  MISS:       2363  HIT %:    99.8053  MISS %:   0.194708   MPKI: 0.04726
STLB LOAD TRANSLATION INSTRUCTION	ACCESS:     492178  HIT:     491719  MISS:        459  HIT %:    99.9067  MISS %:  0.0932589  MPKI: 0.00918
STLB LOAD TRANSLATION DATA	ACCESS:     471805  HIT:     469932  MISS:       1873  HIT %:     99.603  MISS %:   0.396986  MPKI: 0.03746
STLB TRANSLATION FROM L1D PREFETCHER DATA	ACCESS:     249631  HIT:     249600  MISS:         31  HIT %:    99.9876  MISS %:  0.0124183  MPKI: 0.00062

STLB AVERAGE MISS LATENCY: 71.8764 cycles
STLB RQ	ACCESS:    1333153	FORWARD:          0	MERGED:     119507	TO_CACHE:    1213646

STLB Hit, L1D data hit: 0
STLB Hit, L2C data hit: 0
STLB Hit, LLC data hit: 0
STLB Hit, LLC data miss: 0
STLB STLB hints to L2: 0
L1D TOTAL     ACCESS:   13092346  HIT:   11982599  MISS:    1109747  HIT %:    91.5237  MISS %:     8.4763   MPKI: 22.1949
L1D LOAD DATA	ACCESS:    6556191  HIT:    5826871  MISS:     729320  HIT %:    88.8759  MISS %:    11.1241  MPKI: 14.5864
L1D RFO DATA	ACCESS:    6205718  HIT:    5919047  MISS:     286671  HIT %:    95.3805  MISS %:    4.61947  MPKI: 5.73342
L1D PREFETCH DATA	ACCESS:     330437  HIT:     236681  MISS:      93756  HIT %:    71.6267  MISS %:    28.3733  MPKI: 1.87512

L1D PREFETCH  REQUESTED:     738695  ISSUED:     738695  USEFUL:      33884  USELESS:      67809
L1D USEFUL LOAD PREFETCHES:      33884 PREFETCH ISSUED TO LOWER LEVEL:     101703  ACCURACY: 33.3166
 TIMELY PREFETCHES:      33884 LATE PREFETCHES: 7913 DROPPED PREFETCHES: 4
L1D AVERAGE MISS LATENCY: 233970 cycles
L1D RQ	ACCESS:   10701405	FORWARD:          0	MERGED:    3946910	TO_CACHE:    6590605
L1D WQ	ACCESS:    6947176	FORWARD:     164245	MERGED:     196221	TO_CACHE:    6750955
L1D PQ	ACCESS:     369525	FORWARD:          0	MERGED:          0	TO_CACHE:     369170

L1D UNIQUE REGIONS ACCESSED: 0
L1D REGIONS CONFLICTS: 0
L1D Cross Page Prefetch Requests: 6198
L1D Same Page Prefetch Requests: 750894
L1D ROI Sum of L1D PQ occupancy: 4704650
L1D PREFETCHES PUSHED FROM L2C: 0
L1I TOTAL     ACCESS:    7174000  HIT:    4419377  MISS:    2754623  HIT %:    61.6027  MISS %:    38.3973   MPKI: 55.0925
L1I LOAD INSTRUCTION	ACCESS:    6504766  HIT:    3750143  MISS:    2754623  HIT %:    57.6522  MISS %:    42.3478  MPKI: 55.0925
L1I PREFETCH INSTRUCTION	ACCESS:     669234  HIT:     669234  MISS:          0  HIT %:        100  MISS %:          0  MPKI: 0

L1I PREFETCH  REQUESTED:    1615393  ISSUED:    1615393  USEFUL:          0  USELESS:          0
L1I USEFUL LOAD PREFETCHES:          0 PREFETCH ISSUED TO LOWER LEVEL:          0  ACCURACY: -nan
 TIMELY PREFETCHES:          0 LATE PREFETCHES: 0 DROPPED PREFETCHES: 0
L1I AVERAGE MISS LATENCY: 16.711 cycles
L1I RQ	ACCESS:    9503475	FORWARD:          0	MERGED:    2685983	TO_CACHE:    6817492
L1I PQ	ACCESS:    1615393	FORWARD:          0	MERGED:     437499	TO_CACHE:    1177894

L1BTB TOTAL     ACCESS:    5668024  HIT:    2048315  MISS:    3619709  HIT %:    36.1381  MISS %:    63.8619   MPKI: 72.3942
L1BTB BRANCH_DIRECT_JUMP	ACCESS:     549198  HIT:     145738  MISS:     403460	AVERAGE STALL: 49.9223
L1BTB BRANCH_INDIRECT	ACCESS:     183381  HIT:      66329  MISS:     117052	AVERAGE STALL: 103.999
L1BTB BRANCH_CONDITIONAL	ACCESS:    2710998  HIT:    1420727  MISS:    1290271	AVERAGE STALL: 58.5155
L1BTB BRANCH_DIRECT_CALL	ACCESS:     941064  HIT:     105076  MISS:     835988	AVERAGE STALL: 77.7405
L1BTB BRANCH_INDIRECT_CALL	ACCESS:     171155  HIT:      21038  MISS:     150117	AVERAGE STALL: 133.895
L1BTB BRANCH_RETURN	ACCESS:    1112228  HIT:     289407  MISS:     822821	AVERAGE STALL: 50.8536
L1BTB BRANCH_OTHER ACCESS:          0  HIT:          0  MISS:          0	AVERAGE STALL: -nan
L1BTB TOTAL ROB OCCUPANCY AT BTB MISS: 2.30458

L2BTB TOTAL     ACCESS:    3594217  HIT:    3534516  MISS:      59701  HIT %:     98.339  MISS %:    1.66103   MPKI: 1.19402
L2BTB BRANCH_DIRECT_JUMP	ACCESS:     399236  HIT:     395819  MISS:       3417	AVERAGE STALL: 49.9223
L2BTB BRANCH_INDIRECT	ACCESS:     106807  HIT:     104203  MISS:       2604	AVERAGE STALL: 103.999
L2BTB BRANCH_CONDITIONAL	ACCESS:    1290271  HIT:    1287972  MISS:       2299	AVERAGE STALL: 58.5155
L2BTB BRANCH_DIRECT_CALL	ACCESS:     835988  HIT:     835510  MISS:        478	AVERAGE STALL: 77.7405
L2BTB BRANCH_INDIRECT_CALL	ACCESS:     140498  HIT:     130354  MISS:      10144	AVERAGE STALL: 133.895
L2BTB BRANCH_RETURN	ACCESS:     821417  HIT:     780658  MISS:      40759	AVERAGE STALL: 50.8536
L2BTB BRANCH_OTHER ACCESS:          0  HIT:          0  MISS:          0	AVERAGE STALL: -nan
L2BTB TOTAL ROB OCCUPANCY AT BTB MISS: 139.728

L2C TOTAL     ACCESS:    4469790  HIT:    4043400  MISS:     426390  HIT %:    90.4606  MISS %:    9.53937   MPKI: 8.5278
L2C LOAD INSTRUCTION	ACCESS:    2754623  HIT:    2541262  MISS:     213361  HIT %:    92.2544  MISS %:    7.74556  MPKI: 4.26722
L2C LOAD TRANSLATION INSTRUCTION	ACCESS:        502  HIT:        148  MISS:        354  HIT %:    29.4821  MISS %:    70.5179  MPKI: 0.00708
L2C LOAD DATA	ACCESS:     721384  HIT:     648762  MISS:      72622  HIT %:     89.933  MISS %:     10.067  MPKI: 1.45244
L2C RFO DATA	ACCESS:     286594  HIT:     232337  MISS:      54257  HIT %:    81.0683  MISS %:    18.9317  MPKI: 1.08514
L2C PREFETCH DATA	ACCESS:     183675  HIT:     113964  MISS:      69711  HIT %:    62.0465  MISS %:    37.9535  MPKI: 1.39422
L2C WRITEBACK DATA	ACCESS:     521009  HIT:     506373  MISS:      14636  HIT %:    97.1908  MISS %:    2.80916  MPKI: 0.29272
L2C LOAD TRANSLATION DATA	ACCESS:       1955  HIT:        519  MISS:       1436  HIT %:    26.5473  MISS %:    73.4527  MPKI: 0.02872
L2C TRANSLATION FROM L1D PREFETCHER DATA	ACCESS:         48  HIT:         35  MISS:         13  HIT %:    72.9167  MISS %:    27.0833  MPKI: 0.00026

L2C PREFETCH  REQUESTED:      90012  ISSUED:      90012  USEFUL:       8844  USELESS:      61618
L2C USEFUL LOAD PREFETCHES:       8844 PREFETCH ISSUED TO LOWER LEVEL:      70271  ACCURACY: 12.5856
 TIMELY PREFETCHES:       8844 LATE PREFETCHES: 560 DROPPED PREFETCHES: 0
L2C AVERAGE MISS LATENCY: 40.4662 cycles
L2C RQ	ACCESS:    3765172	FORWARD:          0	MERGED:          0	TO_CACHE:    3765107
L2C WQ	ACCESS:     521009	FORWARD:         65	MERGED:          0	TO_CACHE:     521009
L2C PQ	ACCESS:     191715	FORWARD:          0	MERGED:       3604	TO_CACHE:     188111

L2C Dense regions hint from L2: 0
PSCL5 TOTAL     ACCESS:       4742  HIT:       2371  MISS:       2371  HIT %:         50  MISS %:         50   MPKI: 0.04742
PSCL5 LOAD TRANSLATION INSTRUCTION	ACCESS:       4646  HIT:       2323  MISS:       2323  HIT %:         50  MISS %:         50  MPKI: 0.04646
PSCL5 TRANSLATION FROM L1D PREFETCHER INSTRUCTION	ACCESS:         96  HIT:         48  MISS:         48  HIT %:         50  MISS %:         50  MPKI: 0.00096


PSCL4 TOTAL     ACCESS:       4291  HIT:       2144  MISS:       2147  HIT %:     49.965  MISS %:     50.035   MPKI: 0.04294
PSCL4 LOAD TRANSLATION INSTRUCTION	ACCESS:       2310  HIT:       2096  MISS:        214  HIT %:    90.7359  MISS %:    9.26407  MPKI: 0.00428
PSCL4 TRANSLATION FROM L1D PREFETCHER INSTRUCTION	ACCESS:         48  HIT:         48  MISS:          0  HIT %:        100  MISS %:          0  MPKI: 0
PSCL4 LOAD TRANSLATION DATA	ACCESS:       1885  HIT:          0  MISS:       1885  HIT %:          0  MISS %:        100  MPKI: 0.0377
PSCL4 TRANSLATION FROM L1D PREFETCHER DATA	ACCESS:         48  HIT:          0  MISS:         48  HIT %:          0  MISS %:        100  MPKI: 0.00096


PSCL3 TOTAL     ACCESS:       4458  HIT:       2223  MISS:       2235  HIT %:    49.8654  MISS %:    50.1346   MPKI: 0.0447
PSCL3 LOAD TRANSLATION INSTRUCTION	ACCESS:       3193  HIT:       2175  MISS:       1018  HIT %:    68.1178  MISS %:    31.8822  MPKI: 0.02036
PSCL3 TRANSLATION FROM L1D PREFETCHER INSTRUCTION	ACCESS:         69  HIT:         48  MISS:         21  HIT %:    69.5652  MISS %:    30.4348  MPKI: 0.00042
PSCL3 LOAD TRANSLATION DATA	ACCESS:       1169  HIT:          0  MISS:       1169  HIT %:          0  MISS %:        100  MPKI: 0.02338
PSCL3 TRANSLATION FROM L1D PREFETCHER DATA	ACCESS:         27  HIT:          0  MISS:         27  HIT %:          0  MISS %:        100  MPKI: 0.00054


PSCL2 TOTAL     ACCESS:       4620  HIT:       2249  MISS:       2371  HIT %:    48.6797  MISS %:    51.3203   MPKI: 0.04742
PSCL2 LOAD TRANSLATION INSTRUCTION	ACCESS:       2660  HIT:       2201  MISS:        459  HIT %:    82.7444  MISS %:    17.2556  MPKI: 0.00918
PSCL2 TRANSLATION FROM L1D PREFETCHER INSTRUCTION	ACCESS:         48  HIT:         48  MISS:          0  HIT %:        100  MISS %:          0  MPKI: 0
PSCL2 LOAD TRANSLATION DATA	ACCESS:       1864  HIT:          0  MISS:       1864  HIT %:          0  MISS %:        100  MPKI: 0.03728
PSCL2 TRANSLATION FROM L1D PREFETCHER DATA	ACCESS:         48  HIT:          0  MISS:         48  HIT %:          0  MISS %:        100  MPKI: 0.00096


LLC TOTAL     ACCESS:     488144  HIT:     458046  MISS:      30098  HIT %:    93.8342  MISS %:     6.1658   MPKI: 0.60196
LLC LOAD INSTRUCTION	ACCESS:     213361  HIT:     212329  MISS:       1032  HIT %:    99.5163  MISS %:   0.483687  MPKI: 0.02064
LLC LOAD TRANSLATION INSTRUCTION	ACCESS:        354  HIT:        321  MISS:         33  HIT %:     90.678  MISS %:    9.32203  MPKI: 0.00066
LLC LOAD DATA	ACCESS:      72083  HIT:      68674  MISS:       3409  HIT %:    95.2707  MISS %:    4.72927  MPKI: 0.06818
LLC RFO DATA	ACCESS:      54233  HIT:      39054  MISS:      15179  HIT %:    72.0115  MISS %:    27.9885  MPKI: 0.30358
LLC PREFETCH DATA	ACCESS:      70271  HIT:      60227  MISS:      10044  HIT %:    85.7068  MISS %:    14.2932  MPKI: 0.20088
LLC WRITEBACK DATA	ACCESS:      76393  HIT:      76065  MISS:        328  HIT %:    99.5706  MISS %:   0.429359  MPKI: 0.00656
LLC LOAD TRANSLATION DATA	ACCESS:       1436  HIT:       1363  MISS:         73  HIT %:    94.9164  MISS %:    5.08357  MPKI: 0.00146
LLC TRANSLATION FROM L1D PREFETCHER DATA	ACCESS:         13  HIT:         13  MISS:          0  HIT %:        100  MISS %:          0  MPKI: 0

LLC AVERAGE MISS LATENCY: 161.556 cycles
LLC RQ	ACCESS:     341483	FORWARD:          0	MERGED:          0	TO_CACHE:     341480
LLC WQ	ACCESS:      76393	FORWARD:          3	MERGED:          0	TO_CACHE:      76393
LLC PQ	ACCESS:      70271	FORWARD:          0	MERGED:          0	TO_CACHE:      70271

LLC Dense regions hint to LLC: 0

RAW hits: 1942249
Loads Generated: 12643654
Loads sent to L1D: 10701405
Stores Generated: 6947174
Stores sent to L1D: 6947176
Major fault: 0 Minor fault: 2653
Allocated PAGES: 2653

stream: 
stream:times selected: 1195570
stream:pref_filled: 120673
stream:pref_useful: 23305
stream:pref_late: 6346
stream:misses: 6900
stream:misses_by_poll: 0

CS: 
CS:times selected: 180987
CS:pref_filled: 59838
CS:pref_useful: 37200
CS:pref_late: 6924
CS:misses: 16551
CS:misses_by_poll: 2

CPLX: 
CPLX:times selected: 1013418
CPLX:pref_filled: 19858
CPLX:pref_useful: 4832
CPLX:pref_late: 3053
CPLX:misses: 90426
CPLX:misses_by_poll: 2

NL_L1: 
NL:times selected: 20629
NL:pref_filled: 679
NL:pref_useful: 264
NL:pref_late: 216
NL:misses: 1027
NL:misses_by_poll: 0

total selections: 2410604
total_filled: 93756
total_useful: 33884
total_late: 17892
total_polluted: 4
total_misses_after_warmup: 763735
conflicts: 5513283

test: 116452

DRAM Statistics
 CHANNEL 0
 RQ ROW_BUFFER_HIT:      11091  ROW_BUFFER_MISS:      18672
 DBUS_CONGESTED:         19
 WQ ROW_BUFFER_HIT:       1536  ROW_BUFFER_MISS:      13309  FULL:          0

 AVG_CONGESTED_CYCLE: 6

CPU 0 Branch Prediction Accuracy: 99.8157% MPKI: 0.3369 Average ROB Occupancy at Mispredict: 189.191
Branch types
NOT_BRANCH: 40861454 81.7229%
BRANCH_DIRECT_JUMP: 549198 1.0984%
BRANCH_INDIRECT: 183381 0.366762%
BRANCH_CONDITIONAL: 6181506 12.363%
BRANCH_DIRECT_CALL: 941064 1.88213%
BRANCH_INDIRECT_CALL: 171155 0.34231%
BRANCH_RETURN: 1112228 2.22446%
BRANCH_OTHER: 0 0%

DRAM PAGES: 1048576
Allocated PAGES: 2653
Average_ROB_Occupancy: 241.999
Average_Decode_Occupancy: 34.0869
Average_FTQ_Occupancy: 12.9426
Indirect max targets: 14 Average targets: 1.15738
Branch_type:  BRANCH_DIRECT_JUMP:  Count Percentage: 3.34439 6.98323 3.78774 7.91682 2.23539 2.84804 1.35517 71.5292 
Branch_type:  BRANCH_INDIRECT:  Count Percentage: 11.7335 3.45989 2.61841 9.68719 3.33676 2.8012 0.933551 65.4295 
Branch_type:  BRANCH_CONDITIONAL:  Count Percentage: 21.8829 2.46926 2.27677 7.87813 1.5427 2.99531 0.710985 60.2439 
Branch_type:  BRANCH_DIRECT_CALL:  Count Percentage: 0.861397 1.24924 0.762811 4.44555 1.96473 2.12837 0.863579 87.7243 
Branch_type:  BRANCH_INDIRECT_CALL:  Count Percentage: 9.56193 0 2.99422 0.0055671 0.00058601 2.19344 1.00413 84.2401 
Branch_type:  BRANCH_RETURN:  Count Percentage: 4.69909 1.3955 1.46746 4.45097 3.37438 4.65627 0.812174 79.1442 
Branch_type:  BRANCH_DIRECT_JUMP:  Total Count: 36722 76677 41590 86928 24545 31272 14880 785403 
Branch_type:  BRANCH_INDIRECT:  Total Count: 43073 12701 9612 35561 12249 10283 3427 240187 
Branch_type:  BRANCH_CONDITIONAL:  Total Count: 2704214 305142 281355 973552 190641 370150 87861 7444734 
Branch_type:  BRANCH_DIRECT_CALL:  Total Count: 16182 23468 14330 83513 36909 39983 16223 1647969 
Branch_type:  BRANCH_INDIRECT_CALL:  Total Count: 32634 0 10219 19 2 7486 3427 287504 
Branch_type:  BRANCH_RETURN:  Total Count: 104353 30990 32588 98843 74935 103402 18036 1757559 
Number of unique branch instructions: 10380
Upper 32 bits: 
aaaa
ffff
ffff0000
Unique upper 32 bits: 3
Unique upper 36 bits: 3
Unique upper 40 bits: 5
Unique upper 44 bits: 32
Unique upper 48 bits: 158
Variant_0 : 1483 0.18103
Variant_1 : 1545 0.188599
Variant_2 : 1808 0.220703
Variant_3 : 0 0
Offset_3 4289
Offset_4 268
Offset_5 474
Offset_6 521
Offset_7 613
Offset_8 534
Offset_9 490
Offset_10 398
Offset_11 324
Offset_12 291
Offset_13 223
Offset_14 241
Offset_15 190
Offset_16 226
Offset_17 170
Offset_18 122
Offset_19 252
Offset_20 141
Offset_21 261
Offset_22 404
Offset_23 241
Offset_24 355
Offset_25 92
Offset_47 88
Offset_64 1
decode_dispatch_called: 25576817 70.792
Dispatch_width: 0 13648352 53.3622 37.7762
Dispatch_width: 1 982546 3.84155 2.71951
Dispatch_width: 2 846728 3.31053 2.34359
Dispatch_width: 3 511507 1.99989 1.41576
Dispatch_width: 4 5790010 22.6377 16.0257
Dispatch_width: 5 156604 0.612289 0.433452
Dispatch_width: 6 3641070 14.2358 10.0778
Empty_decode_cycles: 10552710 29.208
ROB_full_cycles: 9154555 25.3382
Starvation_cycles_per_kilo_instr: 233.339
Starvation_cycles_per_kilo_instr_3: 173.873
Starvation_cycles_per_kilo_instr_0: 150.465
Branch_type_1  (3,1)  (4,10)  (5,39)  (6,70)  (7,121)  (8,134)  (9,129)  (10,102)  (11,69)  (12,43)  (13,8)  (14,2)  (15,3)  (16,4)  (18,1)  (19,4)  (20,2)  (21,1)  (22,3)  (23,2)  (24,10)  (25,12)  (64,1) 
Branch_type_2  (3,1)  (4,1)  (5,1)  (8,3)  (9,3)  (12,1)  (13,1)  (14,1)  (16,3)  (17,2)  (20,2)  (21,2)  (23,5)  (24,1)  (47,41) 
Branch_type_3  (3,4287)  (4,257)  (5,430)  (6,436)  (7,461)  (8,336)  (9,267)  (10,160)  (11,126)  (12,50)  (13,7) 
Branch_type_4  (6,3)  (7,8)  (8,25)  (9,54)  (10,64)  (11,65)  (12,108)  (13,96)  (14,108)  (15,90)  (16,101)  (17,79)  (18,55)  (19,124)  (20,72)  (21,141)  (22,215)  (23,136)  (24,205)  (25,76) 
Branch_type_5  (8,2)  (9,1)  (10,4)  (11,6)  (12,3)  (13,14)  (14,16)  (15,11)  (16,20)  (17,11)  (18,16)  (19,13)  (20,12)  (21,13)  (22,42)  (23,26)  (24,41) 
Branch_type_6  (5,4)  (6,12)  (7,23)  (8,34)  (9,36)  (10,68)  (11,58)  (12,86)  (13,97)  (14,114)  (15,86)  (16,98)  (17,78)  (18,50)  (19,111)  (20,53)  (21,104)  (22,144)  (23,72)  (24,98)  (25,4)  (47,47) 
Unique trigger count: 
Variant_0_evicts_0 : 0
Variant_0_evicts_1 : 0
Variant_0_evicts_2 : 0
Variant_0_evicts_3 : 0
Variant_1_evicts_0 : 0
Variant_1_evicts_1 : 0
Variant_1_evicts_2 : 0
Variant_1_evicts_3 : 0
Variant_2_evicts_0 : 0
Variant_2_evicts_1 : 0
Variant_2_evicts_2 : 0
Variant_2_evicts_3 : 0
Variant_3_evicts_0 : 0
Variant_3_evicts_1 : 0
Variant_3_evicts_2 : 0
Variant_3_evicts_3 : 0
BTB PER SET UNIQUE ADDR: 1 4 2 7 3 3 5 3 2 4 3 3 2 6 2 5 1 3 4 2 2 4 4 3 3 4 3 2 3 4 3 3 2 3 3 4 3 2 2 3 4 4 5 1 2 3 3 3 3 2 2 3 2 3 3 4 3 2 2 2 4 3 2 3 6 1 5 4 5 3 3 3 5 3 2 5 5 3 6 5 6 5 3 6 3 4 2 3 3 2 2 5 3 4 3 1 4 2 2 4 3 4 4 4 2 6 4 2 3 6 6 3 2 3 0 2 4 5 4 5 3 3 3 3 7 3 2 3 3 1 5 3 4 3 5 3 3 1 3 3 2 3 2 4 4 6 5 3 5 5 3 1 4 6 4 3 3 2 4 4 1 3 4 1 4 2 0 5 4 8 4 4 3 1 3 4 2 6 2 2 3 2 3 5 2 4 2 4 5 3 3 1 2 5 1 2 4 4 4 3 4 2 3 2 0 4 3 2 5 4 3 5 6 2 3 3 3 3 2 5 3 5 3 2 5 2 3 5 4 5 1 4 5 5 3 4 2 4 4 4 3 6 3 4 3 2 3 2 6 4 2 3 3 2 2 4 3 3 4 3 6 1 6 2 4 2 5 2 5 5 2 5 3 3 3 3 5 1 0 5 6 3 1 6 2 2 3 2 4 3 3 3 3 3 2 4 2 2 2 3 5 1 2 4 3 3 3 5 7 3 2 2 4 3 3 4 2 2 3 4 7 4 2 2 6 6 2 4 1 5 3 5 3 3 3 3 2 4 3 3 4 5 3 2 2 4 4 2 1 2 3 6 3 3 4 5 4 2 2 3 4 4 2 4 2 4 2 6 3 3 5 6 1 3 2 4 1 3 1 1 2 5 3 2 4 3 1 5 3 5 4 2 2 4 2 5 5 4 2 2 6 5 3 1 2 3 2 2 8 2 2 4 1 3 6 3 2 4 3 3 2 2 3 6 4 2 4 3 1 4 4 3 6 3 3 0 3 2 2 2 3 1 1 3 3 0 2 4 5 3 2 3 2 3 5 3 3 2 4 1 3 5 3 4 1 3 4 2 3 3 4 5 5 4 7 6 1 2 3 4 3 2 5 2 2 3 4 3 5 4 2 3 4 3 5 4 4 3 2 3 3 3 5 3 5 3 4 1 2 2 2 3 4 3 2 5 6 2 4 3 3 2 5 4 4 3 1 3 3 2 7 3 6 2 4 4 2 3 4 3 4 3 4 6 3 4 3 4 4 4 4 4 3 5 4 4 5 0 4 2 2 4 3 4 4 2 4 3 3 2 1 1 2 3 2 3 4 2 3 2 1 4 3 3 2 1 3 2 5 2 3 3 2 2 2 4 5 4 4 3 4 3 2 1 3 3 3 2 3 3 3 4 4 4 1 4 3 4 3 4 4 1 4 3 2 4 2 3 3 3 2 2 4 4 3 4 5 4 3 4 6 4 2 3 5 3 4 3 2 2 2 2 3 2 3 4 3 2 3 2 1 3 2 5 2 1 5 2 4 4 5 2 3 3 3 3 2 3 3 4 3 6 2 3 3 4 3 6 5 2 4 3 4 2 3 3 3 3 3 5 4 2 2 2 4 3 3 3 3 4 4 2 1 4 4 3 4 4 2 1 4 4 2 3 3 2 4 4 2 8 3 3 4 3 4 2 7 4 3 2 4 6 3 4 5 1 7 2 2 4 6 5 3 3 3 5 2 1 2 2 6 3 4 4 4 4 4 5 2 6 3 2 1 3 3 3 4 3 1 2 2 4 2 2 1 4 2 3 6 2 4 4 2 6 3 3 7 1 2 2 4 5 4 3 5 3 3 3 3 3 4 1 0 2 3 4 3 2 2 2 3 2 4 2 4 2 3 2 3 3 2 5 3 3 4 2 5 5 3 2 1 4 2 3 3 3 5 3 2 3 6 3 2 3 3 4 5 5 3 3 2 3 4 5 4 3 5 3 3 3 6 1 3 3 2 4 2 4 1 3 3 5 2 3 1 3 4 2 2 1 6 1 1 2 3 3 1 5 2 2 3 1 3 5 5 1 3 4 5 5 5 3 2 4 2 3 3 3 4 2 4 2 3 5 3 1 6 5 2 1 4 7 4 2 2 5 4 1 2 2 3 4 3 2 3 1 2 2 5 6 4 6 4 3 6 3 5 5 2 3 3 2 4 6 3 1 7 2 2 3 4 1 3 7 2 4 2 2 4 2 3 2 3 5 4 2 4 2 3 3 4 2 2 4 5 2 2 4 2 2 4 4 4 3 4 3 4 4 3 5 3 5 2 4 3 2 4 3 3 4 3 3 3 5 5 3 3 6 4 3 1 4 3 3 4 2 5 5 2 3 3 5 3 6 2 2 4 5 3 4 2 4 4 3 3 5 4 4 2 2 4 6 2 3 1 4 7 5 5 5 2 5 2 5 4 5 2 2 3 4 5 2 3 4 3 3 3 2 2 4 2 6 3 6 4 4 3 3 4 3 6 4 4 10 3 3 2 5 2 1 2 5 2 1 4 3 2 5 5 6 4 5 3 4 3 4 3 5 2 1 6 3 5 3 2 2 3 3 4 3 4 6 2 2 3 4 2 4 3 2 2 5 2 3 1 2 4 4 2 4 4 1 5 4 3 2 3 4 5 5 7 2 4 3 1 5 3 4 2 4 1 2 6 3 2 3 5 2 2 6 3 3 2 1 2 3 3 4 4 3 3 2 1 2 9 2 3 2 4 2 4 2 2 4 0 4 3 2 4 2 4 1 3 6 4 4 2 3 3 3 5 2 5 3 3 3 2 2 3 3 3 3 6 4 2 2 5 3 0 5 3 4 3 1 3 3 1 2 3 5 3 2 3 4 2 3 3 3 3 5 2 2 4 2 3 4 2 2 3 3 4 3 6 3 3 4 4 5 4 5 8 2 1 5 3 4 4 5 3 4 2 5 3 6 4 2 2 3 3 4 6 7 5 3 3 2 5 4 2 4 2 6 4 2 4 2 2 4 7 3 2 4 4 2 5 2 2 3 3 4 4 3 3 3 5 7 3 4 6 3 3 3 3 6 4 2 2 3 3 3 4 5 2 7 4 4 4 4 4 4 4 3 1 5 3 5 2 5 3 4 3 2 3 2 4 3 5 6 2 1 2 3 2 5 3 4 4 4 4 5 3 3 5 3 2 2 4 4 3 5 2 2 3 3 6 2 1 4 1 2 4 3 6 6 6 2 3 5 3 6 3 1 5 3 2 2 4 5 5 3 4 2 2 2 3 5 3 4 3 4 2 2 2 2 3 4 2 5 4 4 3 1 3 4 3 5 4 3 2 4 2 2 5 3 3 1 2 3 6 8 2 4 3 4 4 3 4 3 5 3 3 2 2 6 5 5 2 3 2 1 4 3 4 6 4 3 2 1 6 3 3 5 3 3 3 2 4 4 4 8 4 1 4 7 2 2 5 2 3 3 2 4 3 2 4 5 4 3 1 4 6 2 4 3 5 7 3 2 3 1 2 5 2 4 3 3 3 3 5 2 2 6 3 4 1 3 5 5 4 6 4 3 4 2 2 4 4 2 4 4 3 3 3 4 4 2 2 2 3 4 4 3 2 3 4 2 3 2 3 4 4 3 2 2 4 3 5 4 2 4 2 5 5 2 3 4 4 4 1 2 2 3 2 5 4 3 3 2 2 2 3 4 3 4 2 3 3 3 4 5 3 5 4 1 2 8 2 2 4 3 5 3 1 1 5 2 3 4 5 3 3 4 1 4 6 4 2 3 4 1 3 3 3 2 3 2 3 2 5 4 3 4 7 2 1 1 4 4 6 4 3 3 2 1 3 3 3 3 4 3 2 4 3 0 3 4 3 1 3 3 1 1 5 5 2 2 4 2 2 1 2 3 4 4 3 3 3 1 3 2 2 3 2 4 5 2 3 5 4 3 6 2 2 5 3 2 3 5 5 3 4 4 4 4 4 2 1 1 3 4 3 4 4 5 2 2 4 3 2 2 2 4 6 6 2 5 4 6 3 6 2 5 2 5 6 3 2 4 2 2 3 2 3 1 3 4 4 3 5 3 2 3 2 5 1 2 3 1 4 1 4 2 6 2 4 1 3 2 1 3 1 3 3 3 5 4 3 2 2 1 3 4 3 1 2 5 4 2 3 2 4 3 3 2 3 3 2 4 3 2 2 3 4 5 8 3 3 3 4 4 2 3 5 4 2 2 2 3 3 1 1 2 2 3 3 4 3 5 3 2 2 4 3 2 4 3 3 3 2 1 2 2 3 2 5 5 1 3 2 5 3 1 1 2 2 3 3 0 4 6 0 4 3 3 2 3 4 3 3 2 5 4 5 2 3 4 2 1 5 3 1 2 2 7 3 4 3 3 4 5 3 2 2 2 3 4 3 1 3 2 3 6 5 5 4 6 2 3 1 4 2 8 3 5 3 3 5 3 5 3 4 4 6 2 4 3 5 3 3 6 3 6 3 4 4 2 3 5 1 3 5 3 2 1 4 5 4 4 3 4 1 3 3 6 4 3 3 1 3 4 1 1 3 7 2 2 5 3 4 2 6 3 6 4 4 3 3 4 5 5 2 4 4 3 4 2 5 3 5 4 3 4 1 1 2 3 3 6 
BTB PER SET COUNT: 1 1465 1461 960 3 4 5 3 2 4 47 3 2 6 2 5 1 3 4 2 3 4 4 3 509 248 4 2 6 4 3 3 2 4 3 4 3 2 2 3 5 957 6 1 1461 3 509 3 3 2 2 3 508 3 3 4 5 1014 2 2 5 4 2 5 6 1 9 5 5 3 3 3 5 3 2 265 5 3 967 5 8 5 3 6 3 4 2 3 3 1013 2 7 3 4 5 1 4 2 2 4 5 4 5 4 2 23 4 2 3 8 6 4 2 3 0 3 4 5 4 1464 3 3 1568 4 8 3 2 3 3 1 5 3 5 3 5 3 3 1 3 1014 2 1014 2 5 4 7 5 3 6 14 3 1 4 99 4 3 3 1013 4 4 1 3 4 1 5 2 0 5 4 8 4 5 3 1 4 5 2 6 2 2 3 2 3 5 2 4 2 4 5 3 5 1 2 5 1 2 5 1015 4 3 4 2 4 2 0 4 3 2 37 4 3 5 1017 383 3 3 3 508 2 5 4 5 3 2 1522 2 3 7 4 6 255 4 5 5 4 12 2 4 4 4 4 7 5 4 3 2 8880 2 6 4 2 3 3 2 2 13 3 3 5 3 7 1 6 2 4 2 6 2 5 5 2 7 5 5 3 3 8 1 0 6 6 7 1 6 2 2 3 2 651 3 3 5 3 3 7 4 2 2 2 3 5 1 2 4 3 3 3 5 7 3 1013 2 4 3 3 5 3 2 3 4 7 5 2 2 1912 6 24 7 1 5 3 5 3 3 3 3 2 4 3 3 5 5 3 2 2 5 4 2 1 2 3 6 4 3 5 5 5 2 2 12 4 4 2 9 2 4 2 454 3 3 5 15 1 4 2 5 1 3 1 1 3 434 3 2 4 3 1 5 4 5 4 2 2 4 2 5 6 4 2 3 6 362 3 1 2 3 2 2 9 3 2 4 1 3 6 3 2 4 3 3 2 2 3 513 4 338 4 3 507 4 4 3 6 3 3 0 3 3 2 3 3 1 1 3 373 0 2 5 5 7 2 301 2 3 387 3 3 2 4 1 3 6 3 4 4 3 4 3036 3 3 5 5 5 4 961 6 1 2 4 141 3 2 5 2 118 3 4 3 1464 5 955 3 459 4 6 4 4 3 2 3 3 3 6 3 5 3 4 1 2 2 2 3 4 2027 2 5 6 508 4 5 4 3 6 4 4 3 1 4 4 2 2032 3 6 7 27 5 2 3 4 3 5 3 4 6 4 1464 3 4 4 4 4 4 1015 6 4 4 6 0 6 2 1013 5 3 5 4 2 1015 3 3 3 1 1 2 3 2 3 4 3 3 2 2 4 3 3 2 1 4 2 5 2 3 3 2 2 4 1463 1465 4 4 3 4 3 2 1 6 3 3 2 3 3 3 4 6 4 1 5 3 4 3 4 5 1 6 4 2 6 2 3 3 3 2 2 4 6 3 5 5 4 3 4 7 4 2 3 5 3 4 3 2 1013 2 2 3 2 3 4 3 2 3 2 1 1462 2 10 2 1 7 2 4 4 5 2 3 4 3 3 2 3 3 4 3 412 2 3 3 4 3 8 5 2 4 3 4 3 3 3 4 3 3 5 4 2 2 2 4 3 5 3 3 5 4 2 1 4 4 508 1016 4 2 1 4 4 2 3 3 2 4 4 2 457 5 3 4 4 5 2 11 4 3 1461 4 8 3 4 5 1 7 2 2 4 960 5 3 3 1014 5 2 1 2 4 7 3 4 22 5 4 4 2926 2 6 9 2 1 3 3 3 4 3 1 2 2 4 2 2 1 4 2 3 269 2 5 4 2 7 4 3 8 1 2 2 4 5 6 3 5 4 3 3 3 4 5 1 0 2 3 4 4 2 2 2 3 2 4 3 4 2 3 2 3 512 2 6 3 3 4 2 5 5 3 2 1 957 2 3 3 3 958 3 3 4 6 3 2 3 3 4 5 5 3 3 2 3 4 5 510 3 5 3 3 3 7 1 3 4 2 4 2 5 1 3 3 6 30 3 1 3 4 3 2 1 1465 1 1 2 3 3 1 6 2 2 4 1 3 5 6 2 4 5 50 1522 6 3 2 4 2 3 3 3 5 2 510 955 3 6 3 1 1468 5 2 1 9 7 4 2 3 6 4 1 2 2 3 4 3 4 3 1 2 2 5 6 4 7 4 3 1018 3 5 6 2025 3 3 2 4 6 4 2 512 2 4 3 4 1 4 14 3 4 3 2 4 2 3 2 3 5 4 2 4 998 3 3 4 2 2 6 6 5 2 1463 2 2 4 4 4 3 5 3 5 6 4 510 3 6 3 4 3 2 5 4 4 4 3 3 6 5 5 3 4 453 4 3 1 4 3 3 4 2 5 6 2 3 3 5 958 9 2 2 4 6 3 4 2 4 5 3 3 5 4 4 2 3 4 6 2 3 1 7 7 6 6 5 2 6 2 5 4 6 7 2 3 5 5 2 3 957 3 3 3 2 2 4 2 8 5 7 6 4 9 3 100 4 8 6 6 2425 384 3 2 6 2 1 2 5 2 1 4 4 2 46 6 7 8 5 3 6 3 4 3 5 3 1 6 3 5 4 2 2 3 3 5 3 4 10 2 2 3 4 2 1015 3 2 2 5 2 3 1 3 4 4 2 4 4 1 5 4 3 2 3 4 7 5 7 2 5 3 1 5 4 4 4 4 1 2 6 3 2 3 958 2 2 8 3 3 2 1 1925 4 3 5 99 3 3 2 1 2 12 3 3 2 4 2 1463 2 2 4 0 4 3 2 4 2 404 1 3 6 4 4 2 3 3 3 6 2 5 3 4 3 2 2 3 3 6 3 6 7 2 2 6 3 0 7 3 512 3 1 3 3 1 2 3 5 3 2 3 4 2 3 3 3 4 5 2 2 5 2 3 4 2 2 3 4 4 3 8 3 3 4 4 6 1463 7 10 2 1 5 3 4 5 5 3 4 5 5 3 15 4 4 2 3 3 4 6 9 5 4 3 2 7 4 2 9 2 6 4 2 5 2 2 1464 12 3 2 4 4 2 5 2 2 3 3 9 4 3 3 3 5 8 3 4 49 3 3 4 3 7 4 2 2 3 3 3 12 6 2 8 5 5 4 4 4 4 4 3 1 10 3 5 2 5 3 510 3 2 3 2 4 3 6 10 3 1 2 4 2 6 3 4 4 6 8 5 3 3 6 3 2 2 4 4 5 89 2 2 3 3 10 2 1 4 1 3 4 3 6 6 6 2 9 5 3 2419 3 1 5 2864 2 2 4 5 5 4 5 4 3 2 3 6 3 7 3 4 2 3 2 2 3 4 3 6 4 4 3 1 4 4 3 1468 4 3 2 4 2 2 5 3 3 1 2 3 10 1019 2 4 3 4 6 4 904 5 5 3 3 2 2 6 5 5 2 3 2 1 257 3 5 6 4 956 3 1 6 4 3 5 3 4 3 2 5 4 7 963 10 1 5 1467 2 2 7 2 956 3 2 4 5 2 4 5 4 3 3 4 6 2 5 3 6 7 4 2 3 1 2 5 2 4 3 3 3 3 5 2 2 6 3 386 1 3 3936 6 4 6 4 3 5 2 2 6 4 2 4 4 3 3 3 4 4 2 2 2 3 4 4 3 2 3 4 2 3 2 4 4 4 3 2 2 4 3 5 5 2 4 2 5 6 2 3 5 4 4 1 3 2 4 2 5 4 3 3 2 2 2 4 4 3 4 2 3 3 3 4 5 3 5 4 1 2 2328 3 2 4 3 5 433 1 1 8 2 3 5 5 4 3 4 1 4 7 4 2 3 4 1 3 3 3 2 3 2 6 2 5 4 3 4 11 2 1 1 4 4 6 4 3 3 3 1 3 4 3 3 4 3 2 4 3 0 3 4 212 1 3 3 1 1 6 5 2 2 4 2 2 1 955 3 4 4 3 3 451 1 3 2 2 3 2 4 5 2 3 5 4 3 8 4 3 5 3 2 3 5 8 3 4 5 4 4 386 2 1 1 3 6 3 958 4 511 2 2 4 3 2 2 4 4 7 7 2 5 4 8 3 512 2 5 2 6 1465 3 4 4 2 2 3 2 3 1 4 4 6 5 6 3 2 3 2 5 1 2 3 1 5 1 4 2 30 3 6 1 3 3 1 3 1 3 4 3 5 4 4 2 2 1 3 5 3 1 2 5 4 2 3 2 4 9 4 2 3 5 2 4 3 2 2 4 4 5 9 3 3 5 76 4 2 3 5 6 2 2 2 3 20449 1 1 2 2 3 3 4 3 6 5 2 2 4 3 2 54 6 3 3 2 1 2 2 3 1013 8 129 1 3 2 5 14602 1 1 2 2 5 3 0 4 6 0 6 1462 3 2 4 4 3 4 2 5 5 5 2 3 4 2 1 6 3 2 2 3 548 5 4 3 3 7 5 3 2 3 2 3 4 3 3 3 2 3 8 5 29 4 6 2 3 1 4 2 389 3 5 3 3 6 1014 5 1014 8 534 8 2 5 3 5 143 508 6 4 6 3 7 4 5 4 5 1 3 131 3 2 1 4 657 4 510 3 4 1 3 3 6 4 3 1338 1 3 5 1 1 3 2924 2 2 6 3 4 1461 11 8 10 1463 4 3 3 5 1340 5 3 5 6 3 4 2 135 3 5 5 4 4 1 1 3 3 3 732 
To predecode: 0
Predecoding something: 0
Predecode request dropped: 0
sizeofblock_0 0
sizeofblock_1 43005
sizeofblock_2 37239
sizeofblock_3 33069
sizeofblock_4 14025
sizeofblock_5 0
sizeofblock_6 0
sizeofblock_7 0
sizeofblock_8 0
