
*** ChampSim Multicore Out-of-Order Simulator ***

Warmup Instructions: 50000000
Simulation Instructions: 50000000
Number of CPUs: 1
LLC sets: 2048
LLC ways: 16
Off-chip DRAM Size: 4096 MB Channels: 1 Width: 64-bit Data Rate: 6400 MT/s
CPU 0 runs ./micro_traces/srv458.trace.gz
.gz
ITLB has LRU replacement policy
DTLB has LRU replacement policy
STLB has LRU replacement policy
FDIP Prefetcher at L1I
L1I has LRU replacement policy
L1D has LRU replacement policy
Initialize SRRIP state for L2C
Initialize DRRIP state for LLC
Heartbeat_Variant_0 : 1296 0.316406 per_variant_size: 0 1296 0 0 0 0 0 0 0 
Heartbeat_Variant_1 : 1186 0.289551 per_variant_size: 0 593 593 0 0 0 0 0 0 
Heartbeat_Variant_2 : 1279 0.312256 per_variant_size: 0 535 362 209 173 0 0 0 0 
Heartbeat_Variant_3 : 0 0 per_variant_size: 0 0 0 0 0 0 0 0 0 
Heartbeat_Variant_0_evicts 0 : 5810 1 : 186 2 : 214 3 : 0 
Heartbeat_Variant_1_evicts 0 : 178 1 : 0 2 : 374 3 : 0 
Heartbeat_Variant_2_evicts 0 : 176 1 : 374 2 : 0 3 : 0 
Heartbeat_Variant_3_evicts 0 : 0 1 : 0 2 : 0 3 : 0 
Heartbeat CPU 0 instructions: 10000003 cycles: 2797378 heartbeat IPC: 3.57478 cumulative IPC: 3.57478 (Simulation time: 0 hr 1 min 42 sec) 
Heartbeat_Variant_0 : 1349 0.329346 per_variant_size: 0 1349 0 0 0 0 0 0 0 
Heartbeat_Variant_1 : 1243 0.303467 per_variant_size: 0 584 659 0 0 0 0 0 0 
Heartbeat_Variant_2 : 1319 0.322021 per_variant_size: 0 523 356 235 205 0 0 0 0 
Heartbeat_Variant_3 : 0 0 per_variant_size: 0 0 0 0 0 0 0 0 0 
Heartbeat_Variant_0_evicts 0 : 5712 1 : 173 2 : 187 3 : 0 
Heartbeat_Variant_1_evicts 0 : 167 1 : 0 2 : 330 3 : 0 
Heartbeat_Variant_2_evicts 0 : 187 1 : 320 2 : 0 3 : 0 
Heartbeat_Variant_3_evicts 0 : 0 1 : 0 2 : 0 3 : 0 
Heartbeat CPU 0 instructions: 20000000 cycles: 5594205 heartbeat IPC: 3.57548 cumulative IPC: 3.57513 (Simulation time: 0 hr 3 min 17 sec) 
Heartbeat_Variant_0 : 1349 0.329346 per_variant_size: 0 1349 0 0 0 0 0 0 0 
Heartbeat_Variant_1 : 1246 0.304199 per_variant_size: 0 586 660 0 0 0 0 0 0 
Heartbeat_Variant_2 : 1316 0.321289 per_variant_size: 0 519 357 228 212 0 0 0 0 
Heartbeat_Variant_3 : 0 0 per_variant_size: 0 0 0 0 0 0 0 0 0 
Heartbeat_Variant_0_evicts 0 : 5496 1 : 0 2 : 2 3 : 0 
Heartbeat_Variant_1_evicts 0 : 1 1 : 0 2 : 195 3 : 0 
Heartbeat_Variant_2_evicts 0 : 1 1 : 193 2 : 0 3 : 0 
Heartbeat_Variant_3_evicts 0 : 0 1 : 0 2 : 0 3 : 0 
Heartbeat CPU 0 instructions: 30000003 cycles: 8391310 heartbeat IPC: 3.57513 cumulative IPC: 3.57513 (Simulation time: 0 hr 4 min 54 sec) 
Heartbeat_Variant_0 : 1358 0.331543 per_variant_size: 0 1358 0 0 0 0 0 0 0 
Heartbeat_Variant_1 : 1247 0.304443 per_variant_size: 0 585 662 0 0 0 0 0 0 
Heartbeat_Variant_2 : 1331 0.324951 per_variant_size: 0 530 352 240 209 0 0 0 0 
Heartbeat_Variant_3 : 0 0 per_variant_size: 0 0 0 0 0 0 0 0 0 
Heartbeat_Variant_0_evicts 0 : 5604 1 : 77 2 : 84 3 : 0 
Heartbeat_Variant_1_evicts 0 : 74 1 : 0 2 : 259 3 : 0 
Heartbeat_Variant_2_evicts 0 : 82 1 : 270 2 : 0 3 : 0 
Heartbeat_Variant_3_evicts 0 : 0 1 : 0 2 : 0 3 : 0 
Heartbeat CPU 0 instructions: 40000001 cycles: 11187455 heartbeat IPC: 3.57635 cumulative IPC: 3.57543 (Simulation time: 0 hr 6 min 32 sec) 
Heartbeat_Variant_0 : 1357 0.331299 per_variant_size: 0 1357 0 0 0 0 0 0 0 
Heartbeat_Variant_1 : 1258 0.307129 per_variant_size: 0 600 658 0 0 0 0 0 0 
Heartbeat_Variant_2 : 1339 0.326904 per_variant_size: 0 538 361 240 200 0 0 0 0 
Heartbeat_Variant_3 : 0 0 per_variant_size: 0 0 0 0 0 0 0 0 0 
Heartbeat_Variant_0_evicts 0 : 5676 1 : 65 2 : 82 3 : 0 
Heartbeat_Variant_1_evicts 0 : 69 1 : 0 2 : 264 3 : 0 
Heartbeat_Variant_2_evicts 0 : 83 1 : 263 2 : 0 3 : 0 
Heartbeat_Variant_3_evicts 0 : 0 1 : 0 2 : 0 3 : 0 
Heartbeat CPU 0 instructions: 50000000 cycles: 13982284 heartbeat IPC: 3.57804 cumulative IPC: 3.57595 (Simulation time: 0 hr 8 min 15 sec) 

Warmup complete CPU 0 instructions: 50000004 cycles: 13982285 (Simulation time: 0 hr 8 min 15 sec) 

Cycle: 20000000 FTQ IN: 58290383 FTQ occupancy: 20.5454 DECODE IN: 58290383 DECODE occupancy: 53.2905 ROB IN: 58290383 ROB occupancy: 319.111 ROB OUT: 58290315
Heartbeat_Variant_0 : 1362 0.33252 per_variant_size: 0 1362 0 0 0 0 0 0 0 
Heartbeat_Variant_1 : 1256 0.306641 per_variant_size: 0 601 655 0 0 0 0 0 0 
Heartbeat_Variant_2 : 1339 0.326904 per_variant_size: 0 528 365 251 195 0 0 0 0 
Heartbeat_Variant_3 : 0 0 per_variant_size: 0 0 0 0 0 0 0 0 0 
Heartbeat_Variant_0_evicts 0 : 5657 1 : 35 2 : 31 3 : 0 
Heartbeat_Variant_1_evicts 0 : 34 1 : 0 2 : 218 3 : 0 
Heartbeat_Variant_2_evicts 0 : 29 1 : 219 2 : 0 3 : 0 
Heartbeat_Variant_3_evicts 0 : 0 1 : 0 2 : 0 3 : 0 
Heartbeat CPU 0 instructions: 60000001 cycles: 21226115 heartbeat IPC: 1.38049 cumulative IPC: 1.38048 (Simulation time: 0 hr 10 min 14 sec) 
Heartbeat_Variant_0 : 1364 0.333008 per_variant_size: 0 1364 0 0 0 0 0 0 0 
Heartbeat_Variant_1 : 1266 0.309082 per_variant_size: 0 609 657 0 0 0 0 0 0 
Heartbeat_Variant_2 : 1338 0.32666 per_variant_size: 0 512 385 240 201 0 0 0 0 
Heartbeat_Variant_3 : 0 0 per_variant_size: 0 0 0 0 0 0 0 0 0 
Heartbeat_Variant_0_evicts 0 : 5616 1 : 36 2 : 48 3 : 0 
Heartbeat_Variant_1_evicts 0 : 40 1 : 0 2 : 236 3 : 0 
Heartbeat_Variant_2_evicts 0 : 43 1 : 236 2 : 0 3 : 0 
Heartbeat_Variant_3_evicts 0 : 0 1 : 0 2 : 0 3 : 0 
Heartbeat CPU 0 instructions: 70000002 cycles: 28391180 heartbeat IPC: 1.39566 cumulative IPC: 1.38803 (Simulation time: 0 hr 12 min 11 sec) 
Cycle: 30000000 FTQ IN: 13964423 FTQ occupancy: 14.7503 DECODE IN: 13964316 DECODE occupancy: 37.6868 ROB IN: 13964256 ROB occupancy: 250.812 ROB OUT: 13963972
Heartbeat_Variant_0 : 1365 0.333252 per_variant_size: 0 1365 0 0 0 0 0 0 0 
Heartbeat_Variant_1 : 1266 0.309082 per_variant_size: 0 606 660 0 0 0 0 0 0 
Heartbeat_Variant_2 : 1342 0.327637 per_variant_size: 0 516 384 243 199 0 0 0 0 
Heartbeat_Variant_3 : 0 0 per_variant_size: 0 0 0 0 0 0 0 0 0 
Heartbeat_Variant_0_evicts 0 : 5599 1 : 15 2 : 6 3 : 0 
Heartbeat_Variant_1_evicts 0 : 13 1 : 0 2 : 207 3 : 0 
Heartbeat_Variant_2_evicts 0 : 8 1 : 208 2 : 0 3 : 0 
Heartbeat_Variant_3_evicts 0 : 0 1 : 0 2 : 0 3 : 0 
Heartbeat CPU 0 instructions: 80000000 cycles: 35630816 heartbeat IPC: 1.38128 cumulative IPC: 1.38578 (Simulation time: 0 hr 14 min 6 sec) 
Cycle: 40000000 FTQ IN: 13898090 FTQ occupancy: 14.9593 DECODE IN: 13898093 DECODE occupancy: 38.0066 ROB IN: 13898093 ROB occupancy: 251.48 ROB OUT: 13898093
Heartbeat_Variant_0 : 1371 0.334717 per_variant_size: 0 1371 0 0 0 0 0 0 0 
Heartbeat_Variant_1 : 1266 0.309082 per_variant_size: 0 601 665 0 0 0 0 0 0 
Heartbeat_Variant_2 : 1341 0.327393 per_variant_size: 0 516 381 243 201 0 0 0 0 
Heartbeat_Variant_3 : 0 0 per_variant_size: 0 0 0 0 0 0 0 0 0 
Heartbeat_Variant_0_evicts 0 : 5684 1 : 39 2 : 43 3 : 0 
Heartbeat_Variant_1_evicts 0 : 36 1 : 0 2 : 238 3 : 0 
Heartbeat_Variant_2_evicts 0 : 41 1 : 236 2 : 0 3 : 0 
Heartbeat_Variant_3_evicts 0 : 0 1 : 0 2 : 0 3 : 0 
Heartbeat CPU 0 instructions: 90000003 cycles: 42752983 heartbeat IPC: 1.40407 cumulative IPC: 1.3903 (Simulation time: 0 hr 15 min 56 sec) 
Cycle: 50000000 FTQ IN: 13824764 FTQ occupancy: 14.6445 DECODE IN: 13824868 DECODE occupancy: 37.1368 ROB IN: 13824928 ROB occupancy: 249.687 ROB OUT: 13825265
Heartbeat_Variant_0 : 1386 0.338379 per_variant_size: 0 1386 0 0 0 0 0 0 0 
Heartbeat_Variant_1 : 1274 0.311035 per_variant_size: 0 593 681 0 0 0 0 0 0 
Heartbeat_Variant_2 : 1348 0.329102 per_variant_size: 0 497 387 258 206 0 0 0 0 
Heartbeat_Variant_3 : 0 0 per_variant_size: 0 0 0 0 0 0 0 0 0 
Heartbeat_Variant_0_evicts 0 : 5764 1 : 138 2 : 121 3 : 0 
Heartbeat_Variant_1_evicts 0 : 140 1 : 0 2 : 320 3 : 0 
Heartbeat_Variant_2_evicts 0 : 111 1 : 322 2 : 0 3 : 0 
Heartbeat_Variant_3_evicts 0 : 0 1 : 0 2 : 0 3 : 0 
Heartbeat CPU 0 instructions: 100000001 cycles: 50014074 heartbeat IPC: 1.3772 cumulative IPC: 1.38766 (Simulation time: 0 hr 17 min 53 sec) 
Finished CPU 0 instructions: 50000001 cycles: 36031790 cumulative IPC: 1.38766 (Simulation time: 0 hr 17 min 53 sec) 

ChampSim completed all CPUs

Region of Interest Statistics

CPU 0 cumulative IPC: 1.38766 instructions: 50000001 cycles: 36031790
 Fetch stage stalled: 46.1349  Sim cycles: 36031790 fetch stall cycle: 16623222
 Empty decode stage: 26.3498  Sim cycles: 36031790 fetch stall cycle: 9494300
ITLB TOTAL     ACCESS:    5832362  HIT:    5338829  MISS:     493533  HIT %:     91.538  MISS %:    8.46197   MPKI: 9.87066
ITLB LOAD TRANSLATION INSTRUCTION	ACCESS:    5696309  HIT:    5202776  MISS:     493533  HIT %:    91.3359  MISS %:    8.66408  MPKI: 9.87066
ITLB TRANSLATION FROM L1D PREFETCHER INSTRUCTION	ACCESS:     136053  HIT:     136053  MISS:          0  HIT %:        100  MISS %:          0  MPKI: 0

ITLB AVERAGE MISS LATENCY: 9.05903 cycles
ITLB RQ	ACCESS:    7928702	FORWARD:          0	MERGED:    1615972	TO_CACHE:    6312730

DTLB TOTAL     ACCESS:    8962766  HIT:    8489914  MISS:     472852  HIT %:    94.7243  MISS %:    5.27574   MPKI: 9.45704
DTLB LOAD TRANSLATION DATA	ACCESS:    8962766  HIT:    8489914  MISS:     472852  HIT %:    94.7243  MISS %:    5.27574  MPKI: 9.45704

DTLB AVERAGE MISS LATENCY: 9.31757 cycles
DTLB RQ	ACCESS:   13334356	FORWARD:          0	MERGED:    4335552	TO_CACHE:    8998804

STLB TOTAL     ACCESS:    1216248  HIT:    1214127  MISS:       2121  HIT %:    99.8256  MISS %:   0.174389   MPKI: 0.04242
STLB LOAD TRANSLATION INSTRUCTION	ACCESS:     493533  HIT:     493213  MISS:        320  HIT %:    99.9352  MISS %:  0.0648386  MPKI: 0.0064
STLB LOAD TRANSLATION DATA	ACCESS:     472852  HIT:     471081  MISS:       1771  HIT %:    99.6255  MISS %:   0.374536  MPKI: 0.03542
STLB TRANSLATION FROM L1D PREFETCHER DATA	ACCESS:     249863  HIT:     249833  MISS:         30  HIT %:     99.988  MISS %:  0.0120066  MPKI: 0.0006

STLB AVERAGE MISS LATENCY: 70.2513 cycles
STLB RQ	ACCESS:    1338090	FORWARD:          0	MERGED:     121802	TO_CACHE:    1216288

STLB Hit, L1D data hit: 0
STLB Hit, L2C data hit: 0
STLB Hit, LLC data hit: 0
STLB Hit, LLC data miss: 0
STLB STLB hints to L2: 0
L1D TOTAL     ACCESS:   13080174  HIT:   11961805  MISS:    1118369  HIT %:    91.4499  MISS %:    8.55011   MPKI: 22.3674
L1D LOAD DATA	ACCESS:    6544570  HIT:    5809367  MISS:     735203  HIT %:    88.7662  MISS %:    11.2338  MPKI: 14.7041
L1D RFO DATA	ACCESS:    6204835  HIT:    5918070  MISS:     286765  HIT %:    95.3784  MISS %:    4.62164  MPKI: 5.7353
L1D PREFETCH DATA	ACCESS:     330769  HIT:     234368  MISS:      96401  HIT %:    70.8555  MISS %:    29.1445  MPKI: 1.92802

L1D PREFETCH  REQUESTED:     743780  ISSUED:     743780  USEFUL:      34715  USELESS:      69320
L1D USEFUL LOAD PREFETCHES:      34715 PREFETCH ISSUED TO LOWER LEVEL:     104117  ACCURACY: 33.3423
 TIMELY PREFETCHES:      34715 LATE PREFETCHES: 7655 DROPPED PREFETCHES: 12
L1D AVERAGE MISS LATENCY: 225918 cycles
L1D RQ	ACCESS:   10692994	FORWARD:          0	MERGED:    3945350	TO_CACHE:    6581178
L1D WQ	ACCESS:    6950203	FORWARD:     166836	MERGED:     197025	TO_CACHE:    6753178
L1D PQ	ACCESS:     372075	FORWARD:          0	MERGED:          0	TO_CACHE:     371705

L1D UNIQUE REGIONS ACCESSED: 0
L1D REGIONS CONFLICTS: 0
L1D Cross Page Prefetch Requests: 6882
L1D Same Page Prefetch Requests: 750010
L1D ROI Sum of L1D PQ occupancy: 4728309
L1D PREFETCHES PUSHED FROM L2C: 0
L1I TOTAL     ACCESS:    7099946  HIT:    4338418  MISS:    2761528  HIT %:    61.1049  MISS %:    38.8951   MPKI: 55.2306
L1I LOAD INSTRUCTION	ACCESS:    6435589  HIT:    3674061  MISS:    2761528  HIT %:    57.0897  MISS %:    42.9103  MPKI: 55.2306
L1I PREFETCH INSTRUCTION	ACCESS:     664357  HIT:     664357  MISS:          0  HIT %:        100  MISS %:          0  MPKI: 0

L1I PREFETCH  REQUESTED:    1611836  ISSUED:    1611836  USEFUL:          0  USELESS:          0
L1I USEFUL LOAD PREFETCHES:          0 PREFETCH ISSUED TO LOWER LEVEL:          0  ACCURACY: -nan
 TIMELY PREFETCHES:          0 LATE PREFETCHES: 0 DROPPED PREFETCHES: 0
L1I AVERAGE MISS LATENCY: 17.6561 cycles
L1I RQ	ACCESS:    9557398	FORWARD:          0	MERGED:    2813594	TO_CACHE:    6743804
L1I PQ	ACCESS:    1611836	FORWARD:          0	MERGED:     426938	TO_CACHE:    1184898

L1BTB TOTAL     ACCESS:    5670553  HIT:    2045417  MISS:    3625136  HIT %:    36.0709  MISS %:    63.9291   MPKI: 72.5027
L1BTB BRANCH_DIRECT_JUMP	ACCESS:     548699  HIT:     144830  MISS:     403869	AVERAGE STALL: 58.108
L1BTB BRANCH_INDIRECT	ACCESS:     183289  HIT:      66282  MISS:     117007	AVERAGE STALL: 110.29
L1BTB BRANCH_CONDITIONAL	ACCESS:    2712344  HIT:    1420447  MISS:    1291897	AVERAGE STALL: 70.5215
L1BTB BRANCH_DIRECT_CALL	ACCESS:     941980  HIT:     104408  MISS:     837572	AVERAGE STALL: 81.2819
L1BTB BRANCH_INDIRECT_CALL	ACCESS:     171131  HIT:      20797  MISS:     150334	AVERAGE STALL: 142.821
L1BTB BRANCH_RETURN	ACCESS:    1113110  HIT:     288653  MISS:     824457	AVERAGE STALL: 53.0584
L1BTB BRANCH_OTHER ACCESS:          0  HIT:          0  MISS:          0	AVERAGE STALL: -nan
L1BTB TOTAL ROB OCCUPANCY AT BTB MISS: 2.81691

L2BTB TOTAL     ACCESS:    3599721  HIT:    3533736  MISS:      65985  HIT %:    98.1669  MISS %:    1.83306   MPKI: 1.3197
L2BTB BRANCH_DIRECT_JUMP	ACCESS:     399681  HIT:     395378  MISS:       4303	AVERAGE STALL: 58.108
L2BTB BRANCH_INDIRECT	ACCESS:     106759  HIT:     104083  MISS:       2676	AVERAGE STALL: 110.29
L2BTB BRANCH_CONDITIONAL	ACCESS:    1291897  HIT:    1287354  MISS:       4543	AVERAGE STALL: 70.5215
L2BTB BRANCH_DIRECT_CALL	ACCESS:     837571  HIT:     836241  MISS:       1330	AVERAGE STALL: 81.2819
L2BTB BRANCH_INDIRECT_CALL	ACCESS:     140764  HIT:     130548  MISS:      10216	AVERAGE STALL: 142.821
L2BTB BRANCH_RETURN	ACCESS:     823049  HIT:     780132  MISS:      42917	AVERAGE STALL: 53.0584
L2BTB BRANCH_OTHER ACCESS:          0  HIT:          0  MISS:          0	AVERAGE STALL: -nan
L2BTB TOTAL ROB OCCUPANCY AT BTB MISS: 154.758

L2C TOTAL     ACCESS:    4496180  HIT:    3960105  MISS:     536075  HIT %:    88.0771  MISS %:    11.9229   MPKI: 10.7215
L2C LOAD INSTRUCTION	ACCESS:    2761528  HIT:    2467249  MISS:     294279  HIT %:    89.3436  MISS %:    10.6564  MPKI: 5.88558
L2C LOAD TRANSLATION INSTRUCTION	ACCESS:        360  HIT:        101  MISS:        259  HIT %:    28.0556  MISS %:    71.9444  MPKI: 0.00518
L2C LOAD DATA	ACCESS:     727524  HIT:     643156  MISS:      84368  HIT %:    88.4034  MISS %:    11.5966  MPKI: 1.68736
L2C RFO DATA	ACCESS:     286663  HIT:     228343  MISS:      58320  HIT %:    79.6556  MISS %:    20.3444  MPKI: 1.1664
L2C PREFETCH DATA	ACCESS:     196271  HIT:     118400  MISS:      77871  HIT %:    60.3248  MISS %:    39.6752  MPKI: 1.55742
L2C WRITEBACK DATA	ACCESS:     521923  HIT:     502172  MISS:      19751  HIT %:    96.2157  MISS %:    3.78427  MPKI: 0.39502
L2C LOAD TRANSLATION DATA	ACCESS:       1856  HIT:        643  MISS:       1213  HIT %:    34.6444  MISS %:    65.3556  MPKI: 0.02426
L2C TRANSLATION FROM L1D PREFETCHER DATA	ACCESS:         55  HIT:         41  MISS:         14  HIT %:    74.5455  MISS %:    25.4545  MPKI: 0.00028

L2C PREFETCH  REQUESTED:     100929  ISSUED:     100929  USEFUL:       8283  USELESS:      70395
L2C USEFUL LOAD PREFETCHES:       8283 PREFETCH ISSUED TO LOWER LEVEL:      78369  ACCURACY: 10.5692
 TIMELY PREFETCHES:       8283 LATE PREFETCHES: 497 DROPPED PREFETCHES: 0
L2C AVERAGE MISS LATENCY: 37.9049 cycles
L2C RQ	ACCESS:    3778053	FORWARD:          0	MERGED:          0	TO_CACHE:    3777987
L2C WQ	ACCESS:     521923	FORWARD:         67	MERGED:          0	TO_CACHE:     521923
L2C PQ	ACCESS:     205046	FORWARD:          0	MERGED:       4252	TO_CACHE:     200793

L2C Dense regions hint from L2: 0
PSCL5 TOTAL     ACCESS:       4272  HIT:       2136  MISS:       2136  HIT %:         50  MISS %:         50   MPKI: 0.04272
PSCL5 LOAD TRANSLATION INSTRUCTION	ACCESS:       4162  HIT:       2081  MISS:       2081  HIT %:         50  MISS %:         50  MPKI: 0.04162
PSCL5 TRANSLATION FROM L1D PREFETCHER INSTRUCTION	ACCESS:        110  HIT:         55  MISS:         55  HIT %:         50  MISS %:         50  MPKI: 0.0011


PSCL4 TOTAL     ACCESS:       3998  HIT:       1993  MISS:       2005  HIT %:    49.8499  MISS %:    50.1501   MPKI: 0.0401
PSCL4 LOAD TRANSLATION INSTRUCTION	ACCESS:       2355  HIT:       1940  MISS:        415  HIT %:    82.3779  MISS %:    17.6221  MPKI: 0.0083
PSCL4 TRANSLATION FROM L1D PREFETCHER INSTRUCTION	ACCESS:         65  HIT:         53  MISS:         12  HIT %:    81.5385  MISS %:    18.4615  MPKI: 0.00024
PSCL4 LOAD TRANSLATION DATA	ACCESS:       1537  HIT:          0  MISS:       1537  HIT %:          0  MISS %:        100  MPKI: 0.03074
PSCL4 TRANSLATION FROM L1D PREFETCHER DATA	ACCESS:         41  HIT:          0  MISS:         41  HIT %:          0  MISS %:        100  MPKI: 0.00082


PSCL3 TOTAL     ACCESS:       4128  HIT:       2058  MISS:       2070  HIT %:    49.8547  MISS %:    50.1453   MPKI: 0.0414
PSCL3 LOAD TRANSLATION INSTRUCTION	ACCESS:       2420  HIT:       2005  MISS:        415  HIT %:    82.8512  MISS %:    17.1488  MPKI: 0.0083
PSCL3 TRANSLATION FROM L1D PREFETCHER INSTRUCTION	ACCESS:         65  HIT:         53  MISS:         12  HIT %:    81.5385  MISS %:    18.4615  MPKI: 0.00024
PSCL3 LOAD TRANSLATION DATA	ACCESS:       1602  HIT:          0  MISS:       1602  HIT %:          0  MISS %:        100  MPKI: 0.03204
PSCL3 TRANSLATION FROM L1D PREFETCHER DATA	ACCESS:         41  HIT:          0  MISS:         41  HIT %:          0  MISS %:        100  MPKI: 0.00082


PSCL2 TOTAL     ACCESS:       4158  HIT:       2022  MISS:       2136  HIT %:    48.6291  MISS %:    51.3709   MPKI: 0.04272
PSCL2 LOAD TRANSLATION INSTRUCTION	ACCESS:       2289  HIT:       1967  MISS:        322  HIT %:    85.9327  MISS %:    14.0673  MPKI: 0.00644
PSCL2 TRANSLATION FROM L1D PREFETCHER INSTRUCTION	ACCESS:         55  HIT:         55  MISS:          0  HIT %:        100  MISS %:          0  MPKI: 0
PSCL2 LOAD TRANSLATION DATA	ACCESS:       1759  HIT:          0  MISS:       1759  HIT %:          0  MISS %:        100  MPKI: 0.03518
PSCL2 TRANSLATION FROM L1D PREFETCHER DATA	ACCESS:         55  HIT:          0  MISS:         55  HIT %:          0  MISS %:        100  MPKI: 0.0011


LLC TOTAL     ACCESS:     599173  HIT:     568971  MISS:      30202  HIT %:    94.9594  MISS %:    5.04061   MPKI: 0.60404
LLC LOAD INSTRUCTION	ACCESS:     294280  HIT:     293117  MISS:       1163  HIT %:    99.6048  MISS %:   0.395202  MPKI: 0.02326
LLC LOAD TRANSLATION INSTRUCTION	ACCESS:        259  HIT:        225  MISS:         34  HIT %:    86.8726  MISS %:    13.1274  MPKI: 0.00068
LLC LOAD DATA	ACCESS:      83905  HIT:      80441  MISS:       3464  HIT %:    95.8715  MISS %:    4.12848  MPKI: 0.06928
LLC RFO DATA	ACCESS:      58261  HIT:      42876  MISS:      15385  HIT %:     73.593  MISS %:     26.407  MPKI: 0.3077
LLC PREFETCH DATA	ACCESS:      78368  HIT:      68702  MISS:       9666  HIT %:    87.6659  MISS %:    12.3341  MPKI: 0.19332
LLC WRITEBACK DATA	ACCESS:      82873  HIT:      82453  MISS:        420  HIT %:    99.4932  MISS %:     0.5068  MPKI: 0.0084
LLC LOAD TRANSLATION DATA	ACCESS:       1213  HIT:       1144  MISS:         69  HIT %:    94.3116  MISS %:    5.68838  MPKI: 0.00138
LLC TRANSLATION FROM L1D PREFETCHER DATA	ACCESS:         14  HIT:         13  MISS:          1  HIT %:    92.8571  MISS %:    7.14286  MPKI: 2e-05

LLC AVERAGE MISS LATENCY: 158.592 cycles
LLC RQ	ACCESS:     437957	FORWARD:          0	MERGED:          0	TO_CACHE:     437932
LLC WQ	ACCESS:      82873	FORWARD:         25	MERGED:          0	TO_CACHE:      82873
LLC PQ	ACCESS:      78369	FORWARD:          0	MERGED:          0	TO_CACHE:      78369

LLC Dense regions hint to LLC: 0

RAW hits: 1950116
Loads Generated: 12643108
Loads sent to L1D: 10692994
Stores Generated: 6950194
Stores sent to L1D: 6950203
Major fault: 0 Minor fault: 2546
Allocated PAGES: 2546

stream: 
stream:times selected: 1184076
stream:pref_filled: 122865
stream:pref_useful: 24356
stream:pref_late: 6697
stream:misses: 8120
stream:misses_by_poll: 0

CS: 
CS:times selected: 177489
CS:pref_filled: 60164
CS:pref_useful: 36853
CS:pref_late: 6860
CS:misses: 16496
CS:misses_by_poll: 7

CPLX: 
CPLX:times selected: 1005387
CPLX:pref_filled: 19739
CPLX:pref_useful: 4786
CPLX:pref_late: 3067
CPLX:misses: 94276
CPLX:misses_by_poll: 0

NL_L1: 
NL:times selected: 20645
NL:pref_filled: 744
NL:pref_useful: 322
NL:pref_late: 300
NL:misses: 1779
NL:misses_by_poll: 0

total selections: 2387597
total_filled: 96401
total_useful: 34715
total_late: 18273
total_polluted: 7
total_misses_after_warmup: 771812
conflicts: 5521325

test: 115980

DRAM Statistics
 CHANNEL 0
 RQ ROW_BUFFER_HIT:      11292  ROW_BUFFER_MISS:      18483
 DBUS_CONGESTED:          8
 WQ ROW_BUFFER_HIT:       1498  ROW_BUFFER_MISS:      12954  FULL:          0

 AVG_CONGESTED_CYCLE: 7

CPU 0 Branch Prediction Accuracy: 99.8222% MPKI: 0.32518 Average ROB Occupancy at Mispredict: 194.815
Branch types
NOT_BRANCH: 40857964 81.7159%
BRANCH_DIRECT_JUMP: 548699 1.0974%
BRANCH_INDIRECT: 183289 0.366578%
BRANCH_CONDITIONAL: 6183817 12.3676%
BRANCH_DIRECT_CALL: 941980 1.88396%
BRANCH_INDIRECT_CALL: 171131 0.342262%
BRANCH_RETURN: 1113110 2.22622%
BRANCH_OTHER: 0 0%

DRAM PAGES: 1048576
Allocated PAGES: 2546
Average_ROB_Occupancy: 251.827
Average_Decode_Occupancy: 37.5831
Average_FTQ_Occupancy: 14.7873
Indirect max targets: 14 Average targets: 1.15333
Branch_type:  BRANCH_DIRECT_JUMP:  Count Percentage: 3.40005 4.37769 5.99388 14.4965 1.69573 6.58065 0.939741 62.5158 
Branch_type:  BRANCH_INDIRECT:  Count Percentage: 11.7695 3.45674 12.1928 23.3641 1.33932 1.2023 1.07403 45.6012 
Branch_type:  BRANCH_CONDITIONAL:  Count Percentage: 21.5476 2.50697 3.00379 8.35245 1.34339 4.55864 0.5831 58.104 
Branch_type:  BRANCH_DIRECT_CALL:  Count Percentage: 0.767896 1.27783 1.4273 4.94757 2.44448 2.7225 0.774409 85.638 
Branch_type:  BRANCH_INDIRECT_CALL:  Count Percentage: 9.57335 0.565196 3.00116 4.85357 0.000582977 3.56811 0 78.438 
Branch_type:  BRANCH_RETURN:  Count Percentage: 4.4658 0.698493 3.51495 9.43404 2.12679 5.28694 1.01253 73.4605 
Branch_type:  BRANCH_DIRECT_JUMP:  Total Count: 37230 47935 65632 158734 18568 72057 10290 684537 
Branch_type:  BRANCH_INDIRECT:  Total Count: 43033 12639 44581 85427 4897 4396 3927 166733 
Branch_type:  BRANCH_CONDITIONAL:  Total Count: 2662690 309792 371185 1032132 166006 563322 72055 7180052 
Branch_type:  BRANCH_DIRECT_CALL:  Total Count: 14503 24134 26957 93443 46168 51419 14626 1617416 
Branch_type:  BRANCH_INDIRECT_CALL:  Total Count: 32843 1939 10296 16651 2 12241 0 269095 
Branch_type:  BRANCH_RETURN:  Total Count: 99700 15594 78472 210617 47481 118032 22605 1640020 
Number of unique branch instructions: 9934
Upper 32 bits: 
aaaa
ffff
ffff0000
Unique upper 32 bits: 3
Unique upper 36 bits: 3
Unique upper 40 bits: 5
Unique upper 44 bits: 32
Unique upper 48 bits: 156
Variant_0 : 1386 0.338379
Variant_1 : 1274 0.311035
Variant_2 : 1348 0.329102
Variant_3 : 0 0
Offset_3 4093
Offset_4 256
Offset_5 454
Offset_6 502
Offset_7 580
Offset_8 509
Offset_9 474
Offset_10 383
Offset_11 310
Offset_12 273
Offset_13 202
Offset_14 226
Offset_15 188
Offset_16 218
Offset_17 149
Offset_18 118
Offset_19 234
Offset_20 136
Offset_21 261
Offset_22 390
Offset_23 241
Offset_24 340
Offset_25 88
Offset_47 84
Offset_64 2
decode_dispatch_called: 26279277 72.9336
Dispatch_width: 0 14093185 53.6285 39.1132
Dispatch_width: 1 1042336 3.96638 2.89282
Dispatch_width: 2 853336 3.24718 2.36829
Dispatch_width: 3 504009 1.9179 1.39879
Dispatch_width: 4 6432243 24.4765 17.8516
Dispatch_width: 5 115014 0.43766 0.319201
Dispatch_width: 6 3239154 12.3259 8.98971
Empty_decode_cycles: 9752513 27.0664
ROB_full_cycles: 10235420 28.4066
Starvation_cycles_per_kilo_instr: 225.572
Starvation_cycles_per_kilo_instr_3: 160.1
Starvation_cycles_per_kilo_instr_0: 136.103
Branch_type_1  (3,1)  (4,8)  (5,38)  (6,69)  (7,115)  (8,129)  (9,128)  (10,100)  (11,69)  (12,43)  (13,8)  (14,2)  (15,3)  (16,4)  (18,1)  (19,4)  (20,2)  (21,1)  (22,3)  (23,2)  (24,10)  (25,12) 
Branch_type_2  (3,1)  (5,1)  (8,3)  (9,3)  (12,1)  (13,1)  (14,1)  (16,3)  (17,2)  (20,2)  (21,2)  (23,5)  (24,1)  (47,38) 
Branch_type_3  (3,4091)  (4,248)  (5,411)  (6,418)  (7,435)  (8,319)  (9,261)  (10,154)  (11,123)  (12,50)  (13,7)  (64,1) 
Branch_type_4  (6,3)  (7,8)  (8,25)  (9,50)  (10,60)  (11,61)  (12,96)  (13,85)  (14,100)  (15,89)  (16,97)  (17,67)  (18,53)  (19,114)  (20,70)  (21,141)  (22,206)  (23,136)  (24,191)  (25,72)  (64,1) 
Branch_type_5  (8,2)  (9,1)  (10,4)  (11,5)  (12,3)  (13,14)  (14,16)  (15,11)  (16,20)  (17,11)  (18,16)  (19,13)  (20,11)  (21,13)  (22,42)  (23,26)  (24,40) 
Branch_type_6  (5,4)  (6,12)  (7,22)  (8,31)  (9,31)  (10,65)  (11,52)  (12,80)  (13,87)  (14,107)  (15,85)  (16,94)  (17,69)  (18,48)  (19,103)  (20,51)  (21,104)  (22,139)  (23,72)  (24,98)  (25,4)  (47,46) 
Unique trigger count: 
Variant_0_evicts_0 : 0
Variant_0_evicts_1 : 0
Variant_0_evicts_2 : 0
Variant_0_evicts_3 : 0
Variant_1_evicts_0 : 0
Variant_1_evicts_1 : 0
Variant_1_evicts_2 : 0
Variant_1_evicts_3 : 0
Variant_2_evicts_0 : 0
Variant_2_evicts_1 : 0
Variant_2_evicts_2 : 0
Variant_2_evicts_3 : 0
Variant_3_evicts_0 : 0
Variant_3_evicts_1 : 0
Variant_3_evicts_2 : 0
Variant_3_evicts_3 : 0
BTB PER SET UNIQUE ADDR: 9 14 9 15 11 8 6 8 10 11 8 14 10 14 9 11 7 9 7 13 10 10 10 11 14 13 13 9 10 8 15 16 8 8 7 10 13 12 6 12 9 7 7 13 10 11 10 8 11 7 15 9 13 9 6 5 6 10 7 9 13 11 6 9 10 10 13 8 13 8 10 12 14 10 9 7 9 11 13 11 10 6 6 16 10 12 12 10 10 8 7 8 15 5 8 12 6 8 11 14 14 20 12 12 12 9 13 9 10 5 13 16 14 11 13 5 14 10 9 12 12 9 10 7 12 12 4 13 12 10 7 9 7 12 8 11 6 10 14 16 12 10 9 11 10 10 9 8 8 13 15 15 11 7 8 15 15 12 12 9 11 8 15 13 8 11 10 9 12 8 10 11 11 8 12 9 8 8 10 11 10 9 9 10 16 14 6 11 11 11 11 9 10 13 11 12 8 11 8 12 9 11 10 7 8 8 12 9 8 12 10 12 12 7 9 6 11 11 8 18 5 11 8 5 8 11 14 10 7 12 4 6 7 14 9 10 8 13 11 9 8 12 15 9 8 9 8 10 8 14 12 10 14 11 9 12 7 9 12 8 12 11 8 10 10 8 7 10 9 11 5 9 7 6 7 6 7 18 9 8 9 12 8 10 9 10 11 17 13 12 11 9 11 12 6 16 6 16 10 13 9 10 7 14 15 13 10 7 13 12 14 13 11 23 11 9 15 12 9 15 7 13 12 12 12 10 10 11 6 7 11 11 6 7 9 10 10 11 7 13 11 9 8 11 11 11 14 12 8 7 13 10 7 6 7 15 12 10 10 8 11 8 8 11 10 10 7 12 9 12 11 10 12 17 11 16 15 15 10 9 8 10 8 7 7 14 11 12 12 12 11 4 10 15 12 9 11 8 10 13 6 11 14 12 17 8 9 9 12 11 14 5 9 9 9 9 11 11 13 14 10 12 10 15 14 10 10 9 9 11 10 11 10 10 12 10 13 7 8 12 9 10 10 13 15 8 7 8 14 12 14 10 11 12 16 13 16 14 11 13 11 6 13 16 20 13 9 9 12 9 15 9 10 11 10 14 7 15 8 13 9 13 11 12 6 8 15 10 12 10 8 17 13 7 10 8 10 10 13 8 10 12 9 18 9 9 9 11 14 8 12 13 9 10 11 11 11 14 10 6 9 12 9 7 12 12 14 9 7 15 14 13 9 12 12 14 10 10 13 14 9 11 13 13 13 14 9 11 5 14 12 14 9 10 8 13 9 11 9 10 8 13 10 8 9 13 9 8 17 15 13 8 13 14 12 18 15 13 11 8 9 9 6 10 13 15 15 11 15 12 11 12 7 11 9 7 6 7 10 15 13 9 7 6 10 9 18 8 12 11 11 11 9 11 4 15 8 6 12 11 16 14 9 7 13 14 9 13 10 15 6 16 14 7 11 10 10 10 6 13 9 10 10 12 12 9 8 11 7 13 11 11 11 11 8 7 11 10 13 10 6 5 13 16 9 11 8 9 6 9 12 9 10 11 9 8 12 12 12 9 8 13 7 11 11 14 11 12 12 11 11 11 14 4 10 8 10 11 10 10 7 9 14 11 7 10 7 8 8 7 12 10 9 6 9 9 12 9 6 12 9 6 10 8 7 11 11 9 7 8 13 9 10 8 11 14 13 8 13 8 10 12 12 13 11 9 13 11 10 13 9 14 11 8 9 13 16 9 8 9 12 8 5 14 10 15 6 13 7 13 9 14 6 6 7 9 11 9 14 12 8 14 8 9 11 12 9 9 9 10 4 7 11 8 15 14 6 11 14 6 17 12 13 14 13 14 13 11 9 12 11 14 6 13 9 16 16 15 6 17 11 14 5 14 6 15 12 10 11 9 11 15 11 12 11 11 11 7 11 12 20 9 13 7 9 14 11 16 12 11 12 11 8 13 13 13 12 12 11 9 13 9 9 8 19 11 11 8 15 9 7 11 12 9 13 5 12 7 9 9 11 8 12 12 12 15 13 9 13 14 9 8 10 13 8 10 14 6 9 7 10 9 10 11 8 8 10 15 15 14 10 6 10 13 12 15 13 10 11 11 9 15 12 9 10 10 10 9 10 6 14 11 17 13 12 19 9 10 11 11 8 14 10 12 10 11 12 14 8 17 17 10 10 8 11 8 12 10 12 9 15 17 11 13 14 8 8 12 6 13 9 14 16 10 11 8 15 13 15 17 7 18 13 10 11 18 13 15 18 11 11 13 10 12 8 11 9 11 15 13 10 14 8 7 8 13 8 9 11 16 13 10 11 8 16 10 3 10 5 10 9 13 9 9 
BTB PER SET COUNT: 773 17 1955 20 1264 8 6 9 1480 13 9 18 11 18 10 11 7 2109 7 14 13 14 675 15 21 17 17 9 84 10 16 703 9 11 8 10 20 19 6 1026 13 7 12 60 548 28 12 10 1168 7 17 25 25 10 8 23 7 13 485 10 22 14 7 10 10 92 13 9 14 11 13 981 23 18 12 9 14 987 18 11 151 6 10 24 13 71 17 11 1182 11 10 112 239 5 8 13 430 10 18 4883 23 1139 17 13 691 9 14 14 15 2907 13 33 194 12 18 5 14 10 1479 1001 266 12 10 9 15 13 4 19 17 911 8 11 9 13 9 22 8 13 15 25 16 11 10 11 14 12 12 13 9 183 24 19 1152 9 9 31 94 12 12 14 13 8 26 15 10 15 18 9 16 1853 12 17 14 10 13 21 8 8 378 629 11 10 9 19 24 20 6 17 13 991 13 14 10 17 14 12 8 454 13 32 11 16 12 9 8 9 15 13 10 14 12 12 17 9 21 992 11 16 9 29 6 11 13 5 10 13 18 261 455 18 4 6 10 21 794 10 979 621 14 13 1231 15 20 13 13 213 8 12 8 20 30 15 20 14 9 16 81 11 13 8 17 12 13 12 16 8 9 17 1951 12 5 977 8 6 977 6 8 22 10 12 9 17 11 12 10 10 13 23 15 15 13 13 11 56 9 23 6 19 10 22 11 12 1008 15 18 19 87 9 17 1003 362 26 12 27 1483 1168 23 18 11 25 8 5895 16 15 13 996 11 13 7 10 14 22 12 7 9 977 17 94 7 15 13 1993 9 16 13 12 20 15 8 7 22 942 11 9 8 18 15 14 123 12 14 8 12 14 13 18 7 14 9 14 13 740 16 29 17 187 19 21 15 11 9 11 993 9 12 22 3321 18 14 15 33 4 10 19 18 11 11 9 1267 1487 8 16 15 16 28 16 12 19 14 16 34 8 11 11 9 12 13 39 15 17 16 14 12 25 26 12 193 10 9 13 10 13 11 12 496 13 394 11 10 14 11 17 12 14 2472 8 11 9 18 16 554 11 17 13 45 330 23 16 12 14 46 6 19 22 26 15 1446 11 17 13 33 9 12 13 15 26 7 22 10 20 10 18 12 13 977 14 23 12 16 16 13 21 3689 7 13 8 981 11 18 10 10 18 10 175 16 9 9 18 17 8 15 57 10 840 22 14 22 23 22 6 12 15 10 431 21 15 394 16 7 414 16 139 12 19 21 19 13 1009 16 461 9 13 37 20 16 328 9 12 7 931 24 17 998 10 12 18 10 11 15 13 10 18 11 9 9 16 135 10 26 34 1333 8 14 22 2470 21 30 1272 11 8 10 14 8 14 19 18 24 11 23 12 16 16 7 15 22 9 6 10 12 25 14 11 8 6 16 12 22 824 12 12 13 1470 15 15 4 18 282 6 14 891 23 14 16 976 15 19 11 305 11 18 8 23 838 9 14 14 11 151 6 24 10 11 18 62 15 176 977 12 7 14 17 14 14 12 9 8 15 10 18 12 7 5 13 22 21590 17 8 9 1477 11 12 10 394 13 9 15 15 15 16 13 8 23 160 17 176 17 13 16 188 11 11 18 16 4 591 10 11 1380 13 16 605 21 1489 13 7 10 8 13 11 10 309 13 654 8 146 111 19 12 15 697 11 1031 17 8 2016 14 16 14 7 8 22 5654 10 10 13 17 985 8 15 10 12 16 594 18 17 15 624 12 18 21 9 15 13 1964 1146 17 16 10 10 16 20 8 5 31 2924 23 6 678 10 17 15 14 7 8 13 10 13 484 21 12 103 21 11 10 17 12 11 9 12 13 4 992 21 10 17 979 110 15 23 379 18 20 395 246 16 15 19 11 11 69 13 17 6 15 10 611 461 1488 8 392 15 755 6 17 1461 16 13 12 13 12 14 18 19 18 14 1149 12 7 15 15 31 10 19 7 28 19 16 28 15 8575 230 146 10 18 1542 19 14 16 15 10 432 13 840 10 380 22 12 9 19 12 11 15 20 11 16 5 13 7 10 10 12 11 18 14 20 1960 16 13 16 20 9 8 12 20 10 13 19 6 1977 8 10 10 13 42 13 10 10 26 40 19 198 6 13 17 13 545 66 268 15 15 13 636 18 10 20 11 11 14 10 7 17 17 172 24 18 30 13 10 1423 14 8 20 11 14 10 11 18 19 9 27 28 98 1170 13 12 11 199 11 24 11 513 19 496 15 24 9 26 16 44 17 15 1968 20 13 482 9 17 17 385 24 8 20 14 418 11 1885 16 314 22 15 12 555 12 15 11 13 10 1482 30 17 119 47 9 7 8 14 10 10 16 1001 19 11 18 10 25 14 4 14 5 10 9 17 10 13 
To predecode: 0
Predecoding something: 0
Predecode request dropped: 0
sizeofblock_0 0
sizeofblock_1 40563
sizeofblock_2 31282
sizeofblock_3 41782
sizeofblock_4 26317
sizeofblock_5 0
sizeofblock_6 0
sizeofblock_7 0
sizeofblock_8 0
Variant_0 Correct: 1615955 Incorrect: 0 Accuracy: 1
Variant_1 Correct: 2091707 Incorrect: 0 Accuracy: 1
Variant_2 Correct: 3647054 Incorrect: 0 Accuracy: 1
Variant_3 Correct: 0 Incorrect: 0 Accuracy: -nan
