
*** ChampSim Multicore Out-of-Order Simulator ***

Warmup Instructions: 50000000
Simulation Instructions: 50000000
Number of CPUs: 1
LLC sets: 2048
LLC ways: 16
Off-chip DRAM Size: 4096 MB Channels: 1 Width: 64-bit Data Rate: 6400 MT/s
CPU 0 runs ./micro_traces/srv472.trace.gz
.gz
ITLB has LRU replacement policy
DTLB has LRU replacement policy
STLB has LRU replacement policy
FDIP Prefetcher at L1I
L1I has LRU replacement policy
L1D has LRU replacement policy
Initialize SRRIP state for L2C
Initialize DRRIP state for LLC
Heartbeat_Variant_0 : 1298 0.158447 per_variant_size: 0 1298 0 0 0 0 0 0 0 
Heartbeat_Variant_1 : 2785 0.339966 per_variant_size: 0 1041 1744 0 0 0 0 0 0 
Heartbeat_Variant_2 : 0 0 per_variant_size: 0 0 0 0 0 0 0 0 0 
Heartbeat_Variant_3 : 0 0 per_variant_size: 0 0 0 0 0 0 0 0 0 
Heartbeat_Variant_0_evicts 0 : 7787 1 : 1646 2 : 0 3 : 0 
Heartbeat_Variant_1_evicts 0 : 1657 1 : 0 2 : 0 3 : 0 
Heartbeat_Variant_2_evicts 0 : 0 1 : 0 2 : 0 3 : 0 
Heartbeat_Variant_3_evicts 0 : 0 1 : 0 2 : 0 3 : 0 
Heartbeat CPU 0 instructions: 10000002 cycles: 2796481 heartbeat IPC: 3.57592 cumulative IPC: 3.57592 (Simulation time: 0 hr 2 min 14 sec) 
Heartbeat_Variant_0 : 1304 0.15918 per_variant_size: 0 1304 0 0 0 0 0 0 0 
Heartbeat_Variant_1 : 2782 0.3396 per_variant_size: 0 1035 1747 0 0 0 0 0 0 
Heartbeat_Variant_2 : 0 0 per_variant_size: 0 0 0 0 0 0 0 0 0 
Heartbeat_Variant_3 : 0 0 per_variant_size: 0 0 0 0 0 0 0 0 0 
Heartbeat_Variant_0_evicts 0 : 7980 1 : 1734 2 : 0 3 : 0 
Heartbeat_Variant_1_evicts 0 : 1728 1 : 0 2 : 0 3 : 0 
Heartbeat_Variant_2_evicts 0 : 0 1 : 0 2 : 0 3 : 0 
Heartbeat_Variant_3_evicts 0 : 0 1 : 0 2 : 0 3 : 0 
Heartbeat CPU 0 instructions: 20000001 cycles: 5592106 heartbeat IPC: 3.57702 cumulative IPC: 3.57647 (Simulation time: 0 hr 4 min 18 sec) 
Heartbeat_Variant_0 : 1350 0.164795 per_variant_size: 0 1350 0 0 0 0 0 0 0 
Heartbeat_Variant_1 : 2870 0.350342 per_variant_size: 0 1029 1841 0 0 0 0 0 0 
Heartbeat_Variant_2 : 0 0 per_variant_size: 0 0 0 0 0 0 0 0 0 
Heartbeat_Variant_3 : 0 0 per_variant_size: 0 0 0 0 0 0 0 0 0 
Heartbeat_Variant_0_evicts 0 : 7769 1 : 1663 2 : 0 3 : 0 
Heartbeat_Variant_1_evicts 0 : 1660 1 : 0 2 : 0 3 : 0 
Heartbeat_Variant_2_evicts 0 : 0 1 : 0 2 : 0 3 : 0 
Heartbeat_Variant_3_evicts 0 : 0 1 : 0 2 : 0 3 : 0 
Heartbeat CPU 0 instructions: 30000000 cycles: 8388232 heartbeat IPC: 3.57638 cumulative IPC: 3.57644 (Simulation time: 0 hr 6 min 24 sec) 
Heartbeat_Variant_0 : 1348 0.164551 per_variant_size: 0 1348 0 0 0 0 0 0 0 
Heartbeat_Variant_1 : 2874 0.35083 per_variant_size: 0 1034 1840 0 0 0 0 0 0 
Heartbeat_Variant_2 : 0 0 per_variant_size: 0 0 0 0 0 0 0 0 0 
Heartbeat_Variant_3 : 0 0 per_variant_size: 0 0 0 0 0 0 0 0 0 
Heartbeat_Variant_0_evicts 0 : 8033 1 : 1724 2 : 0 3 : 0 
Heartbeat_Variant_1_evicts 0 : 1726 1 : 0 2 : 0 3 : 0 
Heartbeat_Variant_2_evicts 0 : 0 1 : 0 2 : 0 3 : 0 
Heartbeat_Variant_3_evicts 0 : 0 1 : 0 2 : 0 3 : 0 
Heartbeat CPU 0 instructions: 40000001 cycles: 11185293 heartbeat IPC: 3.57518 cumulative IPC: 3.57612 (Simulation time: 0 hr 8 min 21 sec) 
Heartbeat_Variant_0 : 1361 0.166138 per_variant_size: 0 1361 0 0 0 0 0 0 0 
Heartbeat_Variant_1 : 2907 0.354858 per_variant_size: 0 1036 1871 0 0 0 0 0 0 
Heartbeat_Variant_2 : 0 0 per_variant_size: 0 0 0 0 0 0 0 0 0 
Heartbeat_Variant_3 : 0 0 per_variant_size: 0 0 0 0 0 0 0 0 0 
Heartbeat_Variant_0_evicts 0 : 7976 1 : 1663 2 : 0 3 : 0 
Heartbeat_Variant_1_evicts 0 : 1664 1 : 0 2 : 0 3 : 0 
Heartbeat_Variant_2_evicts 0 : 0 1 : 0 2 : 0 3 : 0 
Heartbeat_Variant_3_evicts 0 : 0 1 : 0 2 : 0 3 : 0 
Heartbeat CPU 0 instructions: 50000001 cycles: 13982118 heartbeat IPC: 3.57548 cumulative IPC: 3.576 (Simulation time: 0 hr 10 min 40 sec) 

Warmup complete CPU 0 instructions: 50000001 cycles: 13982118 (Simulation time: 0 hr 10 min 40 sec) 

Cycle: 20000000 FTQ IN: 58202368 FTQ occupancy: 19.616 DECODE IN: 58202368 DECODE occupancy: 51.1036 ROB IN: 58202368 ROB occupancy: 309.505 ROB OUT: 58202308
Heartbeat_Variant_0 : 1367 0.16687 per_variant_size: 0 1367 0 0 0 0 0 0 0 
Heartbeat_Variant_1 : 2911 0.355347 per_variant_size: 0 1039 1872 0 0 0 0 0 0 
Heartbeat_Variant_2 : 0 0 per_variant_size: 0 0 0 0 0 0 0 0 0 
Heartbeat_Variant_3 : 0 0 per_variant_size: 0 0 0 0 0 0 0 0 0 
Heartbeat_Variant_0_evicts 0 : 7933 1 : 1719 2 : 0 3 : 0 
Heartbeat_Variant_1_evicts 0 : 1714 1 : 0 2 : 0 3 : 0 
Heartbeat_Variant_2_evicts 0 : 0 1 : 0 2 : 0 3 : 0 
Heartbeat_Variant_3_evicts 0 : 0 1 : 0 2 : 0 3 : 0 
Heartbeat CPU 0 instructions: 60000000 cycles: 21310222 heartbeat IPC: 1.36461 cumulative IPC: 1.36461 (Simulation time: 0 hr 12 min 58 sec) 
Heartbeat_Variant_0 : 1370 0.167236 per_variant_size: 0 1370 0 0 0 0 0 0 0 
Heartbeat_Variant_1 : 2933 0.358032 per_variant_size: 0 1043 1890 0 0 0 0 0 0 
Heartbeat_Variant_2 : 0 0 per_variant_size: 0 0 0 0 0 0 0 0 0 
Heartbeat_Variant_3 : 0 0 per_variant_size: 0 0 0 0 0 0 0 0 0 
Heartbeat_Variant_0_evicts 0 : 8035 1 : 1736 2 : 0 3 : 0 
Heartbeat_Variant_1_evicts 0 : 1741 1 : 0 2 : 0 3 : 0 
Heartbeat_Variant_2_evicts 0 : 0 1 : 0 2 : 0 3 : 0 
Heartbeat_Variant_3_evicts 0 : 0 1 : 0 2 : 0 3 : 0 
Heartbeat CPU 0 instructions: 70000000 cycles: 28700241 heartbeat IPC: 1.35318 cumulative IPC: 1.35887 (Simulation time: 0 hr 15 min 12 sec) 
Cycle: 30000000 FTQ IN: 13572470 FTQ occupancy: 11.9587 DECODE IN: 13572349 DECODE occupancy: 30.5867 ROB IN: 13572289 ROB occupancy: 218.332 ROB OUT: 13572001
Heartbeat_Variant_0 : 1365 0.166626 per_variant_size: 0 1365 0 0 0 0 0 0 0 
Heartbeat_Variant_1 : 2938 0.358643 per_variant_size: 0 1041 1897 0 0 0 0 0 0 
Heartbeat_Variant_2 : 0 0 per_variant_size: 0 0 0 0 0 0 0 0 0 
Heartbeat_Variant_3 : 0 0 per_variant_size: 0 0 0 0 0 0 0 0 0 
Heartbeat_Variant_0_evicts 0 : 7845 1 : 1606 2 : 0 3 : 0 
Heartbeat_Variant_1_evicts 0 : 1611 1 : 0 2 : 0 3 : 0 
Heartbeat_Variant_2_evicts 0 : 0 1 : 0 2 : 0 3 : 0 
Heartbeat_Variant_3_evicts 0 : 0 1 : 0 2 : 0 3 : 0 
Heartbeat CPU 0 instructions: 80000002 cycles: 36023280 heartbeat IPC: 1.36555 cumulative IPC: 1.36109 (Simulation time: 0 hr 17 min 37 sec) 
Cycle: 40000000 FTQ IN: 13682719 FTQ occupancy: 11.8926 DECODE IN: 13682772 DECODE occupancy: 30.6873 ROB IN: 13682802 ROB occupancy: 219.213 ROB OUT: 13682802
Heartbeat_Variant_0 : 1372 0.16748 per_variant_size: 0 1372 0 0 0 0 0 0 0 
Heartbeat_Variant_1 : 2931 0.357788 per_variant_size: 0 1033 1898 0 0 0 0 0 0 
Heartbeat_Variant_2 : 0 0 per_variant_size: 0 0 0 0 0 0 0 0 0 
Heartbeat_Variant_3 : 0 0 per_variant_size: 0 0 0 0 0 0 0 0 0 
Heartbeat_Variant_0_evicts 0 : 8056 1 : 1575 2 : 0 3 : 0 
Heartbeat_Variant_1_evicts 0 : 1568 1 : 0 2 : 0 3 : 0 
Heartbeat_Variant_2_evicts 0 : 0 1 : 0 2 : 0 3 : 0 
Heartbeat_Variant_3_evicts 0 : 0 1 : 0 2 : 0 3 : 0 
Heartbeat CPU 0 instructions: 90000002 cycles: 43403109 heartbeat IPC: 1.35504 cumulative IPC: 1.35957 (Simulation time: 0 hr 20 min 0 sec) 
Cycle: 50000000 FTQ IN: 13368375 FTQ occupancy: 11.9331 DECODE IN: 13368443 DECODE occupancy: 30.468 ROB IN: 13368473 ROB occupancy: 216.825 ROB OUT: 13368618
Heartbeat_Variant_0 : 1443 0.176147 per_variant_size: 0 1443 0 0 0 0 0 0 0 
Heartbeat_Variant_1 : 3074 0.375244 per_variant_size: 0 995 2079 0 0 0 0 0 0 
Heartbeat_Variant_2 : 0 0 per_variant_size: 0 0 0 0 0 0 0 0 0 
Heartbeat_Variant_3 : 0 0 per_variant_size: 0 0 0 0 0 0 0 0 0 
Heartbeat_Variant_0_evicts 0 : 7947 1 : 1541 2 : 0 3 : 0 
Heartbeat_Variant_1_evicts 0 : 1543 1 : 0 2 : 0 3 : 0 
Heartbeat_Variant_2_evicts 0 : 0 1 : 0 2 : 0 3 : 0 
Heartbeat_Variant_3_evicts 0 : 0 1 : 0 2 : 0 3 : 0 
Heartbeat CPU 0 instructions: 100000001 cycles: 50859905 heartbeat IPC: 1.34106 cumulative IPC: 1.35583 (Simulation time: 0 hr 23 min 6 sec) 
Finished CPU 0 instructions: 50000000 cycles: 36877787 cumulative IPC: 1.35583 (Simulation time: 0 hr 23 min 6 sec) 

ChampSim completed all CPUs

Region of Interest Statistics

CPU 0 cumulative IPC: 1.35583 instructions: 50000000 cycles: 36877787
 Fetch stage stalled: 56.9123  Sim cycles: 36877787 fetch stall cycle: 20987991
 Empty decode stage: 39.3863  Sim cycles: 36877787 fetch stall cycle: 14524808
ITLB TOTAL     ACCESS:    5829689  HIT:    5339867  MISS:     489822  HIT %:    91.5978  MISS %:     8.4022   MPKI: 9.79644
ITLB LOAD TRANSLATION INSTRUCTION	ACCESS:    5710495  HIT:    5220673  MISS:     489822  HIT %:    91.4224  MISS %:    8.57758  MPKI: 9.79644
ITLB TRANSLATION FROM L1D PREFETCHER INSTRUCTION	ACCESS:     119194  HIT:     119194  MISS:          0  HIT %:        100  MISS %:          0  MPKI: 0

ITLB AVERAGE MISS LATENCY: 9.0604 cycles
ITLB RQ	ACCESS:    7924870	FORWARD:          0	MERGED:    1651577	TO_CACHE:    6273293

DTLB TOTAL     ACCESS:    8987768  HIT:    8515824  MISS:     471944  HIT %:     94.749  MISS %:    5.25096   MPKI: 9.43888
DTLB LOAD TRANSLATION DATA	ACCESS:    8987768  HIT:    8515824  MISS:     471944  HIT %:     94.749  MISS %:    5.25096  MPKI: 9.43888

DTLB AVERAGE MISS LATENCY: 9.33915 cycles
DTLB RQ	ACCESS:   13349471	FORWARD:          0	MERGED:    4324759	TO_CACHE:    9024712

STLB TOTAL     ACCESS:    1216011  HIT:    1213937  MISS:       2074  HIT %:    99.8294  MISS %:   0.170558   MPKI: 0.04148
STLB LOAD TRANSLATION INSTRUCTION	ACCESS:     489822  HIT:     489593  MISS:        229  HIT %:    99.9532  MISS %:  0.0467517  MPKI: 0.00458
STLB LOAD TRANSLATION DATA	ACCESS:     471943  HIT:     470118  MISS:       1825  HIT %:    99.6133  MISS %:   0.386699  MPKI: 0.0365
STLB TRANSLATION FROM L1D PREFETCHER DATA	ACCESS:     254246  HIT:     254226  MISS:         20  HIT %:    99.9921  MISS %:  0.0078664  MPKI: 0.0004

STLB AVERAGE MISS LATENCY: 76.8949 cycles
STLB RQ	ACCESS:    1345763	FORWARD:          0	MERGED:     129720	TO_CACHE:    1216043

STLB Hit, L1D data hit: 0
STLB Hit, L2C data hit: 0
STLB Hit, LLC data hit: 0
STLB Hit, LLC data miss: 0
STLB STLB hints to L2: 0
L1D TOTAL     ACCESS:   13108683  HIT:   11982742  MISS:    1125941  HIT %:    91.4107  MISS %:    8.58928   MPKI: 22.5188
L1D LOAD DATA	ACCESS:    6578886  HIT:    5837822  MISS:     741064  HIT %:    88.7357  MISS %:    11.2643  MPKI: 14.8213
L1D RFO DATA	ACCESS:    6193751  HIT:    5908245  MISS:     285506  HIT %:    95.3904  MISS %:    4.60958  MPKI: 5.71012
L1D PREFETCH DATA	ACCESS:     336046  HIT:     236675  MISS:      99371  HIT %:    70.4293  MISS %:    29.5707  MPKI: 1.98742

L1D PREFETCH  REQUESTED:     768269  ISSUED:     768269  USEFUL:      37990  USELESS:      70726
L1D USEFUL LOAD PREFETCHES:      37990 PREFETCH ISSUED TO LOWER LEVEL:     108765  ACCURACY: 34.9285
 TIMELY PREFETCHES:      37990 LATE PREFETCHES: 9339 DROPPED PREFETCHES: 2
L1D AVERAGE MISS LATENCY: 274807 cycles
L1D RQ	ACCESS:   10705827	FORWARD:          0	MERGED:    3931414	TO_CACHE:    6614053
L1D WQ	ACCESS:    6928377	FORWARD:     160635	MERGED:     192959	TO_CACHE:    6735418
L1D PQ	ACCESS:     384272	FORWARD:          0	MERGED:          0	TO_CACHE:     383997

L1D UNIQUE REGIONS ACCESSED: 0
L1D REGIONS CONFLICTS: 0
L1D Cross Page Prefetch Requests: 6064
L1D Same Page Prefetch Requests: 777713
L1D ROI Sum of L1D PQ occupancy: 4896812
L1D PREFETCHES PUSHED FROM L2C: 0
L1I TOTAL     ACCESS:    7135903  HIT:    4391511  MISS:    2744392  HIT %:    61.5411  MISS %:    38.4589   MPKI: 54.8878
L1I LOAD INSTRUCTION	ACCESS:    6483556  HIT:    3739164  MISS:    2744392  HIT %:    57.6715  MISS %:    42.3285  MPKI: 54.8878
L1I PREFETCH INSTRUCTION	ACCESS:     652347  HIT:     652347  MISS:          0  HIT %:        100  MISS %:          0  MPKI: 0

L1I PREFETCH  REQUESTED:    1550124  ISSUED:    1550124  USEFUL:          0  USELESS:          0
L1I USEFUL LOAD PREFETCHES:          0 PREFETCH ISSUED TO LOWER LEVEL:          0  ACCURACY: -nan
 TIMELY PREFETCHES:          0 LATE PREFETCHES: 0 DROPPED PREFETCHES: 0
L1I AVERAGE MISS LATENCY: 17.2204 cycles
L1I RQ	ACCESS:    9494641	FORWARD:          0	MERGED:    2692828	TO_CACHE:    6801813
L1I PQ	ACCESS:    1550124	FORWARD:          0	MERGED:     427067	TO_CACHE:    1123057

L1BTB TOTAL     ACCESS:    5673715  HIT:    2065652  MISS:    3608063  HIT %:    36.4074  MISS %:    63.5926   MPKI: 72.1613
L1BTB BRANCH_DIRECT_JUMP	ACCESS:     548527 HIT:     145506 MISS:     403021 AVERAGE STALL: 43.7694 AVERAGE FETCH STALL: 16.965 AVERAGE FETCH QUEUE STALL: 11.6038 AVERAGE DECODE STALL: 14.3358 AVERAGE EXECUTE STALL: 1.61771e+15
L1BTB BRANCH_INDIRECT	ACCESS:     183452 HIT:      66517 MISS:     116935 AVERAGE STALL: 107.095 AVERAGE FETCH STALL: 11.5524 AVERAGE FETCH QUEUE STALL: 15.9101 AVERAGE DECODE STALL: 12.5601 AVERAGE EXECUTE STALL: 66.1101
L1BTB BRANCH_CONDITIONAL	ACCESS:    2727532 HIT:    1440862 MISS:    1286670 AVERAGE STALL: 46.692 AVERAGE FETCH STALL: 22.7967 AVERAGE FETCH QUEUE STALL: 13.1411 AVERAGE DECODE STALL: 10.0342 AVERAGE EXECUTE STALL: 1.47232e+15
L1BTB BRANCH_DIRECT_CALL	ACCESS:     936937 HIT:     103941 MISS:     832996 AVERAGE STALL: 54.9663 AVERAGE FETCH STALL: 20.0848 AVERAGE FETCH QUEUE STALL: 18.3698 AVERAGE DECODE STALL: 15.7877 AVERAGE EXECUTE STALL: 9.16699e+14
L1BTB BRANCH_INDIRECT_CALL	ACCESS:     170170 HIT:      20649 MISS:     149521 AVERAGE STALL: 131.376 AVERAGE FETCH STALL: 13.4669 AVERAGE FETCH QUEUE STALL: 11.5359 AVERAGE DECODE STALL: 9.99504 AVERAGE EXECUTE STALL: 95.8713
L1BTB BRANCH_RETURN	ACCESS:    1107097 HIT:     288177 MISS:     818920 AVERAGE STALL: 44.5032 AVERAGE FETCH STALL: 17.5277 AVERAGE FETCH QUEUE STALL: 4.0479 AVERAGE DECODE STALL: 5.94901 AVERAGE EXECUTE STALL: 4.10594e+14
L1BTB BRANCH_OTHER ACCESS:          0 HIT:          0 MISS:          0 AVERAGE STALL: -nan AVERAGE FETCH STALL: -nan AVERAGE FETCH QUEUE STALL: -nan AVERAGE DECODE STALL: -nan AVERAGE EXECUTE STALL: -nan
L1BTB TOTAL ROB OCCUPANCY AT BTB MISS: 4.07104

L2BTB TOTAL     ACCESS:    3582497  HIT:    3483592  MISS:      98905  HIT %:    97.2392  MISS %:    2.76078   MPKI: 1.9781
L2BTB BRANCH_DIRECT_JUMP	ACCESS:     398757 HIT:     391583 MISS:       7174 AVERAGE STALL: 43.7694 AVERAGE FETCH STALL: 16.965 AVERAGE FETCH QUEUE STALL: 11.6038 AVERAGE DECODE STALL: 14.3358 AVERAGE EXECUTE STALL: 1.61771e+15
L2BTB BRANCH_INDIRECT	ACCESS:     106673 HIT:     103455 MISS:       3218 AVERAGE STALL: 107.095 AVERAGE FETCH STALL: 11.5524 AVERAGE FETCH QUEUE STALL: 15.9101 AVERAGE DECODE STALL: 12.5601 AVERAGE EXECUTE STALL: 66.1101
L2BTB BRANCH_CONDITIONAL	ACCESS:    1286669 HIT:    1274020 MISS:      12649 AVERAGE STALL: 46.692 AVERAGE FETCH STALL: 22.7967 AVERAGE FETCH QUEUE STALL: 13.1411 AVERAGE DECODE STALL: 10.0342 AVERAGE EXECUTE STALL: 1.47232e+15
L2BTB BRANCH_DIRECT_CALL	ACCESS:     832996 HIT:     812819 MISS:      20177 AVERAGE STALL: 54.9663 AVERAGE FETCH STALL: 20.0848 AVERAGE FETCH QUEUE STALL: 18.3698 AVERAGE DECODE STALL: 15.7877 AVERAGE EXECUTE STALL: 9.16699e+14
L2BTB BRANCH_INDIRECT_CALL	ACCESS:     139881 HIT:     127760 MISS:      12121 AVERAGE STALL: 131.376 AVERAGE FETCH STALL: 13.4669 AVERAGE FETCH QUEUE STALL: 11.5359 AVERAGE DECODE STALL: 9.99504 AVERAGE EXECUTE STALL: 95.8713
L2BTB BRANCH_RETURN	ACCESS:     817521 HIT:     773955 MISS:      43566 AVERAGE STALL: 44.5032 AVERAGE FETCH STALL: 17.5277 AVERAGE FETCH QUEUE STALL: 4.0479 AVERAGE DECODE STALL: 5.94901 AVERAGE EXECUTE STALL: 4.10594e+14
L2BTB BRANCH_OTHER ACCESS:          0 HIT:          0 MISS:          0 AVERAGE STALL: -nan AVERAGE FETCH STALL: -nan AVERAGE FETCH QUEUE STALL: -nan AVERAGE DECODE STALL: -nan AVERAGE EXECUTE STALL: -nan
L2BTB TOTAL ROB OCCUPANCY AT BTB MISS: 148.512

L2C TOTAL     ACCESS:    4479480  HIT:    3992742  MISS:     486738  HIT %:    89.1341  MISS %:    10.8659   MPKI: 9.73476
L2C LOAD INSTRUCTION	ACCESS:    2744395  HIT:    2485534  MISS:     258861  HIT %:    90.5676  MISS %:    9.43235  MPKI: 5.17722
L2C LOAD TRANSLATION INSTRUCTION	ACCESS:        272  HIT:         76  MISS:        196  HIT %:    27.9412  MISS %:    72.0588  MPKI: 0.00392
L2C LOAD DATA	ACCESS:     731698  HIT:     649938  MISS:      81760  HIT %:     88.826  MISS %:     11.174  MPKI: 1.6352
L2C RFO DATA	ACCESS:     285431  HIT:     233605  MISS:      51826  HIT %:    81.8429  MISS %:    18.1571  MPKI: 1.03652
L2C PREFETCH DATA	ACCESS:     195095  HIT:     117871  MISS:      77224  HIT %:    60.4172  MISS %:    39.5828  MPKI: 1.54448
L2C WRITEBACK DATA	ACCESS:     520658  HIT:     505138  MISS:      15520  HIT %:    97.0192  MISS %:    2.98084  MPKI: 0.3104
L2C LOAD TRANSLATION DATA	ACCESS:       1906  HIT:        560  MISS:       1346  HIT %:    29.3809  MISS %:    70.6191  MPKI: 0.02692
L2C TRANSLATION FROM L1D PREFETCHER DATA	ACCESS:         25  HIT:         20  MISS:          5  HIT %:         80  MISS %:         20  MPKI: 0.0001

L2C PREFETCH  REQUESTED:      94550  ISSUED:      94550  USEFUL:       8460  USELESS:      69080
L2C USEFUL LOAD PREFETCHES:       8460 PREFETCH ISSUED TO LOWER LEVEL:      77651  ACCURACY: 10.8949
 TIMELY PREFETCHES:       8460 LATE PREFETCHES: 427 DROPPED PREFETCHES: 0
L2C AVERAGE MISS LATENCY: 38.5686 cycles
L2C RQ	ACCESS:    3763778	FORWARD:          0	MERGED:          0	TO_CACHE:    3763731
L2C WQ	ACCESS:     520659	FORWARD:         49	MERGED:          0	TO_CACHE:     520659
L2C PQ	ACCESS:     203315	FORWARD:          0	MERGED:       3380	TO_CACHE:     199933

L2C Dense regions hint from L2: 0
PSCL5 TOTAL     ACCESS:       4152  HIT:       2076  MISS:       2076  HIT %:         50  MISS %:         50   MPKI: 0.04152
PSCL5 LOAD TRANSLATION INSTRUCTION	ACCESS:       4102  HIT:       2051  MISS:       2051  HIT %:         50  MISS %:         50  MPKI: 0.04102
PSCL5 TRANSLATION FROM L1D PREFETCHER INSTRUCTION	ACCESS:         50  HIT:         25  MISS:         25  HIT %:         50  MISS %:         50  MPKI: 0.0005


PSCL4 TOTAL     ACCESS:       3973  HIT:       1980  MISS:       1993  HIT %:    49.8364  MISS %:    50.1636   MPKI: 0.03986
PSCL4 LOAD TRANSLATION INSTRUCTION	ACCESS:       2148  HIT:       1958  MISS:        190  HIT %:    91.1546  MISS %:    8.84544  MPKI: 0.0038
PSCL4 TRANSLATION FROM L1D PREFETCHER INSTRUCTION	ACCESS:         22  HIT:         22  MISS:          0  HIT %:        100  MISS %:          0  MPKI: 0
PSCL4 LOAD TRANSLATION DATA	ACCESS:       1781  HIT:          0  MISS:       1781  HIT %:          0  MISS %:        100  MPKI: 0.03562
PSCL4 TRANSLATION FROM L1D PREFETCHER DATA	ACCESS:         22  HIT:          0  MISS:         22  HIT %:          0  MISS %:        100  MPKI: 0.00044


PSCL3 TOTAL     ACCESS:       4057  HIT:       2022  MISS:       2035  HIT %:    49.8398  MISS %:    50.1602   MPKI: 0.0407
PSCL3 LOAD TRANSLATION INSTRUCTION	ACCESS:       2190  HIT:       2000  MISS:        190  HIT %:    91.3242  MISS %:     8.6758  MPKI: 0.0038
PSCL3 TRANSLATION FROM L1D PREFETCHER INSTRUCTION	ACCESS:         22  HIT:         22  MISS:          0  HIT %:        100  MISS %:          0  MPKI: 0
PSCL3 LOAD TRANSLATION DATA	ACCESS:       1823  HIT:          0  MISS:       1823  HIT %:          0  MISS %:        100  MPKI: 0.03646
PSCL3 TRANSLATION FROM L1D PREFETCHER DATA	ACCESS:         22  HIT:          0  MISS:         22  HIT %:          0  MISS %:        100  MPKI: 0.00044


PSCL2 TOTAL     ACCESS:       4050  HIT:       1974  MISS:       2076  HIT %:    48.7407  MISS %:    51.2593   MPKI: 0.04152
PSCL2 LOAD TRANSLATION INSTRUCTION	ACCESS:       2194  HIT:       1949  MISS:        245  HIT %:    88.8332  MISS %:    11.1668  MPKI: 0.0049
PSCL2 TRANSLATION FROM L1D PREFETCHER INSTRUCTION	ACCESS:         25  HIT:         25  MISS:          0  HIT %:        100  MISS %:          0  MPKI: 0
PSCL2 LOAD TRANSLATION DATA	ACCESS:       1806  HIT:          0  MISS:       1806  HIT %:          0  MISS %:        100  MPKI: 0.03612
PSCL2 TRANSLATION FROM L1D PREFETCHER DATA	ACCESS:         25  HIT:          0  MISS:         25  HIT %:          0  MISS %:        100  MPKI: 0.0005


LLC TOTAL     ACCESS:     547755  HIT:     518800  MISS:      28955  HIT %:    94.7139  MISS %:    5.28612   MPKI: 0.5791
LLC LOAD INSTRUCTION	ACCESS:     258861  HIT:     257763  MISS:       1098  HIT %:    99.5758  MISS %:   0.424166  MPKI: 0.02196
LLC LOAD TRANSLATION INSTRUCTION	ACCESS:        196  HIT:        157  MISS:         39  HIT %:     80.102  MISS %:     19.898  MPKI: 0.00078
LLC LOAD DATA	ACCESS:      81392  HIT:      77802  MISS:       3590  HIT %:    95.5892  MISS %:    4.41075  MPKI: 0.0718
LLC RFO DATA	ACCESS:      51766  HIT:      37697  MISS:      14069  HIT %:    72.8219  MISS %:    27.1781  MPKI: 0.28138
LLC PREFETCH DATA	ACCESS:      77650  HIT:      67895  MISS:       9755  HIT %:    87.4372  MISS %:    12.5628  MPKI: 0.1951
LLC WRITEBACK DATA	ACCESS:      76539  HIT:      76223  MISS:        316  HIT %:    99.5871  MISS %:   0.412861  MPKI: 0.00632
LLC LOAD TRANSLATION DATA	ACCESS:       1346  HIT:       1258  MISS:         88  HIT %:    93.4621  MISS %:    6.53789  MPKI: 0.00176
LLC TRANSLATION FROM L1D PREFETCHER DATA	ACCESS:          5  HIT:          5  MISS:          0  HIT %:        100  MISS %:          0  MPKI: 0

LLC AVERAGE MISS LATENCY: 159.101 cycles
LLC RQ	ACCESS:     393567	FORWARD:          0	MERGED:          0	TO_CACHE:     393566
LLC WQ	ACCESS:      76539	FORWARD:          2	MERGED:          0	TO_CACHE:      76539
LLC PQ	ACCESS:      77651	FORWARD:          0	MERGED:          0	TO_CACHE:      77650

LLC Dense regions hint to LLC: 0

RAW hits: 1921325
Loads Generated: 12627151
Loads sent to L1D: 10705827
Stores Generated: 6928372
Stores sent to L1D: 6928377
Major fault: 0 Minor fault: 2616
Allocated PAGES: 2616

stream: 
stream:times selected: 1226597
stream:pref_filled: 124960
stream:pref_useful: 25581
stream:pref_late: 7694
stream:misses: 9260
stream:misses_by_poll: 0

CS: 
CS:times selected: 188539
CS:pref_filled: 66306
CS:pref_useful: 41954
CS:pref_late: 7282
CS:misses: 18614
CS:misses_by_poll: 8

CPLX: 
CPLX:times selected: 1036841
CPLX:pref_filled: 22140
CPLX:pref_useful: 6139
CPLX:pref_late: 3099
CPLX:misses: 104845
CPLX:misses_by_poll: 1

NL_L1: 
NL:times selected: 13081
NL:pref_filled: 1469
NL:pref_useful: 216
NL:pref_late: 269
NL:misses: 1586
NL:misses_by_poll: 0

total selections: 2465058
total_filled: 99371
total_useful: 37990
total_late: 19968
total_polluted: 9
total_misses_after_warmup: 776231
conflicts: 5508336

test: 122481

DRAM Statistics
 CHANNEL 0
 RQ ROW_BUFFER_HIT:      10492  ROW_BUFFER_MISS:      18144
 DBUS_CONGESTED:          8
 WQ ROW_BUFFER_HIT:       1581  ROW_BUFFER_MISS:      12980  FULL:          0

 AVG_CONGESTED_CYCLE: 5

CPU 0 Branch Prediction Accuracy: 99.813% MPKI: 0.34192 Average ROB Occupancy at Mispredict: 173.527
Branch types
NOT_BRANCH: 40856831 81.7137%
BRANCH_DIRECT_JUMP: 548527 1.09705%
BRANCH_INDIRECT: 183452 0.366904%
BRANCH_CONDITIONAL: 6196612 12.3932%
BRANCH_DIRECT_CALL: 936937 1.87387%
BRANCH_INDIRECT_CALL: 170170 0.34034%
BRANCH_RETURN: 1107097 2.21419%
BRANCH_OTHER: 0 0%

DRAM PAGES: 1048576
Allocated PAGES: 2616
Average_ROB_Occupancy: 219.473
Average_Decode_Occupancy: 30.5275
Average_FTQ_Occupancy: 11.8912
Indirect max targets: 14 Average targets: 1.17197
Branch_type:  BRANCH_DIRECT_JUMP:  Count Percentage: 3.35122 6.15945 4.3103 8.47946 2.23603 6.34166 1.35674 67.7651 
Branch_type:  BRANCH_INDIRECT:  Count Percentage: 11.7583 3.47054 16.0244 9.68511 3.33413 2.79722 0.932226 51.9981 
Branch_type:  BRANCH_CONDITIONAL:  Count Percentage: 21.2655 3.27237 2.7793 4.81462 1.64442 4.89179 3.7825 57.5495 
Branch_type:  BRANCH_DIRECT_CALL:  Count Percentage: 0.855329 1.27309 0.769727 4.37378 2.29129 2.63578 0.72252 87.0785 
Branch_type:  BRANCH_INDIRECT_CALL:  Count Percentage: 9.55695 0 2.99342 0.000881801 0.695153 1.71334 1.00437 84.0359 
Branch_type:  BRANCH_RETURN:  Count Percentage: 4.68833 1.39213 1.05061 4.37338 3.75834 5.36364 3.69071 75.6829 
Branch_type:  BRANCH_DIRECT_JUMP:  Total Count: 36710 67472 47216 92886 24494 69468 14862 742315 
Branch_type:  BRANCH_INDIRECT:  Total Count: 43099 12721 58736 35500 12221 10253 3417 190595 
Branch_type:  BRANCH_CONDITIONAL:  Total Count: 2633873 405305 344235 596324 203673 605882 468488 7127900 
Branch_type:  BRANCH_DIRECT_CALL:  Total Count: 16017 23840 14414 81904 42907 49358 13530 1630642 
Branch_type:  BRANCH_INDIRECT_CALL:  Total Count: 32514 0 10184 3 2365 5829 3417 285901 
Branch_type:  BRANCH_RETURN:  Total Count: 103784 30817 23257 96812 83197 118733 81700 1675365 
Number of unique branch instructions: 10499
Upper 32 bits: 
aaaa
ffff
ffff0000
Unique upper 32 bits: 3
Unique upper 36 bits: 3
Unique upper 40 bits: 5
Unique upper 44 bits: 32
Unique upper 48 bits: 158
Variant_0 : 1443 0.176147
Variant_1 : 3074 0.375244
Variant_2 : 0 0
Variant_3 : 0 0
Offset_3 4341
Offset_4 257
Offset_5 476
Offset_6 528
Offset_7 626
Offset_8 560
Offset_9 505
Offset_10 412
Offset_11 331
Offset_12 296
Offset_13 228
Offset_14 235
Offset_15 194
Offset_16 226
Offset_17 158
Offset_18 144
Offset_19 255
Offset_20 141
Offset_21 235
Offset_22 403
Offset_23 242
Offset_24 346
Offset_25 114
Offset_47 92
Offset_64 1
decode_dispatch_called: 24353923 66.0395
Dispatch_width: 0 13018396 53.455 35.3015
Dispatch_width: 1 837112 3.43728 2.26996
Dispatch_width: 2 758613 3.11495 2.0571
Dispatch_width: 3 455929 1.8721 1.23632
Dispatch_width: 4 4624442 18.9885 12.5399
Dispatch_width: 5 176732 0.725682 0.479237
Dispatch_width: 6 4482699 18.4065 12.1556
Empty_decode_cycles: 12523864 33.9605
ROB_full_cycles: 7336056 19.8929
Starvation_cycles_per_kilo_instr: 250.59
Starvation_cycles_per_kilo_instr_3: 202.579
Starvation_cycles_per_kilo_instr_0: 182.062
Branch_type_1  (3,1)  (4,9)  (5,39)  (6,71)  (7,125)  (8,146)  (9,133)  (10,108)  (11,74)  (12,47)  (13,11)  (14,2)  (15,3)  (16,4)  (18,1)  (19,5)  (20,2)  (21,1)  (22,3)  (23,2)  (24,10)  (25,12) 
Branch_type_2  (3,1)  (4,1)  (5,1)  (8,4)  (9,4)  (10,1)  (12,1)  (13,1)  (14,1)  (16,3)  (17,2)  (20,2)  (21,2)  (23,5)  (24,1)  (47,42) 
Branch_type_3  (3,4339)  (4,247)  (5,432)  (6,441)  (7,470)  (8,344)  (9,276)  (10,166)  (11,128)  (12,54)  (13,10)  (64,1) 
Branch_type_4  (6,3)  (7,8)  (8,25)  (9,58)  (10,65)  (11,67)  (12,107)  (13,96)  (14,105)  (15,92)  (16,99)  (17,72)  (18,61)  (19,124)  (20,73)  (21,124)  (22,212)  (23,136)  (24,201)  (25,98) 
Branch_type_5  (8,3)  (9,1)  (10,4)  (11,5)  (12,3)  (13,14)  (14,16)  (15,11)  (16,22)  (17,11)  (18,23)  (19,14)  (20,11)  (21,13)  (22,43)  (23,26)  (24,38) 
Branch_type_6  (5,4)  (6,13)  (7,23)  (8,38)  (9,33)  (10,68)  (11,57)  (12,84)  (13,96)  (14,111)  (15,88)  (16,98)  (17,73)  (18,59)  (19,112)  (20,53)  (21,95)  (22,145)  (23,73)  (24,96)  (25,4)  (47,50) 
Unique trigger count: 
Variant_0_evicts_0 : 0
Variant_0_evicts_1 : 0
Variant_0_evicts_2 : 0
Variant_0_evicts_3 : 0
Variant_1_evicts_0 : 0
Variant_1_evicts_1 : 0
Variant_1_evicts_2 : 0
Variant_1_evicts_3 : 0
Variant_2_evicts_0 : 0
Variant_2_evicts_1 : 0
Variant_2_evicts_2 : 0
Variant_2_evicts_3 : 0
Variant_3_evicts_0 : 0
Variant_3_evicts_1 : 0
Variant_3_evicts_2 : 0
Variant_3_evicts_3 : 0
BTB PER SET UNIQUE ADDR: 3 4 3 3 1 1 3 2 4 0 2 0 5 3 1 3 3 2 3 5 3 4 2 3 4 5 1 4 3 2 6 6 4 3 4 2 1 6 5 2 4 4 4 6 6 3 4 4 6 3 3 2 3 1 0 3 4 3 3 3 1 4 2 3 1 4 5 4 3 5 5 1 1 4 2 3 3 6 1 4 2 2 1 4 3 4 2 5 3 3 6 5 3 5 2 0 3 4 2 3 4 4 3 3 3 2 1 2 3 2 2 2 3 6 2 6 2 4 4 1 5 4 2 0 1 2 2 2 7 4 6 2 4 1 6 4 2 2 3 3 5 4 4 2 1 5 3 5 5 4 3 9 3 5 4 1 4 4 3 3 4 6 5 4 5 5 2 2 9 3 2 3 4 3 1 2 4 4 8 1 3 4 7 4 6 6 3 1 2 3 5 3 3 4 4 4 3 3 3 5 3 2 5 2 3 3 2 4 2 1 2 4 5 4 4 2 3 5 4 0 1 2 2 4 3 2 4 3 0 3 8 4 3 4 3 4 5 2 2 2 1 0 5 3 11 7 1 3 4 4 2 2 1 4 2 6 3 4 4 3 4 4 4 2 3 6 3 2 4 2 3 2 2 3 4 2 1 1 3 3 4 3 6 2 5 5 3 3 1 1 0 3 1 5 2 1 5 3 2 2 3 3 2 2 3 2 4 2 7 5 4 1 3 2 5 2 6 6 2 4 4 7 3 4 2 3 2 7 1 2 5 0 2 5 5 2 2 2 6 0 3 0 1 5 5 3 1 3 3 5 4 6 5 3 5 3 2 0 5 1 2 5 2 4 6 5 1 1 2 2 3 2 2 4 4 4 3 4 3 4 5 3 1 5 3 2 5 2 6 1 5 4 4 2 3 1 5 0 1 3 4 2 5 2 2 4 4 3 1 1 1 3 6 3 2 3 5 3 1 3 1 1 4 4 3 4 2 0 2 5 2 2 9 3 5 5 3 3 4 0 3 4 5 4 5 6 2 4 3 2 4 3 1 3 5 1 1 4 7 2 3 3 4 6 1 3 5 2 3 3 0 4 5 2 2 1 4 5 1 1 2 1 2 2 0 4 3 0 5 1 4 2 3 4 0 6 3 3 3 1 5 1 1 1 1 2 2 2 2 3 3 2 3 7 2 1 2 5 4 6 4 5 4 2 6 5 1 6 6 4 4 3 4 6 3 4 2 1 4 1 2 5 6 2 6 2 7 3 7 9 3 6 3 6 1 3 3 1 4 3 7 2 5 3 2 1 4 3 2 7 4 2 3 8 3 2 3 4 1 6 5 2 2 0 1 0 0 9 5 3 6 8 1 2 3 3 7 2 4 2 6 2 5 6 2 4 3 4 3 2 5 3 3 2 2 2 2 0 3 1 5 3 7 2 2 4 3 5 2 3 5 4 3 3 5 4 3 5 3 2 7 1 4 4 1 0 4 3 3 4 3 2 5 2 3 0 4 3 2 3 5 2 5 4 6 4 5 3 2 4 5 4 4 3 5 6 3 3 3 3 3 2 4 2 5 3 5 3 4 3 1 4 2 3 3 3 6 4 5 4 0 6 0 3 3 3 3 1 3 1 3 3 3 1 2 1 8 2 0 3 2 0 1 1 1 3 1 4 2 4 6 4 2 1 3 4 7 3 2 2 2 3 2 4 2 2 3 2 2 2 0 2 1 4 2 2 3 6 4 1 3 3 1 5 4 4 8 2 2 2 4 3 0 3 3 4 5 2 1 3 4 4 0 3 8 6 3 3 0 2 2 4 1 1 4 7 7 2 2 2 5 3 5 3 4 3 3 5 1 2 1 3 4 0 5 3 1 2 0 4 5 2 4 2 2 2 3 2 4 4 3 1 3 2 5 2 2 2 5 3 2 2 3 4 2 4 6 5 5 2 6 3 5 4 5 5 3 2 5 4 3 6 2 1 9 3 3 4 5 3 1 3 3 6 4 0 2 3 5 4 3 6 4 5 5 3 2 3 2 4 5 2 3 4 3 1 6 4 2 1 5 2 1 4 5 5 4 5 3 5 5 4 1 3 1 5 0 2 6 2 6 5 5 3 4 2 3 2 5 8 5 4 9 7 6 4 6 4 2 6 4 2 1 4 4 6 5 5 4 4 6 1 5 4 2 3 6 6 4 2 2 2 4 5 2 6 9 5 6 3 2 3 0 4 6 1 7 5 1 3 7 5 3 4 2 1 2 3 3 2 5 4 2 7 4 4 4 5 3 5 3 2 4 2 2 5 4 3 3 4 5 3 4 3 6 2 5 2 2 5 5 2 9 5 2 4 3 2 2 3 4 7 6 2 3 2 3 2 3 1 3 2 4 4 1 4 6 5 4 6 0 3 3 4 4 4 2 1 3 2 3 1 2 1 4 1 3 3 3 5 2 8 5 3 2 1 10 1 2 4 1 2 5 5 3 6 3 5 5 5 3 5 3 2 1 1 5 1 4 4 3 8 4 1 7 4 6 2 3 4 5 3 5 7 4 4 6 1 4 5 7 4 3 3 4 3 6 6 3 6 6 6 4 3 5 4 1 2 4 5 1 3 2 1 3 5 2 3 5 2 2 5 4 2 5 1 7 3 3 2 3 1 3 5 3 4 3 4 2 6 2 3 7 3 4 5 3 5 2 8 3 5 3 8 6 2 6 1 5 2 1 2 4 4 3 1 3 4 3 1 2 3 4 4 3 3 3 4 2 5 2 5 4 5 0 5 3 3 2 6 8 1 8 0 1 4 5 2 5 1 3 3 4 1 1 2 4 5 3 4 1 4 4 6 5 1 4 3 3 6 10 4 3 7 6 5 1 1 3 5 6 3 2 2 4 3 4 4 5 3 1 4 2 3 6 8 5 3 3 6 1 2 6 3 4 1 3 2 6 8 3 3 3 3 4 5 2 5 6 6 5 2 1 5 4 2 4 3 4 4 4 4 7 3 5 4 3 5 5 3 1 7 4 4 3 3 3 2 3 3 2 2 5 4 3 3 5 2 1 3 3 8 5 3 3 4 2 4 4 3 4 3 2 1 4 2 4 2 5 3 4 4 2 1 2 6 1 4 2 4 2 4 6 1 1 5 4 3 3 3 5 2 3 4 5 5 4 4 4 3 3 3 2 4 6 2 4 1 5 0 8 3 3 7 4 4 5 7 3 2 3 3 2 3 4 1 4 2 4 2 0 5 2 6 3 3 3 4 3 2 5 3 4 2 4 1 7 2 0 3 4 2 1 4 1 5 4 3 6 3 2 2 2 3 2 2 7 2 3 5 3 3 3 4 2 2 5 0 2 3 4 3 2 1 2 0 4 0 4 2 5 3 3 3 2 1 2 5 4 2 7 1 3 3 2 2 5 5 3 2 7 0 1 2 3 1 1 2 3 3 5 3 1 1 7 3 1 4 1 7 1 4 2 3 6 2 3 2 1 3 3 1 3 3 4 2 3 3 1 3 0 5 2 3 3 0 4 3 5 3 5 3 3 4 1 3 1 2 1 3 4 0 2 3 3 3 4 1 3 3 2 9 7 2 3 2 4 1 1 3 6 2 3 0 3 2 4 2 3 5 6 5 8 0 4 1 8 4 4 5 3 8 2 4 8 3 0 6 4 3 3 5 3 3 2 1 2 5 2 2 2 3 2 3 6 3 5 3 6 1 1 5 5 3 3 5 4 3 6 2 5 5 2 6 4 3 3 1 3 7 5 3 2 3 3 3 4 4 2 2 3 1 3 1 3 7 0 2 2 3 3 3 5 3 4 2 6 1 2 2 5 2 4 5 6 1 1 7 2 4 2 3 4 7 2 3 2 4 6 3 4 3 5 3 5 9 4 4 3 5 2 5 4 3 2 3 0 2 2 4 4 3 2 4 3 5 4 2 4 8 0 3 2 4 4 4 3 4 3 6 3 4 1 5 3 3 4 2 3 0 2 5 0 7 2 6 6 1 4 3 2 0 4 2 3 5 3 6 2 3 2 2 3 5 6 1 3 3 0 3 2 4 5 3 2 3 5 2 3 2 6 4 4 1 5 3 0 2 4 1 1 8 2 0 4 2 4 3 2 4 6 3 3 6 1 5 4 7 2 7 5 3 3 2 7 1 4 0 3 3 4 4 3 4 2 1 2 4 0 3 0 3 4 6 2 2 5 2 3 3 3 1 2 2 4 2 4 2 5 3 2 3 1 2 3 3 3 2 3 4 2 1 1 2 2 5 1 5 1 5 4 3 3 2 5 1 2 3 5 4 3 4 5 6 3 3 3 4 3 2 0 3 2 0 2 1 2 2 4 2 5 2 2 3 4 1 2 4 3 2 3 8 3 2 7 7 4 2 4 2 3 5 3 4 5 3 4 1 2 4 5 4 2 4 3 2 5 3 5 7 4 3 0 4 1 0 2 3 0 4 4 6 1 3 4 7 5 0 2 2 4 2 5 2 3 3 8 3 2 2 3 7 2 7 3 4 7 0 1 3 1 4 4 2 0 2 3 4 5 4 1 0 3 4 6 1 1 1 3 6 2 1 5 5 3 3 5 4 1 6 2 6 2 1 2 2 2 2 6 1 3 3 3 3 4 1 5 3 5 3 4 2 1 3 6 4 4 0 
BTB PER SET COUNT: 3 4 3 3 1 2 5 2 4 0 2 0 5 3 1 3 3 3 3 1460 3 5 3 3 4 8 1 4 1457 2 6 6 4 3 5 2 2910 6 9 2 4 4 9 914 952 3 4 4 7 3 3 2 4 1 0 3 5 3 3 3 1 4 2 4 1 391 6 5 3 5 6 1 1 4 2 3 511 690 2 4 2 4 3 4 3 5 2 6 3 3 11 444 3 5 2 0 3 8 2 3 6 4 3 3 3 2 1 2 3 3 2 2 3 7 2 7 2 4 4 1 5 5 2 0 1 3 2 2 8 5 516 2 4 2 13 4 2 2 3 3 6 6 6 2 1 24 6 6 5 4 3 1128 3 5 15 1 4 4 3 6 5 7 6 5 12 2844 4 2 3091 5 2 3 6 3 1 6 4 4 963 1 3 4 2043 5 6 6 5 1 2 3 5 5 3 4 6 5 3 3 4 5 3 2 5 2 5 3 2 2913 2 1 4 6 6 4 5 3 4 9 4 0 1 2 2 4 3 2 6 36 0 3 1762 4 3 5 3 4 5 2 2 2 1 0 5 3 1039 9 1 3 4 4 2 2 1 4 2 7 4 4 5 4 6 4 4 2 2911 6 4 2 4 2 3 2 2 3 4 3 1 1 3 3 5 3 8 2 5 1528 3 3 1 1 0 3 1 6 6 1 8 3 2 3 3 3 2 2 4 2 4 2 2038 5 6 1 3 2 5 5 6 7 2 5 4 7 4 4 2 3 2 11 1 2 1529 0 2 5 951 2 1525 2 6 0 3 0 1 1021 1022 3 1 3 5 7 4 9 6 3 7 4 2 0 6 1 3 5 2 4 9 8 1 2 2 3 3 2 2 5 6 4 4 4 5 4 5 3 1 7 4 2 5 2 7 1 5 5 4 2 3 1 1807 0 1 3 4 2 6 2 2 5 1458 4 1 947 1 3 6 6 1455 3 246 4 1 94 1 1 4 6 3 5 6 0 2 7 118 2 931 3 5 7 3 3 5 0 5 4 5 4 5 8 2 4 3 2 4 3 1 5 5 1 1 4 517 2 3 3 4 6 1 4 5 2 4 3 0 6 43 509 2 1 5 5 1 1 2 1 2 509 0 4 3 0 5 1 4 2 4 4 0 8 4 3 3 1 5 10 1 1 1 2 2 2 2 3 3 2 3 7 6 1 2 5 4 514 5 1459 4 2 6 5 1 7 6 4 4 3 4 13 3 513 4 1 6 1 2 5 6 4 8 2 7 3 7 2620 4 9 5 8 1 3 4 1 4 3 7 2 5 5 2 1 5 3 2 50 4 3 3 35 3 2 3 4 1 7 5 49 2 0 1 0 0 2767 6 3 6 18 2 2 949 3 7 2 4 2 6 2 5 6 2 4 3 4 6 2 5 4 3 2 2 4 880 0 5 1 6 1023 12 2 3 4 3 5 2 3 1021 1458 3 3 5 4 3 5 3 2 1533 1 4 4 1 0 5 3 3 4 4 2 8 2 5 0 5 3 2 3 7930 3 5 4 6 6 2915 1019 3 4 8 4 4 9 5 1603 3 3 3 3 4 4 4 1018 5 4 6 1457 4 3 2 1021 2 3 3 3 6 6 6 74 0 7 0 3 4 1021 4 1 3 2 3 3 5 1 1018 1 1471 2 0 3 2 0 1 1 1 5 1 4 2 4 6 4 948 1 4 4 9 3 3 2 2 3 3 4 2 2 1021 2 2 1019 0 2 1 9 2 2 3 6 4 1 3 3 1 6 4 4 25 2 4 2 4 3 0 143 3 4 5 4 1 3 4 6 0 4 24 7 5 3 0 2 2 114 1 1 4 34 23 2 2 2 5 3 5 5 2036 6 5 5 2 5 1 3 6 0 9 5 1 2 0 4 5 2 4 2 2 2 3 2 4 56 3 1 3 2 9 5 3 2 5 3 2 2 3 1459 2 9 7 5 5 4 1527 3 5 6 5 5 3 2 7 4 3 6 2 1 1381 958 3 5 5 6 1 3 3 8 7 0 4 3 5 4 3 6 4 7 5 3 2 3 2 5 7 2 3 4 3 1 8 4 2 1 5 2 1 84 13 6 6 5 3 6 5 4 1 3 1 5 0 2 6 2 6 5 6 3 7 2 3 2 5 9 7 512 1261 883 8 4 78 4 3 8 4 2 1 950 6 7 5 260 5 4 6 1 5 5 3 3 11 6 4 2 2 511 4 5 2 6 33 5 6 4 2 3 0 774 7 2 953 5 1 3 7 5 738 6 2 3 2 7 3 2 8 5 2 7 4 4 4 6 3 7 4 2 4 2 2 8 4 5 3 6 2038 4 2405 388 1024 4 5 2 2 7 5 5 1191 5 2 5 4 2 2 3 4 22 6 5 3 2 3 2 3 1 3 2 5 4 1 4 7 6 4 6 0 3 3 4 1458 391 2 1 3 2 5 1 2 1 6 1 3 4 3 8 2 8 5 6 2 3 1563 1 2 4 1 2 5 99 5 8 3 5 6 5 3 5 3 2 1 1 6 1 6 4 5 25 4 1 7 4 6 2 1020 4 5 3 7 378 4 4 6 2 4 9 7 4 3 3 5 3 6 6 3 6 6 6 4 3 5 6 1 2 4 5 1 3 2 1 3 6 6 5 517 2 2 5 4 2 5 1 8 4 3 3 3 1 3 5 3 5 3 4 3 6 2 4 11 3 6 10 3 5 2 896 5 5 3 29 6 2 952 1 6 2 1 2 1022 6 3 1 4 119 4 1 2 511 4 4 3 3 4 4 2 5 2 6 4 6 0 6 3 3 2 7 954 1 12 0 1 4 5 3 5 1 3 1526 8 1 1 2 4 5 3 4 1 4 5 6 5 1 4 3 3 6 1538 1912 5 1462 7 5 1 1 5 5 6 6 2 2 4 3 4 4 5 3 1 6 2 3 6 1681 5 4 3 6 1 2 6 3 4 1 3 2 6 1496 949 5 3 3 5 6 2 5 6 7 7 2 1 21 4 2 4 4 4 4 4 4 7 3 5 4 513 5 2541 21 1 1712 4 4 3 3 3 3 3 3 2 2 5 4 3 3 5 2 1 4 3 11 7 3 3 4 2 6 4 3 4 4 3 1 4 2 6 2 5 3 7 5 2 1 2 6 1 4 2 4 2 4 6 1 1 5 4 949 3 3 9 2 3 52 5 5 4 4 4 3 3 3 3 6 6 4 4 1 5 0 1053 3 3 8 4 4 5 1256 4 2 3 3 2 3 4 1 6 4 6 4 0 5 2 6 3 5 3 8 3 2 1459 3 4 1334 8 1 446 2 0 3 6 2 1 1336 1 5 4 3 6 4 4 2 2 4 2 2 2038 2 3 15 4 3 3 4 2 2 8 0 5 8 4 949 2 1 2 0 4 0 4 2 5 3 3 3 1018 1 18 6 20 2 1529 1 3 3 2 2 7 9 111 2 20381 0 1 2 3 1 1 3 3 3 528 376 1 1 37 3 1 4 1 7 1 4 2 4 24 2 15 2 1 3 3 1 4 3 4 2 3 5 1 3 0 5 2 3 5 0 5 729 5 3 5 3 3 4 1 5 1 2 1 3 6 0 2 3 4 4 19 1 3 3 2 722 7 2 5 2 4 1 1 3 955 2 3 0 3 2 4 2 3 5 6 8 18 0 4 1 12 4 4 5 3 1530 2 4 4847 3 0 2035 1458 3 4 5 3 3 2 1 2 951 3 2 2 3 2 3 8 5 5 3 9 3049 1 5 5 4 3 9 4 5 6 4 5 5 2 6 4 401 389 1 1457 8 6 349 9 3 3 3 5 4 2 2 4 1 3 1 3 8 0 2 2 3 3 3 514 3 4 3 8 1 2 2 5 2 2036 6 6 1 1 9 2 1021 2 3 4 7 1020 3 2 6 6 4 514 3 895 3 5 5269 4 4 14553 1529 2 392 1458 4 2 3 0 2 2 4 4 3 2 6 3 5 4 2 306 12 0 1458 2 1458 176 4 5 4 5 6 3 964 1 5 7 4 5 2 3 0 2 783 0 1022 2 8 6 1 4 3 2 0 4 2 5 5 3 7 2 4 2 4 3 5 8 1 3 488 0 3 2 6 5 949 2 4 951 2 5 2 689 4 4 1 5 3 0 2 4 1455 1 2330 2 0 4 4 4 3 4 4 9 3 456 6 1 5 4 9 226 9 324 3 3 2 7 2 390 0 3 2404 5 4 3 4 2 1 2 442 0 3 0 3 4 6 2 2 5 676 3 5 1386 1 2 2 4 2 4 2 32 3 2 3 1 2 247 3 3 2 3 4 2 1 1 2 2 5 1 5 1 3713 4 3 3 7 8 1 2 3 5 4 4 1528 7 8 3 3 3 4 3 2 0 3 4 0 2 1 2 2 4 5 5 2 2 3 4 1 2 4 3 2 3 14 4 2 1139 13 130 2 4 4 3 5 3 9 6 4 4 2 4 4 5 1020 2 4 3 2 5 3 6 1528 4 5 0 4 2 0 2 5 0 4 1463 7 1 3 4 18 5 0 3 2 5 3 7 2 5 3 2971 3 2 4 3 518 6 1306 3 5 1258 0 1 3 1 5 4 2 0 2 3 4 6 4 1 0 3 6 6 1 1 1 3 7 2 1 5 5 3 4 5 4 1 29 2 17 8 2 2 2 2 2 9 1 3 3 3 4 5 1 5 3 243 3 4 2 2 5 1484 4 5 0 
To predecode: 0
Predecoding something: 0
Predecode request dropped: 0
sizeofblock_0 0
sizeofblock_1 65572
sizeofblock_2 97430
sizeofblock_3 0
sizeofblock_4 0
sizeofblock_5 0
sizeofblock_6 0
sizeofblock_7 0
sizeofblock_8 0
Variant_0 Correct: 0 Incorrect: 0 Accuracy: -nan
Variant_1 Correct: 0 Incorrect: 0 Accuracy: -nan
Variant_2 Correct: 0 Incorrect: 0 Accuracy: -nan
Variant_3 Correct: 0 Incorrect: 0 Accuracy: -nan
