
*** ChampSim Multicore Out-of-Order Simulator ***

Warmup Instructions: 50000000
Simulation Instructions: 50000000
Number of CPUs: 1
LLC sets: 2048
LLC ways: 16
Off-chip DRAM Size: 4096 MB Channels: 1 Width: 64-bit Data Rate: 6400 MT/s
CPU 0 runs ./micro_traces/srv416.trace.gz
.gz
ITLB has LRU replacement policy
DTLB has LRU replacement policy
STLB has LRU replacement policy
L1I has LRU replacement policy
L1D has LRU replacement policy
Initialize SRRIP state for L2C
Initialize DRRIP state for LLC
Heartbeat_Variant_0 : 1336 0.326172 per_variant_size: 0 1336 0 0 0 0 0 0 0 
Heartbeat_Variant_1 : 1196 0.291992 per_variant_size: 0 570 626 0 0 0 0 0 0 
Heartbeat_Variant_2 : 1315 0.321045 per_variant_size: 0 543 375 210 187 0 0 0 0 
Heartbeat_Variant_3 : 0 0 per_variant_size: 0 0 0 0 0 0 0 0 0 
Heartbeat_Variant_0_evicts 0 : 5791 1 : 229 2 : 248 3 : 0 
Heartbeat_Variant_1_evicts 0 : 228 1 : 0 2 : 435 3 : 0 
Heartbeat_Variant_2_evicts 0 : 231 1 : 428 2 : 0 3 : 0 
Heartbeat_Variant_3_evicts 0 : 0 1 : 0 2 : 0 3 : 0 
Heartbeat CPU 0 instructions: 10000000 cycles: 2797422 heartbeat IPC: 3.57472 cumulative IPC: 3.57472 (Simulation time: 0 hr 1 min 18 sec) 
Heartbeat_Variant_0 : 1356 0.331055 per_variant_size: 0 1356 0 0 0 0 0 0 0 
Heartbeat_Variant_1 : 1227 0.299561 per_variant_size: 0 580 647 0 0 0 0 0 0 
Heartbeat_Variant_2 : 1343 0.327881 per_variant_size: 0 552 381 204 206 0 0 0 0 
Heartbeat_Variant_3 : 0 0 per_variant_size: 0 0 0 0 0 0 0 0 0 
Heartbeat_Variant_0_evicts 0 : 5659 1 : 115 2 : 131 3 : 0 
Heartbeat_Variant_1_evicts 0 : 121 1 : 0 2 : 293 3 : 0 
Heartbeat_Variant_2_evicts 0 : 126 1 : 292 2 : 0 3 : 0 
Heartbeat_Variant_3_evicts 0 : 0 1 : 0 2 : 0 3 : 0 
Heartbeat CPU 0 instructions: 20000001 cycles: 5593101 heartbeat IPC: 3.57695 cumulative IPC: 3.57583 (Simulation time: 0 hr 2 min 37 sec) 
Heartbeat_Variant_0 : 1367 0.33374 per_variant_size: 0 1367 0 0 0 0 0 0 0 
Heartbeat_Variant_1 : 1241 0.302979 per_variant_size: 0 582 659 0 0 0 0 0 0 
Heartbeat_Variant_2 : 1349 0.329346 per_variant_size: 0 538 384 207 220 0 0 0 0 
Heartbeat_Variant_3 : 0 0 per_variant_size: 0 0 0 0 0 0 0 0 0 
Heartbeat_Variant_0_evicts 0 : 5722 1 : 74 2 : 65 3 : 0 
Heartbeat_Variant_1_evicts 0 : 76 1 : 0 2 : 253 3 : 0 
Heartbeat_Variant_2_evicts 0 : 56 1 : 258 2 : 0 3 : 0 
Heartbeat_Variant_3_evicts 0 : 0 1 : 0 2 : 0 3 : 0 
Heartbeat CPU 0 instructions: 30000002 cycles: 8390172 heartbeat IPC: 3.57517 cumulative IPC: 3.57561 (Simulation time: 0 hr 3 min 52 sec) 
Heartbeat_Variant_0 : 1374 0.335449 per_variant_size: 0 1374 0 0 0 0 0 0 0 
Heartbeat_Variant_1 : 1242 0.303223 per_variant_size: 0 590 652 0 0 0 0 0 0 
Heartbeat_Variant_2 : 1358 0.331543 per_variant_size: 0 557 376 206 219 0 0 0 0 
Heartbeat_Variant_3 : 0 0 per_variant_size: 0 0 0 0 0 0 0 0 0 
Heartbeat_Variant_0_evicts 0 : 5721 1 : 102 2 : 97 3 : 0 
Heartbeat_Variant_1_evicts 0 : 88 1 : 0 2 : 290 3 : 0 
Heartbeat_Variant_2_evicts 0 : 107 1 : 281 2 : 0 3 : 0 
Heartbeat_Variant_3_evicts 0 : 0 1 : 0 2 : 0 3 : 0 
Heartbeat CPU 0 instructions: 40000000 cycles: 11185743 heartbeat IPC: 3.57709 cumulative IPC: 3.57598 (Simulation time: 0 hr 5 min 12 sec) 
Heartbeat_Variant_0 : 1370 0.334473 per_variant_size: 0 1370 0 0 0 0 0 0 0 
Heartbeat_Variant_1 : 1247 0.304443 per_variant_size: 0 587 660 0 0 0 0 0 0 
Heartbeat_Variant_2 : 1359 0.331787 per_variant_size: 0 549 390 198 222 0 0 0 0 
Heartbeat_Variant_3 : 0 0 per_variant_size: 0 0 0 0 0 0 0 0 0 
Heartbeat_Variant_0_evicts 0 : 5520 1 : 8 2 : 12 3 : 0 
Heartbeat_Variant_1_evicts 0 : 9 1 : 0 2 : 214 3 : 0 
Heartbeat_Variant_2_evicts 0 : 15 1 : 211 2 : 0 3 : 0 
Heartbeat_Variant_3_evicts 0 : 0 1 : 0 2 : 0 3 : 0 
Heartbeat CPU 0 instructions: 50000000 cycles: 13982077 heartbeat IPC: 3.57611 cumulative IPC: 3.57601 (Simulation time: 0 hr 6 min 27 sec) 

Warmup complete CPU 0 instructions: 50000004 cycles: 13982078 (Simulation time: 0 hr 6 min 27 sec) 

Cycle: 20000000 FTQ IN: 55673162 FTQ occupancy: 16.017 DECODE IN: 55673144 DECODE occupancy: 9.56284 ROB IN: 55673132 ROB occupancy: 260.847 ROB OUT: 55673070
Heartbeat_Variant_0 : 1372 0.334961 per_variant_size: 0 1372 0 0 0 0 0 0 0 
Heartbeat_Variant_1 : 1250 0.305176 per_variant_size: 0 584 666 0 0 0 0 0 0 
Heartbeat_Variant_2 : 1374 0.335449 per_variant_size: 0 573 372 210 219 0 0 0 0 
Heartbeat_Variant_3 : 0 0 per_variant_size: 0 0 0 0 0 0 0 0 0 
Heartbeat_Variant_0_evicts 0 : 5714 1 : 85 2 : 114 3 : 0 
Heartbeat_Variant_1_evicts 0 : 80 1 : 0 2 : 289 3 : 0 
Heartbeat_Variant_2_evicts 0 : 119 1 : 288 2 : 0 3 : 0 
Heartbeat_Variant_3_evicts 0 : 0 1 : 0 2 : 0 3 : 0 
Heartbeat CPU 0 instructions: 60000003 cycles: 24701383 heartbeat IPC: 0.932896 cumulative IPC: 0.932896 (Simulation time: 0 hr 7 min 38 sec) 
Cycle: 30000000 FTQ IN: 9346226 FTQ occupancy: 15.3626 DECODE IN: 9346226 DECODE occupancy: 5.10251 ROB IN: 9346237 ROB occupancy: 60.9672 ROB OUT: 9346230
Heartbeat_Variant_0 : 1373 0.335205 per_variant_size: 0 1373 0 0 0 0 0 0 0 
Heartbeat_Variant_1 : 1252 0.305664 per_variant_size: 0 585 667 0 0 0 0 0 0 
Heartbeat_Variant_2 : 1371 0.334717 per_variant_size: 0 570 371 210 220 0 0 0 0 
Heartbeat_Variant_3 : 0 0 per_variant_size: 0 0 0 0 0 0 0 0 0 
Heartbeat_Variant_0_evicts 0 : 5513 1 : 1 2 : 0 3 : 0 
Heartbeat_Variant_1_evicts 0 : 0 1 : 0 2 : 198 3 : 0 
Heartbeat_Variant_2_evicts 0 : 0 1 : 195 2 : 0 3 : 0 
Heartbeat_Variant_3_evicts 0 : 0 1 : 0 2 : 0 3 : 0 
Heartbeat CPU 0 instructions: 70000001 cycles: 35259028 heartbeat IPC: 0.947181 cumulative IPC: 0.939984 (Simulation time: 0 hr 8 min 54 sec) 
Cycle: 40000000 FTQ IN: 9505471 FTQ occupancy: 15.3474 DECODE IN: 9505475 DECODE occupancy: 5.12287 ROB IN: 9505464 ROB occupancy: 59.0671 ROB OUT: 9505471
Heartbeat_Variant_0 : 1375 0.335693 per_variant_size: 0 1375 0 0 0 0 0 0 0 
Heartbeat_Variant_1 : 1250 0.305176 per_variant_size: 0 584 666 0 0 0 0 0 0 
Heartbeat_Variant_2 : 1376 0.335938 per_variant_size: 0 573 368 214 221 0 0 0 0 
Heartbeat_Variant_3 : 0 0 per_variant_size: 0 0 0 0 0 0 0 0 0 
Heartbeat_Variant_0_evicts 0 : 5692 1 : 61 2 : 64 3 : 0 
Heartbeat_Variant_1_evicts 0 : 70 1 : 0 2 : 237 3 : 0 
Heartbeat_Variant_2_evicts 0 : 54 1 : 250 2 : 0 3 : 0 
Heartbeat_Variant_3_evicts 0 : 0 1 : 0 2 : 0 3 : 0 
Heartbeat CPU 0 instructions: 80000000 cycles: 45902891 heartbeat IPC: 0.939508 cumulative IPC: 0.939826 (Simulation time: 0 hr 10 min 7 sec) 
Cycle: 50000000 FTQ IN: 9367565 FTQ occupancy: 15.3663 DECODE IN: 9367579 DECODE occupancy: 5.0968 ROB IN: 9367586 ROB occupancy: 60.789 ROB OUT: 9367572
Heartbeat_Variant_0 : 1376 0.335938 per_variant_size: 0 1376 0 0 0 0 0 0 0 
Heartbeat_Variant_1 : 1254 0.306152 per_variant_size: 0 590 664 0 0 0 0 0 0 
Heartbeat_Variant_2 : 1373 0.335205 per_variant_size: 0 573 367 209 224 0 0 0 0 
Heartbeat_Variant_3 : 0 0 per_variant_size: 0 0 0 0 0 0 0 0 0 
Heartbeat_Variant_0_evicts 0 : 5650 1 : 13 2 : 17 3 : 0 
Heartbeat_Variant_1_evicts 0 : 13 1 : 0 2 : 213 3 : 0 
Heartbeat_Variant_2_evicts 0 : 16 1 : 210 2 : 0 3 : 0 
Heartbeat_Variant_3_evicts 0 : 0 1 : 0 2 : 0 3 : 0 
Heartbeat CPU 0 instructions: 90000003 cycles: 56418457 heartbeat IPC: 0.950971 cumulative IPC: 0.942587 (Simulation time: 0 hr 11 min 17 sec) 
Cycle: 60000000 FTQ IN: 9498169 FTQ occupancy: 15.3637 DECODE IN: 9498160 DECODE occupancy: 5.11787 ROB IN: 9498153 ROB occupancy: 58.8687 ROB OUT: 9498164
Heartbeat_Variant_0 : 1374 0.335449 per_variant_size: 0 1374 0 0 0 0 0 0 0 
Heartbeat_Variant_1 : 1258 0.307129 per_variant_size: 0 592 666 0 0 0 0 0 0 
Heartbeat_Variant_2 : 1381 0.337158 per_variant_size: 0 579 367 220 215 0 0 0 0 
Heartbeat_Variant_3 : 0 0 per_variant_size: 0 0 0 0 0 0 0 0 0 
Heartbeat_Variant_0_evicts 0 : 5728 1 : 83 2 : 93 3 : 0 
Heartbeat_Variant_1_evicts 0 : 89 1 : 0 2 : 291 3 : 0 
Heartbeat_Variant_2_evicts 0 : 90 1 : 297 2 : 0 3 : 0 
Heartbeat_Variant_3_evicts 0 : 0 1 : 0 2 : 0 3 : 0 
Heartbeat CPU 0 instructions: 100000000 cycles: 67107276 heartbeat IPC: 0.935557 cumulative IPC: 0.941173 (Simulation time: 0 hr 12 min 33 sec) 
Finished CPU 0 instructions: 50000002 cycles: 53125228 cumulative IPC: 0.941172 (Simulation time: 0 hr 12 min 33 sec) 

ChampSim completed all CPUs

Region of Interest Statistics

CPU 0 cumulative IPC: 0.941172 instructions: 50000002 cycles: 53125228
 Fetch stage stalled: 22.2063  Sim cycles: 53125228 fetch stall cycle: 11797133
 Empty decode stage: 67.6885  Sim cycles: 53125228 fetch stall cycle: 35959662
ITLB TOTAL     ACCESS:    7288556  HIT:    6795484  MISS:     493072  HIT %:     93.235  MISS %:    6.76502   MPKI: 9.86144
ITLB LOAD TRANSLATION INSTRUCTION	ACCESS:    7288556  HIT:    6795484  MISS:     493072  HIT %:     93.235  MISS %:    6.76502  MPKI: 9.86144

ITLB AVERAGE MISS LATENCY: 9.04873 cycles
ITLB RQ	ACCESS:    8358505	FORWARD:          0	MERGED:     863714	TO_CACHE:    7494791

DTLB TOTAL     ACCESS:   10190532  HIT:    9717081  MISS:     473451  HIT %:     95.354  MISS %:    4.64599   MPKI: 9.46902
DTLB LOAD TRANSLATION DATA	ACCESS:   10190532  HIT:    9717081  MISS:     473451  HIT %:     95.354  MISS %:    4.64599  MPKI: 9.46902

DTLB AVERAGE MISS LATENCY: 9.30565 cycles
DTLB RQ	ACCESS:   14335327	FORWARD:          0	MERGED:    4114915	TO_CACHE:   10220412

STLB TOTAL     ACCESS:    1226059  HIT:    1223863  MISS:       2196  HIT %:    99.8209  MISS %:    0.17911   MPKI: 0.04392
STLB LOAD TRANSLATION INSTRUCTION	ACCESS:     493071  HIT:     492779  MISS:        292  HIT %:    99.9408  MISS %:  0.0592207  MPKI: 0.00584
STLB LOAD TRANSLATION DATA	ACCESS:     473416  HIT:     471544  MISS:       1872  HIT %:    99.6046  MISS %:   0.395424  MPKI: 0.03744
STLB TRANSLATION FROM L1D PREFETCHER DATA	ACCESS:     259572  HIT:     259540  MISS:         32  HIT %:    99.9877  MISS %:   0.012328  MPKI: 0.00064

STLB AVERAGE MISS LATENCY: 68.9399 cycles
STLB RQ	ACCESS:    1344498	FORWARD:          0	MERGED:     118394	TO_CACHE:    1226104

STLB Hit, L1D data hit: 0
STLB Hit, L2C data hit: 0
STLB Hit, LLC data hit: 0
STLB Hit, LLC data miss: 0
STLB STLB hints to L2: 0
L1D TOTAL     ACCESS:   14122777  HIT:   13008965  MISS:    1113812  HIT %:    92.1134  MISS %:    7.88664   MPKI: 22.2762
L1D LOAD DATA	ACCESS:    7488057  HIT:    6756836  MISS:     731221  HIT %:    90.2348  MISS %:    9.76516  MPKI: 14.6244
L1D RFO DATA	ACCESS:    6298284  HIT:    6009942  MISS:     288342  HIT %:    95.4219  MISS %:     4.5781  MPKI: 5.76684
L1D PREFETCH DATA	ACCESS:     336436  HIT:     242187  MISS:      94249  HIT %:    71.9861  MISS %:    28.0139  MPKI: 1.88498

L1D PREFETCH  REQUESTED:     756018  ISSUED:     756018  USEFUL:      35858  USELESS:      67288
L1D USEFUL LOAD PREFETCHES:      35858 PREFETCH ISSUED TO LOWER LEVEL:     103281  ACCURACY: 34.7189
 TIMELY PREFETCHES:      35858 LATE PREFETCHES: 8895 DROPPED PREFETCHES: 9
L1D AVERAGE MISS LATENCY: 331545 cycles
L1D RQ	ACCESS:   11348991	FORWARD:          0	MERGED:    3668863	TO_CACHE:    7520970
L1D WQ	ACCESS:    6943242	FORWARD:     159226	MERGED:     128885	TO_CACHE:    6814357
L1D PQ	ACCESS:     378043	FORWARD:          0	MERGED:          0	TO_CACHE:     377975

L1D UNIQUE REGIONS ACCESSED: 0
L1D REGIONS CONFLICTS: 0
L1D Cross Page Prefetch Requests: 6853
L1D Same Page Prefetch Requests: 756471
L1D ROI Sum of L1D PQ occupancy: 4805801
L1D PREFETCHES PUSHED FROM L2C: 0
L1I TOTAL     ACCESS:    7862994  HIT:    5107187  MISS:    2755807  HIT %:    64.9522  MISS %:    35.0478   MPKI: 55.1161
L1I LOAD INSTRUCTION	ACCESS:    7862994  HIT:    5107187  MISS:    2755807  HIT %:    64.9522  MISS %:    35.0478  MPKI: 55.1161

L1I AVERAGE MISS LATENCY: 16.5636 cycles
L1I RQ	ACCESS:   15736038	FORWARD:          0	MERGED:    7377533	TO_CACHE:    8358505

L1BTB TOTAL     ACCESS:    5669013  HIT:    2049234  MISS:    3619779  HIT %:     36.148  MISS %:     63.852   MPKI: 72.3956
L1BTB BRANCH_DIRECT_JUMP	ACCESS:     548259  HIT:     145295  MISS:     402964	AVERAGE STALL: 21.1706
L1BTB BRANCH_INDIRECT	ACCESS:     182866  HIT:      66123  MISS:     116743	AVERAGE STALL: 51.417
L1BTB BRANCH_CONDITIONAL	ACCESS:    2708612  HIT:    1418724  MISS:    1289888	AVERAGE STALL: 30.4567
L1BTB BRANCH_DIRECT_CALL	ACCESS:     942825  HIT:     106415  MISS:     836410	AVERAGE STALL: 32.4562
L1BTB BRANCH_INDIRECT_CALL	ACCESS:     171813  HIT:      21723  MISS:     150090	AVERAGE STALL: 66.9473
L1BTB BRANCH_RETURN	ACCESS:    1114638  HIT:     290954  MISS:     823684	AVERAGE STALL: 32.815
L1BTB BRANCH_OTHER ACCESS:          0  HIT:          0  MISS:          0	AVERAGE STALL: -nan
L1BTB TOTAL ROB OCCUPANCY AT BTB MISS: 0.706137

L2BTB TOTAL     ACCESS:    3594364  HIT:    3527287  MISS:      67077  HIT %:    98.1338  MISS %:    1.86617   MPKI: 1.34154
L2BTB BRANCH_DIRECT_JUMP	ACCESS:     398774  HIT:     394223  MISS:       4551	AVERAGE STALL: 21.1706
L2BTB BRANCH_INDIRECT	ACCESS:     106478  HIT:     103789  MISS:       2689	AVERAGE STALL: 51.417
L2BTB BRANCH_CONDITIONAL	ACCESS:    1289888  HIT:    1284353  MISS:       5535	AVERAGE STALL: 30.4567
L2BTB BRANCH_DIRECT_CALL	ACCESS:     836410  HIT:     835404  MISS:       1006	AVERAGE STALL: 32.4562
L2BTB BRANCH_INDIRECT_CALL	ACCESS:     140531  HIT:     130214  MISS:      10317	AVERAGE STALL: 66.9473
L2BTB BRANCH_RETURN	ACCESS:     822283  HIT:     779304  MISS:      42979	AVERAGE STALL: 32.815
L2BTB BRANCH_OTHER ACCESS:          0  HIT:          0  MISS:          0	AVERAGE STALL: -nan
L2BTB TOTAL ROB OCCUPANCY AT BTB MISS: 38.1064

L2C TOTAL     ACCESS:    4475607  HIT:    4039073  MISS:     436534  HIT %:    90.2464  MISS %:    9.75363   MPKI: 8.73068
L2C LOAD INSTRUCTION	ACCESS:    2755807  HIT:    2538802  MISS:     217005  HIT %:    92.1255  MISS %:    7.87446  MPKI: 4.3401
L2C LOAD TRANSLATION INSTRUCTION	ACCESS:        326  HIT:         83  MISS:        243  HIT %:    25.4601  MISS %:    74.5399  MPKI: 0.00486
L2C LOAD DATA	ACCESS:     722319  HIT:     651490  MISS:      70829  HIT %:    90.1942  MISS %:    9.80578  MPKI: 1.41658
L2C RFO DATA	ACCESS:     288189  HIT:     228536  MISS:      59653  HIT %:    79.3007  MISS %:    20.6993  MPKI: 1.19306
L2C PREFETCH DATA	ACCESS:     186241  HIT:     118199  MISS:      68042  HIT %:    63.4656  MISS %:    36.5344  MPKI: 1.36084
L2C WRITEBACK DATA	ACCESS:     520731  HIT:     501310  MISS:      19421  HIT %:    96.2704  MISS %:    3.72956  MPKI: 0.38842
L2C LOAD TRANSLATION DATA	ACCESS:       1935  HIT:        611  MISS:       1324  HIT %:    31.5762  MISS %:    68.4238  MPKI: 0.02648
L2C TRANSLATION FROM L1D PREFETCHER DATA	ACCESS:         59  HIT:         42  MISS:         17  HIT %:    71.1864  MISS %:    28.8136  MPKI: 0.00034

L2C PREFETCH  REQUESTED:      90129  ISSUED:      90129  USEFUL:       9463  USELESS:      59115
L2C USEFUL LOAD PREFETCHES:       9463 PREFETCH ISSUED TO LOWER LEVEL:      68345  ACCURACY: 13.8459
 TIMELY PREFETCHES:       9463 LATE PREFETCHES: 303 DROPPED PREFETCHES: 0
L2C AVERAGE MISS LATENCY: 39.6063 cycles
L2C RQ	ACCESS:    3768658	FORWARD:          0	MERGED:          0	TO_CACHE:    3768635
L2C WQ	ACCESS:     520731	FORWARD:         23	MERGED:          0	TO_CACHE:     520731
L2C PQ	ACCESS:     193410	FORWARD:          0	MERGED:       3689	TO_CACHE:     189721

L2C Dense regions hint from L2: 0
PSCL5 TOTAL     ACCESS:       4416  HIT:       2208  MISS:       2208  HIT %:         50  MISS %:         50   MPKI: 0.04416
PSCL5 LOAD TRANSLATION INSTRUCTION	ACCESS:       4298  HIT:       2149  MISS:       2149  HIT %:         50  MISS %:         50  MPKI: 0.04298
PSCL5 TRANSLATION FROM L1D PREFETCHER INSTRUCTION	ACCESS:        118  HIT:         59  MISS:         59  HIT %:         50  MISS %:         50  MPKI: 0.00118


PSCL4 TOTAL     ACCESS:       4297  HIT:       2145  MISS:       2152  HIT %:    49.9185  MISS %:    50.0815   MPKI: 0.04304
PSCL4 LOAD TRANSLATION INSTRUCTION	ACCESS:       2944  HIT:       2093  MISS:        851  HIT %:    71.0938  MISS %:    28.9062  MPKI: 0.01702
PSCL4 TRANSLATION FROM L1D PREFETCHER INSTRUCTION	ACCESS:         72  HIT:         52  MISS:         20  HIT %:    72.2222  MISS %:    27.7778  MPKI: 0.0004
PSCL4 LOAD TRANSLATION DATA	ACCESS:       1249  HIT:          0  MISS:       1249  HIT %:          0  MISS %:        100  MPKI: 0.02498
PSCL4 TRANSLATION FROM L1D PREFETCHER DATA	ACCESS:         32  HIT:          0  MISS:         32  HIT %:          0  MISS %:        100  MPKI: 0.00064


PSCL3 TOTAL     ACCESS:       4307  HIT:       2150  MISS:       2157  HIT %:    49.9187  MISS %:    50.0813   MPKI: 0.04314
PSCL3 LOAD TRANSLATION INSTRUCTION	ACCESS:       2949  HIT:       2098  MISS:        851  HIT %:    71.1428  MISS %:    28.8572  MPKI: 0.01702
PSCL3 TRANSLATION FROM L1D PREFETCHER INSTRUCTION	ACCESS:         72  HIT:         52  MISS:         20  HIT %:    72.2222  MISS %:    27.7778  MPKI: 0.0004
PSCL3 LOAD TRANSLATION DATA	ACCESS:       1254  HIT:          0  MISS:       1254  HIT %:          0  MISS %:        100  MPKI: 0.02508
PSCL3 TRANSLATION FROM L1D PREFETCHER DATA	ACCESS:         32  HIT:          0  MISS:         32  HIT %:          0  MISS %:        100  MPKI: 0.00064


PSCL2 TOTAL     ACCESS:       4318  HIT:       2110  MISS:       2208  HIT %:    48.8652  MISS %:    51.1348   MPKI: 0.04416
PSCL2 LOAD TRANSLATION INSTRUCTION	ACCESS:       2343  HIT:       2051  MISS:        292  HIT %:    87.5373  MISS %:    12.4627  MPKI: 0.00584
PSCL2 TRANSLATION FROM L1D PREFETCHER INSTRUCTION	ACCESS:         59  HIT:         59  MISS:          0  HIT %:        100  MISS %:          0  MPKI: 0
PSCL2 LOAD TRANSLATION DATA	ACCESS:       1857  HIT:          0  MISS:       1857  HIT %:          0  MISS %:        100  MPKI: 0.03714
PSCL2 TRANSLATION FROM L1D PREFETCHER DATA	ACCESS:         59  HIT:          0  MISS:         59  HIT %:          0  MISS %:        100  MPKI: 0.00118


LLC TOTAL     ACCESS:     502774  HIT:     472586  MISS:      30188  HIT %:    93.9957  MISS %:    6.00429   MPKI: 0.60376
LLC LOAD INSTRUCTION	ACCESS:     217005  HIT:     216010  MISS:        995  HIT %:    99.5415  MISS %:   0.458515  MPKI: 0.0199
LLC LOAD TRANSLATION INSTRUCTION	ACCESS:        243  HIT:        210  MISS:         33  HIT %:    86.4198  MISS %:    13.5802  MPKI: 0.00066
LLC LOAD DATA	ACCESS:      70530  HIT:      67111  MISS:       3419  HIT %:    95.1524  MISS %:    4.84758  MPKI: 0.06838
LLC RFO DATA	ACCESS:      59633  HIT:      44130  MISS:      15503  HIT %:    74.0026  MISS %:    25.9974  MPKI: 0.31006
LLC PREFETCH DATA	ACCESS:      68344  HIT:      58538  MISS:       9806  HIT %:     85.652  MISS %:     14.348  MPKI: 0.19612
LLC WRITEBACK DATA	ACCESS:      85678  HIT:      85328  MISS:        350  HIT %:    99.5915  MISS %:   0.408506  MPKI: 0.007
LLC LOAD TRANSLATION DATA	ACCESS:       1324  HIT:       1243  MISS:         81  HIT %:    93.8822  MISS %:    6.11782  MPKI: 0.00162
LLC TRANSLATION FROM L1D PREFETCHER DATA	ACCESS:         17  HIT:         16  MISS:          1  HIT %:    94.1176  MISS %:    5.88235  MPKI: 2e-05

LLC AVERAGE MISS LATENCY: 156.869 cycles
LLC RQ	ACCESS:     348768	FORWARD:          0	MERGED:          0	TO_CACHE:     348752
LLC WQ	ACCESS:      85678	FORWARD:         17	MERGED:          0	TO_CACHE:      85678
LLC PQ	ACCESS:      68345	FORWARD:          0	MERGED:          0	TO_CACHE:      68344

LLC Dense regions hint to LLC: 0

RAW hits: 1288916
Loads Generated: 12637907
Loads sent to L1D: 11348991
Stores Generated: 6943219
Stores sent to L1D: 6943242
Major fault: 0 Minor fault: 2534
Allocated PAGES: 2534

stream: 
stream:times selected: 1187162
stream:pref_filled: 120581
stream:pref_useful: 25027
stream:pref_late: 6580
stream:misses: 7233
stream:misses_by_poll: 0

CS: 
CS:times selected: 180578
CS:pref_filled: 59608
CS:pref_useful: 36262
CS:pref_late: 7590
CS:misses: 17108
CS:misses_by_poll: 2

CPLX: 
CPLX:times selected: 1005519
CPLX:pref_filled: 21650
CPLX:pref_useful: 5266
CPLX:pref_late: 2990
CPLX:misses: 92715
CPLX:misses_by_poll: 4

NL_L1: 
NL:times selected: 19448
NL:pref_filled: 644
NL:pref_useful: 311
NL:pref_late: 358
NL:misses: 1581
NL:misses_by_poll: 0

total selections: 2392707
total_filled: 94249
total_useful: 35858
total_late: 18708
total_polluted: 6
total_misses_after_warmup: 764139
conflicts: 5947218

test: 119041

DRAM Statistics
 CHANNEL 0
 RQ ROW_BUFFER_HIT:      11347  ROW_BUFFER_MISS:      18488
 DBUS_CONGESTED:          5
 WQ ROW_BUFFER_HIT:       1485  ROW_BUFFER_MISS:      12653  FULL:          0

 AVG_CONGESTED_CYCLE: 4

CPU 0 Branch Prediction Accuracy: 99.8237% MPKI: 0.32234 Average ROB Occupancy at Mispredict: 78.1842
Branch types
NOT_BRANCH: 40859074 81.7181%
BRANCH_DIRECT_JUMP: 548259 1.09652%
BRANCH_INDIRECT: 182866 0.365732%
BRANCH_CONDITIONAL: 6180284 12.3606%
BRANCH_DIRECT_CALL: 942825 1.88565%
BRANCH_INDIRECT_CALL: 171813 0.343626%
BRANCH_RETURN: 1114638 2.22928%
BRANCH_OTHER: 0 0%

DRAM PAGES: 1048576
Allocated PAGES: 2534
Average_ROB_Occupancy: 60.7896
Average_Decode_Occupancy: 5.10041
Average_FTQ_Occupancy: 15.3444
Indirect max targets: 14 Average targets: 1.14626
Branch_type:  BRANCH_DIRECT_JUMP:  Count Percentage: 3.40024 6.12985 3.95467 15.1368 1.69432 2.49749 1.23446 65.9522 
Branch_type:  BRANCH_INDIRECT:  Count Percentage: 11.7588 3.43973 12.2186 23.3734 1.33807 14.542 1.0704 32.259 
Branch_type:  BRANCH_CONDITIONAL:  Count Percentage: 21.984 2.44539 2.3735 9.19552 1.06896 2.83124 0.849675 59.2517 
Branch_type:  BRANCH_DIRECT_CALL:  Count Percentage: 0.75787 1.29176 1.43331 5.40377 1.99213 1.99319 0.930873 86.1971 
Branch_type:  BRANCH_INDIRECT_CALL:  Count Percentage: 9.51574 0.567475 2.9815 4.82833 0 3.83576 0 78.2712 
Branch_type:  BRANCH_RETURN:  Count Percentage: 4.43764 0.696133 3.52221 9.44468 2.12278 4.61795 1.22802 73.9306 
Branch_type:  BRANCH_DIRECT_JUMP:  Total Count: 37251 67155 43325 165830 18562 27361 13524 722533 
Branch_type:  BRANCH_INDIRECT:  Total Count: 42964 12568 44644 85401 4889 53133 3911 117867 
Branch_type:  BRANCH_CONDITIONAL:  Total Count: 2715962 302110 293228 1136038 132062 349779 104971 7320099 
Branch_type:  BRANCH_DIRECT_CALL:  Total Count: 14316 24401 27075 102076 37631 37651 17584 1628245 
Branch_type:  BRANCH_INDIRECT_CALL:  Total Count: 32749 1953 10261 16617 0 13201 0 269375 
Branch_type:  BRANCH_RETURN:  Total Count: 99133 15551 78683 210986 47421 103161 27433 1651545 
Number of unique branch instructions: 9791
Upper 32 bits: 
aaaa
ffff
ffff0000
Unique upper 32 bits: 3
Unique upper 36 bits: 3
Unique upper 40 bits: 5
Unique upper 44 bits: 32
Unique upper 48 bits: 154
Variant_0 : 1374 0.335449
Variant_1 : 1258 0.307129
Variant_2 : 1381 0.337158
Variant_3 : 0 0
Offset_3 4035
Offset_4 246
Offset_5 451
Offset_6 502
Offset_7 578
Offset_8 498
Offset_9 459
Offset_10 377
Offset_11 305
Offset_12 269
Offset_13 199
Offset_14 225
Offset_15 186
Offset_16 220
Offset_17 141
Offset_18 118
Offset_19 234
Offset_20 137
Offset_21 235
Offset_22 392
Offset_23 241
Offset_24 326
Offset_25 88
Offset_47 80
Offset_64 2
decode_dispatch_called: 29367017 55.2789
Dispatch_width: 0 17299664 58.9085 32.5639
Dispatch_width: 1 2169764 7.38844 4.08424
Dispatch_width: 2 1193540 4.06422 2.24665
Dispatch_width: 3 1099434 3.74377 2.06951
Dispatch_width: 4 1128235 3.84184 2.12373
Dispatch_width: 5 1226601 4.1768 2.30889
Dispatch_width: 6 5249779 17.8764 9.88189
Empty_decode_cycles: 23758211 44.7211
ROB_full_cycles: 583202 1.09779
Starvation_cycles_per_kilo_instr: 472.922
Starvation_cycles_per_kilo_instr_3: 449.374
Starvation_cycles_per_kilo_instr_0: 404.747
Branch_type_1  (3,1)  (4,9)  (5,37)  (6,69)  (7,114)  (8,127)  (9,121)  (10,97)  (11,69)  (12,43)  (13,5)  (14,2)  (15,3)  (16,4)  (18,1)  (19,4)  (20,2)  (21,1)  (22,3)  (23,2)  (24,10)  (25,12) 
Branch_type_2  (3,1)  (5,1)  (8,3)  (9,3)  (12,1)  (13,1)  (14,1)  (16,3)  (17,2)  (20,2)  (21,2)  (23,5)  (24,1)  (47,36) 
Branch_type_3  (3,4033)  (4,237)  (5,409)  (6,418)  (7,435)  (8,308)  (9,252)  (10,153)  (11,123)  (12,50)  (13,4) 
Branch_type_4  (6,3)  (7,8)  (8,24)  (9,52)  (10,60)  (11,57)  (12,96)  (13,86)  (14,99)  (15,88)  (16,98)  (17,63)  (18,53)  (19,114)  (20,72)  (21,124)  (22,207)  (23,136)  (24,186)  (25,72)  (64,1) 
Branch_type_5  (8,2)  (9,1)  (10,3)  (11,5)  (12,3)  (13,14)  (14,16)  (15,11)  (16,20)  (17,11)  (18,16)  (19,12)  (20,10)  (21,13)  (22,42)  (23,26)  (24,37) 
Branch_type_6  (5,4)  (6,12)  (7,21)  (8,34)  (9,30)  (10,64)  (11,51)  (12,76)  (13,89)  (14,107)  (15,84)  (16,95)  (17,65)  (18,48)  (19,104)  (20,51)  (21,95)  (22,140)  (23,72)  (24,92)  (25,4)  (47,44)  (64,1) 
Unique trigger count: 
Variant_0_evicts_0 : 0
Variant_0_evicts_1 : 0
Variant_0_evicts_2 : 0
Variant_0_evicts_3 : 0
Variant_1_evicts_0 : 0
Variant_1_evicts_1 : 0
Variant_1_evicts_2 : 0
Variant_1_evicts_3 : 0
Variant_2_evicts_0 : 0
Variant_2_evicts_1 : 0
Variant_2_evicts_2 : 0
Variant_2_evicts_3 : 0
Variant_3_evicts_0 : 0
Variant_3_evicts_1 : 0
Variant_3_evicts_2 : 0
Variant_3_evicts_3 : 0
BTB PER SET UNIQUE ADDR: 11 10 6 16 12 14 8 15 10 11 11 11 15 10 8 11 8 11 12 9 12 10 11 15 7 13 7 14 12 9 13 16 9 10 8 10 15 12 8 11 11 9 11 16 10 11 11 7 7 7 11 10 9 9 12 4 6 9 11 8 9 10 9 10 11 16 12 10 11 8 16 15 16 5 10 8 6 14 11 12 11 8 11 19 10 9 10 5 6 18 6 5 9 8 7 17 11 11 11 14 13 14 12 8 6 8 7 10 7 4 7 16 6 8 8 7 13 11 7 11 11 10 8 10 12 11 4 8 7 11 9 11 11 14 11 13 8 11 10 14 9 10 11 11 12 8 7 9 4 12 16 16 12 10 8 13 14 8 8 10 13 11 12 13 9 12 9 7 11 10 11 11 12 10 10 7 11 8 14 10 8 11 11 12 21 11 5 12 7 9 10 9 11 13 7 13 6 10 12 9 8 12 14 7 10 5 10 10 10 10 6 7 10 6 10 14 17 9 9 12 8 17 7 7 10 13 16 6 8 12 4 7 8 10 9 10 12 11 8 9 11 7 7 12 10 9 10 9 12 7 14 13 14 8 12 16 8 6 11 9 12 8 4 11 12 9 7 12 7 9 8 14 10 7 5 9 8 15 11 10 9 14 6 10 10 8 10 12 18 12 12 8 9 15 8 12 13 10 17 8 11 12 9 17 10 10 12 10 13 11 12 16 9 14 8 6 13 12 13 11 11 9 11 13 12 12 10 8 8 9 10 12 7 10 10 12 9 13 7 14 13 9 7 14 9 10 11 12 12 12 14 11 8 13 11 9 7 10 9 11 10 12 5 13 7 10 7 7 12 7 12 10 10 10 7 12 8 17 11 5 12 10 6 7 8 12 8 15 8 11 12 7 11 14 9 8 11 8 9 8 11 13 11 13 15 6 13 14 14 11 10 7 10 16 7 13 8 14 17 16 12 8 8 11 17 9 11 10 12 9 16 11 6 12 13 14 14 12 12 9 9 9 12 10 15 6 9 10 14 14 12 11 18 7 7 15 15 12 8 15 10 10 12 9 18 7 8 9 9 17 13 12 8 11 14 14 9 14 8 6 11 10 8 15 7 9 12 13 9 16 7 10 9 5 13 11 13 14 8 8 11 13 11 12 9 7 10 9 9 13 11 11 15 13 13 10 11 15 6 7 4 5 11 8 12 14 16 9 8 14 8 10 12 9 11 13 10 12 11 13 11 6 9 14 16 13 10 9 7 7 15 14 10 10 10 13 13 13 12 14 7 11 11 11 7 14 12 14 14 13 10 9 14 16 12 12 15 10 6 12 11 12 9 10 14 12 13 7 13 13 10 11 8 10 16 8 10 9 7 10 15 10 12 5 8 17 14 4 11 10 10 11 8 10 4 18 10 12 13 15 15 8 7 8 6 10 10 20 7 13 10 14 15 12 12 10 9 14 7 14 8 13 10 16 10 11 8 13 14 10 12 13 8 10 13 15 12 11 9 11 13 6 14 9 10 14 9 7 10 9 14 9 11 12 15 13 10 14 8 10 13 12 12 13 8 9 11 12 13 11 13 8 13 9 12 10 6 14 9 14 6 11 13 15 7 13 11 7 12 9 11 11 7 13 8 9 13 14 12 9 10 8 8 11 10 9 9 11 8 11 10 11 13 7 9 16 10 14 14 13 10 11 11 10 14 13 15 11 12 6 11 12 10 12 10 9 14 7 8 9 8 5 6 9 13 10 9 12 8 13 11 16 7 9 8 7 15 8 13 9 7 9 9 9 8 10 7 7 8 6 6 7 15 12 10 13 9 12 14 8 14 13 13 13 17 10 8 9 11 12 9 10 11 14 12 13 22 11 6 12 9 15 6 11 10 14 12 12 12 11 11 10 12 10 13 14 12 10 8 12 17 9 10 11 9 16 6 11 9 9 11 13 10 16 13 21 11 12 11 7 12 6 9 9 15 4 10 7 14 10 9 9 11 8 17 4 5 9 8 9 9 6 13 10 9 6 13 11 12 9 15 7 11 14 11 11 16 15 11 7 15 8 10 15 4 11 8 11 10 12 6 11 13 13 10 11 17 11 10 12 18 16 11 9 7 5 7 11 10 7 16 16 13 13 9 9 8 8 12 12 8 12 10 10 10 8 9 12 11 12 11 12 12 11 12 12 7 16 12 11 14 9 9 12 9 13 11 10 5 13 13 11 13 11 13 7 10 14 8 14 11 11 10 10 14 12 11 10 8 10 11 9 10 15 13 11 9 9 14 10 10 10 5 10 10 11 10 10 9 9 10 10 7 9 7 11 5 7 8 9 9 8 9 7 
BTB PER SET COUNT: 21 16 1959 20 1477 23 985 20 10 15 12 991 1066 12 10 11 986 11 18 10 17 13 737 51 8 16 7 21 18 17 18 21 11 15 11 1478 15 19 10 153 15 11 12 29 1477 15 14 12 205 8 11 97 9 11 22 4 6 11 240 13 13 11 14 13 18 144 13 12 13 9 1488 576 25 8 13 8 7 732 19 16 17 9 16 49 21 64 17 7 6 29 6 5 16 10 8 23 86 14 18 19 17 739 18 11 6 8 7 10 983 4 11 26 10 13 12 151 17 17 1473 15 22 12 10 10 12 74 5 9 7 981 12 5875 13 16 12 16 991 14 10 19 15 11 25 13 19 9 10 985 4 204 23 20 1607 13 8 20 16 9 13 19 16 357 46 19 215 16 12 7 13 1264 13 12 14 12 16 7 13 19 205 12 8 247 3438 14 32 13 5 19 982 833 12 11 15 14 7 115 6 500 13 9 10 12 993 7 10 5 10 10 19 12 12 10 12 14666 17 1213 27 10 2868 16 10 27 386 9 11 17 18 6 9 18 4 7 9 20 11 16 39 13 9 10 13 9 9 977 22 966 11 12 507 7 18 13 19 8 21 29 8 462 11 9 681 9 4 153 13 19 9 22 1300 11 11 17 10 7 6 10 9 18 13 861 16 20 9 10 11 10 10 14 35 15 18 10 9 303 11 14 521 13 20 991 17 14 10 28 17 167 16 13 19 991 15 25 9 21 496 7 16 17 18 19 14 2944 12 14 1480 15 279 8 12 10 11 14 22 10 13 17 13 286 10 15 19 1687 9 20 14 11 13 18 14 22 27 12 9 17 12 9 8 14 92 16 12 13 7 18 10 10 9 7 15 9 14 13 12 16 984 175 13 24 11 6 279 10 13 8 9 17 9 21 9 256 27 7 12 24 11 140 11 9 10 11 13 17 13 19 19 7 14 21 24 16 12 7 15 276 7 16 8 7111 29 18 25 11 15 15 31 13 23 17 16 14 28 18 7 17 502 24 20 25 21 14 11 16 44 19 1414 6 423 14 23 15 399 2897 31 9 11 1483 19 13 9 20 42 14 17 11 28 272 12 9 12 34 20 15 8 14 19 20 9 16 8 6 11 15 10 20 7 14 14 22 13 55 445 11 11 6 22 16 992 16 8 9 13 20 15 30 9 10 10 9 9 21 16 15 1096 391 20 12 14 20 6 11 4 6 13 9 18 14 954 12 8 110 18 12 263 9 14 15 16 16 14 399 18 6 11 26 28 16 10 12 12 984 17 16 12 21 16 18 23 18 15 22 8 18 12 17 13 18 18 20 19 17 11 16 18 19 2461 12 62 13 6 21 11 14 9 5171 18 20 710 9 18 14 18 11 8 21 25 8 1062 373 7 15 17 16 124 8 8 21 18 9 11 14 28 16 14 10 5 30 507 21 19 256 18 10 11 14 6 13 11 23 9 18 15 18 116 134 15 20 15 19 7 567 14 17 10 28 15 25 984 18 1823 11 17 21 8 13 18 517 22 17 13 989 378 6 1274 14 13396 15 10 11 403 16 20 9 25 22 17 507 10 18 9 16 17 15 14 14 8 9 15 19 135 15 20 12 15 14 2256 10 6 1210 11 17 8 25 1413 32 12 16 12 9 19 11 374 15 165 17 9 14 509 22 16 381 19 12 11 1481 16 11 9 13 794 13 170 14 21 7 14 965 991 17 16 18 854 15 14 10 17 15 732 11 16 8 1477 22 87 1969 14 11 17 1475 8 9 10 6 6 10 41 16 11 2493 8 14 34 28 1473 10 11 15 19 529 14 10 987 14 373 9 8 11 13 7 12 7 9 9 26 16 17 20 9 13 24 10 16 22 24 15 522 12 14 11 16 13 9 7833 13 27 14 1880 347 12 6 483 12 748 7 12 10 17 19 16 21 11 17 16 21 13 273 20 16 854 198 19 24 987 12 13 1836 21 8 16 10 13 971 1963 33 16 712 28 18 15 17 7 275 8 14 18 1004 4 13 10 15 12 13 10 18 12 21 4 8 9 8 9 13 6 136 12 498 6 14 13 14 11 18 235 876 49 13 15 18 17 18 7 25 10 12 156 4 16 12 18 10 374 8 421 22 16 88 1241 59 21 11 15 33 25 13 9 8 5 8 15 12 25 115 24 18 28 25 32 8 11 1478 13 9 15 17 10 12 14 12 18 16 25 15 480 501 1486 18 17 174 18 15 15 17 12 9 12 9 15 11 10 35 14 44 13 18 21 1482 7 12 27 988 20 16 12 10 794 22 1355 22 497 8 13 14 11 11 510 21 12 15 1480 25 10 12 12 5 14 10 15 11 10 12 988 19 12 7 12 9 17 5 12 13 11 10 8 9 8 
To predecode: 0
Predecoding something: 0
Predecode request dropped: 0
sizeofblock_0 0
sizeofblock_1 33203
sizeofblock_2 45269
sizeofblock_3 36301
sizeofblock_4 26042
sizeofblock_5 0
sizeofblock_6 0
sizeofblock_7 0
sizeofblock_8 0
Variant_0 Correct: 1612392 Incorrect: 0 Accuracy: 1
Variant_1 Correct: 2088806 Incorrect: 0 Accuracy: 1
Variant_2 Correct: 3637880 Incorrect: 0 Accuracy: 1
Variant_3 Correct: 0 Incorrect: 0 Accuracy: -nan
