
*** ChampSim Multicore Out-of-Order Simulator ***

Warmup Instructions: 50000000
Simulation Instructions: 50000000
Number of CPUs: 1
LLC sets: 2048
LLC ways: 16
Off-chip DRAM Size: 4096 MB Channels: 1 Width: 64-bit Data Rate: 6400 MT/s
CPU 0 runs ./micro_traces/srv5.trace.gz
.gz
ITLB has LRU replacement policy
DTLB has LRU replacement policy
STLB has LRU replacement policy
L1I has LRU replacement policy
L1D has LRU replacement policy
Initialize SRRIP state for L2C
Initialize DRRIP state for LLC
Heartbeat_Variant_0 : 1335 0.325928 per_variant_size: 0 1335 0 0 0 0 0 0 0 
Heartbeat_Variant_1 : 1229 0.300049 per_variant_size: 0 572 657 0 0 0 0 0 0 
Heartbeat_Variant_2 : 1323 0.322998 per_variant_size: 0 539 366 219 199 0 0 0 0 
Heartbeat_Variant_3 : 0 0 per_variant_size: 0 0 0 0 0 0 0 0 0 
Heartbeat_Variant_0_evicts 0 : 5848 1 : 316 2 : 327 3 : 0 
Heartbeat_Variant_1_evicts 0 : 300 1 : 0 2 : 478 3 : 0 
Heartbeat_Variant_2_evicts 0 : 315 1 : 458 2 : 0 3 : 0 
Heartbeat_Variant_3_evicts 0 : 0 1 : 0 2 : 0 3 : 0 
Heartbeat CPU 0 instructions: 10000002 cycles: 2797839 heartbeat IPC: 3.57419 cumulative IPC: 3.57419 (Simulation time: 0 hr 1 min 25 sec) 
Heartbeat_Variant_0 : 1356 0.331055 per_variant_size: 0 1356 0 0 0 0 0 0 0 
Heartbeat_Variant_1 : 1249 0.304932 per_variant_size: 0 573 676 0 0 0 0 0 0 
Heartbeat_Variant_2 : 1343 0.327881 per_variant_size: 0 513 391 229 210 0 0 0 0 
Heartbeat_Variant_3 : 0 0 per_variant_size: 0 0 0 0 0 0 0 0 0 
Heartbeat_Variant_0_evicts 0 : 5739 1 : 91 2 : 94 3 : 0 
Heartbeat_Variant_1_evicts 0 : 93 1 : 0 2 : 278 3 : 0 
Heartbeat_Variant_2_evicts 0 : 87 1 : 287 2 : 0 3 : 0 
Heartbeat_Variant_3_evicts 0 : 0 1 : 0 2 : 0 3 : 0 
Heartbeat CPU 0 instructions: 20000002 cycles: 5594965 heartbeat IPC: 3.5751 cumulative IPC: 3.57464 (Simulation time: 0 hr 2 min 42 sec) 
Heartbeat_Variant_0 : 1361 0.332275 per_variant_size: 0 1361 0 0 0 0 0 0 0 
Heartbeat_Variant_1 : 1261 0.307861 per_variant_size: 0 582 679 0 0 0 0 0 0 
Heartbeat_Variant_2 : 1354 0.330566 per_variant_size: 0 528 379 227 220 0 0 0 0 
Heartbeat_Variant_3 : 0 0 per_variant_size: 0 0 0 0 0 0 0 0 0 
Heartbeat_Variant_0_evicts 0 : 5712 1 : 90 2 : 76 3 : 0 
Heartbeat_Variant_1_evicts 0 : 85 1 : 0 2 : 286 3 : 0 
Heartbeat_Variant_2_evicts 0 : 82 1 : 278 2 : 0 3 : 0 
Heartbeat_Variant_3_evicts 0 : 0 1 : 0 2 : 0 3 : 0 
Heartbeat CPU 0 instructions: 30000002 cycles: 8392766 heartbeat IPC: 3.57424 cumulative IPC: 3.57451 (Simulation time: 0 hr 4 min 2 sec) 
Heartbeat_Variant_0 : 1366 0.333496 per_variant_size: 0 1366 0 0 0 0 0 0 0 
Heartbeat_Variant_1 : 1267 0.309326 per_variant_size: 0 586 681 0 0 0 0 0 0 
Heartbeat_Variant_2 : 1352 0.330078 per_variant_size: 0 524 382 226 220 0 0 0 0 
Heartbeat_Variant_3 : 0 0 per_variant_size: 0 0 0 0 0 0 0 0 0 
Heartbeat_Variant_0_evicts 0 : 5707 1 : 41 2 : 33 3 : 0 
Heartbeat_Variant_1_evicts 0 : 40 1 : 0 2 : 240 3 : 0 
Heartbeat_Variant_2_evicts 0 : 30 1 : 237 2 : 0 3 : 0 
Heartbeat_Variant_3_evicts 0 : 0 1 : 0 2 : 0 3 : 0 
Heartbeat CPU 0 instructions: 40000003 cycles: 11191467 heartbeat IPC: 3.57309 cumulative IPC: 3.57415 (Simulation time: 0 hr 5 min 17 sec) 
Heartbeat_Variant_0 : 1365 0.333252 per_variant_size: 0 1365 0 0 0 0 0 0 0 
Heartbeat_Variant_1 : 1268 0.30957 per_variant_size: 0 580 688 0 0 0 0 0 0 
Heartbeat_Variant_2 : 1361 0.332275 per_variant_size: 0 520 391 222 228 0 0 0 0 
Heartbeat_Variant_3 : 0 0 per_variant_size: 0 0 0 0 0 0 0 0 0 
Heartbeat_Variant_0_evicts 0 : 5612 1 : 55 2 : 39 3 : 0 
Heartbeat_Variant_1_evicts 0 : 57 1 : 0 2 : 238 3 : 0 
Heartbeat_Variant_2_evicts 0 : 39 1 : 243 2 : 0 3 : 0 
Heartbeat_Variant_3_evicts 0 : 0 1 : 0 2 : 0 3 : 0 
Heartbeat CPU 0 instructions: 50000001 cycles: 13988786 heartbeat IPC: 3.57485 cumulative IPC: 3.57429 (Simulation time: 0 hr 6 min 34 sec) 

Warmup complete CPU 0 instructions: 50000001 cycles: 13988786 (Simulation time: 0 hr 6 min 34 sec) 

Cycle: 20000000 FTQ IN: 55653164 FTQ occupancy: 16.0234 DECODE IN: 55653146 DECODE occupancy: 9.55238 ROB IN: 55653143 ROB occupancy: 260.935 ROB OUT: 55653119
Heartbeat_Variant_0 : 1370 0.334473 per_variant_size: 0 1370 0 0 0 0 0 0 0 
Heartbeat_Variant_1 : 1271 0.310303 per_variant_size: 0 586 685 0 0 0 0 0 0 
Heartbeat_Variant_2 : 1363 0.332764 per_variant_size: 0 528 387 220 228 0 0 0 0 
Heartbeat_Variant_3 : 0 0 per_variant_size: 0 0 0 0 0 0 0 0 0 
Heartbeat_Variant_0_evicts 0 : 5645 1 : 67 2 : 59 3 : 0 
Heartbeat_Variant_1_evicts 0 : 69 1 : 0 2 : 253 3 : 0 
Heartbeat_Variant_2_evicts 0 : 55 1 : 253 2 : 0 3 : 0 
Heartbeat_Variant_3_evicts 0 : 0 1 : 0 2 : 0 3 : 0 
Heartbeat CPU 0 instructions: 60000001 cycles: 24785350 heartbeat IPC: 0.926221 cumulative IPC: 0.926221 (Simulation time: 0 hr 7 min 42 sec) 
Cycle: 30000000 FTQ IN: 9248669 FTQ occupancy: 15.3643 DECODE IN: 9248669 DECODE occupancy: 5.05013 ROB IN: 9248669 ROB occupancy: 59.4361 ROB OUT: 9248641
Heartbeat_Variant_0 : 1371 0.334717 per_variant_size: 0 1371 0 0 0 0 0 0 0 
Heartbeat_Variant_1 : 1271 0.310303 per_variant_size: 0 585 686 0 0 0 0 0 0 
Heartbeat_Variant_2 : 1362 0.33252 per_variant_size: 0 526 388 219 229 0 0 0 0 
Heartbeat_Variant_3 : 0 0 per_variant_size: 0 0 0 0 0 0 0 0 0 
Heartbeat_Variant_0_evicts 0 : 5538 1 : 4 2 : 6 3 : 0 
Heartbeat_Variant_1_evicts 0 : 5 1 : 0 2 : 201 3 : 0 
Heartbeat_Variant_2_evicts 0 : 4 1 : 202 2 : 0 3 : 0 
Heartbeat_Variant_3_evicts 0 : 0 1 : 0 2 : 0 3 : 0 
Heartbeat CPU 0 instructions: 70000002 cycles: 35454011 heartbeat IPC: 0.937325 cumulative IPC: 0.93174 (Simulation time: 0 hr 8 min 57 sec) 
Cycle: 40000000 FTQ IN: 9356801 FTQ occupancy: 15.3321 DECODE IN: 9356801 DECODE occupancy: 5.05192 ROB IN: 9356798 ROB occupancy: 58.1598 ROB OUT: 9356823
Heartbeat_Variant_0 : 1374 0.335449 per_variant_size: 0 1374 0 0 0 0 0 0 0 
Heartbeat_Variant_1 : 1273 0.310791 per_variant_size: 0 585 688 0 0 0 0 0 0 
Heartbeat_Variant_2 : 1360 0.332031 per_variant_size: 0 524 382 226 228 0 0 0 0 
Heartbeat_Variant_3 : 0 0 per_variant_size: 0 0 0 0 0 0 0 0 0 
Heartbeat_Variant_0_evicts 0 : 5685 1 : 63 2 : 57 3 : 0 
Heartbeat_Variant_1_evicts 0 : 71 1 : 0 2 : 238 3 : 0 
Heartbeat_Variant_2_evicts 0 : 46 1 : 245 2 : 0 3 : 0 
Heartbeat_Variant_3_evicts 0 : 0 1 : 0 2 : 0 3 : 0 
Heartbeat CPU 0 instructions: 80000003 cycles: 46238608 heartbeat IPC: 0.927248 cumulative IPC: 0.930238 (Simulation time: 0 hr 10 min 10 sec) 
Cycle: 50000000 FTQ IN: 9265464 FTQ occupancy: 15.3939 DECODE IN: 9265464 DECODE occupancy: 5.06509 ROB IN: 9265470 ROB occupancy: 60.0755 ROB OUT: 9265462
Heartbeat_Variant_0 : 1394 0.340332 per_variant_size: 0 1394 0 0 0 0 0 0 0 
Heartbeat_Variant_1 : 1306 0.318848 per_variant_size: 0 580 726 0 0 0 0 0 0 
Heartbeat_Variant_2 : 1347 0.328857 per_variant_size: 0 487 378 234 248 0 0 0 0 
Heartbeat_Variant_3 : 0 0 per_variant_size: 0 0 0 0 0 0 0 0 0 
Heartbeat_Variant_0_evicts 0 : 5867 1 : 267 2 : 271 3 : 0 
Heartbeat_Variant_1_evicts 0 : 273 1 : 0 2 : 453 3 : 0 
Heartbeat_Variant_2_evicts 0 : 252 1 : 446 2 : 0 3 : 0 
Heartbeat_Variant_3_evicts 0 : 0 1 : 0 2 : 0 3 : 0 
Heartbeat CPU 0 instructions: 90000000 cycles: 57130665 heartbeat IPC: 0.9181 cumulative IPC: 0.927173 (Simulation time: 0 hr 11 min 21 sec) 
Cycle: 60000000 FTQ IN: 9172145 FTQ occupancy: 15.1672 DECODE IN: 9172145 DECODE occupancy: 4.96147 ROB IN: 9172145 ROB occupancy: 57.7588 ROB OUT: 9172044
Heartbeat_Variant_0 : 1394 0.340332 per_variant_size: 0 1394 0 0 0 0 0 0 0 
Heartbeat_Variant_1 : 1312 0.320312 per_variant_size: 0 583 729 0 0 0 0 0 0 
Heartbeat_Variant_2 : 1347 0.328857 per_variant_size: 0 487 378 250 232 0 0 0 0 
Heartbeat_Variant_3 : 0 0 per_variant_size: 0 0 0 0 0 0 0 0 0 
Heartbeat_Variant_0_evicts 0 : 5721 1 : 115 2 : 93 3 : 0 
Heartbeat_Variant_1_evicts 0 : 125 1 : 0 2 : 278 3 : 0 
Heartbeat_Variant_2_evicts 0 : 83 1 : 284 2 : 0 3 : 0 
Heartbeat_Variant_3_evicts 0 : 0 1 : 0 2 : 0 3 : 0 
Heartbeat CPU 0 instructions: 100000003 cycles: 67794937 heartbeat IPC: 0.937711 cumulative IPC: 0.929262 (Simulation time: 0 hr 12 min 28 sec) 
Finished CPU 0 instructions: 50000002 cycles: 53806151 cumulative IPC: 0.929262 (Simulation time: 0 hr 12 min 28 sec) 

ChampSim completed all CPUs

Region of Interest Statistics

CPU 0 cumulative IPC: 0.929262 instructions: 50000002 cycles: 53806151
 Fetch stage stalled: 22.4428  Sim cycles: 53806151 fetch stall cycle: 12075619
 Empty decode stage: 67.8403  Sim cycles: 53806151 fetch stall cycle: 36502264
ITLB TOTAL     ACCESS:    7289703  HIT:    6792856  MISS:     496847  HIT %:    93.1843  MISS %:    6.81574   MPKI: 9.93694
ITLB LOAD TRANSLATION INSTRUCTION	ACCESS:    7289703  HIT:    6792856  MISS:     496847  HIT %:    93.1843  MISS %:    6.81574  MPKI: 9.93694

ITLB AVERAGE MISS LATENCY: 9.06084 cycles
ITLB RQ	ACCESS:    8366074	FORWARD:          0	MERGED:     869628	TO_CACHE:    7496446

DTLB TOTAL     ACCESS:   10209526  HIT:    9733505  MISS:     476021  HIT %:    95.3375  MISS %:    4.66252   MPKI: 9.52042
DTLB LOAD TRANSLATION DATA	ACCESS:   10209526  HIT:    9733505  MISS:     476021  HIT %:    95.3375  MISS %:    4.66252  MPKI: 9.52042

DTLB AVERAGE MISS LATENCY: 9.33104 cycles
DTLB RQ	ACCESS:   14356781	FORWARD:          0	MERGED:    4117875	TO_CACHE:   10238906

STLB TOTAL     ACCESS:    1229355  HIT:    1227113  MISS:       2242  HIT %:    99.8176  MISS %:   0.182372   MPKI: 0.04484
STLB LOAD TRANSLATION INSTRUCTION	ACCESS:     496846  HIT:     496538  MISS:        308  HIT %:     99.938  MISS %:   0.061991  MPKI: 0.00616
STLB LOAD TRANSLATION DATA	ACCESS:     475972  HIT:     474054  MISS:       1918  HIT %:     99.597  MISS %:   0.402965  MPKI: 0.03836
STLB TRANSLATION FROM L1D PREFETCHER DATA	ACCESS:     256537  HIT:     256521  MISS:         16  HIT %:    99.9938  MISS %: 0.00623692  MPKI: 0.00032

STLB AVERAGE MISS LATENCY: 76.0669 cycles
STLB RQ	ACCESS:    1346492	FORWARD:          0	MERGED:     117092	TO_CACHE:    1229400

STLB Hit, L1D data hit: 0
STLB Hit, L2C data hit: 0
STLB Hit, LLC data hit: 0
STLB Hit, LLC data miss: 0
STLB STLB hints to L2: 0
L1D TOTAL     ACCESS:   14145875  HIT:   13024319  MISS:    1121556  HIT %:    92.0715  MISS %:     7.9285   MPKI: 22.4311
L1D LOAD DATA	ACCESS:    7500917  HIT:    6761108  MISS:     739809  HIT %:    90.1371  MISS %:    9.86291  MPKI: 14.7962
L1D RFO DATA	ACCESS:    6313782  HIT:    6026115  MISS:     287667  HIT %:    95.4438  MISS %:    4.55618  MPKI: 5.75334
L1D PREFETCH DATA	ACCESS:     331176  HIT:     237096  MISS:      94080  HIT %:    71.5921  MISS %:    28.4079  MPKI: 1.8816

L1D PREFETCH  REQUESTED:     747321  ISSUED:     747321  USEFUL:      35270  USELESS:      67809
L1D USEFUL LOAD PREFETCHES:      35270 PREFETCH ISSUED TO LOWER LEVEL:     103140  ACCURACY: 34.1962
 TIMELY PREFETCHES:      35270 LATE PREFETCHES: 8991 DROPPED PREFETCHES: 5
L1D AVERAGE MISS LATENCY: 324301 cycles
L1D RQ	ACCESS:   11345150	FORWARD:          0	MERGED:    3652494	TO_CACHE:    7531972
L1D WQ	ACCESS:    6955398	FORWARD:     160755	MERGED:     130589	TO_CACHE:    6824809
L1D PQ	ACCESS:     373696	FORWARD:          0	MERGED:          0	TO_CACHE:     373625

L1D UNIQUE REGIONS ACCESSED: 0
L1D REGIONS CONFLICTS: 0
L1D Cross Page Prefetch Requests: 6870
L1D Same Page Prefetch Requests: 758559
L1D ROI Sum of L1D PQ occupancy: 4752441
L1D PREFETCHES PUSHED FROM L2C: 0
L1I TOTAL     ACCESS:    7873110  HIT:    5096862  MISS:    2776248  HIT %:    64.7376  MISS %:    35.2624   MPKI: 55.525
L1I LOAD INSTRUCTION	ACCESS:    7873110  HIT:    5096862  MISS:    2776248  HIT %:    64.7376  MISS %:    35.2624  MPKI: 55.525

L1I AVERAGE MISS LATENCY: 16.7809 cycles
L1I RQ	ACCESS:   15742234	FORWARD:          0	MERGED:    7376160	TO_CACHE:    8366074

L1BTB TOTAL     ACCESS:    5670555  HIT:    2029055  MISS:    3641500  HIT %:    35.7823  MISS %:    64.2177   MPKI: 72.83
L1BTB BRANCH_DIRECT_JUMP	ACCESS:     548408  HIT:     143252  MISS:     405156	AVERAGE STALL: 21.4266
L1BTB BRANCH_INDIRECT	ACCESS:     182572  HIT:      65615  MISS:     116957	AVERAGE STALL: 51.6492
L1BTB BRANCH_CONDITIONAL	ACCESS:    2702888  HIT:    1405398  MISS:    1297490	AVERAGE STALL: 30.3079
L1BTB BRANCH_DIRECT_CALL	ACCESS:     946372  HIT:     104575  MISS:     841797	AVERAGE STALL: 34.2754
L1BTB BRANCH_INDIRECT_CALL	ACCESS:     171970  HIT:      21099  MISS:     150871	AVERAGE STALL: 67.7046
L1BTB BRANCH_RETURN	ACCESS:    1118345  HIT:     289116  MISS:     829229	AVERAGE STALL: 32.2458
L1BTB BRANCH_OTHER ACCESS:          0  HIT:          0  MISS:          0	AVERAGE STALL: -nan
L1BTB TOTAL ROB OCCUPANCY AT BTB MISS: 0.678916

L2BTB TOTAL     ACCESS:    3616098  HIT:    3546238  MISS:      69860  HIT %:    98.0681  MISS %:    1.93192   MPKI: 1.3972
L2BTB BRANCH_DIRECT_JUMP	ACCESS:     401028  HIT:     396745  MISS:       4283	AVERAGE STALL: 21.4266
L2BTB BRANCH_INDIRECT	ACCESS:     106602  HIT:     103890  MISS:       2712	AVERAGE STALL: 51.6492
L2BTB BRANCH_CONDITIONAL	ACCESS:    1297490  HIT:    1292727  MISS:       4763	AVERAGE STALL: 30.3079
L2BTB BRANCH_DIRECT_CALL	ACCESS:     841797  HIT:     839567  MISS:       2230	AVERAGE STALL: 34.2754
L2BTB BRANCH_INDIRECT_CALL	ACCESS:     141362  HIT:     130451  MISS:      10911	AVERAGE STALL: 67.7046
L2BTB BRANCH_RETURN	ACCESS:     827819  HIT:     782858  MISS:      44961	AVERAGE STALL: 32.2458
L2BTB BRANCH_OTHER ACCESS:          0  HIT:          0  MISS:          0	AVERAGE STALL: -nan
L2BTB TOTAL ROB OCCUPANCY AT BTB MISS: 35.389

L2C TOTAL     ACCESS:    4506432  HIT:    4059630  MISS:     446802  HIT %:    90.0852  MISS %:    9.91476   MPKI: 8.93604
L2C LOAD INSTRUCTION	ACCESS:    2776249  HIT:    2538456  MISS:     237793  HIT %:    91.4347  MISS %:    8.56526  MPKI: 4.75586
L2C LOAD TRANSLATION INSTRUCTION	ACCESS:        353  HIT:         99  MISS:        254  HIT %:    28.0453  MISS %:    71.9547  MPKI: 0.00508
L2C LOAD DATA	ACCESS:     730802  HIT:     656976  MISS:      73826  HIT %:    89.8979  MISS %:    10.1021  MPKI: 1.47652
L2C RFO DATA	ACCESS:     287581  HIT:     238937  MISS:      48644  HIT %:    83.0851  MISS %:    16.9149  MPKI: 0.97288
L2C PREFETCH DATA	ACCESS:     185949  HIT:     113911  MISS:      72038  HIT %:    61.2593  MISS %:    38.7407  MPKI: 1.44076
L2C WRITEBACK DATA	ACCESS:     523433  HIT:     510685  MISS:      12748  HIT %:    97.5645  MISS %:    2.43546  MPKI: 0.25496
L2C LOAD TRANSLATION DATA	ACCESS:       2034  HIT:        544  MISS:       1490  HIT %:    26.7453  MISS %:    73.2547  MPKI: 0.0298
L2C TRANSLATION FROM L1D PREFETCHER DATA	ACCESS:         31  HIT:         22  MISS:          9  HIT %:    70.9677  MISS %:    29.0323  MPKI: 0.00018

L2C PREFETCH  REQUESTED:      90272  ISSUED:      90272  USEFUL:       8371  USELESS:      64021
L2C USEFUL LOAD PREFETCHES:       8371 PREFETCH ISSUED TO LOWER LEVEL:      72376  ACCURACY: 11.566
 TIMELY PREFETCHES:       8371 LATE PREFETCHES: 338 DROPPED PREFETCHES: 0
L2C AVERAGE MISS LATENCY: 39.5644 cycles
L2C RQ	ACCESS:    3797083	FORWARD:          0	MERGED:          0	TO_CACHE:    3797050
L2C WQ	ACCESS:     523433	FORWARD:         33	MERGED:          0	TO_CACHE:     523433
L2C PQ	ACCESS:     193412	FORWARD:          0	MERGED:       3858	TO_CACHE:     189554

L2C Dense regions hint from L2: 0
PSCL5 TOTAL     ACCESS:       4498  HIT:       2249  MISS:       2249  HIT %:         50  MISS %:         50   MPKI: 0.04498
PSCL5 LOAD TRANSLATION INSTRUCTION	ACCESS:       4436  HIT:       2218  MISS:       2218  HIT %:         50  MISS %:         50  MPKI: 0.04436
PSCL5 TRANSLATION FROM L1D PREFETCHER INSTRUCTION	ACCESS:         62  HIT:         31  MISS:         31  HIT %:         50  MISS %:         50  MPKI: 0.00062


PSCL4 TOTAL     ACCESS:       4297  HIT:       2141  MISS:       2156  HIT %:    49.8255  MISS %:    50.1745   MPKI: 0.04312
PSCL4 LOAD TRANSLATION INSTRUCTION	ACCESS:       3073  HIT:       2110  MISS:        963  HIT %:    68.6625  MISS %:    31.3375  MPKI: 0.01926
PSCL4 TRANSLATION FROM L1D PREFETCHER INSTRUCTION	ACCESS:         48  HIT:         31  MISS:         17  HIT %:    64.5833  MISS %:    35.4167  MPKI: 0.00034
PSCL4 LOAD TRANSLATION DATA	ACCESS:       1162  HIT:          0  MISS:       1162  HIT %:          0  MISS %:        100  MPKI: 0.02324
PSCL4 TRANSLATION FROM L1D PREFETCHER DATA	ACCESS:         14  HIT:          0  MISS:         14  HIT %:          0  MISS %:        100  MPKI: 0.00028


PSCL3 TOTAL     ACCESS:       4407  HIT:       2196  MISS:       2211  HIT %:    49.8298  MISS %:    50.1702   MPKI: 0.04422
PSCL3 LOAD TRANSLATION INSTRUCTION	ACCESS:       3128  HIT:       2165  MISS:        963  HIT %:    69.2136  MISS %:    30.7864  MPKI: 0.01926
PSCL3 TRANSLATION FROM L1D PREFETCHER INSTRUCTION	ACCESS:         48  HIT:         31  MISS:         17  HIT %:    64.5833  MISS %:    35.4167  MPKI: 0.00034
PSCL3 LOAD TRANSLATION DATA	ACCESS:       1217  HIT:          0  MISS:       1217  HIT %:          0  MISS %:        100  MPKI: 0.02434
PSCL3 TRANSLATION FROM L1D PREFETCHER DATA	ACCESS:         14  HIT:          0  MISS:         14  HIT %:          0  MISS %:        100  MPKI: 0.00028


PSCL2 TOTAL     ACCESS:       4357  HIT:       2108  MISS:       2249  HIT %:    48.3819  MISS %:    51.6181   MPKI: 0.04498
PSCL2 LOAD TRANSLATION INSTRUCTION	ACCESS:       2390  HIT:       2077  MISS:        313  HIT %:    86.9038  MISS %:    13.0962  MPKI: 0.00626
PSCL2 TRANSLATION FROM L1D PREFETCHER INSTRUCTION	ACCESS:         31  HIT:         31  MISS:          0  HIT %:        100  MISS %:          0  MPKI: 0
PSCL2 LOAD TRANSLATION DATA	ACCESS:       1905  HIT:          0  MISS:       1905  HIT %:          0  MISS %:        100  MPKI: 0.0381
PSCL2 TRANSLATION FROM L1D PREFETCHER DATA	ACCESS:         31  HIT:          0  MISS:         31  HIT %:          0  MISS %:        100  MPKI: 0.00062


LLC TOTAL     ACCESS:     504767  HIT:     475215  MISS:      29552  HIT %:    94.1454  MISS %:    5.85458   MPKI: 0.59104
LLC LOAD INSTRUCTION	ACCESS:     237793  HIT:     236635  MISS:       1158  HIT %:     99.513  MISS %:   0.486978  MPKI: 0.02316
LLC LOAD TRANSLATION INSTRUCTION	ACCESS:        254  HIT:        201  MISS:         53  HIT %:    79.1339  MISS %:    20.8661  MPKI: 0.00106
LLC LOAD DATA	ACCESS:      73493  HIT:      69725  MISS:       3768  HIT %:     94.873  MISS %:    5.12702  MPKI: 0.07536
LLC RFO DATA	ACCESS:      48635  HIT:      34772  MISS:      13863  HIT %:    71.4958  MISS %:    28.5042  MPKI: 0.27726
LLC PREFETCH DATA	ACCESS:      72376  HIT:      62169  MISS:      10207  HIT %:    85.8973  MISS %:    14.1027  MPKI: 0.20414
LLC WRITEBACK DATA	ACCESS:      70717  HIT:      70326  MISS:        391  HIT %:    99.4471  MISS %:   0.552908  MPKI: 0.00782
LLC LOAD TRANSLATION DATA	ACCESS:       1490  HIT:       1379  MISS:        111  HIT %:    92.5503  MISS %:    7.44966  MPKI: 0.00222
LLC TRANSLATION FROM L1D PREFETCHER DATA	ACCESS:          9  HIT:          8  MISS:          1  HIT %:    88.8889  MISS %:    11.1111  MPKI: 2e-05

LLC AVERAGE MISS LATENCY: 155.963 cycles
LLC RQ	ACCESS:     361678	FORWARD:          0	MERGED:          0	TO_CACHE:     361674
LLC WQ	ACCESS:      70717	FORWARD:          4	MERGED:          0	TO_CACHE:      70717
LLC PQ	ACCESS:      72376	FORWARD:          0	MERGED:          0	TO_CACHE:      72376

LLC Dense regions hint to LLC: 0

RAW hits: 1290319
Loads Generated: 12635468
Loads sent to L1D: 11345150
Stores Generated: 6955384
Stores sent to L1D: 6955398
Major fault: 0 Minor fault: 2591
Allocated PAGES: 2591

stream: 
stream:times selected: 1191487
stream:pref_filled: 120588
stream:pref_useful: 24825
stream:pref_late: 6514
stream:misses: 7466
stream:misses_by_poll: 0

CS: 
CS:times selected: 179451
CS:pref_filled: 58684
CS:pref_useful: 35166
CS:pref_late: 7328
CS:misses: 16549
CS:misses_by_poll: 7

CPLX: 
CPLX:times selected: 1010986
CPLX:pref_filled: 21563
CPLX:pref_useful: 5271
CPLX:pref_late: 2982
CPLX:misses: 93136
CPLX:misses_by_poll: 9

NL_L1: 
NL:times selected: 19724
NL:pref_filled: 675
NL:pref_useful: 326
NL:pref_late: 346
NL:misses: 1428
NL:misses_by_poll: 0

total selections: 2401648
total_filled: 94080
total_useful: 35270
total_late: 18372
total_polluted: 16
total_misses_after_warmup: 770865
conflicts: 5952827

test: 118067

DRAM Statistics
 CHANNEL 0
 RQ ROW_BUFFER_HIT:      10667  ROW_BUFFER_MISS:      18490
 DBUS_CONGESTED:          5
 WQ ROW_BUFFER_HIT:       1591  ROW_BUFFER_MISS:      12650  FULL:          0

 AVG_CONGESTED_CYCLE: 6

CPU 0 Branch Prediction Accuracy: 99.8098% MPKI: 0.34798 Average ROB Occupancy at Mispredict: 75.3371
Branch types
NOT_BRANCH: 40851685 81.7034%
BRANCH_DIRECT_JUMP: 548408 1.09682%
BRANCH_INDIRECT: 182572 0.365144%
BRANCH_CONDITIONAL: 6180299 12.3606%
BRANCH_DIRECT_CALL: 946372 1.89274%
BRANCH_INDIRECT_CALL: 171970 0.34394%
BRANCH_RETURN: 1118345 2.23669%
BRANCH_OTHER: 0 0%

DRAM PAGES: 1048576
Allocated PAGES: 2591
Average_ROB_Occupancy: 59.6062
Average_Decode_Occupancy: 5.03203
Average_FTQ_Occupancy: 15.3041
Indirect max targets: 14 Average targets: 1.17572
Branch_type:  BRANCH_DIRECT_JUMP:  Count Percentage: 3.65457 5.30925 4.21506 2.77703 8.1844 6.01068 6.80714 63.0419 
Branch_type:  BRANCH_INDIRECT:  Count Percentage: 11.7748 3.41525 2.56267 0 13.0274 2.80817 16.5336 49.8781 
Branch_type:  BRANCH_CONDITIONAL:  Count Percentage: 21.0026 3.04908 2.46823 2.35861 3.75547 4.6324 3.16229 59.5714 
Branch_type:  BRANCH_DIRECT_CALL:  Count Percentage: 0.390156 1.76233 0.740935 1.48346 5.0914 2.62411 0.741891 87.1657 
Branch_type:  BRANCH_INDIRECT_CALL:  Count Percentage: 9.56376 0 2.99636 0.000876043 0.848009 1.715 0.00759237 84.8684 
Branch_type:  BRANCH_RETURN:  Count Percentage: 4.2585 2.00742 2.15224 2.31797 4.80674 5.13363 3.51603 75.8075 
Branch_type:  BRANCH_DIRECT_JUMP:  Total Count: 40113 58275 46265 30481 89833 65974 74716 691956 
Branch_type:  BRANCH_INDIRECT:  Total Count: 43117 12506 9384 0 47704 10283 60543 182644 
Branch_type:  BRANCH_CONDITIONAL:  Total Count: 2596318 376925 305121 291569 464248 572653 390920 7364158 
Branch_type:  BRANCH_DIRECT_CALL:  Total Count: 7352 33209 13962 27954 95941 49448 13980 1642529 
Branch_type:  BRANCH_INDIRECT_CALL:  Total Count: 32751 0 10261 3 2904 5873 26 290631 
Branch_type:  BRANCH_RETURN:  Total Count: 94866 44719 47945 51637 107079 114361 78326 1688751 
Number of unique branch instructions: 10653
Upper 32 bits: 
aaaa
ffff
ffff0000
Unique upper 32 bits: 3
Unique upper 36 bits: 3
Unique upper 40 bits: 5
Unique upper 44 bits: 32
Unique upper 48 bits: 158
Variant_0 : 1394 0.340332
Variant_1 : 1312 0.320312
Variant_2 : 1347 0.328857
Variant_3 : 0 0
Offset_3 4405
Offset_4 260
Offset_5 479
Offset_6 541
Offset_7 634
Offset_8 576
Offset_9 510
Offset_10 417
Offset_11 342
Offset_12 308
Offset_13 238
Offset_14 244
Offset_15 196
Offset_16 226
Offset_17 163
Offset_18 144
Offset_19 259
Offset_20 141
Offset_21 235
Offset_22 409
Offset_23 241
Offset_24 343
Offset_25 117
Offset_47 92
Offset_64 2
decode_dispatch_called: 29348114 54.5442
Dispatch_width: 0 17274268 58.8599 32.1046
Dispatch_width: 1 2190237 7.46296 4.07061
Dispatch_width: 2 1190368 4.05603 2.21233
Dispatch_width: 3 1090067 3.71427 2.02592
Dispatch_width: 4 1109637 3.78095 2.06229
Dispatch_width: 5 1241281 4.22951 2.30695
Dispatch_width: 6 5252256 17.8964 9.76144
Empty_decode_cycles: 24458037 45.4558
ROB_full_cycles: 544807 1.01254
Starvation_cycles_per_kilo_instr: 480.091
Starvation_cycles_per_kilo_instr_3: 456.582
Starvation_cycles_per_kilo_instr_0: 411.875
Branch_type_1  (3,1)  (4,9)  (5,39)  (6,74)  (7,123)  (8,151)  (9,134)  (10,110)  (11,76)  (12,47)  (13,11)  (14,2)  (15,3)  (16,4)  (18,1)  (19,5)  (20,2)  (21,1)  (22,3)  (23,2)  (24,10)  (25,12) 
Branch_type_2  (3,1)  (4,1)  (5,1)  (8,4)  (9,4)  (10,1)  (12,1)  (13,1)  (14,1)  (16,3)  (17,2)  (20,2)  (21,2)  (23,5)  (24,1)  (47,41) 
Branch_type_3  (3,4403)  (4,250)  (5,435)  (6,451)  (7,481)  (8,354)  (9,279)  (10,168)  (11,130)  (12,54)  (13,10)  (64,2) 
Branch_type_4  (6,3)  (7,8)  (8,26)  (9,55)  (10,66)  (11,70)  (12,115)  (13,101)  (14,110)  (15,93)  (16,99)  (17,75)  (18,61)  (19,126)  (20,72)  (21,124)  (22,214)  (23,136)  (24,198)  (25,101) 
Branch_type_5  (8,3)  (9,1)  (10,4)  (11,5)  (12,3)  (13,14)  (14,16)  (15,11)  (16,22)  (17,11)  (18,23)  (19,14)  (20,11)  (21,13)  (22,43)  (23,26)  (24,38) 
Branch_type_6  (5,4)  (6,13)  (7,22)  (8,38)  (9,37)  (10,68)  (11,61)  (12,88)  (13,101)  (14,115)  (15,89)  (16,98)  (17,75)  (18,59)  (19,114)  (20,54)  (21,95)  (22,149)  (23,72)  (24,96)  (25,4)  (47,51) 
Unique trigger count: 
Variant_0_evicts_0 : 0
Variant_0_evicts_1 : 0
Variant_0_evicts_2 : 0
Variant_0_evicts_3 : 0
Variant_1_evicts_0 : 0
Variant_1_evicts_1 : 0
Variant_1_evicts_2 : 0
Variant_1_evicts_3 : 0
Variant_2_evicts_0 : 0
Variant_2_evicts_1 : 0
Variant_2_evicts_2 : 0
Variant_2_evicts_3 : 0
Variant_3_evicts_0 : 0
Variant_3_evicts_1 : 0
Variant_3_evicts_2 : 0
Variant_3_evicts_3 : 0
BTB PER SET UNIQUE ADDR: 10 15 7 14 11 16 10 11 10 14 10 19 16 11 12 10 10 10 12 9 14 11 15 12 10 13 10 13 12 12 13 18 14 5 8 12 14 13 5 14 12 11 14 20 9 14 13 9 10 13 17 10 8 15 15 5 8 10 11 12 11 15 6 12 7 11 15 10 16 10 9 11 11 11 8 7 6 15 8 19 15 6 10 11 12 13 15 13 9 23 9 8 9 10 6 14 10 7 15 15 16 17 13 9 14 9 9 13 11 7 9 13 16 10 9 9 15 13 10 16 13 11 12 8 11 11 7 13 10 12 10 14 11 18 11 12 9 12 8 15 11 14 10 10 14 11 15 10 9 10 15 16 11 15 12 16 18 13 11 13 11 12 9 13 10 9 9 9 7 10 11 14 11 9 11 8 14 16 12 9 6 12 8 15 18 15 5 14 10 11 11 11 10 11 9 12 8 17 9 13 11 13 13 8 10 7 10 13 8 11 10 10 14 12 7 11 15 11 14 18 5 17 9 13 9 14 19 9 10 17 10 7 12 14 11 15 19 11 12 12 16 6 9 13 13 14 13 4 10 15 17 12 13 11 16 11 6 7 9 10 12 8 6 10 12 13 10 8 12 11 10 12 12 4 7 11 11 13 12 11 10 14 8 14 15 11 12 18 16 14 9 9 15 14 7 15 10 19 16 8 10 9 9 18 13 14 14 8 20 16 13 20 12 14 12 5 16 9 14 13 9 12 11 9 12 17 13 11 11 10 13 11 9 9 11 14 8 8 6 13 9 11 10 15 11 17 12 12 15 7 15 10 6 14 13 12 12 13 12 11 13 15 7 16 8 14 9 10 13 10 12 10 12 18 9 14 9 15 18 13 11 7 9 9 10 14 13 10 11 7 13 11 11 19 10 13 12 11 17 13 11 9 8 14 16 13 10 15 14 10 11 8 11 18 12 8 11 16 20 17 12 17 8 12 18 7 12 9 12 11 16 10 10 12 15 5 16 12 14 6 13 9 11 13 21 10 10 11 9 18 10 11 17 10 8 24 15 14 10 13 12 11 13 12 15 9 15 11 9 12 13 14 9 10 12 16 10 17 9 13 15 16 10 16 8 15 17 17 15 14 8 19 12 5 13 11 16 15 12 13 15 17 13 10 10 12 11 12 15 16 13 17 9 12 12 11 19 18 7 10 11 8 11 9 10 16 19 7 9 23 12 11 12 12 13 14 15 15 8 11 22 8 12 11 16 15 10 15 10 10 15 12 15 15 12 12 13 9 11 18 13 15 15 11 9 20 8 14 12 13 13 12 14 13 14 10 20 13 11 14 18 12 9 11 11 12 14 10 15 14 14 12 11 13 13 11 13 15 6 11 11 10 12 8 11 13 16 8 13 10 15 12 15 13 4 16 10 14 11 11 13 12 7 13 14 16 15 20 8 13 10 18 13 14 13 12 11 21 12 14 9 13 12 16 13 11 8 20 17 12 9 16 11 9 10 13 12 11 14 15 11 9 12 16 12 12 10 10 11 12 12 17 11 13 20 12 15 16 9 14 12 13 14 15 17 15 8 13 13 13 14 14 13 10 12 11 10 16 11 14 7 15 17 9 4 11 11 8 13 10 13 19 8 10 10 8 16 13 12 8 13 9 13 16 5 10 16 13 14 10 14 7 15 5 9 14 13 16 12 13 11 11 12 9 17 11 16 15 11 9 13 14 12 16 8 9 16 15 10 13 10 4 5 9 15 18 8 13 15 15 11 11 7 11 8 10 19 12 16 14 7 15 15 11 12 10 9 10 9 7 10 11 12 14 11 21 12 12 14 10 19 10 20 13 17 10 14 14 12 10 10 13 8 18 11 14 18 12 9 14 12 14 11 13 12 14 16 14 16 12 14 12 14 8 8 15 13 10 13 10 18 8 7 9 9 17 11 18 12 9 10 11 10 9 16 12 12 11 7 12 17 13 8 14 19 6 12 12 16 8 11 14 15 11 16 6 12 11 14 10 11 10 15 13 12 9 14 13 12 13 13 11 8 12 10 8 14 12 10 11 14 13 13 11 7 9 8 14 9 10 12 13 12 15 14 16 17 15 15 7 12 18 13 9 14 7 9 12 13 9 8 15 16 9 14 14 10 16 8 10 11 13 9 16 10 11 13 15 11 11 11 18 8 11 10 17 13 13 13 17 12 14 12 16 17 7 13 10 11 16 9 8 17 11 15 12 15 14 16 17 13 14 13 13 11 14 20 13 12 12 9 12 12 14 15 11 11 13 14 10 18 14 7 9 17 18 8 15 12 16 13 19 4 6 6 9 6 10 7 10 11 15 11 6 
BTB PER SET COUNT: 13 25 1983 23 1476 32 987 226 234 20 15 1435 19928 12 13 10 165 13 24 12 24 13 739 67 20 14 15 15 65 17 18 892 15 5 12 14 31 20 6 50 17 11 20 70 1476 76 19 20 12 20 21 14 10 20 17 5 13 16 20 16 16 2441 6 21 7 14 22 10 23 13 1486 522 22 16 11 12 8 861 8 30 17 6 18 761 13 1383 25 19 942 49 9 13 11 13 11 22 966 8 18 1095 23 148 14 13 178 15 11 16 997 7 11 27 919 10 18 281 27 23 1479 453 22 46 20 9 14 48 8 22 12 1006 18 1011 15 24 22 24 990 24 13 29 16 14 13 18 32 15 20 472 10 17 31 263 860 28 13 22 282 15 11 23 17 371 12 17 1480 10 10 11 7 223 16 15 14 13 12 10 23 20 1114 11 9 238 3452 28 26 27 5 19 516 15 17 14 10 12 9 168 8 464 10 16 14 60 986 16 12 8 10 29 9 152 14 17 21 41 9 752 20 16 2917 28 5 24 113 20 10 22 22 10 149 28 16 7 14 18 11 630 64 273 18 14 22 7 13 222 24 264 15 4 15 27 28 18 19 14 24 14 39 12 11 14 985 9 8 18 14 19 12 8 308 13 11 15 14 4 569 14 17 17 16 17 17 18 13 493 27 12 16 835 27 16 12 12 24 495 10 29 10 29 20 325 16 9 10 36 19 119 20 11 43 868 23 31 17 19 1484 993 23 9 23 21 12 2954 14 14 1478 633 369 13 19 10 18 16 24 9 15 19 12 985 10 17 10 624 10 19 22 27 14 20 17 9 22 10 7 24 20 14 19 18 436 25 17 17 7 23 9 41 11 11 23 14 23 10 17 24 251 15 10 21 248 18 284 7 11 9 10 17 20 11 12 11 25 17 12 28 12 31 13 17 1505 1287 16 14 12 18 26 22 19 18 16 17 13 8 14 19 16 9 13 57 29 18 22 24 13 13 35 8 1478 16 21 17 22 11 13 17 510 10 16 862 22 10 17 16 15 22 1729 12 79 21 13 32 14 39 39 22 11 1500 21 17 12 14 25 17 18 660 16 213 25 19 9 22 23 21 10 10 17 47 15 27 9 20 17 37 11 22 496 867 30 24 19 18 926 21 43 9 13 16 328 987 17 23 18 31 16 143 18 18 17 24 27 32 77 33 54 515 13 24 41 26 7 245 13 12 22 9 12 25 2071 9 12 1505 27 14 20 16 15 798 20 17 13 323 33 10 16 15 20 444 12 23 16 23 27 13 982 25 13 20 20 9 20 41 19 74 23 12 112 28 13 20 22 14 20 14 19 16 2462 12 64 19 16 16 28 24 15 4179 15 22 381 12 18 14 25 16 15 22 22 16 430 381 248 15 14 12 120 17 19 17 18 16 22 16 19 16 518 19 4 23 443 15 11 14 14 13 10 16 20 18 18 33 8 25 12 24 826 19 19 17 26 196 19 507 12 25 12 20 783 66 997 33 30 16 12 23 14 12 11 520 15 18 160 204 376 14 19 29 19 14 12 15 1443 18 20 26 987 23 170 119 23 32 12 30 18 20 159 26 555 24 10 15 29 25 15 22 15 14 1891 13 17 1900 16 19 146 22 730 14 4 20 18 9 16 15 322 277 787 16 14 13 31 19 23 448 15 239 16 225 6 15 21 19 38 343 132 14643 26 6 10 17 1027 19 19 19 1222 19 12 12 28 11 97 21 16 13 29 20 16 1981 9 11 23 1486 11 22 18 4 5 19 2958 25 8 21 22 373 53 19 15 18 13 21 23 268 27 22 1260 27 141 11 19 16 10 14 12 9 14 14 16 18 11 24 17 14 17 18 31 15 31 15 33 17 22 15 21 16 15 6771 9 1067 318 1401 29 90 12 16 19 22 13 19 14 17 20 19 19 16 17 20 21 10 489 170 20 947 493 17 23 979 8 10 1761 22 15 20 14 12 11 1948 120 16 55 18 20 20 12 18 34 17 1010 20 29 10 17 14 26 10 15 19 20 14 27 11 21 16 18 15 11 12 143 17 622 14 15 16 14 21 15 1018 9 34 14 8 16 17 16 13 22 16 16 330 7 16 11 21 9 376 17 504 14 20 25 986 1387 318 20 19 12 29 276 14 17 10 12 18 19 19 10 17 30 10 24 20 15 20 13 12 12 973 11 21 16 17 51 17 12 13 12 40 14 1484 11 21 153 16 14 1939 13 21 18 24 21 9 1433 13 12 24 16 11 29 11 1763 18 22 18 30 26 18 21 16 892 15 1346 31 510 17 20 20 16 507 1010 22 16 13 1268 18 18 25 27 8 15 19 26 11 21 29 993 21 29 4 6 6 10 12 13 14 11 13 60 13 8 
To predecode: 0
Predecoding something: 0
Predecode request dropped: 0
sizeofblock_0 0
sizeofblock_1 35731
sizeofblock_2 42086
sizeofblock_3 40789
sizeofblock_4 24228
sizeofblock_5 0
sizeofblock_6 0
sizeofblock_7 0
sizeofblock_8 0
Variant_0 Correct: 1612451 Incorrect: 0 Accuracy: 1
Variant_1 Correct: 2089285 Incorrect: 0 Accuracy: 1
Variant_2 Correct: 3641390 Incorrect: 0 Accuracy: 1
Variant_3 Correct: 0 Incorrect: 0 Accuracy: -nan
