
*** ChampSim Multicore Out-of-Order Simulator ***

Warmup Instructions: 50000000
Simulation Instructions: 50000000
Number of CPUs: 1
LLC sets: 2048
LLC ways: 16
Off-chip DRAM Size: 4096 MB Channels: 1 Width: 64-bit Data Rate: 6400 MT/s
CPU 0 runs ./micro_traces/srv563.trace.gz
.gz
ITLB has LRU replacement policy
DTLB has LRU replacement policy
STLB has LRU replacement policy
CPU 0 L1I next line prefetcher
L1I has LRU replacement policy
L1D has LRU replacement policy
Initialize SRRIP state for L2C
Initialize DRRIP state for LLC
Heartbeat CPU 0 instructions: 10000000 cycles: 2798611 heartbeat IPC: 3.5732 cumulative IPC: 3.5732 (Simulation time: 0 hr 1 min 38 sec) 
Heartbeat CPU 0 instructions: 20000000 cycles: 5596155 heartbeat IPC: 3.57456 cumulative IPC: 3.57388 (Simulation time: 0 hr 3 min 17 sec) 
Heartbeat CPU 0 instructions: 30000002 cycles: 8393570 heartbeat IPC: 3.57473 cumulative IPC: 3.57416 (Simulation time: 0 hr 4 min 56 sec) 
Heartbeat CPU 0 instructions: 40000000 cycles: 11190569 heartbeat IPC: 3.57526 cumulative IPC: 3.57444 (Simulation time: 0 hr 6 min 37 sec) 
Heartbeat CPU 0 instructions: 50000003 cycles: 13987177 heartbeat IPC: 3.57576 cumulative IPC: 3.5747 (Simulation time: 0 hr 8 min 16 sec) 

Warmup complete CPU 0 instructions: 50000003 cycles: 13987177 (Simulation time: 0 hr 8 min 16 sec) 

Cycle: 20000000 FTQ IN: 56704922 FTQ occupancy: 17.1697 DECODE IN: 56704922 DECODE occupancy: 44.9197 ROB IN: 56704922 ROB occupancy: 280.258 ROB OUT: 56704897
Heartbeat CPU 0 instructions: 60000000 cycles: 23062680 heartbeat IPC: 1.10187 cumulative IPC: 1.10187 (Simulation time: 0 hr 9 min 35 sec) 
Cycle: 30000000 FTQ IN: 10999649 FTQ occupancy: 3.79738 DECODE IN: 10999635 DECODE occupancy: 10.2017 ROB IN: 10999635 ROB occupancy: 123.09 ROB OUT: 10999637
Heartbeat CPU 0 instructions: 70000000 cycles: 32045392 heartbeat IPC: 1.11325 cumulative IPC: 1.10753 (Simulation time: 0 hr 10 min 55 sec) 
Cycle: 40000000 FTQ IN: 11158305 FTQ occupancy: 3.6692 DECODE IN: 11158297 DECODE occupancy: 9.97024 ROB IN: 11158278 ROB occupancy: 123.45 ROB OUT: 11158289
Heartbeat CPU 0 instructions: 80000003 cycles: 41119148 heartbeat IPC: 1.10208 cumulative IPC: 1.10571 (Simulation time: 0 hr 12 min 11 sec) 
Cycle: 50000000 FTQ IN: 11024739 FTQ occupancy: 3.74843 DECODE IN: 11024761 DECODE occupancy: 10.0634 ROB IN: 11024780 ROB occupancy: 122.258 ROB OUT: 11024786
Heartbeat CPU 0 instructions: 90000000 cycles: 50094657 heartbeat IPC: 1.11414 cumulative IPC: 1.1078 (Simulation time: 0 hr 13 min 30 sec) 
Heartbeat CPU 0 instructions: 100000000 cycles: 59125095 heartbeat IPC: 1.10737 cumulative IPC: 1.10772 (Simulation time: 0 hr 14 min 49 sec) 
Finished CPU 0 instructions: 50000001 cycles: 45137939 cumulative IPC: 1.10772 (Simulation time: 0 hr 14 min 49 sec) 

ChampSim completed all CPUs

Region of Interest Statistics

CPU 0 cumulative IPC: 1.10772 instructions: 50000001 cycles: 45137939
 Fetch stage stalled: 73.2563  Sim cycles: 45137939 fetch stall cycle: 33066404
 Empty decode stage: 58.2157  Sim cycles: 45137939 fetch stall cycle: 26277372
ITLB TOTAL     ACCESS:    7629585  HIT:    7029002  MISS:     600583  HIT %:    92.1282  MISS %:    7.87176   MPKI: 12.0117
ITLB LOAD TRANSLATION INSTRUCTION	ACCESS:    5868662  HIT:    5741374  MISS:     127288  HIT %:    97.8311  MISS %:    2.16894  MPKI: 2.54576
ITLB TRANSLATION FROM L1D PREFETCHER INSTRUCTION	ACCESS:    1760923  HIT:    1287628  MISS:     473295  HIT %:    73.1223  MISS %:    26.8777  MPKI: 9.4659

ITLB AVERAGE MISS LATENCY: 103324 cycles
ITLB RQ	ACCESS:   11530743	FORWARD:          0	MERGED:    3763787	TO_CACHE:    7766956

DTLB TOTAL     ACCESS:    9383626  HIT:    8909965  MISS:     473661  HIT %:    94.9523  MISS %:    5.04774   MPKI: 9.47322
DTLB LOAD TRANSLATION DATA	ACCESS:    9383626  HIT:    8909965  MISS:     473661  HIT %:    94.9523  MISS %:    5.04774  MPKI: 9.47322

DTLB AVERAGE MISS LATENCY: 9.34333 cycles
DTLB RQ	ACCESS:   13660303	FORWARD:          0	MERGED:    4242958	TO_CACHE:    9417345

STLB TOTAL     ACCESS:    1323979  HIT:    1321944  MISS:       2035  HIT %:    99.8463  MISS %:   0.153703   MPKI: 0.0407
STLB LOAD TRANSLATION INSTRUCTION	ACCESS:     125603  HIT:     125452  MISS:        151  HIT %:    99.8798  MISS %:    0.12022  MPKI: 0.00302
STLB TRANSLATION FROM L1D PREFETCHER INSTRUCTION	ACCESS:     474980  HIT:     474888  MISS:         92  HIT %:    99.9806  MISS %:  0.0193692  MPKI: 0.00184
STLB LOAD TRANSLATION DATA	ACCESS:     473661  HIT:     471900  MISS:       1761  HIT %:    99.6282  MISS %:   0.371785  MPKI: 0.03522
STLB TRANSLATION FROM L1D PREFETCHER DATA	ACCESS:     249735  HIT:     249704  MISS:         31  HIT %:    99.9876  MISS %:  0.0124132  MPKI: 0.00062

STLB AVERAGE MISS LATENCY: 78.6899 cycles
STLB RQ	ACCESS:    1450302	FORWARD:          0	MERGED:     122480	TO_CACHE:    1327822

STLB Hit, L1D data hit: 0
STLB Hit, L2C data hit: 0
STLB Hit, LLC data hit: 0
STLB Hit, LLC data miss: 0
STLB STLB hints to L2: 0
L1D TOTAL     ACCESS:   13407064  HIT:   12288734  MISS:    1118330  HIT %:    91.6587  MISS %:    8.34135   MPKI: 22.3666
L1D LOAD DATA	ACCESS:    6843482  HIT:    6107605  MISS:     735877  HIT %:     89.247  MISS %:     10.753  MPKI: 14.7175
L1D RFO DATA	ACCESS:    6234205  HIT:    5946491  MISS:     287714  HIT %:    95.3849  MISS %:    4.61509  MPKI: 5.75428
L1D PREFETCH DATA	ACCESS:     329377  HIT:     234638  MISS:      94739  HIT %:    71.2369  MISS %:    28.7631  MPKI: 1.89478

L1D PREFETCH  REQUESTED:     744795  ISSUED:     744795  USEFUL:      35361  USELESS:      68496
L1D USEFUL LOAD PREFETCHES:      35361 PREFETCH ISSUED TO LOWER LEVEL:     103928  ACCURACY: 34.0245
 TIMELY PREFETCHES:      35361 LATE PREFETCHES: 9071 DROPPED PREFETCHES: 5
L1D AVERAGE MISS LATENCY: 303362 cycles
L1D RQ	ACCESS:   10927412	FORWARD:          0	MERGED:    3879222	TO_CACHE:    6881491
L1D WQ	ACCESS:    6950443	FORWARD:     166980	MERGED:     171631	TO_CACHE:    6778812
L1D PQ	ACCESS:     372538	FORWARD:          0	MERGED:          0	TO_CACHE:     372257

L1D UNIQUE REGIONS ACCESSED: 0
L1D REGIONS CONFLICTS: 0
L1D Cross Page Prefetch Requests: 6966
L1D Same Page Prefetch Requests: 753618
L1D ROI Sum of L1D PQ occupancy: 4740949
L1D PREFETCHES PUSHED FROM L2C: 0
L1I TOTAL     ACCESS:   11244536  HIT:    7635037  MISS:    3609499  HIT %:       67.9  MISS %:       32.1   MPKI: 72.19
L1I LOAD INSTRUCTION	ACCESS:    6680989  HIT:    6179832  MISS:     501157  HIT %:    92.4988  MISS %:    7.50124  MPKI: 10.0231
L1I PREFETCH INSTRUCTION	ACCESS:    4563547  HIT:    1455205  MISS:    3108342  HIT %:    31.8876  MISS %:    68.1124  MPKI: 62.1668

L1I PREFETCH  REQUESTED:    5108740  ISSUED:    5108671  USEFUL:    2393808  USELESS:     757980
L1I USEFUL LOAD PREFETCHES:    2393808 PREFETCH ISSUED TO LOWER LEVEL:    3151796  ACCURACY: 75.9506
 TIMELY PREFETCHES:    2393808 LATE PREFETCHES: 43451 DROPPED PREFETCHES: 10060
L1I AVERAGE MISS LATENCY: 428652 cycles
L1I RQ	ACCESS:    9425280	FORWARD:          0	MERGED:    2723797	TO_CACHE:    6701483
L1I PQ	ACCESS:    5108671	FORWARD:          0	MERGED:     279411	TO_CACHE:    4829260

L1BTB TOTAL     ACCESS:    5669550  HIT:    2040549  MISS:    3629001  HIT %:    35.9914  MISS %:    64.0086   MPKI: 72.58
L1BTB BRANCH_DIRECT_JUMP	ACCESS:     548585  HIT:     144271  MISS:     404314	AVERAGE STALL: 19.3408
L1BTB BRANCH_INDIRECT	ACCESS:     182965  HIT:      66053  MISS:     116912	AVERAGE STALL: 77.6047
L1BTB BRANCH_CONDITIONAL	ACCESS:    2710061  HIT:    1416723  MISS:    1293338	AVERAGE STALL: 19.2977
L1BTB BRANCH_DIRECT_CALL	ACCESS:     942630  HIT:     104141  MISS:     838489	AVERAGE STALL: 19.9638
L1BTB BRANCH_INDIRECT_CALL	ACCESS:     171337  HIT:      20857  MISS:     150480	AVERAGE STALL: 101.761
L1BTB BRANCH_RETURN	ACCESS:    1113972  HIT:     288504  MISS:     825468	AVERAGE STALL: 21.4652
L1BTB BRANCH_OTHER ACCESS:          0  HIT:          0  MISS:          0	AVERAGE STALL: -nan
L1BTB TOTAL ROB OCCUPANCY AT BTB MISS: 29.5854

L2BTB TOTAL     ACCESS:    3603543  HIT:    2568668  MISS:    1034875  HIT %:    71.2817  MISS %:    28.7183   MPKI: 20.6975
L2BTB BRANCH_DIRECT_JUMP	ACCESS:     400137  HIT:     283004  MISS:     117133	AVERAGE STALL: 19.3408
L2BTB BRANCH_INDIRECT	ACCESS:     106609  HIT:      93374  MISS:      13235	AVERAGE STALL: 77.6047
L2BTB BRANCH_CONDITIONAL	ACCESS:    1293338  HIT:     919216  MISS:     374122	AVERAGE STALL: 19.2977
L2BTB BRANCH_DIRECT_CALL	ACCESS:     838489  HIT:     571333  MISS:     267156	AVERAGE STALL: 19.9638
L2BTB BRANCH_INDIRECT_CALL	ACCESS:     140918  HIT:      92673  MISS:      48245	AVERAGE STALL: 101.761
L2BTB BRANCH_RETURN	ACCESS:     824052  HIT:     609068  MISS:     214984	AVERAGE STALL: 21.4652
L2BTB BRANCH_OTHER ACCESS:          0  HIT:          0  MISS:          0	AVERAGE STALL: -nan
L2BTB TOTAL ROB OCCUPANCY AT BTB MISS: 103.747

L2C TOTAL     ACCESS:    6577805  HIT:    5687005  MISS:     890800  HIT %:    86.4575  MISS %:    13.5425   MPKI: 17.816
L2C LOAD INSTRUCTION	ACCESS:     457706  HIT:     384319  MISS:      73387  HIT %:    83.9663  MISS %:    16.0337  MPKI: 1.46774
L2C PREFETCH INSTRUCTION	ACCESS:    3151793  HIT:    2833700  MISS:     318093  HIT %:    89.9076  MISS %:    10.0924  MPKI: 6.36186
L2C LOAD TRANSLATION INSTRUCTION	ACCESS:        167  HIT:         49  MISS:        118  HIT %:    29.3413  MISS %:    70.6587  MPKI: 0.00236
L2C TRANSLATION FROM L1D PREFETCHER INSTRUCTION	ACCESS:       5106  HIT:       4869  MISS:        237  HIT %:    95.3584  MISS %:     4.6416  MPKI: 0.00474
L2C LOAD DATA	ACCESS:     726773  HIT:     598148  MISS:     128625  HIT %:    82.3019  MISS %:    17.6981  MPKI: 2.5725
L2C RFO DATA	ACCESS:     287568  HIT:     203494  MISS:      84074  HIT %:    70.7638  MISS %:    29.2362  MPKI: 1.68148
L2C PREFETCH DATA	ACCESS:    1424418  HIT:    1177429  MISS:     246989  HIT %:    82.6604  MISS %:    17.3396  MPKI: 4.93978
L2C WRITEBACK DATA	ACCESS:     522386  HIT:     484581  MISS:      37805  HIT %:     92.763  MISS %:    7.23699  MPKI: 0.7561
L2C LOAD TRANSLATION DATA	ACCESS:       1834  HIT:        379  MISS:       1455  HIT %:    20.6652  MISS %:    79.3348  MPKI: 0.0291
L2C TRANSLATION FROM L1D PREFETCHER DATA	ACCESS:         54  HIT:         37  MISS:         17  HIT %:    68.5185  MISS %:    31.4815  MPKI: 0.00034

L2C PREFETCH  REQUESTED:    3257370  ISSUED:    3257370  USEFUL:      32441  USELESS:     536102
L2C USEFUL LOAD PREFETCHES:      32441 PREFETCH ISSUED TO LOWER LEVEL:     566830  ACCURACY: 5.72323
 TIMELY PREFETCHES:      32441 LATE PREFETCHES: 1744 DROPPED PREFETCHES: 0
L2C AVERAGE MISS LATENCY: 34.4382 cycles
L2C RQ	ACCESS:    1479269	FORWARD:          0	MERGED:          0	TO_CACHE:    1479208
L2C WQ	ACCESS:     522386	FORWARD:         61	MERGED:          0	TO_CACHE:     522386
L2C PQ	ACCESS:    6513094	FORWARD:          0	MERGED:    1919192	TO_CACHE:    4593902

L2C Dense regions hint from L2: 0
PSCL5 TOTAL     ACCESS:      11692  HIT:       5846  MISS:       5846  HIT %:         50  MISS %:         50   MPKI: 0.11692
PSCL5 LOAD TRANSLATION INSTRUCTION	ACCESS:       3798  HIT:       1899  MISS:       1899  HIT %:         50  MISS %:         50  MPKI: 0.03798
PSCL5 TRANSLATION FROM L1D PREFETCHER INSTRUCTION	ACCESS:       7894  HIT:       3947  MISS:       3947  HIT %:         50  MISS %:         50  MPKI: 0.07894


PSCL4 TOTAL     ACCESS:      10750  HIT:       5369  MISS:       5381  HIT %:    49.9442  MISS %:    50.0558   MPKI: 0.10762
PSCL4 LOAD TRANSLATION INSTRUCTION	ACCESS:       2840  HIT:       1731  MISS:       1109  HIT %:    60.9507  MISS %:    39.0493  MPKI: 0.02218
PSCL4 TRANSLATION FROM L1D PREFETCHER INSTRUCTION	ACCESS:       6368  HIT:       3638  MISS:       2730  HIT %:    57.1294  MISS %:    42.8706  MPKI: 0.0546
PSCL4 LOAD TRANSLATION DATA	ACCESS:        634  HIT:          0  MISS:        634  HIT %:          0  MISS %:        100  MPKI: 0.01268
PSCL4 TRANSLATION FROM L1D PREFETCHER DATA	ACCESS:        908  HIT:          0  MISS:        908  HIT %:          0  MISS %:        100  MPKI: 0.01816


PSCL3 TOTAL     ACCESS:      10826  HIT:       5407  MISS:       5419  HIT %:    49.9446  MISS %:    50.0554   MPKI: 0.10838
PSCL3 LOAD TRANSLATION INSTRUCTION	ACCESS:       2878  HIT:       1769  MISS:       1109  HIT %:    61.4663  MISS %:    38.5337  MPKI: 0.02218
PSCL3 TRANSLATION FROM L1D PREFETCHER INSTRUCTION	ACCESS:       6368  HIT:       3638  MISS:       2730  HIT %:    57.1294  MISS %:    42.8706  MPKI: 0.0546
PSCL3 LOAD TRANSLATION DATA	ACCESS:        672  HIT:          0  MISS:        672  HIT %:          0  MISS %:        100  MPKI: 0.01344
PSCL3 TRANSLATION FROM L1D PREFETCHER DATA	ACCESS:        908  HIT:          0  MISS:        908  HIT %:          0  MISS %:        100  MPKI: 0.01816


PSCL2 TOTAL     ACCESS:       9539  HIT:       4722  MISS:       4817  HIT %:     49.502  MISS %:     50.498   MPKI: 0.09634
PSCL2 LOAD TRANSLATION INSTRUCTION	ACCESS:       1983  HIT:       1818  MISS:        165  HIT %:    91.6793  MISS %:    8.32073  MPKI: 0.0033
PSCL2 TRANSLATION FROM L1D PREFETCHER INSTRUCTION	ACCESS:       5754  HIT:       2904  MISS:       2850  HIT %:    50.4692  MISS %:    49.5308  MPKI: 0.057
PSCL2 LOAD TRANSLATION DATA	ACCESS:       1748  HIT:          0  MISS:       1748  HIT %:          0  MISS %:        100  MPKI: 0.03496
PSCL2 TRANSLATION FROM L1D PREFETCHER DATA	ACCESS:         54  HIT:          0  MISS:         54  HIT %:          0  MISS %:        100  MPKI: 0.00108


LLC TOTAL     ACCESS:     980637  HIT:     949658  MISS:      30979  HIT %:    96.8409  MISS %:    3.15907   MPKI: 0.61958
LLC LOAD INSTRUCTION	ACCESS:      72715  HIT:      72400  MISS:        315  HIT %:    99.5668  MISS %:   0.433198  MPKI: 0.0063
LLC PREFETCH INSTRUCTION	ACCESS:     316432  HIT:     316003  MISS:        429  HIT %:    99.8644  MISS %:   0.135574  MPKI: 0.00858
LLC LOAD TRANSLATION INSTRUCTION	ACCESS:        118  HIT:         89  MISS:         29  HIT %:    75.4237  MISS %:    24.5763  MPKI: 0.00058
LLC TRANSLATION FROM L1D PREFETCHER INSTRUCTION	ACCESS:        237  HIT:        229  MISS:          8  HIT %:    96.6245  MISS %:    3.37553  MPKI: 0.00016
LLC LOAD DATA	ACCESS:     127580  HIT:     123888  MISS:       3692  HIT %:    97.1061  MISS %:    2.89387  MPKI: 0.07384
LLC RFO DATA	ACCESS:      84028  HIT:      68485  MISS:      15543  HIT %:    81.5026  MISS %:    18.4974  MPKI: 0.31086
LLC PREFETCH DATA	ACCESS:     250392  HIT:     239870  MISS:      10522  HIT %:    95.7978  MISS %:    4.20221  MPKI: 0.21044
LLC WRITEBACK DATA	ACCESS:     127663  HIT:     127329  MISS:        334  HIT %:    99.7384  MISS %:   0.261626  MPKI: 0.00668
LLC LOAD TRANSLATION DATA	ACCESS:       1455  HIT:       1348  MISS:        107  HIT %:     92.646  MISS %:    7.35395  MPKI: 0.00214
LLC TRANSLATION FROM L1D PREFETCHER DATA	ACCESS:         17  HIT:         17  MISS:          0  HIT %:        100  MISS %:          0  MPKI: 0

LLC AVERAGE MISS LATENCY: 163.021 cycles
LLC RQ	ACCESS:     286169	FORWARD:          0	MERGED:          0	TO_CACHE:     286150
LLC WQ	ACCESS:     127663	FORWARD:         21	MERGED:          0	TO_CACHE:     127663
LLC PQ	ACCESS:     566830	FORWARD:          0	MERGED:          0	TO_CACHE:     566828

LLC Dense regions hint to LLC: 0

RAW hits: 1713133
Loads Generated: 12640543
Loads sent to L1D: 10927412
Stores Generated: 6950429
Stores sent to L1D: 6950443
Major fault: 0 Minor fault: 2546
Allocated PAGES: 2546
I-Shadow cache 408 bytes
Touched + WorthPF tables 12288 bytes 
MMA filter 174 bytes 
FNL filter 272 bytes 
TOTAL PREFETCHER STORAGE SIZE: 31318 bytes
CPU 0 L1I next line prefetcher final stats

stream: 
stream:times selected: 1187413
stream:pref_filled: 119888
stream:pref_useful: 22750
stream:pref_late: 7768
stream:misses: 8284
stream:misses_by_poll: 0

CS: 
CS:times selected: 177915
CS:pref_filled: 54205
CS:pref_useful: 30600
CS:pref_late: 13514
CS:misses: 23461
CS:misses_by_poll: 5

CPLX: 
CPLX:times selected: 1008363
CPLX:pref_filled: 19416
CPLX:pref_useful: 4030
CPLX:pref_late: 3328
CPLX:misses: 94425
CPLX:misses_by_poll: 0

NL_L1: 
NL:times selected: 21129
NL:pref_filled: 582
NL:pref_useful: 240
NL:pref_late: 431
NL:misses: 1937
NL:misses_by_poll: 0

total selections: 2394820
total_filled: 94739
total_useful: 35361
total_late: 26730
total_polluted: 5
total_misses_after_warmup: 773888
conflicts: 5665233

test: 118176

DRAM Statistics
 CHANNEL 0
 RQ ROW_BUFFER_HIT:      10861  ROW_BUFFER_MISS:      19772
 DBUS_CONGESTED:         10
 WQ ROW_BUFFER_HIT:       1583  ROW_BUFFER_MISS:      13606  FULL:          0

 AVG_CONGESTED_CYCLE: 4

CPU 0 Branch Prediction Accuracy: 99.8245% MPKI: 0.32086 Average ROB Occupancy at Mispredict: 128.361
Branch types
NOT_BRANCH: 40858197 81.7164%
BRANCH_DIRECT_JUMP: 548585 1.09717%
BRANCH_INDIRECT: 182965 0.36593%
BRANCH_CONDITIONAL: 6181800 12.3636%
BRANCH_DIRECT_CALL: 942630 1.88526%
BRANCH_INDIRECT_CALL: 171337 0.342674%
BRANCH_RETURN: 1113972 2.22794%
BRANCH_OTHER: 0 0%

DRAM PAGES: 1048576
Allocated PAGES: 2546
Average_ROB_Occupancy: 123.511
Average_Decode_Occupancy: 10.0767
Average_FTQ_Occupancy: 3.74942
Indirect max targets: 14 Average targets: 1.14966
Branch_type:  BRANCH_DIRECT_JUMP:  Count Percentage: 2.90189 6.71547 4.01452 9.10765 1.69595 5.97481 1.21899 68.3707 
Branch_type:  BRANCH_INDIRECT:  Count Percentage: 11.769 3.45274 2.54579 0 1.33799 9.66651 5.88967 65.3383 
Branch_type:  BRANCH_CONDITIONAL:  Count Percentage: 21.0906 3.22782 1.77466 5.43711 1.15973 9.03278 5.10134 53.1759 
Branch_type:  BRANCH_DIRECT_CALL:  Count Percentage: 0.259584 1.77361 1.43084 4.70999 2.16542 2.99894 0.705796 85.9558 
Branch_type:  BRANCH_INDIRECT_CALL:  Count Percentage: 9.55558 0 2.99514 8.70266 0 2.6605 1.28405 74.8021 
Branch_type:  BRANCH_RETURN:  Count Percentage: 3.90658 1.38012 1.41195 6.33895 2.79835 9.28713 5.47683 69.4001 
Branch_type:  BRANCH_DIRECT_JUMP:  Total Count: 31814 73623 44012 99849 18593 65503 13364 749562 
Branch_type:  BRANCH_INDIRECT:  Total Count: 43030 12624 9308 0 4892 35343 21534 238892 
Branch_type:  BRANCH_CONDITIONAL:  Total Count: 2606333 398887 219309 671906 143317 1116252 630413 6571370 
Branch_type:  BRANCH_DIRECT_CALL:  Total Count: 4896 33452 26987 88835 40842 56563 13312 1621211 
Branch_type:  BRANCH_INDIRECT_CALL:  Total Count: 32781 0 10275 29855 0 9127 4405 256613 
Branch_type:  BRANCH_RETURN:  Total Count: 87115 30776 31486 141356 62402 207099 122131 1547593 
Number of unique branch instructions: 9917
Upper 32 bits: 
aaaa
ffff
ffff0000
Unique upper 32 bits: 3
Unique upper 36 bits: 3
Unique upper 40 bits: 5
Unique upper 44 bits: 32
Unique upper 48 bits: 154
Offset_3 4073
Offset_4 249
Offset_5 451
Offset_6 503
Offset_7 585
Offset_8 509
Offset_9 468
Offset_10 385
Offset_11 315
Offset_12 288
Offset_13 201
Offset_14 230
Offset_15 189
Offset_16 223
Offset_17 143
Offset_18 126
Offset_19 240
Offset_20 142
Offset_21 235
Offset_22 392
Offset_23 241
Offset_24 327
Offset_25 88
Offset_47 80
decode_dispatch_called: 20845637 46.1821
Dispatch_width: 0 10136676 48.6273 22.4571
Dispatch_width: 1 696648 3.34194 1.54338
Dispatch_width: 2 995679 4.77644 2.20586
Dispatch_width: 3 693657 3.32759 1.53675
Dispatch_width: 4 2093016 10.0405 4.63693
Dispatch_width: 5 521157 2.50008 1.15459
Dispatch_width: 6 5708804 27.3861 12.6475
Empty_decode_cycles: 24292302 53.8179
ROB_full_cycles: 2456776 5.44282
Starvation_cycles_per_kilo_instr: 369.724
Starvation_cycles_per_kilo_instr_3: 343.582
Starvation_cycles_per_kilo_instr_0: 319.722
Branch_type_1  (3,1)  (4,9)  (5,37)  (6,69)  (7,114)  (8,127)  (9,123)  (10,98)  (11,70)  (12,51)  (13,5)  (14,2)  (15,3)  (16,4)  (18,1)  (19,4)  (20,2)  (21,1)  (22,3)  (23,2)  (24,10)  (25,12) 
Branch_type_2  (3,1)  (5,1)  (8,3)  (9,3)  (12,1)  (13,1)  (14,1)  (16,3)  (17,2)  (20,2)  (21,2)  (23,5)  (24,1)  (47,36) 
Branch_type_3  (3,4071)  (4,240)  (5,409)  (6,418)  (7,439)  (8,317)  (9,256)  (10,156)  (11,130)  (12,58)  (13,4) 
Branch_type_4  (6,4)  (7,8)  (8,26)  (9,54)  (10,62)  (11,59)  (12,99)  (13,87)  (14,102)  (15,89)  (16,100)  (17,64)  (18,57)  (19,116)  (20,74)  (21,124)  (22,209)  (23,136)  (24,188)  (25,72) 
Branch_type_5  (8,2)  (9,1)  (10,3)  (11,5)  (12,3)  (13,14)  (14,16)  (15,11)  (16,20)  (17,11)  (18,16)  (19,12)  (20,10)  (21,13)  (22,42)  (23,26)  (24,37) 
Branch_type_6  (5,4)  (6,12)  (7,24)  (8,34)  (9,31)  (10,66)  (11,51)  (12,76)  (13,90)  (14,109)  (15,86)  (16,96)  (17,66)  (18,52)  (19,108)  (20,54)  (21,95)  (22,138)  (23,72)  (24,91)  (25,4)  (47,44) 
Unique trigger count: 
BTB PER SET UNIQUE ADDR: 23 26 19 25 26 27 17 23 14 25 20 28 25 20 23 16 20 21 23 26 22 19 24 26 18 26 25 26 25 22 22 23 27 16 17 22 22 26 15 19 23 21 25 28 20 14 26 17 24 21 29 19 21 26 21 11 19 17 18 26 22 32 23 23 23 28 24 16 28 24 22 22 27 18 18 14 14 24 19 33 25 15 22 28 27 22 27 22 16 41 19 15 25 21 13 26 19 21 29 29 35 30 24 20 24 19 22 24 14 19 20 32 24 19 22 13 26 26 23 21 24 17 21 15 22 20 12 24 31 18 19 29 21 28 18 29 15 26 21 32 20 29 21 22 23 25 26 20 16 23 24 27 17 22 16 31 26 28 27 25 27 22 28 26 21 24 26 17 29 18 21 27 24 23 24 21 22 22 21 25 19 22 20 29 33 31 18 23 27 19 24 16 16 30 24 14 17 22 21 24 28 25 19 19 18 23 23 24 21 23 20 27 20 21 23 24 21 26 16 37 15 26 17 21 19 25 31 26 17 30 20 14 22 29 21 26 28 19 22 19 24 23 29 26 20 20 21 22 26 22 28 27 25 17 26 24 18 17 17 21 25 18 10 22 21 17 20 18 20 22 20 25 19 14 16 17 23 27 22 22 17 25 17 18 26 18 18 32 33 26 24 17 25 27 18 29 23 26 24 25 21 21 20 35 21 29 27 21 31 25 22 28 22 34 27 13 29 20 21 29 21 29 17 22 26 28 24 18 21 17 21 30 18 21 22 24 19 20 18 37 25 24 15 26 25 25 17 22 20 24 25 22 27 24 22 28 23 27 18 17 18 29 20 31 24 27 12 23 27 24 24 16 21 25 19 29 23 30 21 25 23 22 17 16 20 20 27 29 25 24 30 13 28 30 16 16 20 18 30 23 20 25 23 24 27 27 27 25 20 22 25 20 17 28 22 21 21 30 38 29 18 24 26 24 28 20 26 19 24 21 28 21 19 23 29 28 24 19 21 24 26 20 17 29 30 19 15 27 28 26 27 38 26 18 28 30 26 28 19 30 18 22 17 27 32 20 23 25 27 26 24 26 26 23 25 35 26 35 17 24 35 26 20 26 17 24 36 31 28 22 22 25 18 17 18 21 26 25 22 25 20 29 18 35 21 20 19 30 29 28 22 34 22 22 21 26 24 31 17 17 15 22 26 16 24 31 35 15 15 33 27 25 25 23 26 31 20 23 26 25 28 19 25 26 27 32 15 24 18 24 25 31 25 22 20 21 25 23 29 24 20 34 20 22 24 28 23 29 24 28 28 25 29 36 24 28 28 30 21 23 25 26 16 25 26 25 21 23 34 28 20 21 23 16 27 18 16 22 25 22 24 21 22 14 23 25 33 22 22 23 31 26 21 16 10 29 15 28 22 25 30 25 18 19 20 31 20 27 18 25 21 29 32 23 22 22 27 29 23 27 22 26 26 34 26 27 19 25 35 18 16 23 20 18 30 24 23 23 27 22 23 14 26 30 21 27 18 22 20 21 25 20 20 26 33 21 26 26 27 31 21 29 21 27 27 21 22 24 25 28 22 24 22 16 16 20 17 25 20 26 15 26 27 33 12 28 21 18 18 14 21 23 18 23 18 20 32 25 20 28 27 24 22 21 20 21 24 23 21 18 26 20 21 18 23 23 25 30 37 21 21 22 21 24 33 28 21 22 22 18 24 21 24 22 18 23 33 21 20 18 23 14 15 24 22 28 16 24 20 27 24 28 19 19 25 16 30 20 23 28 15 26 23 20 24 21 18 24 21 14 17 14 26 27 22 30 21 18 26 23 33 25 32 28 32 20 24 21 23 20 21 35 30 29 19 28 35 32 13 27 25 31 17 27 26 21 20 24 25 27 23 30 26 22 19 26 25 21 26 23 28 23 22 24 24 28 19 36 20 27 24 19 18 21 30 30 31 28 26 28 25 23 19 26 29 17 24 19 31 18 19 28 28 22 24 12 20 21 19 24 28 16 20 29 26 25 30 22 25 21 25 17 21 19 21 27 31 23 20 19 23 23 21 26 13 26 20 26 22 32 20 24 22 24 25 25 35 22 23 26 23 25 17 26 21 20 14 29 18 18 29 32 28 19 21 32 21 20 25 25 17 31 24 21 22 25 23 29 23 24 23 23 18 25 21 25 26 23 27 24 24 23 23 33 29 22 27 24 19 27 24 28 28 21 26 19 34 31 29 33 18 30 26 22 21 31 36 18 27 23 27 26 25 21 23 20 22 24 28 23 31 28 20 21 28 27 18 32 20 27 26 26 25 16 19 22 13 20 9 15 19 30 23 15 
BTB PER SET COUNT: 2222 2346 2638 2174 2771 2076 1837 1723 1666 2150 1271 2590 13495 1810 1961 1096 2273 2204 1631 2192 1733 1658 2143 2214 1083 1989 2156 2050 2032 1855 1844 2334 2042 912 1183 1972 1963 2425 1066 2365 1706 1593 2407 2337 1843 651 2081 1409 2031 1772 2421 1443 1997 2198 1784 892 1585 1507 1367 2103 1818 2992 2030 1962 2413 2196 1704 1514 2253 2000 2549 2044 2668 1386 1253 877 902 2227 1568 2691 2533 1094 1959 2569 2066 1973 2210 2189 1826 3958 1542 1412 2233 1919 773 2071 1430 1603 2267 3911 3578 2610 2249 1812 3559 1338 1681 2330 1612 3276 1899 2881 2278 1601 1785 1084 2000 2494 2532 1996 2374 1437 1710 1136 1907 1535 730 2639 3339 1877 1417 3176 1487 2506 1735 2214 1375 2294 1720 2718 1791 2246 1684 1746 1896 1781 2643 1430 1136 1839 1780 2072 1476 1627 867 3039 2647 2304 2214 2482 2132 1946 2666 2232 1647 2111 1926 1455 2257 1718 1569 2500 2034 1849 2045 1905 1826 1664 1715 2455 1559 2070 1904 2183 2879 3245 1023 1975 2429 2393 1724 1373 1172 2620 2081 1329 1273 1853 1659 1628 2139 2026 1883 1536 1131 1988 1764 1924 1892 2325 1469 2341 1308 3280 1943 2264 1666 2494 1719 3616 1092 2161 1375 1795 1684 2086 2795 2334 1301 3259 1753 559 1661 2270 1494 6060 2244 1713 2245 1101 1810 1974 2920 2715 1796 2090 1368 1904 2043 1498 1838 2027 2075 1471 2106 2480 1465 1424 1379 1671 2157 1468 357 1875 2061 862 1718 1517 2230 1911 1494 1824 1198 933 1539 1204 2037 2336 1864 1971 967 2275 1316 1655 2134 1518 1336 2952 3037 2432 2018 1180 1905 2517 1180 2849 2316 2045 1782 2098 1621 1412 2017 3012 1927 2774 1918 1849 2891 2352 2688 2209 1390 3238 2963 1359 2600 1795 1729 2801 1499 3040 1085 1683 2647 2489 2367 1319 1661 1128 1757 2787 1195 1460 1926 1860 1283 1734 1131 3503 2008 3005 1180 2030 2461 1865 1390 1788 1872 1981 2334 1899 2362 1839 1764 2526 2158 2689 1541 1332 1326 2772 1410 2811 1864 2912 729 1705 1945 1584 2125 1302 2199 2303 1250 2851 1909 2501 1676 2430 2404 2046 1551 903 1185 1693 2952 2457 2144 2307 2156 885 2209 2334 1411 1236 1483 1562 2816 2119 1519 2079 2073 1579 2185 2288 2230 2137 1447 2164 2141 1383 1395 2622 1566 1897 1728 4570 3399 2684 1428 2094 2458 1990 2449 1716 2627 1336 1710 1981 2794 2017 1368 1738 2563 2350 1810 1637 1793 1903 2791 1362 1377 2832 3055 1880 1393 2067 2354 1984 2393 3819 1820 1703 2621 3301 2056 2598 1408 2262 1398 1855 1481 2453 2848 1777 6871 1976 2588 2144 2075 2067 2027 1725 1983 2955 1894 3470 1332 1977 2755 2390 1628 2274 1459 2020 3466 2594 2752 1818 1791 2310 4669 1119 1103 1868 2839 2708 1582 2259 1448 2883 1481 3279 1550 1402 1250 2969 2821 2077 1892 3303 2534 2438 1741 2581 1457 2893 1256 1367 840 1956 2116 1176 1950 2908 3308 2096 1083 4069 2994 2096 1945 1809 2413 2480 2235 2510 2014 2010 2423 1662 2508 2019 2090 2806 980 2143 1174 2449 1755 2935 2152 2142 1407 1432 1890 1966 2308 2251 1300 2929 1595 1964 2289 2724 1785 2244 1858 2626 2733 2183 3179 2923 1950 2723 2678 2602 1698 1960 2516 2279 1014 3193 2101 2232 1839 2087 2868 2733 2016 1805 2336 984 1886 1365 1952 2316 1938 1506 1295 1856 1769 1059 2051 2169 2622 2083 1284 1825 3053 2581 2255 1202 712 2560 1069 2341 2268 2400 2906 1831 1136 1674 1635 3009 1536 2768 2277 1921 1648 3114 3063 1801 1963 1849 2118 2549 1740 2306 2178 2240 2491 2862 3174 2318 1436 2426 3692 1136 1120 2236 1213 1785 3089 1938 1562 1882 2378 1937 2055 727 2448 2752 5410 2483 1389 1960 2275 1809 1707 1818 1509 2212 2897 2066 2105 2553 2365 3029 1894 2643 1967 2464 2897 2063 1843 1963 2296 2507 1587 2523 2109 943 1534 1762 1731 2495 1610 1899 1438 2407 2412 2880 858 2379 1860 1462 1180 1112 1946 2023 1220 1883 1772 1517 3086 2162 1514 2621 2344 2507 1611 1947 1731 1602 1826 2373 1764 1919 2301 6294 1727 1753 1947 2141 2234 3202 3772 1738 1940 1376 1918 2263 2994 2722 2222 1755 2014 1583 2685 1579 2653 1991 1277 1908 2672 2323 1811 1104 2336 1068 753 1712 2891 2945 1260 1957 1181 2207 1843 2477 1835 1429 2093 1362 2408 1841 1499 2646 1947 2301 1938 1730 2048 1829 1525 2244 1524 1054 1267 1468 2092 2410 1632 2720 1742 1387 1804 2094 3175 1876 2578 2396 2836 1594 1851 2027 1756 1599 1546 4745 2649 2413 1787 2978 2669 3013 1068 2795 1986 2751 1244 2507 2789 1943 1456 2085 2215 2687 2126 3009 2219 1997 1115 2927 1917 1955 2430 1881 2294 2037 1969 1972 2149 2183 1661 3252 1472 5339 2594 2003 1567 1745 2792 2529 2872 2343 2445 2123 2538 1954 1692 1993 2814 1213 1944 1080 2920 1497 1705 2830 2303 1676 1976 882 1642 1968 2627 1989 2214 849 1463 2730 2234 2406 2370 1992 2005 1987 2195 1122 2946 2696 1404 2589 2844 1633 1689 1577 2188 1716 1757 2271 783 2365 1487 2632 1821 2763 1679 1869 2051 2358 2490 2432 3631 2139 2061 2055 1996 2126 1384 2476 1441 1599 685 2746 1326 1248 2246 2759 3152 1416 1725 3013 1970 1673 2440 2394 1354 3121 2151 1535 2061 2067 1864 2409 2199 2160 2274 2404 1816 3444 1759 2222 2320 1782 2021 2203 2060 2176 1663 2827 2536 1488 2729 2161 1469 2186 1904 2838 2428 1807 2739 1531 3270 2295 2657 3200 1821 2252 2427 2177 1582 3264 4261 1468 2525 2146 2242 2549 1907 2019 2463 1821 1349 3139 2269 2303 2518 3047 1568 1771 2295 2016 1506 3079 1769 2405 2590 2363 2251 1301 1418 1817 943 1748 497 1261 1548 3046 2078 1070 
