
*** ChampSim Multicore Out-of-Order Simulator ***

Warmup Instructions: 50000000
Simulation Instructions: 50000000
Number of CPUs: 1
LLC sets: 2048
LLC ways: 16
Off-chip DRAM Size: 4096 MB Channels: 1 Width: 64-bit Data Rate: 6400 MT/s
CPU 0 runs ./micro_traces/srv522.trace.gz
.gz
ITLB has LRU replacement policy
DTLB has LRU replacement policy
STLB has LRU replacement policy
FDIP Prefetcher at L1I
L1I has LRU replacement policy
L1D has LRU replacement policy
Initialize SRRIP state for L2C
Initialize DRRIP state for LLC
Heartbeat_Variant_0 : 1070 0.348307 per_variant_size: 0 1070 0 0 0 0 0 0 0 
Heartbeat_Variant_1 : 956 0.311198 per_variant_size: 0 400 556 0 0 0 0 0 0 
Heartbeat_Variant_2 : 1041 0.338867 per_variant_size: 0 362 283 197 199 0 0 0 0 
Heartbeat_Variant_3 : 0 0 per_variant_size: 0 0 0 0 0 0 0 0 0 
Heartbeat_Variant_0_evicts 0 : 15466 1 : 9126 2 : 9343 3 : 0 
Heartbeat_Variant_1_evicts 0 : 9172 1 : 0 2 : 8149 3 : 0 
Heartbeat_Variant_2_evicts 0 : 9235 1 : 8211 2 : 0 3 : 0 
Heartbeat_Variant_3_evicts 0 : 0 1 : 0 2 : 0 3 : 0 
Heartbeat CPU 0 instructions: 10000000 cycles: 2798075 heartbeat IPC: 3.57389 cumulative IPC: 3.57389 (Simulation time: 0 hr 1 min 55 sec) 
Heartbeat_Variant_0 : 1074 0.349609 per_variant_size: 0 1074 0 0 0 0 0 0 0 
Heartbeat_Variant_1 : 966 0.314453 per_variant_size: 0 391 575 0 0 0 0 0 0 
Heartbeat_Variant_2 : 1027 0.33431 per_variant_size: 0 335 293 202 197 0 0 0 0 
Heartbeat_Variant_3 : 0 0 per_variant_size: 0 0 0 0 0 0 0 0 0 
Heartbeat_Variant_0_evicts 0 : 15737 1 : 9568 2 : 9498 3 : 0 
Heartbeat_Variant_1_evicts 0 : 9606 1 : 0 2 : 8557 3 : 0 
Heartbeat_Variant_2_evicts 0 : 9456 1 : 8585 2 : 0 3 : 0 
Heartbeat_Variant_3_evicts 0 : 0 1 : 0 2 : 0 3 : 0 
Heartbeat CPU 0 instructions: 20000000 cycles: 5594848 heartbeat IPC: 3.57555 cumulative IPC: 3.57472 (Simulation time: 0 hr 4 min 3 sec) 
Heartbeat_Variant_0 : 1057 0.344076 per_variant_size: 0 1057 0 0 0 0 0 0 0 
Heartbeat_Variant_1 : 969 0.31543 per_variant_size: 0 399 570 0 0 0 0 0 0 
Heartbeat_Variant_2 : 1042 0.339193 per_variant_size: 0 354 300 198 190 0 0 0 0 
Heartbeat_Variant_3 : 0 0 per_variant_size: 0 0 0 0 0 0 0 0 0 
Heartbeat_Variant_0_evicts 0 : 15278 1 : 8883 2 : 9218 3 : 0 
Heartbeat_Variant_1_evicts 0 : 8930 1 : 0 2 : 8246 3 : 0 
Heartbeat_Variant_2_evicts 0 : 9188 1 : 8290 2 : 0 3 : 0 
Heartbeat_Variant_3_evicts 0 : 0 1 : 0 2 : 0 3 : 0 
Heartbeat CPU 0 instructions: 30000000 cycles: 8391450 heartbeat IPC: 3.57577 cumulative IPC: 3.57507 (Simulation time: 0 hr 6 min 6 sec) 
Heartbeat_Variant_0 : 1047 0.34082 per_variant_size: 0 1047 0 0 0 0 0 0 0 
Heartbeat_Variant_1 : 972 0.316406 per_variant_size: 0 436 536 0 0 0 0 0 0 
Heartbeat_Variant_2 : 1049 0.341471 per_variant_size: 0 392 275 199 183 0 0 0 0 
Heartbeat_Variant_3 : 0 0 per_variant_size: 0 0 0 0 0 0 0 0 0 
Heartbeat_Variant_0_evicts 0 : 15799 1 : 9527 2 : 9459 3 : 0 
Heartbeat_Variant_1_evicts 0 : 9510 1 : 0 2 : 8611 3 : 0 
Heartbeat_Variant_2_evicts 0 : 9486 1 : 8591 2 : 0 3 : 0 
Heartbeat_Variant_3_evicts 0 : 0 1 : 0 2 : 0 3 : 0 
Heartbeat CPU 0 instructions: 40000002 cycles: 11188003 heartbeat IPC: 3.57583 cumulative IPC: 3.57526 (Simulation time: 0 hr 8 min 13 sec) 
Heartbeat_Variant_0 : 1048 0.341146 per_variant_size: 0 1048 0 0 0 0 0 0 0 
Heartbeat_Variant_1 : 985 0.320638 per_variant_size: 0 420 565 0 0 0 0 0 0 
Heartbeat_Variant_2 : 1035 0.336914 per_variant_size: 0 353 290 208 184 0 0 0 0 
Heartbeat_Variant_3 : 0 0 per_variant_size: 0 0 0 0 0 0 0 0 0 
Heartbeat_Variant_0_evicts 0 : 15236 1 : 9459 2 : 9508 3 : 0 
Heartbeat_Variant_1_evicts 0 : 9523 1 : 0 2 : 8636 3 : 0 
Heartbeat_Variant_2_evicts 0 : 9443 1 : 8687 2 : 0 3 : 0 
Heartbeat_Variant_3_evicts 0 : 0 1 : 0 2 : 0 3 : 0 
Heartbeat CPU 0 instructions: 50000000 cycles: 13984420 heartbeat IPC: 3.576 cumulative IPC: 3.57541 (Simulation time: 0 hr 10 min 6 sec) 

Warmup complete CPU 0 instructions: 50000004 cycles: 13984421 (Simulation time: 0 hr 10 min 6 sec) 

Cycle: 20000000 FTQ IN: 56461115 FTQ occupancy: 17.9075 DECODE IN: 56461110 DECODE occupancy: 45.7813 ROB IN: 56461110 ROB occupancy: 275.796 ROB OUT: 56461110
Heartbeat_Variant_0 : 1077 0.350586 per_variant_size: 0 1077 0 0 0 0 0 0 0 
Heartbeat_Variant_1 : 963 0.313477 per_variant_size: 0 427 536 0 0 0 0 0 0 
Heartbeat_Variant_2 : 1028 0.334635 per_variant_size: 0 348 290 188 202 0 0 0 0 
Heartbeat_Variant_3 : 0 0 per_variant_size: 0 0 0 0 0 0 0 0 0 
Heartbeat_Variant_0_evicts 0 : 15142 1 : 8988 2 : 9098 3 : 0 
Heartbeat_Variant_1_evicts 0 : 8970 1 : 0 2 : 8126 3 : 0 
Heartbeat_Variant_2_evicts 0 : 9087 1 : 8130 2 : 0 3 : 0 
Heartbeat_Variant_3_evicts 0 : 0 1 : 0 2 : 0 3 : 0 
Heartbeat CPU 0 instructions: 60000000 cycles: 23235497 heartbeat IPC: 1.08096 cumulative IPC: 1.08095 (Simulation time: 0 hr 11 min 53 sec) 
Cycle: 30000000 FTQ IN: 10906404 FTQ occupancy: 6.30445 DECODE IN: 10906333 DECODE occupancy: 13.2784 ROB IN: 10906333 ROB occupancy: 112.419 ROB OUT: 10906264
Heartbeat_Variant_0 : 1070 0.348307 per_variant_size: 0 1070 0 0 0 0 0 0 0 
Heartbeat_Variant_1 : 973 0.316732 per_variant_size: 0 397 576 0 0 0 0 0 0 
Heartbeat_Variant_2 : 1025 0.333659 per_variant_size: 0 329 285 197 214 0 0 0 0 
Heartbeat_Variant_3 : 0 0 per_variant_size: 0 0 0 0 0 0 0 0 0 
Heartbeat_Variant_0_evicts 0 : 15304 1 : 8919 2 : 9098 3 : 0 
Heartbeat_Variant_1_evicts 0 : 8920 1 : 0 2 : 8243 3 : 0 
Heartbeat_Variant_2_evicts 0 : 9104 1 : 8234 2 : 0 3 : 0 
Heartbeat_Variant_3_evicts 0 : 0 1 : 0 2 : 0 3 : 0 
Heartbeat CPU 0 instructions: 70000003 cycles: 32623449 heartbeat IPC: 1.0652 cumulative IPC: 1.07302 (Simulation time: 0 hr 13 min 43 sec) 
Cycle: 40000000 FTQ IN: 10588684 FTQ occupancy: 6.29521 DECODE IN: 10588755 DECODE occupancy: 12.9956 ROB IN: 10588755 ROB occupancy: 107.289 ROB OUT: 10588742
Heartbeat_Variant_0 : 1065 0.34668 per_variant_size: 0 1065 0 0 0 0 0 0 0 
Heartbeat_Variant_1 : 960 0.3125 per_variant_size: 0 421 539 0 0 0 0 0 0 
Heartbeat_Variant_2 : 1043 0.339518 per_variant_size: 0 364 276 224 179 0 0 0 0 
Heartbeat_Variant_3 : 0 0 per_variant_size: 0 0 0 0 0 0 0 0 0 
Heartbeat_Variant_0_evicts 0 : 15217 1 : 9130 2 : 9235 3 : 0 
Heartbeat_Variant_1_evicts 0 : 9115 1 : 0 2 : 8542 3 : 0 
Heartbeat_Variant_2_evicts 0 : 9255 1 : 8540 2 : 0 3 : 0 
Heartbeat_Variant_3_evicts 0 : 0 1 : 0 2 : 0 3 : 0 
Heartbeat CPU 0 instructions: 80000002 cycles: 41899948 heartbeat IPC: 1.07799 cumulative IPC: 1.07467 (Simulation time: 0 hr 15 min 27 sec) 
Cycle: 50000000 FTQ IN: 10731852 FTQ occupancy: 6.15867 DECODE IN: 10731785 DECODE occupancy: 12.7812 ROB IN: 10731774 ROB occupancy: 106.476 ROB OUT: 10731551
Heartbeat_Variant_0 : 1052 0.342448 per_variant_size: 0 1052 0 0 0 0 0 0 0 
Heartbeat_Variant_1 : 971 0.316081 per_variant_size: 0 399 572 0 0 0 0 0 0 
Heartbeat_Variant_2 : 1045 0.340169 per_variant_size: 0 373 268 206 198 0 0 0 0 
Heartbeat_Variant_3 : 0 0 per_variant_size: 0 0 0 0 0 0 0 0 0 
Heartbeat_Variant_0_evicts 0 : 15533 1 : 9367 2 : 9533 3 : 0 
Heartbeat_Variant_1_evicts 0 : 9365 1 : 0 2 : 8448 3 : 0 
Heartbeat_Variant_2_evicts 0 : 9548 1 : 8435 2 : 0 3 : 0 
Heartbeat_Variant_3_evicts 0 : 0 1 : 0 2 : 0 3 : 0 
Heartbeat CPU 0 instructions: 90000003 cycles: 51202487 heartbeat IPC: 1.07498 cumulative IPC: 1.07475 (Simulation time: 0 hr 17 min 13 sec) 
Cycle: 60000000 FTQ IN: 10601247 FTQ occupancy: 6.32439 DECODE IN: 10601272 DECODE occupancy: 13.0747 ROB IN: 10601283 ROB occupancy: 106.785 ROB OUT: 10601508
Heartbeat_Variant_0 : 1076 0.35026 per_variant_size: 0 1076 0 0 0 0 0 0 0 
Heartbeat_Variant_1 : 978 0.318359 per_variant_size: 0 439 539 0 0 0 0 0 0 
Heartbeat_Variant_2 : 1014 0.330078 per_variant_size: 0 328 294 213 179 0 0 0 0 
Heartbeat_Variant_3 : 0 0 per_variant_size: 0 0 0 0 0 0 0 0 0 
Heartbeat_Variant_0_evicts 0 : 15945 1 : 9610 2 : 9429 3 : 0 
Heartbeat_Variant_1_evicts 0 : 9554 1 : 0 2 : 8693 3 : 0 
Heartbeat_Variant_2_evicts 0 : 9461 1 : 8630 2 : 0 3 : 0 
Heartbeat_Variant_3_evicts 0 : 0 1 : 0 2 : 0 3 : 0 
Heartbeat CPU 0 instructions: 100000001 cycles: 60666895 heartbeat IPC: 1.05659 cumulative IPC: 1.07107 (Simulation time: 0 hr 19 min 1 sec) 
Finished CPU 0 instructions: 50000000 cycles: 46682490 cumulative IPC: 1.07107 (Simulation time: 0 hr 19 min 1 sec) 

ChampSim completed all CPUs

Region of Interest Statistics

CPU 0 cumulative IPC: 1.07107 instructions: 50000000 cycles: 46682490
 Fetch stage stalled: 72.9177  Sim cycles: 46682490 fetch stall cycle: 34039815
 Empty decode stage: 64.6783  Sim cycles: 46682490 fetch stall cycle: 30193439
ITLB TOTAL     ACCESS:    5744822  HIT:    5249497  MISS:     495325  HIT %:    91.3779  MISS %:    8.62211   MPKI: 9.9065
ITLB LOAD TRANSLATION INSTRUCTION	ACCESS:    5643460  HIT:    5148135  MISS:     495325  HIT %:     91.223  MISS %:    8.77697  MPKI: 9.9065
ITLB TRANSLATION FROM L1D PREFETCHER INSTRUCTION	ACCESS:     101362  HIT:     101362  MISS:          0  HIT %:        100  MISS %:          0  MPKI: 0

ITLB AVERAGE MISS LATENCY: 9.04785 cycles
ITLB RQ	ACCESS:    7540780	FORWARD:          0	MERGED:    1358210	TO_CACHE:    6182570

DTLB TOTAL     ACCESS:    9422442  HIT:    8944243  MISS:     478199  HIT %:    94.9249  MISS %:    5.07511   MPKI: 9.56398
DTLB LOAD TRANSLATION DATA	ACCESS:    9422442  HIT:    8944243  MISS:     478199  HIT %:    94.9249  MISS %:    5.07511  MPKI: 9.56398

DTLB AVERAGE MISS LATENCY: 9.30127 cycles
DTLB RQ	ACCESS:   13691692	FORWARD:          0	MERGED:    4235269	TO_CACHE:    9456423

STLB TOTAL     ACCESS:    1221794  HIT:    1219539  MISS:       2255  HIT %:    99.8154  MISS %:   0.184565   MPKI: 0.0451
STLB LOAD TRANSLATION INSTRUCTION	ACCESS:     495325  HIT:     494937  MISS:        388  HIT %:    99.9217  MISS %:  0.0783324  MPKI: 0.00776
STLB LOAD TRANSLATION DATA	ACCESS:     477905  HIT:     476062  MISS:       1843  HIT %:    99.6144  MISS %:   0.385641  MPKI: 0.03686
STLB TRANSLATION FROM L1D PREFETCHER DATA	ACCESS:     248564  HIT:     248540  MISS:         24  HIT %:    99.9903  MISS %: 0.00965546  MPKI: 0.00048

STLB AVERAGE MISS LATENCY: 63.706 cycles
STLB RQ	ACCESS:    1338989	FORWARD:          0	MERGED:     117150	TO_CACHE:    1221839

STLB Hit, L1D data hit: 0
STLB Hit, L2C data hit: 0
STLB Hit, LLC data hit: 0
STLB Hit, LLC data miss: 0
STLB STLB hints to L2: 0
L1D TOTAL     ACCESS:   13458576  HIT:   12346597  MISS:    1111979  HIT %:    91.7378  MISS %:    8.26223   MPKI: 22.2396
L1D LOAD DATA	ACCESS:    6879141  HIT:    6147458  MISS:     731683  HIT %:    89.3637  MISS %:    10.6363  MPKI: 14.6337
L1D RFO DATA	ACCESS:    6252538  HIT:    5965830  MISS:     286708  HIT %:    95.4145  MISS %:    4.58547  MPKI: 5.73416
L1D PREFETCH DATA	ACCESS:     326897  HIT:     233309  MISS:      93588  HIT %:    71.3708  MISS %:    28.6292  MPKI: 1.87176

L1D PREFETCH  REQUESTED:     731193  ISSUED:     731193  USEFUL:      32472  USELESS:      68611
L1D USEFUL LOAD PREFETCHES:      32472 PREFETCH ISSUED TO LOWER LEVEL:     101164  ACCURACY: 32.0984
 TIMELY PREFETCHES:      32472 LATE PREFETCHES: 7504 DROPPED PREFETCHES: 14
L1D AVERAGE MISS LATENCY: 259011 cycles
L1D RQ	ACCESS:   10935081	FORWARD:          0	MERGED:    3860776	TO_CACHE:    6910989
L1D WQ	ACCESS:    6949977	FORWARD:     163579	MERGED:     169274	TO_CACHE:    6780703
L1D PQ	ACCESS:     365728	FORWARD:          0	MERGED:          0	TO_CACHE:     365465

L1D UNIQUE REGIONS ACCESSED: 0
L1D REGIONS CONFLICTS: 0
L1D Cross Page Prefetch Requests: 5913
L1D Same Page Prefetch Requests: 744520
L1D ROI Sum of L1D PQ occupancy: 4642408
L1D PREFETCHES PUSHED FROM L2C: 0
L1I TOTAL     ACCESS:    7033712  HIT:    4264117  MISS:    2769595  HIT %:     60.624  MISS %:     39.376   MPKI: 55.3919
L1I LOAD INSTRUCTION	ACCESS:    6552169  HIT:    3782574  MISS:    2769595  HIT %:    57.7301  MISS %:    42.2699  MPKI: 55.3919
L1I PREFETCH INSTRUCTION	ACCESS:     481543  HIT:     481543  MISS:          0  HIT %:        100  MISS %:          0  MPKI: 0

L1I PREFETCH  REQUESTED:    1056613  ISSUED:    1056613  USEFUL:          0  USELESS:          0
L1I USEFUL LOAD PREFETCHES:          0 PREFETCH ISSUED TO LOWER LEVEL:          0  ACCURACY: -nan
 TIMELY PREFETCHES:          0 LATE PREFETCHES: 0 DROPPED PREFETCHES: 0
L1I AVERAGE MISS LATENCY: 17.5259 cycles
L1I RQ	ACCESS:    9439064	FORWARD:          0	MERGED:    2649802	TO_CACHE:    6789262
L1I PQ	ACCESS:    1056613	FORWARD:          0	MERGED:     305095	TO_CACHE:     751518

L1BTB TOTAL     ACCESS:    5670974  HIT:    2036441  MISS:    3634533  HIT %:    35.9099  MISS %:    64.0901   MPKI: 72.6907
L1BTB BRANCH_DIRECT_JUMP	ACCESS:     548631  HIT:     144289  MISS:     404342	AVERAGE STALL: 34.8324
L1BTB BRANCH_INDIRECT	ACCESS:     182808  HIT:      65971  MISS:     116837	AVERAGE STALL: 81.3874
L1BTB BRANCH_CONDITIONAL	ACCESS:    2704611  HIT:    1409764  MISS:    1294847	AVERAGE STALL: 35.5822
L1BTB BRANCH_DIRECT_CALL	ACCESS:     945720  HIT:     104963  MISS:     840757	AVERAGE STALL: 37.1106
L1BTB BRANCH_INDIRECT_CALL	ACCESS:     171742  HIT:      21250  MISS:     150492	AVERAGE STALL: 106.568
L1BTB BRANCH_RETURN	ACCESS:    1117462  HIT:     290204  MISS:     827258	AVERAGE STALL: 36.8712
L1BTB BRANCH_OTHER ACCESS:          0  HIT:          0  MISS:          0	AVERAGE STALL: -nan
L1BTB TOTAL ROB OCCUPANCY AT BTB MISS: 12.6609

L2BTB TOTAL     ACCESS:    3609088  HIT:    3087283  MISS:     521805  HIT %:    85.5419  MISS %:    14.4581   MPKI: 10.4361
L2BTB BRANCH_DIRECT_JUMP	ACCESS:     400166  HIT:     344487  MISS:      55679	AVERAGE STALL: 34.8324
L2BTB BRANCH_INDIRECT	ACCESS:     106558  HIT:      97879  MISS:       8679	AVERAGE STALL: 81.3874
L2BTB BRANCH_CONDITIONAL	ACCESS:    1294845  HIT:    1135619  MISS:     159226	AVERAGE STALL: 35.5822
L2BTB BRANCH_DIRECT_CALL	ACCESS:     840756  HIT:     685514  MISS:     155242	AVERAGE STALL: 37.1106
L2BTB BRANCH_INDIRECT_CALL	ACCESS:     140949  HIT:     108379  MISS:      32570	AVERAGE STALL: 106.568
L2BTB BRANCH_RETURN	ACCESS:     825814  HIT:     715405  MISS:     110409	AVERAGE STALL: 36.8712
L2BTB BRANCH_OTHER ACCESS:          0  HIT:          0  MISS:          0	AVERAGE STALL: -nan
L2BTB TOTAL ROB OCCUPANCY AT BTB MISS: 88.1869

L2C TOTAL     ACCESS:    4494356  HIT:    3966494  MISS:     527862  HIT %:     88.255  MISS %:     11.745   MPKI: 10.5572
L2C LOAD INSTRUCTION	ACCESS:    2769595  HIT:    2477569  MISS:     292026  HIT %:     89.456  MISS %:     10.544  MPKI: 5.84052
L2C LOAD TRANSLATION INSTRUCTION	ACCESS:        426  HIT:        142  MISS:        284  HIT %:    33.3333  MISS %:    66.6667  MPKI: 0.00568
L2C LOAD DATA	ACCESS:     724157  HIT:     642012  MISS:      82145  HIT %:    88.6565  MISS %:    11.3435  MPKI: 1.6429
L2C RFO DATA	ACCESS:     286607  HIT:     230919  MISS:      55688  HIT %:    80.5699  MISS %:    19.4301  MPKI: 1.11376
L2C PREFETCH DATA	ACCESS:     189675  HIT:     109459  MISS:      80216  HIT %:    57.7087  MISS %:    42.2913  MPKI: 1.60432
L2C WRITEBACK DATA	ACCESS:     521920  HIT:     505786  MISS:      16134  HIT %:    96.9087  MISS %:    3.09128  MPKI: 0.32268
L2C LOAD TRANSLATION DATA	ACCESS:       1926  HIT:        569  MISS:       1357  HIT %:    29.5431  MISS %:    70.4569  MPKI: 0.02714
L2C TRANSLATION FROM L1D PREFETCHER DATA	ACCESS:         50  HIT:         38  MISS:         12  HIT %:         76  MISS %:         24  MPKI: 0.00024

L2C PREFETCH  REQUESTED:      97258  ISSUED:      97258  USEFUL:       9278  USELESS:      71467
L2C USEFUL LOAD PREFETCHES:       9278 PREFETCH ISSUED TO LOWER LEVEL:      80767  ACCURACY: 11.4874
 TIMELY PREFETCHES:       9278 LATE PREFETCHES: 551 DROPPED PREFETCHES: 0
L2C AVERAGE MISS LATENCY: 37.427 cycles
L2C RQ	ACCESS:    3782812	FORWARD:          0	MERGED:          0	TO_CACHE:    3782765
L2C WQ	ACCESS:     521920	FORWARD:         47	MERGED:          0	TO_CACHE:     521920
L2C PQ	ACCESS:     198422	FORWARD:          0	MERGED:       4473	TO_CACHE:     193949

L2C Dense regions hint from L2: 0
PSCL5 TOTAL     ACCESS:       4542  HIT:       2271  MISS:       2271  HIT %:         50  MISS %:         50   MPKI: 0.04542
PSCL5 LOAD TRANSLATION INSTRUCTION	ACCESS:       4442  HIT:       2221  MISS:       2221  HIT %:         50  MISS %:         50  MPKI: 0.04442
PSCL5 TRANSLATION FROM L1D PREFETCHER INSTRUCTION	ACCESS:        100  HIT:         50  MISS:         50  HIT %:         50  MISS %:         50  MPKI: 0.001


PSCL4 TOTAL     ACCESS:       4003  HIT:       1996  MISS:       2007  HIT %:    49.8626  MISS %:    50.1374   MPKI: 0.04014
PSCL4 LOAD TRANSLATION INSTRUCTION	ACCESS:       2246  HIT:       1947  MISS:        299  HIT %:    86.6874  MISS %:    13.3126  MPKI: 0.00598
PSCL4 TRANSLATION FROM L1D PREFETCHER INSTRUCTION	ACCESS:         54  HIT:         49  MISS:          5  HIT %:    90.7407  MISS %:    9.25926  MPKI: 0.0001
PSCL4 LOAD TRANSLATION DATA	ACCESS:       1659  HIT:          0  MISS:       1659  HIT %:          0  MISS %:        100  MPKI: 0.03318
PSCL4 TRANSLATION FROM L1D PREFETCHER DATA	ACCESS:         44  HIT:          0  MISS:         44  HIT %:          0  MISS %:        100  MPKI: 0.00088


PSCL3 TOTAL     ACCESS:       4097  HIT:       2043  MISS:       2054  HIT %:    49.8658  MISS %:    50.1342   MPKI: 0.04108
PSCL3 LOAD TRANSLATION INSTRUCTION	ACCESS:       2293  HIT:       1994  MISS:        299  HIT %:    86.9603  MISS %:    13.0397  MPKI: 0.00598
PSCL3 TRANSLATION FROM L1D PREFETCHER INSTRUCTION	ACCESS:         54  HIT:         49  MISS:          5  HIT %:    90.7407  MISS %:    9.25926  MPKI: 0.0001
PSCL3 LOAD TRANSLATION DATA	ACCESS:       1706  HIT:          0  MISS:       1706  HIT %:          0  MISS %:        100  MPKI: 0.03412
PSCL3 TRANSLATION FROM L1D PREFETCHER DATA	ACCESS:         44  HIT:          0  MISS:         44  HIT %:          0  MISS %:        100  MPKI: 0.00088


PSCL2 TOTAL     ACCESS:       4431  HIT:       2160  MISS:       2271  HIT %:    48.7475  MISS %:    51.2525   MPKI: 0.04542
PSCL2 LOAD TRANSLATION INSTRUCTION	ACCESS:       2498  HIT:       2110  MISS:        388  HIT %:    84.4676  MISS %:    15.5324  MPKI: 0.00776
PSCL2 TRANSLATION FROM L1D PREFETCHER INSTRUCTION	ACCESS:         50  HIT:         50  MISS:          0  HIT %:        100  MISS %:          0  MPKI: 0
PSCL2 LOAD TRANSLATION DATA	ACCESS:       1833  HIT:          0  MISS:       1833  HIT %:          0  MISS %:        100  MPKI: 0.03666
PSCL2 TRANSLATION FROM L1D PREFETCHER DATA	ACCESS:         50  HIT:          0  MISS:         50  HIT %:          0  MISS %:        100  MPKI: 0.001


LLC TOTAL     ACCESS:     592601  HIT:     564546  MISS:      28055  HIT %:    95.2658  MISS %:    4.73421   MPKI: 0.5611
LLC LOAD INSTRUCTION	ACCESS:     292026  HIT:     291087  MISS:        939  HIT %:    99.6785  MISS %:   0.321547  MPKI: 0.01878
LLC LOAD TRANSLATION INSTRUCTION	ACCESS:        284  HIT:        262  MISS:         22  HIT %:    92.2535  MISS %:    7.74648  MPKI: 0.00044
LLC LOAD DATA	ACCESS:      81665  HIT:      78237  MISS:       3428  HIT %:    95.8024  MISS %:    4.19764  MPKI: 0.06856
LLC RFO DATA	ACCESS:      55614  HIT:      42248  MISS:      13366  HIT %:    75.9665  MISS %:    24.0335  MPKI: 0.26732
LLC PREFETCH DATA	ACCESS:      80767  HIT:      70863  MISS:       9904  HIT %:    87.7376  MISS %:    12.2624  MPKI: 0.19808
LLC WRITEBACK DATA	ACCESS:      80876  HIT:      80535  MISS:        341  HIT %:    99.5784  MISS %:   0.421633  MPKI: 0.00682
LLC LOAD TRANSLATION DATA	ACCESS:       1357  HIT:       1302  MISS:         55  HIT %:    95.9469  MISS %:    4.05306  MPKI: 0.0011
LLC TRANSLATION FROM L1D PREFETCHER DATA	ACCESS:         12  HIT:         12  MISS:          0  HIT %:        100  MISS %:          0  MPKI: 0

LLC AVERAGE MISS LATENCY: 155.755 cycles
LLC RQ	ACCESS:     430961	FORWARD:          0	MERGED:          0	TO_CACHE:     430958
LLC WQ	ACCESS:      80876	FORWARD:          3	MERGED:          0	TO_CACHE:      80876
LLC PQ	ACCESS:      80767	FORWARD:          0	MERGED:          0	TO_CACHE:      80767

LLC Dense regions hint to LLC: 0

RAW hits: 1699141
Loads Generated: 12634222
Loads sent to L1D: 10935081
Stores Generated: 6949969
Stores sent to L1D: 6949977
Major fault: 0 Minor fault: 2589
Allocated PAGES: 2589

stream: 
stream:times selected: 1181166
stream:pref_filled: 120749
stream:pref_useful: 23288
stream:pref_late: 6445
stream:misses: 6837
stream:misses_by_poll: 0

CS: 
CS:times selected: 177353
CS:pref_filled: 58978
CS:pref_useful: 36069
CS:pref_late: 6528
CS:misses: 15478
CS:misses_by_poll: 5

CPLX: 
CPLX:times selected: 1002687
CPLX:pref_filled: 19984
CPLX:pref_useful: 4856
CPLX:pref_late: 2983
CPLX:misses: 90973
CPLX:misses_by_poll: 0

NL_L1: 
NL:times selected: 19736
NL:pref_filled: 662
NL:pref_useful: 245
NL:pref_late: 174
NL:misses: 1033
NL:misses_by_poll: 0

total selections: 2380942
total_filled: 93588
total_useful: 32472
total_late: 17505
total_polluted: 5
total_misses_after_warmup: 763537
conflicts: 5673599

test: 114816

DRAM Statistics
 CHANNEL 0
 RQ ROW_BUFFER_HIT:      10152  ROW_BUFFER_MISS:      17554
 DBUS_CONGESTED:         15
 WQ ROW_BUFFER_HIT:       1357  ROW_BUFFER_MISS:      12063  FULL:          0

 AVG_CONGESTED_CYCLE: 5

CPU 0 Branch Prediction Accuracy: 99.8133% MPKI: 0.34154 Average ROB Occupancy at Mispredict: 120.057
Branch types
NOT_BRANCH: 40853085 81.7062%
BRANCH_DIRECT_JUMP: 548631 1.09726%
BRANCH_INDIRECT: 182808 0.365616%
BRANCH_CONDITIONAL: 6180081 12.3602%
BRANCH_DIRECT_CALL: 945720 1.89144%
BRANCH_INDIRECT_CALL: 171742 0.343484%
BRANCH_RETURN: 1117462 2.23492%
BRANCH_OTHER: 0 0%

DRAM PAGES: 1048576
Allocated PAGES: 2589
Average_ROB_Occupancy: 108.997
Average_Decode_Occupancy: 12.972
Average_FTQ_Occupancy: 6.24358
Indirect max targets: 14 Average targets: 1.15254
Branch_type:  BRANCH_DIRECT_JUMP:  Count Percentage: 3.80171 5.84207 4.26478 14.1927 1.69945 6.57649 1.3149 62.3079 
Branch_type:  BRANCH_INDIRECT:  Count Percentage: 14.4151 0.811767 12.2283 23.3133 1.33779 14.5439 1.06656 32.2833 
Branch_type:  BRANCH_CONDITIONAL:  Count Percentage: 21.7711 2.62915 2.44199 8.15022 1.47802 5.01979 0.731697 57.778 
Branch_type:  BRANCH_DIRECT_CALL:  Count Percentage: 0.260878 1.77746 1.43673 4.6213 2.60799 3.19276 0.771945 85.3309 
Branch_type:  BRANCH_INDIRECT_CALL:  Count Percentage: 9.51736 0.575812 2.98246 4.83513 0 4.06302 0 78.0262 
Branch_type:  BRANCH_RETURN:  Count Percentage: 3.64709 1.30739 3.52653 8.73831 2.84406 5.74931 1.27977 72.9075 
Branch_type:  BRANCH_DIRECT_JUMP:  Total Count: 41640 63988 46712 155452 18614 72032 14402 682456 
Branch_type:  BRANCH_INDIRECT:  Total Count: 52616 2963 44634 85095 4883 53086 3893 117836 
Branch_type:  BRANCH_CONDITIONAL:  Total Count: 2688593 324683 301571 1006501 182526 619913 90360 7135228 
Branch_type:  BRANCH_DIRECT_CALL:  Total Count: 4930 33590 27151 87332 49285 60336 14588 1612561 
Branch_type:  BRANCH_INDIRECT_CALL:  Total Count: 32677 1977 10240 16601 0 13950 0 267896 
Branch_type:  BRANCH_RETURN:  Total Count: 81473 29206 78780 195207 63534 128435 28589 1628697 
Number of unique branch instructions: 10211
Upper 32 bits: 
aaaa
ffff
ffff0000
Unique upper 32 bits: 3
Unique upper 36 bits: 3
Unique upper 40 bits: 5
Unique upper 44 bits: 32
Unique upper 48 bits: 154
Variant_0 : 1076 0.35026
Variant_1 : 979 0.318685
Variant_2 : 1013 0.329753
Variant_3 : 0 0
Offset_3 4217
Offset_4 260
Offset_5 466
Offset_6 527
Offset_7 613
Offset_8 535
Offset_9 488
Offset_10 397
Offset_11 331
Offset_12 295
Offset_13 215
Offset_14 234
Offset_15 195
Offset_16 228
Offset_17 156
Offset_18 126
Offset_19 247
Offset_20 144
Offset_21 236
Offset_22 403
Offset_23 245
Offset_24 335
Offset_25 88
Offset_47 82
Offset_64 16
decode_dispatch_called: 20323281 43.5351
Dispatch_width: 0 10267713 50.5219 21.9948
Dispatch_width: 1 551993 2.71606 1.18244
Dispatch_width: 2 691445 3.40223 1.48117
Dispatch_width: 3 471273 2.31888 1.00953
Dispatch_width: 4 1519045 7.47441 3.25399
Dispatch_width: 5 356045 1.75191 0.762695
Dispatch_width: 6 6465767 31.8146 13.8505
Empty_decode_cycles: 26359209 56.4649
ROB_full_cycles: 1905532 4.0819
Starvation_cycles_per_kilo_instr: 383.112
Starvation_cycles_per_kilo_instr_3: 364.361
Starvation_cycles_per_kilo_instr_0: 347.214
Branch_type_1  (3,1)  (4,9)  (5,37)  (6,72)  (7,118)  (8,138)  (9,127)  (10,102)  (11,74)  (12,51)  (13,5)  (14,2)  (15,3)  (16,4)  (18,1)  (19,4)  (20,2)  (21,1)  (22,3)  (23,2)  (24,10)  (25,12) 
Branch_type_2  (3,1)  (5,1)  (8,3)  (9,3)  (12,1)  (13,1)  (14,1)  (16,3)  (17,2)  (20,2)  (21,2)  (23,5)  (24,1)  (47,37) 
Branch_type_3  (3,4215)  (4,251)  (5,424)  (6,438)  (7,461)  (8,328)  (9,269)  (10,162)  (11,136)  (12,58)  (13,4)  (24,2)  (64,9) 
Branch_type_4  (6,4)  (7,8)  (8,30)  (9,54)  (10,63)  (11,62)  (12,104)  (13,94)  (14,103)  (15,93)  (16,102)  (17,72)  (18,57)  (19,121)  (20,74)  (21,124)  (22,215)  (23,138)  (24,193)  (25,72)  (64,3) 
Branch_type_5  (8,2)  (9,1)  (10,3)  (11,5)  (12,3)  (13,14)  (14,16)  (15,11)  (16,20)  (17,11)  (18,16)  (19,12)  (20,11)  (21,13)  (22,42)  (23,26)  (24,37) 
Branch_type_6  (5,4)  (6,13)  (7,26)  (8,34)  (9,34)  (10,67)  (11,54)  (12,78)  (13,97)  (14,112)  (15,88)  (16,99)  (17,71)  (18,52)  (19,110)  (20,55)  (21,96)  (22,143)  (23,74)  (24,92)  (25,4)  (47,45)  (64,4) 
Unique trigger count: 
Variant_0_evicts_0 : 0
Variant_0_evicts_1 : 0
Variant_0_evicts_2 : 0
Variant_0_evicts_3 : 0
Variant_1_evicts_0 : 0
Variant_1_evicts_1 : 0
Variant_1_evicts_2 : 1
Variant_1_evicts_3 : 0
Variant_2_evicts_0 : 0
Variant_2_evicts_1 : 0
Variant_2_evicts_2 : 0
Variant_2_evicts_3 : 0
Variant_3_evicts_0 : 0
Variant_3_evicts_1 : 0
Variant_3_evicts_2 : 0
Variant_3_evicts_3 : 0
BTB PER SET UNIQUE ADDR: 47 51 45 55 46 46 39 42 43 45 42 55 40 46 46 39 42 44 43 52 43 32 39 41 45 54 47 56 43 40 48 45 60 40 51 47 56 43 38 43 47 38 44 62 46 43 47 44 60 52 40 47 45 59 38 35 49 41 34 48 45 57 46 49 49 48 42 43 53 48 48 41 56 40 39 37 37 54 40 63 48 42 44 49 44 41 55 53 48 70 46 42 50 45 32 54 49 38 48 48 65 49 42 50 46 39 46 36 33 38 37 52 53 32 41 42 54 47 53 46 51 38 46 37 42 39 32 51 59 44 37 47 45 50 43 54 29 55 40 61 42 59 40 48 44 48 51 45 52 42 45 53 40 46 35 54 46 47 38 57 44 40 53 61 48 49 49 49 46 42 45 50 41 51 47 45 44 44 42 53 41 48 43 53 50 54 33 50 51 39 49 40 44 50 44 48 46 41 51 48 46 52 42 46 46 44 50 44 55 51 48 60 46 51 50 46 38 58 52 55 39 51 42 46 45 50 55 43 41 53 48 35 52 61 43 50 52 49 39 51 42 48 55 52 44 36 39 42 37 38 38 42 45 48 46 42 17 18 18 22 24 18 8 22 23 15 20 18 23 23 20 23 19 17 15 17 24 28 22 22 17 25 18 18 25 18 17 32 32 26 25 17 25 27 18 28 24 27 24 23 20 20 18 35 22 31 26 21 33 24 22 27 20 34 24 13 27 20 20 29 20 27 18 23 28 32 23 18 21 15 22 30 16 20 20 24 18 20 18 37 25 25 16 28 28 26 18 23 22 23 24 22 26 24 23 26 24 26 18 16 19 28 20 30 22 26 11 25 28 26 23 19 24 25 15 30 22 29 20 26 22 22 16 17 18 22 27 28 24 24 30 14 28 31 18 17 17 20 30 25 19 23 23 23 28 29 25 26 21 23 26 18 19 28 24 21 22 29 39 30 19 27 24 23 28 19 26 18 26 21 29 21 20 22 28 26 27 18 22 26 26 20 19 28 32 23 16 27 29 24 26 37 25 19 30 34 26 27 16 31 17 22 18 28 32 19 23 23 27 25 23 27 27 24 25 36 26 31 17 26 33 27 21 24 15 29 36 31 26 23 20 27 20 18 15 19 26 28 21 24 20 29 20 34 21 20 19 30 27 27 26 31 24 22 20 27 21 32 17 18 15 21 25 18 22 34 36 14 15 34 28 24 25 23 27 31 20 24 26 23 26 19 27 25 29 30 17 24 18 23 23 30 22 22 19 24 23 22 31 27 21 31 23 22 25 30 22 28 23 29 28 26 29 35 23 29 29 30 20 25 24 25 15 25 26 26 20 23 33 25 19 22 24 16 26 18 15 22 22 20 22 21 22 14 23 25 35 21 23 22 33 26 20 17 10 31 14 29 22 24 30 24 18 19 20 34 21 29 17 22 18 26 31 24 23 24 26 29 22 29 22 25 27 31 25 26 20 26 33 22 16 24 19 20 28 24 23 23 26 24 24 13 30 30 21 25 17 20 21 20 25 20 21 27 33 21 27 28 29 32 21 32 17 29 26 23 20 22 27 28 20 25 22 15 16 21 19 28 20 24 16 27 26 31 15 29 23 17 17 18 21 26 16 20 19 19 33 23 18 29 26 22 21 19 20 23 23 21 20 21 28 20 21 21 21 25 24 30 35 22 19 19 21 24 32 29 20 23 23 19 24 17 23 21 17 22 32 25 19 19 23 13 14 23 22 28 15 23 
BTB PER SET COUNT: 1822 2144 3604 2842 2653 1826 1768 1810 2015 2138 1632 3210 16531 3056 2340 1461 2111 2127 2093 2308 2075 1208 1794 1930 1913 2577 2352 3004 2337 2010 2239 3044 2960 1707 2214 2526 2779 2068 1424 2387 1714 1637 1747 3960 2315 1782 2443 2670 3215 2833 2216 2676 2170 2818 1647 1672 2304 1745 1735 2046 2199 3316 2347 2543 2375 2222 1509 2998 2427 2056 2494 2151 2467 2097 1627 1805 1909 2608 1661 2817 2408 2851 2397 2338 1620 2711 2494 2412 2902 3343 2331 2086 2679 2314 1223 2216 2258 1527 2222 3803 3614 2296 1704 2427 3684 1557 2120 1267 1611 1857 2490 2951 2969 1407 2154 1964 2281 2742 3507 2362 2323 1689 2311 1799 2341 2733 1223 2463 3550 1966 1995 2681 2144 2210 1978 2936 1616 2216 1553 2858 1854 2870 1718 1741 1962 2125 2795 2111 2782 2441 1833 2212 2238 2113 815 2684 2032 2397 1153 3116 1810 1846 2451 2763 2696 2414 1637 3231 2308 1787 2887 2469 1624 3116 2406 1843 1990 1719 2232 2859 1759 2280 2609 3239 2282 4242 1014 2368 2708 1765 2212 1709 1963 2661 2114 1926 2249 1901 2431 2216 2281 2276 2123 2669 1922 2106 3221 2194 2617 2414 2839 2959 1827 3564 1999 3328 1833 3123 3109 2834 1677 2002 2297 2958 1955 2065 2327 2180 1707 2884 1868 1822 2464 3220 1812 4655 2253 2298 1981 2144 2418 2532 3243 2845 2367 2060 1781 2242 1332 1643 1619 1573 1608 2554 2096 2464 575 703 622 718 1041 570 128 941 597 337 780 655 1313 785 614 859 453 304 666 305 836 918 686 1030 258 1026 949 699 708 741 319 1577 1095 930 829 500 574 1513 451 1108 1691 968 726 1301 612 594 289 1471 587 1228 904 709 1584 1380 1075 1106 514 1275 2487 628 1148 994 738 1451 530 2225 379 697 1188 1549 1024 528 574 397 896 1102 535 460 612 985 351 1408 359 1773 832 1874 427 1118 1202 770 397 886 640 921 891 485 831 574 611 751 682 1117 503 583 680 1090 512 981 635 2138 282 821 912 804 757 687 967 1002 871 1148 755 1033 662 1122 1042 649 625 385 512 635 3168 1158 585 1144 1195 308 896 1696 458 647 465 760 1312 1115 666 728 840 657 1094 1023 1013 995 702 964 1156 311 527 1341 644 907 794 2400 1854 969 731 939 807 888 845 574 1572 636 796 974 1196 759 547 710 1315 1192 936 982 537 788 1518 671 583 1137 1866 796 969 1000 1128 947 1430 2426 920 493 1195 1794 984 950 533 1220 507 570 595 1387 1520 769 6033 710 875 1061 1006 1099 744 887 774 1441 824 1436 598 1110 1669 1445 654 815 625 1171 1532 1090 1763 709 1171 909 4862 550 384 812 1264 2091 822 584 715 1136 667 1428 730 387 578 1485 976 688 796 2231 1399 1277 675 1291 572 1271 506 749 363 836 748 702 865 1525 1944 1144 650 2188 1576 1017 922 720 1164 1349 907 1500 990 975 1120 671 868 923 897 1386 240 766 561 1275 843 1342 1219 1071 589 574 831 683 1283 1082 542 1447 790 777 1325 1020 854 1176 955 1265 1336 913 946 1176 2570 892 1160 1414 873 891 959 1101 453 2402 781 1175 1127 841 1736 1152 1002 685 878 366 1021 579 1234 1389 872 478 427 993 711 339 1071 869 1280 2867 505 777 1317 1387 1249 335 202 1015 267 990 995 1123 1137 790 366 791 563 1171 662 1270 1817 582 389 1568 1357 735 767 1016 905 1604 579 1391 867 1041 965 822 1523 925 1046 1094 1705 470 321 861 411 614 2468 1049 664 697 1201 1532 699 292 1377 1154 4246 849 599 1390 1996 762 767 695 650 1031 1611 782 831 857 1094 1287 926 1050 896 705 1637 753 629 680 1349 1126 529 822 727 426 2509 638 904 2260 664 775 1316 1045 1254 1128 218 997 652 628 368 445 874 975 929 648 803 584 1357 912 641 1252 986 1079 665 1188 1813 625 635 974 1386 965 1080 7569 761 528 630 864 1246 1139 1376 437 1054 425 788 862 1229 906 1551 500 791 692 2003 624 1356 2564 1615 736 1304 1311 591 477 906 466 299 864 1845 1395 353 1280 
To predecode: 0
Predecoding something: 0
Predecode request dropped: 0
sizeofblock_0 0
sizeofblock_1 381101
sizeofblock_2 247877
sizeofblock_3 90048
sizeofblock_4 50719
sizeofblock_5 0
sizeofblock_6 0
sizeofblock_7 0
sizeofblock_8 0
Variant_0 Correct: 1326345 Incorrect: 0 Accuracy: 1
Variant_1 Correct: 1797398 Incorrect: 0 Accuracy: 1
Variant_2 Correct: 3293614 Incorrect: 0 Accuracy: 1
Variant_3 Correct: 0 Incorrect: 0 Accuracy: -nan
