
*** ChampSim Multicore Out-of-Order Simulator ***

Warmup Instructions: 50000000
Simulation Instructions: 50000000
Number of CPUs: 1
LLC sets: 2048
LLC ways: 16
Off-chip DRAM Size: 4096 MB Channels: 1 Width: 64-bit Data Rate: 6400 MT/s
CPU 0 runs ./micro_traces/srv5.trace.gz
.gz
ITLB has LRU replacement policy
DTLB has LRU replacement policy
STLB has LRU replacement policy
FDIP Prefetcher at L1I
L1I has LRU replacement policy
L1D has LRU replacement policy
Initialize SRRIP state for L2C
Initialize DRRIP state for LLC
Heartbeat_Variant_0 : 1337 0.326416 per_variant_size: 0 1337 0 0 0 0 0 0 0 
Heartbeat_Variant_1 : 2566 0.626465 per_variant_size: 0 538 2028 0 0 0 0 0 0 
Heartbeat_Variant_2 : 0 0 per_variant_size: 0 0 0 0 0 0 0 0 0 
Heartbeat_Variant_3 : 0 0 per_variant_size: 0 0 0 0 0 0 0 0 0 
Heartbeat_Variant_0_evicts 0 : 5817 1 : 558 2 : 0 3 : 0 
Heartbeat_Variant_1_evicts 0 : 522 1 : 0 2 : 0 3 : 0 
Heartbeat_Variant_2_evicts 0 : 0 1 : 0 2 : 0 3 : 0 
Heartbeat_Variant_3_evicts 0 : 0 1 : 0 2 : 0 3 : 0 
Heartbeat CPU 0 instructions: 10000002 cycles: 2797441 heartbeat IPC: 3.5747 cumulative IPC: 3.5747 (Simulation time: 0 hr 1 min 55 sec) 
Heartbeat_Variant_0 : 1356 0.331055 per_variant_size: 0 1356 0 0 0 0 0 0 0 
Heartbeat_Variant_1 : 2615 0.638428 per_variant_size: 0 497 2118 0 0 0 0 0 0 
Heartbeat_Variant_2 : 0 0 per_variant_size: 0 0 0 0 0 0 0 0 0 
Heartbeat_Variant_3 : 0 0 per_variant_size: 0 0 0 0 0 0 0 0 0 
Heartbeat_Variant_0_evicts 0 : 5782 1 : 232 2 : 0 3 : 0 
Heartbeat_Variant_1_evicts 0 : 227 1 : 0 2 : 0 3 : 0 
Heartbeat_Variant_2_evicts 0 : 0 1 : 0 2 : 0 3 : 0 
Heartbeat_Variant_3_evicts 0 : 0 1 : 0 2 : 0 3 : 0 
Heartbeat CPU 0 instructions: 20000002 cycles: 5594511 heartbeat IPC: 3.57517 cumulative IPC: 3.57493 (Simulation time: 0 hr 3 min 30 sec) 
Heartbeat_Variant_0 : 1357 0.331299 per_variant_size: 0 1357 0 0 0 0 0 0 0 
Heartbeat_Variant_1 : 2631 0.642334 per_variant_size: 0 486 2145 0 0 0 0 0 0 
Heartbeat_Variant_2 : 0 0 per_variant_size: 0 0 0 0 0 0 0 0 0 
Heartbeat_Variant_3 : 0 0 per_variant_size: 0 0 0 0 0 0 0 0 0 
Heartbeat_Variant_0_evicts 0 : 5675 1 : 144 2 : 0 3 : 0 
Heartbeat_Variant_1_evicts 0 : 145 1 : 0 2 : 0 3 : 0 
Heartbeat_Variant_2_evicts 0 : 0 1 : 0 2 : 0 3 : 0 
Heartbeat_Variant_3_evicts 0 : 0 1 : 0 2 : 0 3 : 0 
Heartbeat CPU 0 instructions: 30000002 cycles: 8392106 heartbeat IPC: 3.5745 cumulative IPC: 3.57479 (Simulation time: 0 hr 5 min 9 sec) 
Heartbeat_Variant_0 : 1359 0.331787 per_variant_size: 0 1359 0 0 0 0 0 0 0 
Heartbeat_Variant_1 : 2641 0.644775 per_variant_size: 0 503 2138 0 0 0 0 0 0 
Heartbeat_Variant_2 : 0 0 per_variant_size: 0 0 0 0 0 0 0 0 0 
Heartbeat_Variant_3 : 0 0 per_variant_size: 0 0 0 0 0 0 0 0 0 
Heartbeat_Variant_0_evicts 0 : 5711 1 : 127 2 : 0 3 : 0 
Heartbeat_Variant_1_evicts 0 : 127 1 : 0 2 : 0 3 : 0 
Heartbeat_Variant_2_evicts 0 : 0 1 : 0 2 : 0 3 : 0 
Heartbeat_Variant_3_evicts 0 : 0 1 : 0 2 : 0 3 : 0 
Heartbeat CPU 0 instructions: 40000003 cycles: 11190455 heartbeat IPC: 3.57354 cumulative IPC: 3.57448 (Simulation time: 0 hr 6 min 49 sec) 
Heartbeat_Variant_0 : 1364 0.333008 per_variant_size: 0 1364 0 0 0 0 0 0 0 
Heartbeat_Variant_1 : 2646 0.645996 per_variant_size: 0 478 2168 0 0 0 0 0 0 
Heartbeat_Variant_2 : 0 0 per_variant_size: 0 0 0 0 0 0 0 0 0 
Heartbeat_Variant_3 : 0 0 per_variant_size: 0 0 0 0 0 0 0 0 0 
Heartbeat_Variant_0_evicts 0 : 5624 1 : 126 2 : 0 3 : 0 
Heartbeat_Variant_1_evicts 0 : 121 1 : 0 2 : 0 3 : 0 
Heartbeat_Variant_2_evicts 0 : 0 1 : 0 2 : 0 3 : 0 
Heartbeat_Variant_3_evicts 0 : 0 1 : 0 2 : 0 3 : 0 
Heartbeat CPU 0 instructions: 50000001 cycles: 13987386 heartbeat IPC: 3.57535 cumulative IPC: 3.57465 (Simulation time: 0 hr 8 min 26 sec) 

Warmup complete CPU 0 instructions: 50000001 cycles: 13987386 (Simulation time: 0 hr 8 min 26 sec) 

Cycle: 20000000 FTQ IN: 58228882 FTQ occupancy: 19.9954 DECODE IN: 58228809 DECODE occupancy: 52.0482 ROB IN: 58228749 ROB occupancy: 313.575 ROB OUT: 58228479
Heartbeat_Variant_0 : 1375 0.335693 per_variant_size: 0 1375 0 0 0 0 0 0 0 
Heartbeat_Variant_1 : 2645 0.645752 per_variant_size: 0 489 2156 0 0 0 0 0 0 
Heartbeat_Variant_2 : 0 0 per_variant_size: 0 0 0 0 0 0 0 0 0 
Heartbeat_Variant_3 : 0 0 per_variant_size: 0 0 0 0 0 0 0 0 0 
Heartbeat_Variant_0_evicts 0 : 5651 1 : 142 2 : 0 3 : 0 
Heartbeat_Variant_1_evicts 0 : 134 1 : 0 2 : 0 3 : 0 
Heartbeat_Variant_2_evicts 0 : 0 1 : 0 2 : 0 3 : 0 
Heartbeat_Variant_3_evicts 0 : 0 1 : 0 2 : 0 3 : 0 
Heartbeat CPU 0 instructions: 60000001 cycles: 21286719 heartbeat IPC: 1.36999 cumulative IPC: 1.36999 (Simulation time: 0 hr 10 min 15 sec) 
Heartbeat_Variant_0 : 1374 0.335449 per_variant_size: 0 1374 0 0 0 0 0 0 0 
Heartbeat_Variant_1 : 2647 0.64624 per_variant_size: 0 487 2160 0 0 0 0 0 0 
Heartbeat_Variant_2 : 0 0 per_variant_size: 0 0 0 0 0 0 0 0 0 
Heartbeat_Variant_3 : 0 0 per_variant_size: 0 0 0 0 0 0 0 0 0 
Heartbeat_Variant_0_evicts 0 : 5536 1 : 5 2 : 0 3 : 0 
Heartbeat_Variant_1_evicts 0 : 7 1 : 0 2 : 0 3 : 0 
Heartbeat_Variant_2_evicts 0 : 0 1 : 0 2 : 0 3 : 0 
Heartbeat_Variant_3_evicts 0 : 0 1 : 0 2 : 0 3 : 0 
Heartbeat CPU 0 instructions: 70000000 cycles: 28510977 heartbeat IPC: 1.38423 cumulative IPC: 1.37707 (Simulation time: 0 hr 12 min 1 sec) 
Cycle: 30000000 FTQ IN: 13841847 FTQ occupancy: 12.9648 DECODE IN: 13841869 DECODE occupancy: 33.7513 ROB IN: 13841908 ROB occupancy: 234.48 ROB OUT: 13842178
Heartbeat_Variant_0 : 1378 0.336426 per_variant_size: 0 1378 0 0 0 0 0 0 0 
Heartbeat_Variant_1 : 2651 0.647217 per_variant_size: 0 496 2155 0 0 0 0 0 0 
Heartbeat_Variant_2 : 0 0 per_variant_size: 0 0 0 0 0 0 0 0 0 
Heartbeat_Variant_3 : 0 0 per_variant_size: 0 0 0 0 0 0 0 0 0 
Heartbeat_Variant_0_evicts 0 : 5689 1 : 163 2 : 0 3 : 0 
Heartbeat_Variant_1_evicts 0 : 162 1 : 0 2 : 0 3 : 0 
Heartbeat_Variant_2_evicts 0 : 0 1 : 0 2 : 0 3 : 0 
Heartbeat_Variant_3_evicts 0 : 0 1 : 0 2 : 0 3 : 0 
Heartbeat CPU 0 instructions: 80000000 cycles: 35825976 heartbeat IPC: 1.36705 cumulative IPC: 1.37372 (Simulation time: 0 hr 13 min 50 sec) 
Cycle: 40000000 FTQ IN: 13518467 FTQ occupancy: 12.8408 DECODE IN: 13518502 DECODE occupancy: 33.0509 ROB IN: 13518523 ROB occupancy: 230.27 ROB OUT: 13518502
Heartbeat_Variant_0 : 1388 0.338867 per_variant_size: 0 1388 0 0 0 0 0 0 0 
Heartbeat_Variant_1 : 2686 0.655762 per_variant_size: 0 464 2222 0 0 0 0 0 0 
Heartbeat_Variant_2 : 0 0 per_variant_size: 0 0 0 0 0 0 0 0 0 
Heartbeat_Variant_3 : 0 0 per_variant_size: 0 0 0 0 0 0 0 0 0 
Heartbeat_Variant_0_evicts 0 : 5974 1 : 835 2 : 0 3 : 0 
Heartbeat_Variant_1_evicts 0 : 834 1 : 0 2 : 0 3 : 0 
Heartbeat_Variant_2_evicts 0 : 0 1 : 0 2 : 0 3 : 0 
Heartbeat_Variant_3_evicts 0 : 0 1 : 0 2 : 0 3 : 0 
Heartbeat CPU 0 instructions: 90000001 cycles: 43251516 heartbeat IPC: 1.3467 cumulative IPC: 1.36686 (Simulation time: 0 hr 15 min 36 sec) 
Cycle: 50000000 FTQ IN: 13718436 FTQ occupancy: 12.5051 DECODE IN: 13718318 DECODE occupancy: 32.034 ROB IN: 13718258 ROB occupancy: 225.566 ROB OUT: 13717928
Heartbeat_Variant_0 : 1384 0.337891 per_variant_size: 0 1384 0 0 0 0 0 0 0 
Heartbeat_Variant_1 : 2695 0.657959 per_variant_size: 0 461 2234 0 0 0 0 0 0 
Heartbeat_Variant_2 : 0 0 per_variant_size: 0 0 0 0 0 0 0 0 0 
Heartbeat_Variant_3 : 0 0 per_variant_size: 0 0 0 0 0 0 0 0 0 
Heartbeat_Variant_0_evicts 0 : 5795 1 : 289 2 : 0 3 : 0 
Heartbeat_Variant_1_evicts 0 : 294 1 : 0 2 : 0 3 : 0 
Heartbeat_Variant_2_evicts 0 : 0 1 : 0 2 : 0 3 : 0 
Heartbeat_Variant_3_evicts 0 : 0 1 : 0 2 : 0 3 : 0 
Heartbeat CPU 0 instructions: 100000002 cycles: 50499872 heartbeat IPC: 1.37962 cumulative IPC: 1.36939 (Simulation time: 0 hr 17 min 26 sec) 
Finished CPU 0 instructions: 50000001 cycles: 36512486 cumulative IPC: 1.36939 (Simulation time: 0 hr 17 min 26 sec) 

ChampSim completed all CPUs

Region of Interest Statistics

CPU 0 cumulative IPC: 1.36939 instructions: 50000001 cycles: 36512486
 Fetch stage stalled: 54.5445  Sim cycles: 36512486 fetch stall cycle: 19915551
 Empty decode stage: 36.1742  Sim cycles: 36512486 fetch stall cycle: 13208083
ITLB TOTAL     ACCESS:    5868491  HIT:    5372294  MISS:     496197  HIT %:    91.5447  MISS %:    8.45527   MPKI: 9.92394
ITLB LOAD TRANSLATION INSTRUCTION	ACCESS:    5738170  HIT:    5241973  MISS:     496197  HIT %:    91.3527  MISS %:     8.6473  MPKI: 9.92394
ITLB TRANSLATION FROM L1D PREFETCHER INSTRUCTION	ACCESS:     130321  HIT:     130321  MISS:          0  HIT %:        100  MISS %:          0  MPKI: 0

ITLB AVERAGE MISS LATENCY: 9.06103 cycles
ITLB RQ	ACCESS:    8002798	FORWARD:          0	MERGED:    1686373	TO_CACHE:    6316425

DTLB TOTAL     ACCESS:    8987498  HIT:    8514451  MISS:     473047  HIT %:    94.7366  MISS %:    5.26339   MPKI: 9.46094
DTLB LOAD TRANSLATION DATA	ACCESS:    8987498  HIT:    8514451  MISS:     473047  HIT %:    94.7366  MISS %:    5.26339  MPKI: 9.46094

DTLB AVERAGE MISS LATENCY: 9.36383 cycles
DTLB RQ	ACCESS:   13356621	FORWARD:          0	MERGED:    4333500	TO_CACHE:    9023121

STLB TOTAL     ACCESS:    1216189  HIT:    1213946  MISS:       2243  HIT %:    99.8156  MISS %:   0.184429   MPKI: 0.04486
STLB LOAD TRANSLATION INSTRUCTION	ACCESS:     496197  HIT:     495889  MISS:        308  HIT %:    99.9379  MISS %:  0.0620721  MPKI: 0.00616
STLB LOAD TRANSLATION DATA	ACCESS:     473046  HIT:     471132  MISS:       1914  HIT %:    99.5954  MISS %:   0.404612  MPKI: 0.03828
STLB TRANSLATION FROM L1D PREFETCHER DATA	ACCESS:     246946  HIT:     246925  MISS:         21  HIT %:    99.9915  MISS %: 0.00850388  MPKI: 0.00042

STLB AVERAGE MISS LATENCY: 76.453 cycles
STLB RQ	ACCESS:    1335035	FORWARD:          0	MERGED:     118808	TO_CACHE:    1216227

STLB Hit, L1D data hit: 0
STLB Hit, L2C data hit: 0
STLB Hit, LLC data hit: 0
STLB Hit, LLC data miss: 0
STLB STLB hints to L2: 0
L1D TOTAL     ACCESS:   13103015  HIT:   11980045  MISS:    1122970  HIT %:    91.4297  MISS %:    8.57032   MPKI: 22.4594
L1D LOAD DATA	ACCESS:    6563170  HIT:    5821820  MISS:     741350  HIT %:    88.7044  MISS %:    11.2956  MPKI: 14.827
L1D RFO DATA	ACCESS:    6215079  HIT:    5928274  MISS:     286805  HIT %:    95.3853  MISS %:    4.61466  MPKI: 5.7361
L1D PREFETCH DATA	ACCESS:     324766  HIT:     229951  MISS:      94815  HIT %:    70.8051  MISS %:    29.1949  MPKI: 1.8963

L1D PREFETCH  REQUESTED:     732008  ISSUED:     732008  USEFUL:      34029  USELESS:      68263
L1D USEFUL LOAD PREFETCHES:      34029 PREFETCH ISSUED TO LOWER LEVEL:     102377  ACCURACY: 33.2389
 TIMELY PREFETCHES:      34029 LATE PREFETCHES: 7470 DROPPED PREFETCHES: 5
L1D AVERAGE MISS LATENCY: 212984 cycles
L1D RQ	ACCESS:   10690703	FORWARD:          0	MERGED:    3929693	TO_CACHE:    6597515
L1D WQ	ACCESS:    6955398	FORWARD:     163921	MERGED:     196292	TO_CACHE:    6759106
L1D PQ	ACCESS:     366217	FORWARD:          0	MERGED:          0	TO_CACHE:     365791

L1D UNIQUE REGIONS ACCESSED: 0
L1D REGIONS CONFLICTS: 0
L1D Cross Page Prefetch Requests: 6892
L1D Same Page Prefetch Requests: 753919
L1D ROI Sum of L1D PQ occupancy: 4650630
L1D PREFETCHES PUSHED FROM L2C: 0
L1I TOTAL     ACCESS:    7168899  HIT:    4393822  MISS:    2775077  HIT %:    61.2901  MISS %:    38.7099   MPKI: 55.5015
L1I LOAD INSTRUCTION	ACCESS:    6501175  HIT:    3726098  MISS:    2775077  HIT %:    57.3142  MISS %:    42.6858  MPKI: 55.5015
L1I PREFETCH INSTRUCTION	ACCESS:     667724  HIT:     667724  MISS:          0  HIT %:        100  MISS %:          0  MPKI: 0

L1I PREFETCH  REQUESTED:    1608543  ISSUED:    1608543  USEFUL:          0  USELESS:          0
L1I USEFUL LOAD PREFETCHES:          0 PREFETCH ISSUED TO LOWER LEVEL:          0  ACCURACY: -nan
 TIMELY PREFETCHES:          0 LATE PREFETCHES: 0 DROPPED PREFETCHES: 0
L1I AVERAGE MISS LATENCY: 17.481 cycles
L1I RQ	ACCESS:    9508900	FORWARD:          0	MERGED:    2680972	TO_CACHE:    6827928
L1I PQ	ACCESS:    1608543	FORWARD:          0	MERGED:     433673	TO_CACHE:    1174870

L1BTB TOTAL     ACCESS:    5670598  HIT:    2029041  MISS:    3641557  HIT %:    35.7818  MISS %:    64.2182   MPKI: 72.8311
L1BTB BRANCH_DIRECT_JUMP	ACCESS:     548408 HIT:     143251 MISS:     405157 AVERAGE STALL: 48.1922 AVERAGE FETCH STALL: 14.3944 AVERAGE FETCH QUEUE STALL: 15.2478 AVERAGE DECODE STALL: 17.6316 AVERAGE EXECUTE STALL: 2.24059e+15
L1BTB BRANCH_INDIRECT	ACCESS:     182571 HIT:      65574 MISS:     116997 AVERAGE STALL: 101.169 AVERAGE FETCH STALL: 10.9047 AVERAGE FETCH QUEUE STALL: 14.1376 AVERAGE DECODE STALL: 11.4983 AVERAGE EXECUTE STALL: 63.6655
L1BTB BRANCH_CONDITIONAL	ACCESS:    2702920 HIT:    1405421 MISS:    1297499 AVERAGE STALL: 66.9798 AVERAGE FETCH STALL: 23.3067 AVERAGE FETCH QUEUE STALL: 24.1336 AVERAGE DECODE STALL: 18.7562 AVERAGE EXECUTE STALL: 2.73447e+15
L1BTB BRANCH_DIRECT_CALL	ACCESS:     946380 HIT:     104576 MISS:     841804 AVERAGE STALL: 58.8851 AVERAGE FETCH STALL: 26.9217 AVERAGE FETCH QUEUE STALL: 16.439 AVERAGE DECODE STALL: 14.8433 AVERAGE EXECUTE STALL: 4.61746e+15
L1BTB BRANCH_INDIRECT_CALL	ACCESS:     171970 HIT:      21099 MISS:     150871 AVERAGE STALL: 132.559 AVERAGE FETCH STALL: 12.8214 AVERAGE FETCH QUEUE STALL: 14.8734 AVERAGE DECODE STALL: 10.4694 AVERAGE EXECUTE STALL: 93.9031
L1BTB BRANCH_RETURN	ACCESS:    1118349 HIT:     289120 MISS:     829229 AVERAGE STALL: 47.115 AVERAGE FETCH STALL: 17.1641 AVERAGE FETCH QUEUE STALL: 5.33658 AVERAGE DECODE STALL: 6.07173 AVERAGE EXECUTE STALL: 4.20851e+14
L1BTB BRANCH_OTHER ACCESS:          0 HIT:          0 MISS:          0 AVERAGE STALL: -nan AVERAGE FETCH STALL: -nan AVERAGE FETCH QUEUE STALL: -nan AVERAGE DECODE STALL: -nan AVERAGE EXECUTE STALL: -nan
L1BTB TOTAL ROB OCCUPANCY AT BTB MISS: 2.79962

L2BTB TOTAL     ACCESS:    3616163  HIT:    3545526  MISS:      70637  HIT %:    98.0466  MISS %:    1.95337   MPKI: 1.41274
L2BTB BRANCH_DIRECT_JUMP	ACCESS:     401029 HIT:     396885 MISS:       4144 AVERAGE STALL: 48.1922 AVERAGE FETCH STALL: 14.3944 AVERAGE FETCH QUEUE STALL: 15.2478 AVERAGE DECODE STALL: 17.6316 AVERAGE EXECUTE STALL: 2.24059e+15
L2BTB BRANCH_INDIRECT	ACCESS:     106649 HIT:     103893 MISS:       2756 AVERAGE STALL: 101.169 AVERAGE FETCH STALL: 10.9047 AVERAGE FETCH QUEUE STALL: 14.1376 AVERAGE DECODE STALL: 11.4983 AVERAGE EXECUTE STALL: 63.6655
L2BTB BRANCH_CONDITIONAL	ACCESS:    1297499 HIT:    1290622 MISS:       6877 AVERAGE STALL: 66.9798 AVERAGE FETCH STALL: 23.3067 AVERAGE FETCH QUEUE STALL: 24.1336 AVERAGE DECODE STALL: 18.7562 AVERAGE EXECUTE STALL: 2.73447e+15
L2BTB BRANCH_DIRECT_CALL	ACCESS:     841804 HIT:     837753 MISS:       4051 AVERAGE STALL: 58.8851 AVERAGE FETCH STALL: 26.9217 AVERAGE FETCH QUEUE STALL: 16.439 AVERAGE DECODE STALL: 14.8433 AVERAGE EXECUTE STALL: 4.61746e+15
L2BTB BRANCH_INDIRECT_CALL	ACCESS:     141363 HIT:     131025 MISS:      10338 AVERAGE STALL: 132.559 AVERAGE FETCH STALL: 12.8214 AVERAGE FETCH QUEUE STALL: 14.8734 AVERAGE DECODE STALL: 10.4694 AVERAGE EXECUTE STALL: 93.9031
L2BTB BRANCH_RETURN	ACCESS:     827819 HIT:     785348 MISS:      42471 AVERAGE STALL: 47.115 AVERAGE FETCH STALL: 17.1641 AVERAGE FETCH QUEUE STALL: 5.33658 AVERAGE DECODE STALL: 6.07173 AVERAGE EXECUTE STALL: 4.20851e+14
L2BTB BRANCH_OTHER ACCESS:          0 HIT:          0 MISS:          0 AVERAGE STALL: -nan AVERAGE FETCH STALL: -nan AVERAGE FETCH QUEUE STALL: -nan AVERAGE DECODE STALL: -nan AVERAGE EXECUTE STALL: -nan
L2BTB TOTAL ROB OCCUPANCY AT BTB MISS: 144.329

L2C TOTAL     ACCESS:    4512593  HIT:    4006619  MISS:     505974  HIT %:    88.7875  MISS %:    11.2125   MPKI: 10.1195
L2C LOAD INSTRUCTION	ACCESS:    2775077  HIT:    2489786  MISS:     285291  HIT %:    89.7195  MISS %:    10.2805  MPKI: 5.70582
L2C LOAD TRANSLATION INSTRUCTION	ACCESS:        352  HIT:        113  MISS:        239  HIT %:    32.1023  MISS %:    67.8977  MPKI: 0.00478
L2C LOAD DATA	ACCESS:     733863  HIT:     655877  MISS:      77986  HIT %:    89.3732  MISS %:    10.6268  MPKI: 1.55972
L2C RFO DATA	ACCESS:     286688  HIT:     234514  MISS:      52174  HIT %:    81.8011  MISS %:    18.1989  MPKI: 1.04348
L2C PREFETCH DATA	ACCESS:     190526  HIT:     116743  MISS:      73783  HIT %:    61.2741  MISS %:    38.7259  MPKI: 1.47566
L2C WRITEBACK DATA	ACCESS:     524034  HIT:     508985  MISS:      15049  HIT %:    97.1282  MISS %:    2.87176  MPKI: 0.30098
L2C LOAD TRANSLATION DATA	ACCESS:       2014  HIT:        575  MISS:       1439  HIT %:    28.5501  MISS %:    71.4499  MPKI: 0.02878
L2C TRANSLATION FROM L1D PREFETCHER DATA	ACCESS:         39  HIT:         26  MISS:         13  HIT %:    66.6667  MISS %:    33.3333  MPKI: 0.00026

L2C PREFETCH  REQUESTED:      95904  ISSUED:      95904  USEFUL:       8632  USELESS:      65602
L2C USEFUL LOAD PREFETCHES:       8632 PREFETCH ISSUED TO LOWER LEVEL:      74177  ACCURACY: 11.637
 TIMELY PREFETCHES:       8632 LATE PREFETCHES: 394 DROPPED PREFETCHES: 0
L2C AVERAGE MISS LATENCY: 38.2849 cycles
L2C RQ	ACCESS:    3798075	FORWARD:          0	MERGED:          0	TO_CACHE:    3798033
L2C WQ	ACCESS:     524034	FORWARD:         42	MERGED:          0	TO_CACHE:     524034
L2C PQ	ACCESS:     198281	FORWARD:          0	MERGED:       3635	TO_CACHE:     194646

L2C Dense regions hint from L2: 0
PSCL5 TOTAL     ACCESS:       4500  HIT:       2250  MISS:       2250  HIT %:         50  MISS %:         50   MPKI: 0.045
PSCL5 LOAD TRANSLATION INSTRUCTION	ACCESS:       4422  HIT:       2211  MISS:       2211  HIT %:         50  MISS %:         50  MPKI: 0.04422
PSCL5 TRANSLATION FROM L1D PREFETCHER INSTRUCTION	ACCESS:         78  HIT:         39  MISS:         39  HIT %:         50  MISS %:         50  MPKI: 0.00078


PSCL4 TOTAL     ACCESS:       3871  HIT:       1933  MISS:       1938  HIT %:    49.9354  MISS %:    50.0646   MPKI: 0.03876
PSCL4 LOAD TRANSLATION INSTRUCTION	ACCESS:       2799  HIT:       1905  MISS:        894  HIT %:      68.06  MISS %:      31.94  MPKI: 0.01788
PSCL4 TRANSLATION FROM L1D PREFETCHER INSTRUCTION	ACCESS:         48  HIT:         28  MISS:         20  HIT %:    58.3333  MISS %:    41.6667  MPKI: 0.0004
PSCL4 LOAD TRANSLATION DATA	ACCESS:       1016  HIT:          0  MISS:       1016  HIT %:          0  MISS %:        100  MPKI: 0.02032
PSCL4 TRANSLATION FROM L1D PREFETCHER DATA	ACCESS:          8  HIT:          0  MISS:          8  HIT %:          0  MISS %:        100  MPKI: 0.00016


PSCL3 TOTAL     ACCESS:       3829  HIT:       1909  MISS:       1920  HIT %:    49.8564  MISS %:    50.1436   MPKI: 0.0384
PSCL3 LOAD TRANSLATION INSTRUCTION	ACCESS:       2323  HIT:       1875  MISS:        448  HIT %:    80.7146  MISS %:    19.2854  MPKI: 0.00896
PSCL3 TRANSLATION FROM L1D PREFETCHER INSTRUCTION	ACCESS:         44  HIT:         34  MISS:         10  HIT %:    77.2727  MISS %:    22.7273  MPKI: 0.0002
PSCL3 LOAD TRANSLATION DATA	ACCESS:       1438  HIT:          0  MISS:       1438  HIT %:          0  MISS %:        100  MPKI: 0.02876
PSCL3 TRANSLATION FROM L1D PREFETCHER DATA	ACCESS:         24  HIT:          0  MISS:         24  HIT %:          0  MISS %:        100  MPKI: 0.00048


PSCL2 TOTAL     ACCESS:       4359  HIT:       2109  MISS:       2250  HIT %:    48.3827  MISS %:    51.6173   MPKI: 0.045
PSCL2 LOAD TRANSLATION INSTRUCTION	ACCESS:       2383  HIT:       2070  MISS:        313  HIT %:    86.8653  MISS %:    13.1347  MPKI: 0.00626
PSCL2 TRANSLATION FROM L1D PREFETCHER INSTRUCTION	ACCESS:         39  HIT:         39  MISS:          0  HIT %:        100  MISS %:          0  MPKI: 0
PSCL2 LOAD TRANSLATION DATA	ACCESS:       1898  HIT:          0  MISS:       1898  HIT %:          0  MISS %:        100  MPKI: 0.03796
PSCL2 TRANSLATION FROM L1D PREFETCHER DATA	ACCESS:         39  HIT:          0  MISS:         39  HIT %:          0  MISS %:        100  MPKI: 0.00078


LLC TOTAL     ACCESS:     567783  HIT:     538292  MISS:      29491  HIT %:    94.8059  MISS %:    5.19406   MPKI: 0.58982
LLC LOAD INSTRUCTION	ACCESS:     285291  HIT:     284141  MISS:       1150  HIT %:    99.5969  MISS %:   0.403097  MPKI: 0.023
LLC LOAD TRANSLATION INSTRUCTION	ACCESS:        239  HIT:        194  MISS:         45  HIT %:    81.1715  MISS %:    18.8285  MPKI: 0.0009
LLC LOAD DATA	ACCESS:      77617  HIT:      73826  MISS:       3791  HIT %:    95.1158  MISS %:    4.88424  MPKI: 0.07582
LLC RFO DATA	ACCESS:      52145  HIT:      38257  MISS:      13888  HIT %:    73.3666  MISS %:    26.6334  MPKI: 0.27776
LLC PREFETCH DATA	ACCESS:      74177  HIT:      64004  MISS:      10173  HIT %:    86.2855  MISS %:    13.7145  MPKI: 0.20346
LLC WRITEBACK DATA	ACCESS:      76862  HIT:      76545  MISS:        317  HIT %:    99.5876  MISS %:   0.412427  MPKI: 0.00634
LLC LOAD TRANSLATION DATA	ACCESS:       1439  HIT:       1312  MISS:        127  HIT %:    91.1744  MISS %:    8.82557  MPKI: 0.00254
LLC TRANSLATION FROM L1D PREFETCHER DATA	ACCESS:         13  HIT:         13  MISS:          0  HIT %:        100  MISS %:          0  MPKI: 0

LLC AVERAGE MISS LATENCY: 155.949 cycles
LLC RQ	ACCESS:     416748	FORWARD:          0	MERGED:          0	TO_CACHE:     416744
LLC WQ	ACCESS:      76862	FORWARD:          4	MERGED:          0	TO_CACHE:      76862
LLC PQ	ACCESS:      74177	FORWARD:          0	MERGED:          0	TO_CACHE:      74177

LLC Dense regions hint to LLC: 0

RAW hits: 1944771
Loads Generated: 12635471
Loads sent to L1D: 10690703
Stores Generated: 6955386
Stores sent to L1D: 6955398
Major fault: 0 Minor fault: 2591
Allocated PAGES: 2591

stream: 
stream:times selected: 1190948
stream:pref_filled: 122859
stream:pref_useful: 24235
stream:pref_late: 6647
stream:misses: 8123
stream:misses_by_poll: 0

CS: 
CS:times selected: 179052
CS:pref_filled: 59255
CS:pref_useful: 36025
CS:pref_late: 6466
CS:misses: 15698
CS:misses_by_poll: 4

CPLX: 
CPLX:times selected: 1010739
CPLX:pref_filled: 19820
CPLX:pref_useful: 4663
CPLX:pref_late: 3014
CPLX:misses: 93280
CPLX:misses_by_poll: 0

NL_L1: 
NL:times selected: 20391
NL:pref_filled: 810
NL:pref_useful: 353
NL:pref_late: 284
NL:misses: 1723
NL:misses_by_poll: 0

total selections: 2401130
total_filled: 94815
total_useful: 34029
total_late: 17666
total_polluted: 4
total_misses_after_warmup: 775696
conflicts: 5524695

test: 116432

DRAM Statistics
 CHANNEL 0
 RQ ROW_BUFFER_HIT:      10729  ROW_BUFFER_MISS:      18439
 DBUS_CONGESTED:          7
 WQ ROW_BUFFER_HIT:       1507  ROW_BUFFER_MISS:      12638  FULL:          0

 AVG_CONGESTED_CYCLE: 5

CPU 0 Branch Prediction Accuracy: 99.8098% MPKI: 0.34798 Average ROB Occupancy at Mispredict: 177.483
Branch types
NOT_BRANCH: 40852013 81.704%
BRANCH_DIRECT_JUMP: 548408 1.09682%
BRANCH_INDIRECT: 182571 0.365142%
BRANCH_CONDITIONAL: 6180328 12.3607%
BRANCH_DIRECT_CALL: 946380 1.89276%
BRANCH_INDIRECT_CALL: 171970 0.34394%
BRANCH_RETURN: 1118349 2.2367%
BRANCH_OTHER: 0 0%

DRAM PAGES: 1048576
Allocated PAGES: 2591
Average_ROB_Occupancy: 231.587
Average_Decode_Occupancy: 33.007
Average_FTQ_Occupancy: 12.8045
Indirect max targets: 14 Average targets: 1.17572
Branch_type:  BRANCH_DIRECT_JUMP:  Count Percentage: 3.65456 5.30924 4.21505 2.77702 8.18439 6.01067 6.80713 63.0419 
Branch_type:  BRANCH_INDIRECT:  Count Percentage: 11.7748 3.41525 2.56267 0 13.0274 2.80817 16.5336 49.8781 
Branch_type:  BRANCH_CONDITIONAL:  Count Percentage: 20.9081 9.54656 2.46823 2.45299 3.75546 4.63238 3.16228 53.074 
Branch_type:  BRANCH_DIRECT_CALL:  Count Percentage: 0.390154 1.76233 0.740932 1.48346 5.09137 2.62409 0.741887 87.1658 
Branch_type:  BRANCH_INDIRECT_CALL:  Count Percentage: 9.56376 0 2.99636 0.000876043 0.848009 1.715 0.00759237 84.8684 
Branch_type:  BRANCH_RETURN:  Count Percentage: 3.73481 5.5896 2.15223 2.84173 4.80672 5.13361 3.51602 72.2253 
Branch_type:  BRANCH_DIRECT_JUMP:  Total Count: 40113 58275 46265 30481 89833 65974 74716 691957 
Branch_type:  BRANCH_INDIRECT:  Total Count: 43117 12506 9384 0 47704 10283 60543 182644 
Branch_type:  BRANCH_CONDITIONAL:  Total Count: 2584652 1180141 305121 303237 464248 572653 390920 6560983 
Branch_type:  BRANCH_DIRECT_CALL:  Total Count: 7352 33209 13962 27954 95941 49448 13980 1642538 
Branch_type:  BRANCH_INDIRECT_CALL:  Total Count: 32751 0 10261 3 2904 5873 26 290631 
Branch_type:  BRANCH_RETURN:  Total Count: 83200 124519 47945 63305 107079 114361 78326 1608957 
Number of unique branch instructions: 10653
Upper 32 bits: 
aaaa
ffff
ffff0000
Unique upper 32 bits: 3
Unique upper 36 bits: 3
Unique upper 40 bits: 5
Unique upper 44 bits: 32
Unique upper 48 bits: 158
Variant_0 : 1384 0.337891
Variant_1 : 2695 0.657959
Variant_2 : 0 0
Variant_3 : 0 0
Offset_3 4405
Offset_4 260
Offset_5 479
Offset_6 541
Offset_7 634
Offset_8 576
Offset_9 510
Offset_10 417
Offset_11 342
Offset_12 308
Offset_13 238
Offset_14 244
Offset_15 196
Offset_16 226
Offset_17 163
Offset_18 144
Offset_19 259
Offset_20 141
Offset_21 235
Offset_22 409
Offset_23 241
Offset_24 343
Offset_25 117
Offset_47 92
Offset_64 2
decode_dispatch_called: 25196381 69.0076
Dispatch_width: 0 13570230 53.8579 37.166
Dispatch_width: 1 915803 3.63466 2.50819
Dispatch_width: 2 794781 3.15435 2.17674
Dispatch_width: 3 477279 1.89424 1.30717
Dispatch_width: 4 5203787 20.6529 14.2521
Dispatch_width: 5 159355 0.632452 0.43644
Dispatch_width: 6 4075146 16.1735 11.161
Empty_decode_cycles: 11316105 30.9924
ROB_full_cycles: 8376545 22.9416
Starvation_cycles_per_kilo_instr: 240.608
Starvation_cycles_per_kilo_instr_3: 186.977
Starvation_cycles_per_kilo_instr_0: 165.098
Branch_type_1  (3,1)  (4,9)  (5,39)  (6,74)  (7,123)  (8,151)  (9,134)  (10,110)  (11,76)  (12,47)  (13,11)  (14,2)  (15,3)  (16,4)  (18,1)  (19,5)  (20,2)  (21,1)  (22,3)  (23,2)  (24,10)  (25,12) 
Branch_type_2  (3,1)  (4,1)  (5,1)  (8,4)  (9,4)  (10,1)  (12,1)  (13,1)  (14,1)  (16,3)  (17,2)  (20,2)  (21,2)  (23,5)  (24,1)  (47,41) 
Branch_type_3  (3,4403)  (4,250)  (5,435)  (6,451)  (7,481)  (8,354)  (9,279)  (10,168)  (11,130)  (12,54)  (13,10)  (64,2) 
Branch_type_4  (6,3)  (7,8)  (8,26)  (9,55)  (10,66)  (11,70)  (12,115)  (13,101)  (14,110)  (15,93)  (16,99)  (17,75)  (18,61)  (19,126)  (20,72)  (21,124)  (22,214)  (23,136)  (24,198)  (25,101) 
Branch_type_5  (8,3)  (9,1)  (10,4)  (11,5)  (12,3)  (13,14)  (14,16)  (15,11)  (16,22)  (17,11)  (18,23)  (19,14)  (20,11)  (21,13)  (22,43)  (23,26)  (24,38) 
Branch_type_6  (5,4)  (6,13)  (7,22)  (8,38)  (9,37)  (10,68)  (11,61)  (12,88)  (13,101)  (14,115)  (15,89)  (16,98)  (17,75)  (18,59)  (19,114)  (20,54)  (21,95)  (22,149)  (23,72)  (24,96)  (25,4)  (47,51) 
Unique trigger count: 
Variant_0_evicts_0 : 0
Variant_0_evicts_1 : 0
Variant_0_evicts_2 : 0
Variant_0_evicts_3 : 0
Variant_1_evicts_0 : 0
Variant_1_evicts_1 : 0
Variant_1_evicts_2 : 0
Variant_1_evicts_3 : 0
Variant_2_evicts_0 : 0
Variant_2_evicts_1 : 0
Variant_2_evicts_2 : 0
Variant_2_evicts_3 : 0
Variant_3_evicts_0 : 0
Variant_3_evicts_1 : 0
Variant_3_evicts_2 : 0
Variant_3_evicts_3 : 0
BTB PER SET UNIQUE ADDR: 11 13 12 15 13 13 11 12 7 13 14 15 17 14 13 9 10 13 13 12 16 12 14 16 8 15 12 10 10 13 12 12 15 12 12 9 12 18 10 12 12 14 16 15 10 13 14 14 13 9 14 13 13 14 13 7 6 12 11 12 13 17 16 11 11 16 11 9 19 11 11 16 14 11 12 8 8 17 11 16 10 11 13 16 15 12 15 11 10 16 16 9 13 12 7 16 11 14 11 12 16 18 14 14 14 9 12 14 9 10 11 17 13 11 9 7 12 14 12 13 17 10 10 10 12 13 7 14 16 10 8 15 10 10 8 14 10 13 9 17 11 9 15 8 13 8 14 8 8 16 12 12 10 11 12 9 12 13 15 17 11 13 20 14 13 17 15 8 16 13 9 11 12 11 10 11 13 11 14 15 13 11 11 17 13 16 6 14 13 11 10 12 10 15 13 11 8 13 10 13 13 11 12 11 9 10 10 17 14 16 11 16 12 14 9 13 14 13 10 15 11 12 9 12 7 15 14 9 8 17 13 11 8 15 10 14 14 12 15 8 11 12 15 15 13 9 13 10 15 14 13 14 14 15 14 11 8 10 12 15 11 10 6 15 11 12 11 10 14 12 11 13 8 9 8 8 10 12 17 12 11 15 11 12 18 10 11 13 15 15 15 7 14 19 6 12 11 9 17 8 9 14 8 15 11 16 12 13 22 13 9 15 15 22 16 10 18 11 13 19 8 15 11 12 12 15 11 8 8 12 14 17 10 13 10 13 8 11 8 15 9 13 11 16 13 12 8 13 12 16 13 11 13 11 12 10 15 13 13 10 15 16 10 18 6 9 9 10 13 10 11 11 15 12 8 13 12 13 15 14 16 8 8 14 8 14 12 17 15 12 13 11 11 13 9 9 8 12 12 13 12 19 11 17 12 14 13 13 14 12 13 8 10 16 10 14 10 13 18 20 12 15 15 13 15 8 14 14 12 14 13 11 9 11 11 12 19 12 13 16 14 11 13 13 17 11 12 13 13 14 12 11 17 12 16 16 13 17 9 15 13 14 12 21 13 10 13 15 11 12 16 11 12 14 10 17 17 19 11 13 17 14 11 14 9 13 19 13 12 18 10 11 11 11 13 10 13 14 11 15 14 16 12 13 15 7 13 15 15 14 14 16 13 14 11 13 13 15 8 8 12 12 14 11 12 20 23 7 8 14 14 15 12 13 16 12 14 13 11 11 13 12 13 14 15 14 10 15 14 11 14 16 12 11 13 14 11 10 14 13 13 15 12 17 13 13 13 13 14 16 18 18 18 20 10 12 13 15 11 16 14 15 10 11 17 17 11 14 15 16 14 13 13 10 13 11 10 13 12 13 16 13 8 11 10 17 20 16 14 14 18 11 13 8 8 18 11 15 10 11 16 14 14 12 12 17 10 16 11 14 12 15 11 15 13 10 8 14 11 15 10 11 15 14 12 14 8 17 13 10 9 12 8 7 12 13 11 10 11 10 11 9 11 19 12 12 10 10 11 14 12 14 11 13 14 12 19 13 15 12 10 15 13 13 15 12 10 14 12 16 10 14 12 8 11 7 10 16 12 13 13 16 13 14 12 18 16 11 14 12 13 10 12 16 12 10 17 13 13 15 15 8 14 14 10 12 14 7 9 11 16 16 16 14 9 13 12 14 13 10 11 14 11 13 13 12 15 13 9 12 12 15 16 18 8 6 17 13 11 10 16 9 10 13 13 16 7 17 13 15 13 11 5 10 8 12 13 14 14 12 9 11 14 8 8 12 7 10 10 9 5 7 17 14 15 19 12 8 13 15 13 15 18 12 17 10 12 10 14 11 14 19 16 16 14 13 13 14 10 20 15 20 6 11 12 11 7 12 14 16 12 21 14 9 10 13 16 10 10 10 16 13 9 9 10 17 15 16 13 13 15 10 11 14 15 15 21 18 17 12 13 10 13 14 19 7 15 12 12 11 15 7 15 9 16 9 9 11 7 11 10 7 11 12 11 13 13 11 12 12 14 13 11 12 10 18 16 13 8 12 12 12 9 17 8 18 9 14 10 19 10 10 14 17 12 13 16 14 13 9 16 12 9 8 9 9 8 13 13 12 21 13 14 14 9 16 8 14 11 12 11 20 12 11 12 15 12 15 15 12 12 14 12 15 10 14 11 18 19 12 13 14 12 15 14 15 16 13 15 18 15 11 13 13 14 11 14 15 17 15 10 11 16 15 10 18 20 9 10 11 16 9 13 14 14 10 12 18 17 12 15 10 10 10 10 17 11 13 9 16 16 14 13 9 10 11 7 12 4 11 10 12 10 12 
BTB PER SET COUNT: 795 14 1489 20 206 16 1469 17 1472 18 17 974 105 17 17 15 36 25 26 22 22 20 512 89 10 19 14 13 16 595 511 13 17 15 18 514 15 26 13 54 14 21 19 87 14 100 30 21 641 11 20 21 13 18 280 365 10 24 18 21 21 27 93 15 14 1019 16 15 31 17 1481 87 19 14 14 11 14 1425 15 20 14 14 22 110 23 34 20 14 601 30 21 1020 438 17 13 24 940 19 16 21 22 134 18 18 514 12 21 27 395 15 14 32 244 14 16 1253 15 21 1277 17 278 19 11 13 17 73 7 1707 29 1003 8 4408 229 14 12 19 990 34 11 24 23 14 32 9 19 71 20 155 12 45 23 251 999 22 16 17 152 18 18 348 16 64 283 15 23 25 19 8 24 149 17 13 22 20 11 653 19 14 15 802 20 236 196 23 15 25 8 23 155 1322 13 13 12 18 18 12 10 1027 13 17 23 18 994 17 9 10 11 447 557 849 15 24 16 5328 15 19 23 13 1501 21 15 25 540 15 7 38 19 193 598 26 25 14 8 21 11 17285 26 17 23 8 173 18 23 165 16 15 18 13 24 23 23 20 23 26 20 20 74 16 19 25 13 19 6 258 11 17 13 21 297 17 13 21 8 9 12 9 10 17 24 746 16 19 984 856 25 14 11 316 22 16 29 8 19 508 6 14 1246 15 28 1000 10 18 8 24 12 28 43 517 33 193 186 21 24 28 1917 1004 23 15 27 37 9 2956 23 18 458 26 11 13 10 13 22 20 51 16 12 18 21 137 10 18 11 209 14 24 20 16 10 17 14 71 16 732 24 16 17 15 23 15 13 12 21 20 14 30 6 15 9 11 27 13 18 103 21 15 982 20 15 15 37 226 994 10 213 17 9 19 15 24 26 13 23 16 13 15 12 993 17 15 17 2578 18 29 21 25 16 26 20 103 29 20 20 9 10 23 16 18 11 3281 30 21 18 19 25 19 23 11 20 15 20 1479 18 11 11 12 19 22 200 35 23 21 394 21 26 14 41 12 990 17 20 16 22 2566 27 18 20 1493 20 21 11 19 34 19 13 967 23 126 19 23 14 24 26 23 17 21 13 24 24 30 17 16 25 18 14 17 9 17 26 29 299 32 17 14 740 15 22 15 637 959 13 21 22 23 13 23 26 11 17 27 28 23 510 435 19 866 14 16 22 17 13 10 18 19 20 380 18 39 1291 1271 9 2591 19 28 13 20 20 21 271 25 15 675 21 13 37 22 28 39 12 29 26 54 26 22 17 138 26 19 13 14 22 14 15 80 17 25 22 22 25 23 23 906 961 24 32 38 22 16 21 142 14 28 18 25 13 2946 28 27 12 16 24 16 26 28 17 13 27 15 2118 15 15 15 20 16 12 19 11 28 33 450 19 26 26 161 39 10 10 27 16 21 18 26 16 18 19 15 14 23 11 29 757 48 18 68 24 24 19 15 10 27 11 26 15 14 21 849 71 158 497 23 17 15 14 17 8 10 16 510 11 235 838 434 14 11 1872 27 18 15 21 13 2093 24 18 18 843 21 48 50 29 21 26 20 11 30 985 27 1235 13 14 23 18 27 18 15 14 13 2199 8 17 1965 14 19 19 28 373 20 17 32 26 24 17 19 374 10 805 18 19 157 584 23 16 593 23 55 24 106 12 14 20 11 996 17 24 7477 54 22 12 1949 521 25 15 11 12 17 15 30 989 15 1148 22 11 29 13 37 869 33 15 6 36 406 12 11 19 13 10 18 441 23 7 27 13 29 17 22 5 13 10 17 18 19 26 20 2025 16 19 10 8 23 7 11 13 21 5 509 29 20 390 31 185 16 22 699 85 26 34 324 147 13 16 17 19 60 15 7704 23 331 21 292 1084 448 14 634 18 785 11 16 14 11 8 15 16 223 15 33 24 11 493 17 29 19 11 271 24 791 9 13 713 25 24 22 17 1918 51 17 14 18 70 19 315 25 23 12 285 12 40 22 189 7 19 15 13 15 57 14 21 10 21 13 12 14 8 18 12 8 77 17 507 23 18 15 19 23 15 22 1728 204 14 26 30 19 13 17 14 22 9 380 9 25 9 17 129 31 143 154 23 26 13 25 38 14 27 10 21 16 11 14 10 14 11 13 15 15 30 19 585 20 12 24 8 25 19 15 13 846 22 14 20 24 20 20 24 16 18 23 833 75 12 24 11 26 109 106 22 20 14 16 18 22 863 16 19 34 52 18 26 17 29 14 24 15 531 22 10 1464 17 364 10 31 1711 12 14 13 31 861 16 1112 1484 17 15 1282 25 14 27 19 13 10 12 32 11 21 12 375 1268 21 17 11 14 17 8 35 4 12 43 428 15 14 
To predecode: 0
Predecoding something: 0
Predecode request dropped: 0
sizeofblock_0 0
sizeofblock_1 50062
sizeofblock_2 92739
sizeofblock_3 0
sizeofblock_4 0
sizeofblock_5 0
sizeofblock_6 0
sizeofblock_7 0
sizeofblock_8 0
Variant_0 Correct: 1611884 Incorrect: 0 Accuracy: 1
Variant_1 Correct: 5730407 Incorrect: 0 Accuracy: 1
Variant_2 Correct: 0 Incorrect: 0 Accuracy: -nan
Variant_3 Correct: 0 Incorrect: 0 Accuracy: -nan
