
*** ChampSim Multicore Out-of-Order Simulator ***

Warmup Instructions: 50000000
Simulation Instructions: 50000000
Number of CPUs: 1
LLC sets: 2048
LLC ways: 16
Off-chip DRAM Size: 4096 MB Channels: 1 Width: 64-bit Data Rate: 6400 MT/s
CPU 0 runs ./micro_traces/srv559.trace.gz
.gz
ITLB has LRU replacement policy
DTLB has LRU replacement policy
STLB has LRU replacement policy
SN4L + DIS + BTB Prefetcher for L1I CPU 0
srv559.cond
L1I has LRU replacement policy
L1D has LRU replacement policy
Initialize SRRIP state for L2C
Initialize DRRIP state for LLC
Heartbeat CPU 0 instructions: 10000001 cycles: 2801554 heartbeat IPC: 3.56945 cumulative IPC: 3.56945 (Simulation time: 0 hr 1 min 41 sec) 
Heartbeat CPU 0 instructions: 20000003 cycles: 5600023 heartbeat IPC: 3.57338 cumulative IPC: 3.57141 (Simulation time: 0 hr 3 min 21 sec) 
Heartbeat CPU 0 instructions: 30000003 cycles: 8398821 heartbeat IPC: 3.57296 cumulative IPC: 3.57193 (Simulation time: 0 hr 5 min 1 sec) 
Heartbeat CPU 0 instructions: 40000000 cycles: 11197472 heartbeat IPC: 3.57315 cumulative IPC: 3.57223 (Simulation time: 0 hr 6 min 43 sec) 
Heartbeat CPU 0 instructions: 50000003 cycles: 13995617 heartbeat IPC: 3.5738 cumulative IPC: 3.57255 (Simulation time: 0 hr 8 min 25 sec) 

Warmup complete CPU 0 instructions: 50000003 cycles: 13995617 (Simulation time: 0 hr 8 min 25 sec) 

Cycle: 20000000 FTQ IN: 57003473 FTQ occupancy: 18.4939 DECODE IN: 57003473 DECODE occupancy: 47.4317 ROB IN: 57003473 ROB occupancy: 287.084 ROB OUT: 57003472
Heartbeat CPU 0 instructions: 60000001 cycles: 22535954 heartbeat IPC: 1.17091 cumulative IPC: 1.17091 (Simulation time: 0 hr 9 min 58 sec) 
Cycle: 30000000 FTQ IN: 11671161 FTQ occupancy: 7.80685 DECODE IN: 11671070 DECODE occupancy: 17.7002 ROB IN: 11671070 ROB occupancy: 142.167 ROB OUT: 11670941
Heartbeat CPU 0 instructions: 70000002 cycles: 31122415 heartbeat IPC: 1.16462 cumulative IPC: 1.16776 (Simulation time: 0 hr 11 min 27 sec) 
Heartbeat CPU 0 instructions: 80000000 cycles: 39532906 heartbeat IPC: 1.18899 cumulative IPC: 1.17475 (Simulation time: 0 hr 12 min 54 sec) 
Cycle: 40000000 FTQ IN: 11888636 FTQ occupancy: 7.80592 DECODE IN: 11888727 DECODE occupancy: 17.7535 ROB IN: 11888720 ROB occupancy: 142.383 ROB OUT: 11888800
Heartbeat CPU 0 instructions: 90000003 cycles: 48028232 heartbeat IPC: 1.17712 cumulative IPC: 1.17534 (Simulation time: 0 hr 14 min 24 sec) 
Cycle: 50000000 FTQ IN: 11799980 FTQ occupancy: 7.9557 DECODE IN: 11799944 DECODE occupancy: 17.9925 ROB IN: 11799928 ROB occupancy: 144.996 ROB OUT: 11799978
Heartbeat CPU 0 instructions: 100000001 cycles: 56399870 heartbeat IPC: 1.19451 cumulative IPC: 1.17913 (Simulation time: 0 hr 15 min 55 sec) 
Finished CPU 0 instructions: 50000001 cycles: 42404254 cumulative IPC: 1.17913 (Simulation time: 0 hr 15 min 55 sec) 

ChampSim completed all CPUs

Region of Interest Statistics

CPU 0 cumulative IPC: 1.17913 instructions: 50000001 cycles: 42404254
 Fetch stage stalled: 67.6426  Sim cycles: 42404254 fetch stall cycle: 28683331
 Empty decode stage: 55.714  Sim cycles: 42404254 fetch stall cycle: 23625091
ITLB TOTAL     ACCESS:    8099482  HIT:    7538380  MISS:     561102  HIT %:    93.0724  MISS %:    6.92763   MPKI: 11.222
ITLB LOAD TRANSLATION INSTRUCTION	ACCESS:    5527985  HIT:    5046051  MISS:     481934  HIT %:    91.2819  MISS %:    8.71808  MPKI: 9.63868
ITLB TRANSLATION FROM L1D PREFETCHER INSTRUCTION	ACCESS:    2571497  HIT:    2492329  MISS:      79168  HIT %:    96.9213  MISS %:    3.07867  MPKI: 1.58336

ITLB AVERAGE MISS LATENCY: 397731 cycles
ITLB RQ	ACCESS:   11218633	FORWARD:          0	MERGED:    2610137	TO_CACHE:    8608496

DTLB TOTAL     ACCESS:    9221051  HIT:    8747180  MISS:     473871  HIT %:     94.861  MISS %:    5.13901   MPKI: 9.47742
DTLB LOAD TRANSLATION DATA	ACCESS:    9221051  HIT:    8747180  MISS:     473871  HIT %:     94.861  MISS %:    5.13901  MPKI: 9.47742

DTLB AVERAGE MISS LATENCY: 9.37186 cycles
DTLB RQ	ACCESS:   13518662	FORWARD:          0	MERGED:    4263074	TO_CACHE:    9255588

STLB TOTAL     ACCESS:    1284757  HIT:    1282539  MISS:       2218  HIT %:    99.8274  MISS %:    0.17264   MPKI: 0.04436
STLB LOAD TRANSLATION INSTRUCTION	ACCESS:     475689  HIT:     475424  MISS:        265  HIT %:    99.9443  MISS %:  0.0557087  MPKI: 0.0053
STLB TRANSLATION FROM L1D PREFETCHER INSTRUCTION	ACCESS:      85413  HIT:      85398  MISS:         15  HIT %:    99.9824  MISS %:  0.0175617  MPKI: 0.0003
STLB LOAD TRANSLATION DATA	ACCESS:     473722  HIT:     471804  MISS:       1918  HIT %:    99.5951  MISS %:   0.404879  MPKI: 0.03836
STLB TRANSLATION FROM L1D PREFETCHER DATA	ACCESS:     249933  HIT:     249913  MISS:         20  HIT %:     99.992  MISS %: 0.00800214  MPKI: 0.0004

STLB AVERAGE MISS LATENCY: 79.8427 cycles
STLB RQ	ACCESS:    1421363	FORWARD:          0	MERGED:     119670	TO_CACHE:    1301693

STLB Hit, L1D data hit: 0
STLB Hit, L2C data hit: 0
STLB Hit, LLC data hit: 0
STLB Hit, LLC data miss: 0
STLB STLB hints to L2: 0
L1D TOTAL     ACCESS:   13263573  HIT:   12149460  MISS:    1114113  HIT %:    91.6002  MISS %:     8.3998   MPKI: 22.2823
L1D LOAD DATA	ACCESS:    6718292  HIT:    5984696  MISS:     733596  HIT %:    89.0806  MISS %:    10.9194  MPKI: 14.6719
L1D RFO DATA	ACCESS:    6216705  HIT:    5930937  MISS:     285768  HIT %:    95.4032  MISS %:    4.59678  MPKI: 5.71536
L1D PREFETCH DATA	ACCESS:     328576  HIT:     233827  MISS:      94749  HIT %:    71.1637  MISS %:    28.8363  MPKI: 1.89498

L1D PREFETCH  REQUESTED:     739318  ISSUED:     739318  USEFUL:      34311  USELESS:      68715
L1D USEFUL LOAD PREFETCHES:      34311 PREFETCH ISSUED TO LOWER LEVEL:     103126  ACCURACY: 33.271
 TIMELY PREFETCHES:      34311 LATE PREFETCHES: 8299 DROPPED PREFETCHES: 6
L1D AVERAGE MISS LATENCY: 259640 cycles
L1D RQ	ACCESS:   10825146	FORWARD:          0	MERGED:    3903659	TO_CACHE:    6755645
L1D WQ	ACCESS:    6943304	FORWARD:     166164	MERGED:     180287	TO_CACHE:    6763017
L1D PQ	ACCESS:     369820	FORWARD:          0	MERGED:          0	TO_CACHE:     369498

L1D UNIQUE REGIONS ACCESSED: 0
L1D REGIONS CONFLICTS: 0
L1D Cross Page Prefetch Requests: 6886
L1D Same Page Prefetch Requests: 750380
L1D ROI Sum of L1D PQ occupancy: 4709302
L1D PREFETCHES PUSHED FROM L2C: 0
L1I TOTAL     ACCESS:   10658566  HIT:    7083286  MISS:    3575280  HIT %:    66.4563  MISS %:    33.5437   MPKI: 71.5056
L1I LOAD INSTRUCTION	ACCESS:    6481322  HIT:    4147566  MISS:    2333756  HIT %:    63.9926  MISS %:    36.0074  MPKI: 46.6751
L1I PREFETCH INSTRUCTION	ACCESS:    4177244  HIT:    2935720  MISS:    1241524  HIT %:    70.2789  MISS %:    29.7211  MPKI: 24.8305

L1I PREFETCH  REQUESTED:    4813949  ISSUED:    4813949  USEFUL:     592633  USELESS:     736943
L1I USEFUL LOAD PREFETCHES:     592633 PREFETCH ISSUED TO LOWER LEVEL:    1329594  ACCURACY: 44.5725
 TIMELY PREFETCHES:     592633 LATE PREFETCHES: 88073 DROPPED PREFETCHES: 41420
L1I AVERAGE MISS LATENCY: 867923 cycles
L1I RQ	ACCESS:    9481267	FORWARD:          0	MERGED:    2823200	TO_CACHE:    6658067
L1I PQ	ACCESS:    4813949	FORWARD:          0	MERGED:     253383	TO_CACHE:    4560566

L1BTB TOTAL     ACCESS:    5671174  HIT:    2049962  MISS:    3621212  HIT %:     36.147  MISS %:     63.853   MPKI: 72.4242
L1BTB BRANCH_DIRECT_JUMP	ACCESS:     548608  HIT:     145716  MISS:     402892	AVERAGE STALL: 37.0156
L1BTB BRANCH_INDIRECT	ACCESS:     183227  HIT:      66273  MISS:     116954	AVERAGE STALL: 87.7351
L1BTB BRANCH_CONDITIONAL	ACCESS:    2707697  HIT:    1418532  MISS:    1289165	AVERAGE STALL: 38.6016
L1BTB BRANCH_DIRECT_CALL	ACCESS:     944369  HIT:     106669  MISS:     837700	AVERAGE STALL: 42.6001
L1BTB BRANCH_INDIRECT_CALL	ACCESS:     171449  HIT:      21397  MISS:     150052	AVERAGE STALL: 115.544
L1BTB BRANCH_RETURN	ACCESS:    1115824  HIT:     291375  MISS:     824449	AVERAGE STALL: 38.8449
L1BTB BRANCH_OTHER ACCESS:          0  HIT:          0  MISS:          0	AVERAGE STALL: -nan
L1BTB TOTAL ROB OCCUPANCY AT BTB MISS: 14.0843

L2BTB TOTAL     ACCESS:    3595813  HIT:    3171797  MISS:     424016  HIT %:    88.2081  MISS %:    11.7919   MPKI: 8.48032
L2BTB BRANCH_DIRECT_JUMP	ACCESS:     398722  HIT:     352363  MISS:      46359	AVERAGE STALL: 37.0156
L2BTB BRANCH_INDIRECT	ACCESS:     106654  HIT:     101534  MISS:       5120	AVERAGE STALL: 87.7351
L2BTB BRANCH_CONDITIONAL	ACCESS:    1289165  HIT:    1149778  MISS:     139387	AVERAGE STALL: 38.6016
L2BTB BRANCH_DIRECT_CALL	ACCESS:     837700  HIT:     726555  MISS:     111145	AVERAGE STALL: 42.6001
L2BTB BRANCH_INDIRECT_CALL	ACCESS:     140525  HIT:     118981  MISS:      21544	AVERAGE STALL: 115.544
L2BTB BRANCH_RETURN	ACCESS:     823047  HIT:     722586  MISS:     100461	AVERAGE STALL: 38.8449
L2BTB BRANCH_OTHER ACCESS:          0  HIT:          0  MISS:          0	AVERAGE STALL: -nan
L2BTB TOTAL ROB OCCUPANCY AT BTB MISS: 120.283

L2C TOTAL     ACCESS:    6078147  HIT:    5081885  MISS:     996262  HIT %:    83.6091  MISS %:    16.3909   MPKI: 19.9252
L2C LOAD INSTRUCTION	ACCESS:    2245682  HIT:    1926119  MISS:     319563  HIT %:    85.7699  MISS %:    14.2301  MPKI: 6.39126
L2C PREFETCH INSTRUCTION	ACCESS:    1329597  HIT:    1121102  MISS:     208495  HIT %:    84.3189  MISS %:    15.6811  MPKI: 4.1699
L2C LOAD TRANSLATION INSTRUCTION	ACCESS:        309  HIT:        108  MISS:        201  HIT %:    34.9515  MISS %:    65.0485  MPKI: 0.00402
L2C TRANSLATION FROM L1D PREFETCHER INSTRUCTION	ACCESS:      22372  HIT:      20828  MISS:       1544  HIT %:    93.0985  MISS %:    6.90148  MPKI: 0.03088
L2C LOAD DATA	ACCESS:     725272  HIT:     599564  MISS:     125708  HIT %:    82.6675  MISS %:    17.3325  MPKI: 2.51416
L2C RFO DATA	ACCESS:     285670  HIT:     202521  MISS:      83149  HIT %:    70.8933  MISS %:    29.1067  MPKI: 1.66298
L2C PREFETCH DATA	ACCESS:     946964  HIT:     723596  MISS:     223368  HIT %:    76.4122  MISS %:    23.5878  MPKI: 4.46736
L2C WRITEBACK DATA	ACCESS:     520248  HIT:     487540  MISS:      32708  HIT %:     93.713  MISS %:      6.287  MPKI: 0.65416
L2C LOAD TRANSLATION DATA	ACCESS:       1985  HIT:        479  MISS:       1506  HIT %:     24.131  MISS %:     75.869  MPKI: 0.03012
L2C TRANSLATION FROM L1D PREFETCHER DATA	ACCESS:         48  HIT:         28  MISS:         20  HIT %:    58.3333  MISS %:    41.6667  MPKI: 0.0004

L2C PREFETCH  REQUESTED:    1379340  ISSUED:    1379340  USEFUL:      39502  USELESS:     396175
L2C USEFUL LOAD PREFETCHES:      39502 PREFETCH ISSUED TO LOWER LEVEL:     433743  ACCURACY: 9.10724
 TIMELY PREFETCHES:      39502 LATE PREFETCHES: 1880 DROPPED PREFETCHES: 0
L2C AVERAGE MISS LATENCY: 34.1102 cycles
L2C RQ	ACCESS:    3281382	FORWARD:          0	MERGED:          0	TO_CACHE:    3281337
L2C WQ	ACCESS:     520248	FORWARD:         45	MERGED:          0	TO_CACHE:     520248
L2C PQ	ACCESS:    2812060	FORWARD:          0	MERGED:     518183	TO_CACHE:    2293877

L2C Dense regions hint from L2: 0
PSCL5 TOTAL     ACCESS:      38242  HIT:      19121  MISS:      19121  HIT %:         50  MISS %:         50   MPKI: 0.38242
PSCL5 LOAD TRANSLATION INSTRUCTION	ACCESS:       4338  HIT:       2169  MISS:       2169  HIT %:         50  MISS %:         50  MPKI: 0.04338
PSCL5 TRANSLATION FROM L1D PREFETCHER INSTRUCTION	ACCESS:      33904  HIT:      16952  MISS:      16952  HIT %:         50  MISS %:         50  MPKI: 0.33904


PSCL4 TOTAL     ACCESS:      36622  HIT:      18308  MISS:      18314  HIT %:    49.9918  MISS %:    50.0082   MPKI: 0.36628
PSCL4 LOAD TRANSLATION INSTRUCTION	ACCESS:       2133  HIT:       2108  MISS:         25  HIT %:    98.8279  MISS %:    1.17206  MPKI: 0.0005
PSCL4 TRANSLATION FROM L1D PREFETCHER INSTRUCTION	ACCESS:      17533  HIT:      16200  MISS:       1333  HIT %:    92.3972  MISS %:    7.60281  MPKI: 0.02666
PSCL4 LOAD TRANSLATION DATA	ACCESS:       2089  HIT:          0  MISS:       2089  HIT %:          0  MISS %:        100  MPKI: 0.04178
PSCL4 TRANSLATION FROM L1D PREFETCHER DATA	ACCESS:      14867  HIT:          0  MISS:      14867  HIT %:          0  MISS %:        100  MPKI: 0.29734


PSCL3 TOTAL     ACCESS:      36662  HIT:      18328  MISS:      18334  HIT %:    49.9918  MISS %:    50.0082   MPKI: 0.36668
PSCL3 LOAD TRANSLATION INSTRUCTION	ACCESS:       2153  HIT:       2128  MISS:         25  HIT %:    98.8388  MISS %:    1.16117  MPKI: 0.0005
PSCL3 TRANSLATION FROM L1D PREFETCHER INSTRUCTION	ACCESS:      17533  HIT:      16200  MISS:       1333  HIT %:    92.3972  MISS %:    7.60281  MPKI: 0.02666
PSCL3 LOAD TRANSLATION DATA	ACCESS:       2109  HIT:          0  MISS:       2109  HIT %:          0  MISS %:        100  MPKI: 0.04218
PSCL3 TRANSLATION FROM L1D PREFETCHER DATA	ACCESS:      14867  HIT:          0  MISS:      14867  HIT %:          0  MISS %:        100  MPKI: 0.29734


PSCL2 TOTAL     ACCESS:      27750  HIT:      13814  MISS:      13936  HIT %:    49.7802  MISS %:    50.2198   MPKI: 0.27872
PSCL2 LOAD TRANSLATION INSTRUCTION	ACCESS:       2324  HIT:       2050  MISS:        274  HIT %:      88.21  MISS %:      11.79  MPKI: 0.00548
PSCL2 TRANSLATION FROM L1D PREFETCHER INSTRUCTION	ACCESS:      23484  HIT:      11764  MISS:      11720  HIT %:    50.0937  MISS %:    49.9063  MPKI: 0.2344
PSCL2 LOAD TRANSLATION DATA	ACCESS:       1898  HIT:          0  MISS:       1898  HIT %:          0  MISS %:        100  MPKI: 0.03796
PSCL2 TRANSLATION FROM L1D PREFETCHER DATA	ACCESS:         44  HIT:          0  MISS:         44  HIT %:          0  MISS %:        100  MPKI: 0.00088


LLC TOTAL     ACCESS:    1090542  HIT:    1059027  MISS:      31515  HIT %:    97.1102  MISS %:    2.88985   MPKI: 0.6303
LLC LOAD INSTRUCTION	ACCESS:     318485  HIT:     317717  MISS:        768  HIT %:    99.7589  MISS %:   0.241142  MPKI: 0.01536
LLC PREFETCH INSTRUCTION	ACCESS:     201482  HIT:     200841  MISS:        641  HIT %:    99.6819  MISS %:   0.318143  MPKI: 0.01282
LLC LOAD TRANSLATION INSTRUCTION	ACCESS:        201  HIT:        157  MISS:         44  HIT %:    78.1095  MISS %:    21.8905  MPKI: 0.00088
LLC TRANSLATION FROM L1D PREFETCHER INSTRUCTION	ACCESS:       1544  HIT:       1532  MISS:         12  HIT %:    99.2228  MISS %:   0.777202  MPKI: 0.00024
LLC LOAD DATA	ACCESS:     125009  HIT:     121027  MISS:       3982  HIT %:    96.8146  MISS %:    3.18537  MPKI: 0.07964
LLC RFO DATA	ACCESS:      83032  HIT:      68759  MISS:      14273  HIT %:    82.8102  MISS %:    17.1898  MPKI: 0.28546
LLC PREFETCH DATA	ACCESS:     232260  HIT:     220859  MISS:      11401  HIT %:    95.0913  MISS %:    4.90872  MPKI: 0.22802
LLC WRITEBACK DATA	ACCESS:     127003  HIT:     126728  MISS:        275  HIT %:    99.7835  MISS %:    0.21653  MPKI: 0.0055
LLC LOAD TRANSLATION DATA	ACCESS:       1506  HIT:       1390  MISS:        116  HIT %:    92.2975  MISS %:    7.70252  MPKI: 0.00232
LLC TRANSLATION FROM L1D PREFETCHER DATA	ACCESS:         20  HIT:         17  MISS:          3  HIT %:         85  MISS %:         15  MPKI: 6e-05

LLC AVERAGE MISS LATENCY: 159.73 cycles
LLC RQ	ACCESS:     529811	FORWARD:          0	MERGED:          0	TO_CACHE:     529797
LLC WQ	ACCESS:     127003	FORWARD:         15	MERGED:          0	TO_CACHE:     127003
LLC PQ	ACCESS:     433743	FORWARD:          0	MERGED:          0	TO_CACHE:     433742

LLC Dense regions hint to LLC: 0

RAW hits: 1807974
Loads Generated: 12633122
Loads sent to L1D: 10825146
Stores Generated: 6943288
Stores sent to L1D: 6943304
Major fault: 0 Minor fault: 2620
Allocated PAGES: 2620
CPU 0 L1I prefetcher final stats
USEFUL PREFETCHES 1269738
USELESS PREFETCHES 1627246
MISSES TRACKED 2259706
MISSES OMITTED 2447484
2259706 2287316 4676203BRANCHES PENDING
22888925/32595399
To predecode: 9388946 predecoding_something: 353806665

stream: 
stream:times selected: 1191035
stream:pref_filled: 119184
stream:pref_useful: 22584
stream:pref_late: 7833
stream:misses: 8122
stream:misses_by_poll: 0

CS: 
CS:times selected: 180246
CS:pref_filled: 54434
CS:pref_useful: 31097
CS:pref_late: 11812
CS:misses: 21270
CS:misses_by_poll: 4

CPLX: 
CPLX:times selected: 1009559
CPLX:pref_filled: 19335
CPLX:pref_useful: 4040
CPLX:pref_late: 3531
CPLX:misses: 94182
CPLX:misses_by_poll: 3

NL_L1: 
NL:times selected: 20420
NL:pref_filled: 670
NL:pref_useful: 292
NL:pref_late: 313
NL:misses: 1755
NL:misses_by_poll: 0

total selections: 2401260
total_filled: 94749
total_useful: 34311
total_late: 24920
total_polluted: 7
total_misses_after_warmup: 770951
conflicts: 5597014

test: 118481

DRAM Statistics
 CHANNEL 0
 RQ ROW_BUFFER_HIT:      11351  ROW_BUFFER_MISS:      19878
 DBUS_CONGESTED:          9
 WQ ROW_BUFFER_HIT:       1616  ROW_BUFFER_MISS:      13134  FULL:          0

 AVG_CONGESTED_CYCLE: 3

CPU 0 Branch Prediction Accuracy: 99.809% MPKI: 0.34944 Average ROB Occupancy at Mispredict: 142.395
Branch types
NOT_BRANCH: 40853334 81.7067%
BRANCH_DIRECT_JUMP: 548608 1.09722%
BRANCH_INDIRECT: 183227 0.366454%
BRANCH_CONDITIONAL: 6182965 12.3659%
BRANCH_DIRECT_CALL: 944369 1.88874%
BRANCH_INDIRECT_CALL: 171449 0.342898%
BRANCH_RETURN: 1115824 2.23165%
BRANCH_OTHER: 0 0%

DRAM PAGES: 1048576
Allocated PAGES: 2620
Average_ROB_Occupancy: 144.538
Average_Decode_Occupancy: 17.8498
Average_FTQ_Occupancy: 7.87163
Indirect max targets: 14 Average targets: 1.17778
Branch_type:  BRANCH_DIRECT_JUMP:  Count Percentage: 3.39792 6.82409 4.04421 9.43577 1.69504 5.9665 1.01495 67.6215 
Branch_type:  BRANCH_INDIRECT:  Count Percentage: 11.7555 3.44574 2.56616 0 1.33234 9.70081 19.2401 51.9593 
Branch_type:  BRANCH_CONDITIONAL:  Count Percentage: 21.0562 3.09802 1.85264 9.04357 1.19632 4.79893 1.85577 57.0985 
Branch_type:  BRANCH_DIRECT_CALL:  Count Percentage: 0.754216 1.26775 1.46163 5.13768 2.44078 2.36341 0.649048 85.9255 
Branch_type:  BRANCH_INDIRECT_CALL:  Count Percentage: 9.54649 0.577008 2.99168 4.85096 0.999173 1.71233 1.28841 78.034 
Branch_type:  BRANCH_RETURN:  Count Percentage: 3.97085 0.69828 1.40967 9.54713 2.65258 6.20265 3.04355 72.4753 
Branch_type:  BRANCH_DIRECT_JUMP:  Total Count: 37292 74894 44385 103557 18603 65482 11139 742142 
Branch_type:  BRANCH_INDIRECT:  Total Count: 43075 12626 9403 0 4882 35546 70500 190391 
Branch_type:  BRANCH_CONDITIONAL:  Total Count: 2603064 382991 229031 1118006 147894 593265 229419 7058770 
Branch_type:  BRANCH_DIRECT_CALL:  Total Count: 14214 23892 27546 96825 45999 44541 12232 1619357 
Branch_type:  BRANCH_INDIRECT_CALL:  Total Count: 32676 1975 10240 16604 3420 5861 4410 267097 
Branch_type:  BRANCH_RETURN:  Total Count: 88461 15556 31404 212687 59093 138180 67803 1614575 
Number of unique branch instructions: 10784
Upper 32 bits: 
aaaa
ffff
ffff0000
Unique upper 32 bits: 3
Unique upper 36 bits: 3
Unique upper 40 bits: 5
Unique upper 44 bits: 32
Unique upper 48 bits: 158
Offset_3 4456
Offset_4 260
Offset_5 483
Offset_6 544
Offset_7 645
Offset_8 584
Offset_9 514
Offset_10 421
Offset_11 351
Offset_12 327
Offset_13 241
Offset_14 247
Offset_15 194
Offset_16 229
Offset_17 165
Offset_18 152
Offset_19 265
Offset_20 144
Offset_21 235
Offset_22 409
Offset_23 241
Offset_24 353
Offset_25 117
Offset_47 94
Offset_64 3
decode_dispatch_called: 20844903 49.1576
Dispatch_width: 0 10642067 51.0536 25.0967
Dispatch_width: 1 568033 2.72505 1.33957
Dispatch_width: 2 665369 3.192 1.56911
Dispatch_width: 3 420057 2.01515 0.990601
Dispatch_width: 4 2078951 9.97343 4.90269
Dispatch_width: 5 297617 1.42777 0.701856
Dispatch_width: 6 6172809 29.613 14.5571
Empty_decode_cycles: 21559351 50.8424
ROB_full_cycles: 3159919 7.45189
Starvation_cycles_per_kilo_instr: 330.715
Starvation_cycles_per_kilo_instr_3: 306.95
Starvation_cycles_per_kilo_instr_0: 290.415
Branch_type_1  (3,1)  (4,9)  (5,39)  (6,75)  (7,127)  (8,149)  (9,136)  (10,111)  (11,79)  (12,55)  (13,11)  (14,2)  (15,3)  (16,4)  (18,1)  (19,5)  (20,2)  (21,1)  (22,3)  (23,2)  (24,10)  (25,12) 
Branch_type_2  (3,1)  (4,1)  (5,1)  (8,4)  (9,4)  (10,1)  (12,1)  (13,1)  (14,1)  (16,3)  (17,2)  (20,2)  (21,2)  (23,5)  (24,1)  (47,43) 
Branch_type_3  (3,4454)  (4,250)  (5,439)  (6,452)  (7,486)  (8,363)  (9,279)  (10,169)  (11,138)  (12,63)  (13,10)  (64,1) 
Branch_type_4  (6,4)  (7,8)  (8,27)  (9,57)  (10,67)  (11,69)  (12,117)  (13,102)  (14,112)  (15,92)  (16,101)  (17,76)  (18,65)  (19,128)  (20,73)  (21,124)  (22,215)  (23,136)  (24,208)  (25,101)  (64,1) 
Branch_type_5  (8,3)  (9,1)  (10,4)  (11,5)  (12,3)  (13,14)  (14,16)  (15,11)  (16,22)  (17,11)  (18,23)  (19,14)  (20,11)  (21,13)  (22,43)  (23,26)  (24,38) 
Branch_type_6  (5,4)  (6,13)  (7,24)  (8,38)  (9,37)  (10,69)  (11,60)  (12,88)  (13,103)  (14,116)  (15,88)  (16,99)  (17,76)  (18,63)  (19,118)  (20,56)  (21,95)  (22,148)  (23,72)  (24,96)  (25,4)  (47,51)  (64,1) 
Unique trigger count: 
BTB PER SET UNIQUE ADDR: 3 4 3 3 1 1 3 2 4 0 2 0 5 3 1 3 3 2 4 5 3 4 2 3 4 5 1 3 3 2 6 6 4 4 5 2 1 6 5 2 4 4 4 7 6 4 4 4 6 3 3 2 3 1 0 3 4 3 3 3 1 4 2 3 1 4 5 4 3 5 5 1 1 4 2 3 3 7 2 4 2 3 1 4 3 4 2 5 3 3 6 5 3 5 3 0 4 4 2 3 4 4 3 3 4 2 1 2 3 2 2 2 3 6 2 6 2 5 4 1 5 4 2 0 1 2 2 2 7 6 6 2 3 3 6 4 2 2 3 3 5 4 4 3 2 4 3 5 5 5 3 9 3 5 4 1 4 4 4 3 5 6 5 4 7 5 2 2 9 3 2 3 5 3 1 2 4 5 6 1 3 4 7 4 7 6 4 1 2 3 5 3 3 4 4 4 4 3 2 5 3 2 3 2 3 3 2 5 3 1 2 4 5 3 4 2 2 5 3 0 1 3 2 4 3 2 4 3 0 4 8 4 2 4 4 4 5 2 2 3 1 0 6 4 11 7 1 3 4 3 3 1 1 4 2 7 3 5 4 3 4 4 4 2 3 7 3 2 4 2 3 2 2 3 4 2 2 1 3 3 4 3 5 2 5 5 3 3 1 1 0 3 1 6 2 1 4 3 2 2 3 3 2 2 4 2 4 2 7 5 4 1 3 2 5 2 7 6 2 3 4 6 3 5 2 3 2 7 1 1 5 0 2 5 5 2 4 5 6 0 4 0 1 5 5 3 1 6 5 5 4 8 6 3 5 3 2 0 5 1 2 6 2 4 7 5 1 1 2 2 3 2 3 4 4 4 3 4 3 4 6 3 2 6 3 2 6 2 6 2 5 5 4 2 3 1 5 1 1 3 4 2 5 2 2 4 4 3 1 1 1 4 6 4 2 3 6 3 1 3 1 1 4 4 5 6 3 0 2 6 2 2 9 3 5 5 3 3 4 0 3 4 5 4 5 6 2 4 3 2 4 3 1 3 5 1 1 4 7 3 3 3 4 6 2 3 6 3 3 3 0 4 5 3 3 1 4 5 2 1 2 1 2 2 0 4 3 0 7 1 5 2 3 5 0 6 3 3 3 1 5 1 1 2 1 2 2 2 2 3 3 2 5 8 2 1 2 5 4 6 4 4 4 3 6 6 1 6 6 4 5 3 4 6 4 4 2 2 4 1 2 5 6 3 6 2 8 3 7 9 4 6 3 6 1 3 3 1 4 4 7 3 5 3 2 1 4 3 3 7 3 2 3 7 2 2 3 4 1 5 5 2 2 0 1 0 0 9 5 3 6 8 2 2 3 3 6 2 4 2 6 2 6 7 2 4 4 4 2 2 5 3 3 2 2 3 2 0 3 1 5 4 8 2 2 5 3 5 2 3 5 4 3 3 5 5 3 5 3 3 8 1 4 4 1 0 4 4 3 4 3 2 5 2 3 0 5 3 2 3 6 2 6 4 6 4 5 3 2 4 5 5 4 3 6 6 3 3 3 3 4 2 5 2 6 3 5 3 4 3 1 5 2 3 3 3 6 4 5 5 0 6 0 3 3 3 4 1 3 1 3 3 3 2 2 1 8 2 0 3 2 0 1 1 1 3 1 4 2 4 6 5 2 2 3 4 8 3 2 2 2 3 2 4 2 3 4 2 3 2 0 2 1 4 2 2 3 6 4 1 3 3 1 5 4 4 8 3 2 2 5 4 0 3 3 4 5 2 1 3 4 4 0 3 8 6 3 4 0 3 2 4 2 1 5 7 7 2 2 4 5 3 5 3 5 3 3 5 2 3 1 4 4 1 5 4 1 2 0 4 5 2 5 2 2 2 4 2 4 4 3 1 3 2 5 2 2 2 5 3 2 2 3 4 2 4 7 5 5 2 6 3 5 4 5 5 3 2 4 4 2 6 2 1 9 3 3 4 5 3 1 3 3 6 4 0 2 3 5 4 3 6 5 5 6 3 2 3 3 5 5 3 4 4 3 2 6 4 3 2 5 2 1 4 5 5 5 5 3 5 5 4 1 3 1 5 0 2 6 2 6 5 5 3 4 1 3 2 5 8 5 4 9 7 6 4 6 5 2 7 4 2 1 4 4 6 5 5 4 4 7 1 5 5 2 4 6 6 4 2 3 3 4 5 2 6 9 5 6 3 3 4 0 6 7 1 7 5 1 3 7 5 3 5 2 1 2 5 4 2 5 4 2 7 5 5 4 5 3 5 3 3 5 2 3 5 4 3 3 3 5 3 4 4 6 2 5 3 2 5 5 2 10 5 3 3 3 2 2 3 4 7 6 2 3 2 3 2 3 1 3 2 4 4 3 4 6 5 4 6 0 3 3 4 4 4 2 1 3 2 3 1 2 1 4 1 3 3 3 5 2 8 5 3 2 1 10 1 2 4 1 2 6 5 3 7 3 5 5 6 3 5 3 2 1 1 5 1 4 4 3 8 4 1 7 4 6 2 3 4 5 3 5 8 4 4 6 1 4 5 7 4 3 3 4 3 6 6 3 6 6 6 4 3 5 5 1 2 4 5 1 3 2 1 3 5 2 3 5 2 2 5 4 2 5 1 7 3 3 2 3 1 3 5 3 4 3 4 2 6 2 3 7 3 5 5 4 5 2 8 3 5 3 8 6 2 7 1 5 2 1 2 4 4 3 1 3 5 3 1 2 3 4 4 3 3 3 4 2 5 2 5 4 5 0 5 3 3 2 6 8 1 8 0 1 4 5 2 5 1 4 3 4 1 1 2 4 5 3 4 1 4 4 6 5 1 4 3 3 6 10 4 3 7 6 5 1 1 3 5 6 3 2 2 4 3 4 4 5 3 0 4 2 3 6 8 5 3 3 5 1 2 6 3 4 1 3 2 6 8 3 3 3 3 4 5 2 5 6 6 5 2 1 5 4 2 4 3 4 4 4 4 7 3 5 4 3 5 5 3 1 7 4 4 3 3 3 2 3 2 2 2 5 4 3 3 5 2 1 3 3 8 5 2 3 4 2 4 3 3 4 3 2 0 4 2 3 2 4 3 4 4 2 1 2 6 1 5 2 4 2 3 7 1 1 5 5 3 3 4 5 2 3 4 5 5 4 4 4 3 3 3 2 3 5 2 4 1 4 0 8 3 3 6 4 4 5 7 3 2 3 3 2 3 4 1 4 2 4 3 0 5 1 6 3 3 3 5 3 2 5 3 4 2 4 1 6 3 0 3 3 1 1 4 1 5 3 3 6 3 2 2 2 3 2 2 7 2 3 5 3 3 3 4 2 2 5 0 2 3 4 3 2 2 2 0 3 0 4 2 4 4 2 3 2 1 2 6 4 2 6 1 3 4 2 2 5 5 2 2 6 0 1 2 3 1 1 2 3 3 5 3 1 1 8 2 1 4 1 6 1 4 3 3 6 2 4 2 1 3 3 1 2 3 5 2 3 3 1 3 0 5 2 3 3 0 4 3 5 3 5 3 3 4 2 3 2 2 2 3 5 0 2 3 3 3 4 1 3 3 2 10 7 2 3 2 4 1 1 3 6 2 3 0 3 2 4 2 3 5 6 6 8 0 4 2 8 4 4 5 4 8 2 4 8 3 0 6 4 3 3 5 3 3 2 1 2 5 2 2 3 3 2 3 6 3 5 4 6 1 1 5 6 3 3 5 5 4 6 2 5 5 2 6 4 3 3 2 3 6 5 3 2 3 3 3 4 4 2 3 3 2 3 1 3 8 0 2 2 3 3 4 5 3 4 2 5 1 2 2 6 2 4 5 7 1 1 7 3 4 3 3 4 8 2 3 2 4 7 3 5 3 5 3 5 10 4 4 3 5 2 5 4 3 2 3 1 2 3 4 4 3 2 4 3 5 4 2 4 9 0 3 2 4 4 4 3 4 3 6 4 5 1 5 3 3 4 3 3 0 3 5 0 7 2 6 6 1 4 3 2 0 4 2 3 5 3 6 2 3 2 2 3 5 6 1 4 3 0 3 2 4 5 3 2 3 5 2 3 2 6 4 4 1 5 3 0 2 4 1 1 8 2 0 4 2 4 3 2 3 6 3 3 6 1 5 4 6 2 6 5 3 3 2 7 1 4 1 3 3 4 4 3 4 2 1 2 5 0 3 0 3 5 6 2 2 5 2 3 3 3 1 3 2 4 2 4 2 5 3 2 3 1 2 3 3 4 2 3 4 2 1 1 3 2 5 1 5 1 6 4 3 3 2 5 1 2 3 5 4 3 4 5 6 3 3 3 4 3 2 0 3 2 0 2 1 2 2 4 2 5 2 2 3 4 1 2 4 3 2 3 9 3 2 7 7 4 2 5 2 3 6 3 4 5 3 4 1 2 4 6 4 2 4 3 2 5 3 5 7 4 3 0 4 1 0 2 3 0 4 4 6 1 3 4 7 5 0 2 2 4 3 5 2 3 3 8 3 2 3 3 7 2 7 3 3 7 0 1 3 1 4 4 2 0 2 3 4 6 5 1 0 3 4 6 1 1 1 3 6 2 1 5 5 3 3 5 4 1 6 3 6 1 1 2 2 2 2 5 1 3 3 3 3 4 1 5 3 4 3 4 2 1 3 6 4 4 0 
BTB PER SET COUNT: 3 4 3 1483 2 2 871 2 4 0 2 0 3918 7 1 3 3 25 1467 4966 3 493 2 3 11 6847 1 4 1465 3 3444 2476 11 4 6358 87 2926 3248 4170 2 5 5667 9 2253 5783 4 4 4 1576 3 2032 3448 3 1 0 3 5 3 3 884 6 4 971 487 1 374 428 5 3 1076 1491 2937 1 9112 2 988 1465 804 4 11 2 4 2 4 4 6 2 9 3 3 3059 2425 3 3823 3 0 944 8 2 3 523 1696 3876 3 4 2 1 2942 93 2 2 2 102 2488 2632 2541 805 1467 4 1 6 5 2 0 2 2 5 3 2987 11 18900 2 4133 5 986 4 1824 2 330 3 4966 5 5 3 9 11 5 4309 8 2316 3 7166 3 10280 68 1 4 4 1026 9185 4728 1776 6 1467 17 1946 20 2 13865 242 2 3 576 34 1 5649 4 8 991 9 479 104 7716 241 4332 2376 1436 1 2 4 29 3 3 7 1003 3046 21 3 243 3179 4321 938 1095 2 4 3 2 1481 2730 1 854 27 13 3 4 1776 2 632 8104 0 1 864 2 4 4625 2 75 58 0 864 14075 5 2 32 981 4 8 48 2 3 1 0 2472 4 9202 6044 744 3 5 3 5648 1 1 870 2 4066 5 11 4 4 763 788 1629 2 1831 1640 3 13534 26 3 3 2 3 3 1922 6576 2 1 3 526 79472 3 1979 14833 798 10958 3 4 1 1 0 1900 1 37 3 3661 981 3366 3 2 3 3 2 2 4 2 12 2 1983 1062 2456 9799 3 2 1957 2 2476 1334 2 4 413 2285 3 8 2 3 2 542 1 1 3613 0 2 13 1514 4 1018 196 2475 0 4 0 1 995 993 1466 1 7 3379 71 4 593 4424 13483 1006 3048 2 0 6 1 3 2938 1565 4 2659 1460 948 64 496 2 3385 2 3 4 6 2955 1269 2948 988 5 28 4 2 92050 69 2 1121 2 10 300 2927 594 2447 484 4 1 5233 1 1 3 1488 2 6 2 2 2220 2105 3 1 969 1 2994 377 5 970 1468 2900 1014 1 90 1 1 4 39 1520 9 36 0 2 7 3058 3102 8750 3 3936 5633 3 3 4361 0 3 499 3735 380 21 2499 3054 2496 3 1931 973 3 1 4 2452 2 1 4 5338 3 4 3 4 3041 2 1581 2684 3 4 6056 0 648 23 496 4 1 58 1064 2 1 2680 1 1489 4880 0 3688 14 0 517 1 8 2 1983 984 0 38 8 2063 3 1 3279 6 1 2 1 3 2 483 219 3 5 2 8 533 5 1806 1466 5396 6 503 5 1470 1767 14 1297 4279 1 1963 4944 4 6 5267 24 1028 1468 509 2 5 7 1 2 1486 180 716 1876 11 80 3 999 13650 4361 2097 8959 2957 1 3 7 1 1465 1146 16543 3 1959 4 2 1 4 1805 3 3927 139 3 3 6364 2 2 1007 1012 2 25 1595 35 3 0 1 0 0 6582 7844 3 2017 2978 3 4 971 735 2102 2 1645 2 3640 733 2982 5674 2 5 4 1465 4 2 2502 3 3 2 977 3 3387 0 2499 149 11 500 3459 4415 7 5 3 15 2 3068 4645 6672 3 13 3283 6 3 2104 3 3 2978 1 4 4 1 0 5 8 11 6 5 2 1762 487 4 0 8 601 649 3 17065 46 51 6 1980 6 5091 1014 2 4 6230 6 6450 6 1492 3025 404 3 5 448 5108 2002 5 989 6137 3 1989 1465 4 1467 15 2655 4 3 3576 3 5853 10 4875 41 0 2959 0 1102 3 991 4 1 1401 2 3 4 4 2 989 1 2472 982 0 3 2 0 1 1 1 5 1 1995 1435 5 5624 7244 970 2 3 486 15 399 4 2517 2 3 4553 6465 2 3 509 3 3 1967 0 2 1 9 2 18 2108 7856 2410 1 3 2175 1 33 676 4 9054 3 3 1224 8 714 0 150 4 896 2858 4 1 8256 4 5 0 1053 4542 4828 7 1947 0 5 3 1557 2 1 6 2002 3421 1358 2 7 8416 2283 224 1234 2224 4 5 22 2 890 1 1411 6 1 22 5 5 3 0 4 7 4590 2655 2 2036 1463 5 2 250 3190 50336 1 1588 2 4544 3 15 2 2632 6070 3 2 3 9206 2 15 2029 2103 16 3 3992 3778 1961 15 2852 9 7 2 55 4 2 6282 4 1 6330 971 31 4 2714 775 1 978 1470 4373 4 0 4 1472 22 4 248 6271 6 3939 1184 3 2 340 1465 7 7 3 347 55 3 3 3954 4 3 996 1701 2 1 2327 28005 3746 7 4234 3 3273 3121 4 1 3 1 5730 0 2 1492 2417 48 49 1469 31 11 1471 980 2 4397 3208 8 500 6837 3831 9117 2663 2373 167 4 37 4 627 1 972 6 6377 1320 2420 53 4 823 1 7621 299 4334 4 8313 2007 12 2 972 508 498 4820 5 4820 2565 4061 8459 1472 5050 4 0 1152 9589 1 7291 3503 1 22 6885 759 496 7 2 4 2 7 6 5865 2341 8162 2 7689 487 9 4 4916 3 1433 6 5 6 3196 3 4796 5 10 3 1371 3751 2771 6720 1342 1776 3 879 6 2 7 2829 2047 5623 1517 3 200 4 2 2 3 4 5366 1963 6 977 5 3 2 3 3 3 2 997 1809 3 4 11 1988 7837 7090 0 3 3 4 1467 376 777 6 6 3 329 1 5 1 4 1 3 3 3 11 1619 4450 2991 12563 2 2 14147 1 2 6 1000 2345 3944 1068 970 5312 2482 24 6 3073 4 3487 3 2 2 1 4888 1 3047 4 3 13803 1487 1 3543 2876 3607 63 498 4 3852 1050 2448 2934 4 3903 2480 477 8 6 10719 6 3 1661 4 3 6919 2463 3023 4445 19154 3691 7 3 471 7 1 4 4 13597 2262 3 2 1 3 8 585 4 522 2 2022 62 6 4882 1977 26 5568 4 738 229 3 1 9 3665 3 17975 4 4 3 23 2 12 1704 3958 6 6106 4 9138 2 5971 3 2320 3 4330 9771 2 5297 3763 660 3317 1251 2 508 496 3 1231 2549 3177 3 1 2 497 3017 6499 3 971 2381 24 1861 1495 1896 2966 4 3982 0 2698 3 3 14 41 16647 1 299 0 1 4 3643 3 24 1 976 986 19 1 1 2 3219 2507 3 1419 520 1201 19 14869 11445 1 4182 754 4 3054 10744 1956 4183 8612 4344 3142 1 1 268 1958 2469 2839 2 2 2112 4 11 4 2423 3 0 1263 22464 3 3376 29609 7253 4 5 558 1 2 35 3 4 1 3 703 6412 8227 971 3 3 3 994 25 2 4592 1989 3988 981 750 1 4128 3828 2 3726 4453 4 4 1402 1120 7430 1979 1982 2928 496 3819 2471 12 1730 20677 4 3628 3 3 3 4 3 2 2 2 18 1606 3 30 1542 2 1 4285 979 4481 6942 12 318 4 2 4 3 1282 5 3 3 0 4 6955 6023 2 5008 6592 588 4 2 4928 457 7239 1 8676 2 4 3 3 1645 1 1 9 9 971 3 1716 2465 2 1422 1966 7 9183 4 5 4 3 3 6703 3 3249 4449 3 4 1 2118 0 13109 2111 3 2938 559 4 2468 9382 2383 2 3 1035 2 174 71 1 4989 1438 1469 5 0 19417 1 82 4 4 3029 230 4 2 5358 2317 4 1340 1068 1 521 4 0 3 242 1 1 1342 1 15047 3 3 6183 1294 3 2 2 4490 2 2 2933 2 3 683 3 3 2070 972 2 4239 931 0 4 1627 4 1590 2 2 2 0 4 0 3395 2 3007 1681 2 2810 979 491 12 10 5467 2 15432 1 3 128 2 496 11 284 4464 2 23578 0 1 2 233 4534 1 2 21166 5 2087 381 1 1 2047 2 508 4 1 7068 1 4 4 354 1963 11 5370 111 1 5 3 1 3 7 1469 3 3 4 1 3 0 6074 2 3 6 0 5326 2679 3209 4 6267 3 3 2005 2 39 2 1457 2 3 8 0 2 3 3 3 8965 1 1196 973 2 4523 2969 7122 7 1465 992 1 1 3 1765 2 995 0 2616 2 7 3 2022 3772 2448 22 5812 0 221 2 2956 4 1458 7379 1485 3466 2 733 8779 492 0 5910 6213 3 5 4435 1717 243 2 1 2 975 2325 1325 3 956 2 243 3357 5 3990 510 9451 2963 1 1222 38014 5 4 5870 12 1699 6347 4 2560 1982 2502 2481 3091 266 373 2 1936 2982 15 4148 6 10391 1826 3 1985 16 2 9 3 3 3744 1 34 2636 0 2 2 1731 2198 5 3116 738 1049 3573 8416 2 2 6 3266 2 3301 3094 3031 1 1 6307 3 1054 3 4 994 1987 507 3 3171 3290 2949 3 501 4 4652 3 7 9820 228 4 14634 2969 2885 1961 1468 15 2 25 1 3 3 252 16878 1473 2 1332 3 92 1270 7852 206 3988 0 1466 2 1466 3285 5 3 4 3457 3630 74 3032 1 2473 7 4 9 4 3 0 496 4526 0 5304 551 1218 2477 743 873 4 2 0 3369 2 6 8965 4 8648 2 4 3 3 3 5647 7285 1 38 11398 0 3 244 9612 3369 971 2 3 1966 2 3 4 7191 4 4 507 10454 995 0 2 498 1463 1 6545 1385 0 8376 517 5 5 4 2103 3398 4 449 7985 1 4192 6400 4915 216 1959 1985 3 3 2 10874 4270 6785 1 3 1476 818 4 4 3116 1888 1 2 498 0 3244 0 3 2883 4240 32 2 2138 1118 1433 8 971 1 15661 2 6 6413 4 577 150 3 6325 3 101 2 1739 3 5 2712 3 4 2 1 1 126 2 1380 1 8 2576 11085 491 3 1038 9 39 1 1980 3658 731 2382 497 1013 1460 8222 7 17689 3 4 3 2 0 3 2 0 2 1 240 475 4 284 2470 2 3 3 4 1 2 999 4 7 1434 3276 12 387 3726 5442 849 5 8 5 3 610 5 5 709 4 2306 2 2385 4 2562 981 2 4 3 25679 7 4 978 3367 4 4 0 4 2570 0 2357 1743 0 4 1467 1015 1 3 4 2464 7 0 2825 2 9 3 479 1441 1062 985 6661 2163 612 4 1926 2489 10 31288 2909 3 15469 0 1 47 1 5 13006 312 0 730 3022 5 1517 8 2 0 598 4757 3438 1 2 1 3 6023 2 1 7628 8 4930 16 3393 1896 1 2500 3 6109 1 14593 1231 2 2 18 493 1 3 4 1667 981 4 2454 17 3 707 3 26163 10 1 3 1901 4 4 0 
