
*** ChampSim Multicore Out-of-Order Simulator ***

Warmup Instructions: 50000000
Simulation Instructions: 50000000
Number of CPUs: 1
LLC sets: 2048
LLC ways: 16
Off-chip DRAM Size: 4096 MB Channels: 1 Width: 64-bit Data Rate: 6400 MT/s
CPU 0 runs ./micro_traces/srv567.trace.gz
.gz
ITLB has LRU replacement policy
DTLB has LRU replacement policy
STLB has LRU replacement policy
FDIP Prefetcher at L1I
L1I has LRU replacement policy
L1D has LRU replacement policy
Initialize SRRIP state for L2C
Initialize DRRIP state for LLC
Heartbeat_Variant_0 : 1332 0.325195 per_variant_size: 0 1332 0 0 0 0 0 0 0 
Heartbeat_Variant_1 : 1211 0.295654 per_variant_size: 0 596 615 0 0 0 0 0 0 
Heartbeat_Variant_2 : 1274 0.311035 per_variant_size: 0 516 340 196 222 0 0 0 0 
Heartbeat_Variant_3 : 0 0 per_variant_size: 0 0 0 0 0 0 0 0 0 
Heartbeat_Variant_0_evicts 0 : 5787 1 : 224 2 : 231 3 : 0 
Heartbeat_Variant_1_evicts 0 : 210 1 : 0 2 : 388 3 : 0 
Heartbeat_Variant_2_evicts 0 : 214 1 : 371 2 : 0 3 : 0 
Heartbeat_Variant_3_evicts 0 : 0 1 : 0 2 : 0 3 : 0 
Heartbeat CPU 0 instructions: 10000000 cycles: 2798059 heartbeat IPC: 3.57391 cumulative IPC: 3.57391 (Simulation time: 0 hr 1 min 45 sec) 
Heartbeat_Variant_0 : 1363 0.332764 per_variant_size: 0 1363 0 0 0 0 0 0 0 
Heartbeat_Variant_1 : 1245 0.303955 per_variant_size: 0 599 646 0 0 0 0 0 0 
Heartbeat_Variant_2 : 1291 0.315186 per_variant_size: 0 494 343 221 233 0 0 0 0 
Heartbeat_Variant_3 : 0 0 per_variant_size: 0 0 0 0 0 0 0 0 0 
Heartbeat_Variant_0_evicts 0 : 5605 1 : 51 2 : 85 3 : 0 
Heartbeat_Variant_1_evicts 0 : 58 1 : 0 2 : 274 3 : 0 
Heartbeat_Variant_2_evicts 0 : 73 1 : 276 2 : 0 3 : 0 
Heartbeat_Variant_3_evicts 0 : 0 1 : 0 2 : 0 3 : 0 
Heartbeat CPU 0 instructions: 20000002 cycles: 5593114 heartbeat IPC: 3.57775 cumulative IPC: 3.57583 (Simulation time: 0 hr 3 min 24 sec) 
Heartbeat_Variant_0 : 1363 0.332764 per_variant_size: 0 1363 0 0 0 0 0 0 0 
Heartbeat_Variant_1 : 1246 0.304199 per_variant_size: 0 594 652 0 0 0 0 0 0 
Heartbeat_Variant_2 : 1292 0.31543 per_variant_size: 0 494 342 230 226 0 0 0 0 
Heartbeat_Variant_3 : 0 0 per_variant_size: 0 0 0 0 0 0 0 0 0 
Heartbeat_Variant_0_evicts 0 : 5729 1 : 1 2 : 2 3 : 0 
Heartbeat_Variant_1_evicts 0 : 2 1 : 0 2 : 204 3 : 0 
Heartbeat_Variant_2_evicts 0 : 1 1 : 205 2 : 0 3 : 0 
Heartbeat_Variant_3_evicts 0 : 0 1 : 0 2 : 0 3 : 0 
Heartbeat CPU 0 instructions: 30000003 cycles: 8389199 heartbeat IPC: 3.57643 cumulative IPC: 3.57603 (Simulation time: 0 hr 5 min 5 sec) 
Heartbeat_Variant_0 : 1367 0.33374 per_variant_size: 0 1367 0 0 0 0 0 0 0 
Heartbeat_Variant_1 : 1265 0.308838 per_variant_size: 0 613 652 0 0 0 0 0 0 
Heartbeat_Variant_2 : 1329 0.324463 per_variant_size: 0 540 331 233 225 0 0 0 0 
Heartbeat_Variant_3 : 0 0 per_variant_size: 0 0 0 0 0 0 0 0 0 
Heartbeat_Variant_0_evicts 0 : 5750 1 : 138 2 : 123 3 : 0 
Heartbeat_Variant_1_evicts 0 : 134 1 : 0 2 : 326 3 : 0 
Heartbeat_Variant_2_evicts 0 : 140 1 : 320 2 : 0 3 : 0 
Heartbeat_Variant_3_evicts 0 : 0 1 : 0 2 : 0 3 : 0 
Heartbeat CPU 0 instructions: 40000002 cycles: 11185410 heartbeat IPC: 3.57627 cumulative IPC: 3.57609 (Simulation time: 0 hr 6 min 46 sec) 
Heartbeat_Variant_0 : 1365 0.333252 per_variant_size: 0 1365 0 0 0 0 0 0 0 
Heartbeat_Variant_1 : 1272 0.310547 per_variant_size: 0 622 650 0 0 0 0 0 0 
Heartbeat_Variant_2 : 1330 0.324707 per_variant_size: 0 537 334 231 228 0 0 0 0 
Heartbeat_Variant_3 : 0 0 per_variant_size: 0 0 0 0 0 0 0 0 0 
Heartbeat_Variant_0_evicts 0 : 5573 1 : 18 2 : 13 3 : 0 
Heartbeat_Variant_1_evicts 0 : 21 1 : 0 2 : 215 3 : 0 
Heartbeat_Variant_2_evicts 0 : 14 1 : 214 2 : 0 3 : 0 
Heartbeat_Variant_3_evicts 0 : 0 1 : 0 2 : 0 3 : 0 
Heartbeat CPU 0 instructions: 50000001 cycles: 13981857 heartbeat IPC: 3.57597 cumulative IPC: 3.57606 (Simulation time: 0 hr 8 min 25 sec) 

Warmup complete CPU 0 instructions: 50000001 cycles: 13981857 (Simulation time: 0 hr 8 min 25 sec) 

Cycle: 20000000 FTQ IN: 58086484 FTQ occupancy: 19.3023 DECODE IN: 58086341 DECODE occupancy: 50.2214 ROB IN: 58086281 ROB occupancy: 305.683 ROB OUT: 58086015
Heartbeat_Variant_0 : 1366 0.333496 per_variant_size: 0 1366 0 0 0 0 0 0 0 
Heartbeat_Variant_1 : 1272 0.310547 per_variant_size: 0 626 646 0 0 0 0 0 0 
Heartbeat_Variant_2 : 1349 0.329346 per_variant_size: 0 543 356 239 211 0 0 0 0 
Heartbeat_Variant_3 : 0 0 per_variant_size: 0 0 0 0 0 0 0 0 0 
Heartbeat_Variant_0_evicts 0 : 5695 1 : 124 2 : 146 3 : 0 
Heartbeat_Variant_1_evicts 0 : 121 1 : 0 2 : 309 3 : 0 
Heartbeat_Variant_2_evicts 0 : 152 1 : 312 2 : 0 3 : 0 
Heartbeat_Variant_3_evicts 0 : 0 1 : 0 2 : 0 3 : 0 
Heartbeat CPU 0 instructions: 60000001 cycles: 21405495 heartbeat IPC: 1.34705 cumulative IPC: 1.34705 (Simulation time: 0 hr 10 min 7 sec) 
Heartbeat_Variant_0 : 1369 0.334229 per_variant_size: 0 1369 0 0 0 0 0 0 0 
Heartbeat_Variant_1 : 1276 0.311523 per_variant_size: 0 629 647 0 0 0 0 0 0 
Heartbeat_Variant_2 : 1348 0.329102 per_variant_size: 0 538 363 227 220 0 0 0 0 
Heartbeat_Variant_3 : 0 0 per_variant_size: 0 0 0 0 0 0 0 0 0 
Heartbeat_Variant_0_evicts 0 : 5640 1 : 64 2 : 48 3 : 0 
Heartbeat_Variant_1_evicts 0 : 71 1 : 0 2 : 248 3 : 0 
Heartbeat_Variant_2_evicts 0 : 39 1 : 252 2 : 0 3 : 0 
Heartbeat_Variant_3_evicts 0 : 0 1 : 0 2 : 0 3 : 0 
Heartbeat CPU 0 instructions: 70000003 cycles: 28694495 heartbeat IPC: 1.37193 cumulative IPC: 1.35938 (Simulation time: 0 hr 11 min 50 sec) 
Cycle: 30000000 FTQ IN: 13711783 FTQ occupancy: 10.5806 DECODE IN: 13711888 DECODE occupancy: 27.5812 ROB IN: 13711936 ROB occupancy: 210.01 ROB OUT: 13711993
Heartbeat_Variant_0 : 1373 0.335205 per_variant_size: 0 1373 0 0 0 0 0 0 0 
Heartbeat_Variant_1 : 1279 0.312256 per_variant_size: 0 628 651 0 0 0 0 0 0 
Heartbeat_Variant_2 : 1346 0.328613 per_variant_size: 0 532 366 233 215 0 0 0 0 
Heartbeat_Variant_3 : 0 0 per_variant_size: 0 0 0 0 0 0 0 0 0 
Heartbeat_Variant_0_evicts 0 : 5636 1 : 44 2 : 38 3 : 0 
Heartbeat_Variant_1_evicts 0 : 41 1 : 0 2 : 245 3 : 0 
Heartbeat_Variant_2_evicts 0 : 38 1 : 240 2 : 0 3 : 0 
Heartbeat_Variant_3_evicts 0 : 0 1 : 0 2 : 0 3 : 0 
Heartbeat CPU 0 instructions: 80000002 cycles: 36064918 heartbeat IPC: 1.35677 cumulative IPC: 1.35851 (Simulation time: 0 hr 13 min 33 sec) 
Cycle: 40000000 FTQ IN: 13555081 FTQ occupancy: 10.7807 DECODE IN: 13555119 DECODE occupancy: 27.8552 ROB IN: 13555107 ROB occupancy: 210.198 ROB OUT: 13554964
Heartbeat_Variant_0 : 1381 0.337158 per_variant_size: 0 1381 0 0 0 0 0 0 0 
Heartbeat_Variant_1 : 1283 0.313232 per_variant_size: 0 629 654 0 0 0 0 0 0 
Heartbeat_Variant_2 : 1348 0.329102 per_variant_size: 0 511 402 216 219 0 0 0 0 
Heartbeat_Variant_3 : 0 0 per_variant_size: 0 0 0 0 0 0 0 0 0 
Heartbeat_Variant_0_evicts 0 : 5585 1 : 78 2 : 68 3 : 0 
Heartbeat_Variant_1_evicts 0 : 76 1 : 0 2 : 249 3 : 0 
Heartbeat_Variant_2_evicts 0 : 63 1 : 249 2 : 0 3 : 0 
Heartbeat_Variant_3_evicts 0 : 0 1 : 0 2 : 0 3 : 0 
Heartbeat CPU 0 instructions: 90000001 cycles: 43392091 heartbeat IPC: 1.36478 cumulative IPC: 1.36007 (Simulation time: 0 hr 15 min 19 sec) 
Cycle: 50000000 FTQ IN: 13611409 FTQ occupancy: 10.8614 DECODE IN: 13611327 DECODE occupancy: 28.0046 ROB IN: 13611351 ROB occupancy: 210.476 ROB OUT: 13611701
Heartbeat_Variant_0 : 1385 0.338135 per_variant_size: 0 1385 0 0 0 0 0 0 0 
Heartbeat_Variant_1 : 1281 0.312744 per_variant_size: 0 621 660 0 0 0 0 0 0 
Heartbeat_Variant_2 : 1347 0.328857 per_variant_size: 0 508 403 222 214 0 0 0 0 
Heartbeat_Variant_3 : 0 0 per_variant_size: 0 0 0 0 0 0 0 0 0 
Heartbeat_Variant_0_evicts 0 : 5657 1 : 19 2 : 13 3 : 0 
Heartbeat_Variant_1_evicts 0 : 16 1 : 0 2 : 213 3 : 0 
Heartbeat_Variant_2_evicts 0 : 13 1 : 212 2 : 0 3 : 0 
Heartbeat_Variant_3_evicts 0 : 0 1 : 0 2 : 0 3 : 0 
Heartbeat CPU 0 instructions: 100000001 cycles: 50750640 heartbeat IPC: 1.35896 cumulative IPC: 1.35985 (Simulation time: 0 hr 17 min 0 sec) 
Finished CPU 0 instructions: 50000000 cycles: 36768783 cumulative IPC: 1.35985 (Simulation time: 0 hr 17 min 0 sec) 

ChampSim completed all CPUs

Region of Interest Statistics

CPU 0 cumulative IPC: 1.35985 instructions: 50000000 cycles: 36768783
 Fetch stage stalled: 59.944  Sim cycles: 36768783 fetch stall cycle: 22040675
 Empty decode stage: 48.107  Sim cycles: 36768783 fetch stall cycle: 17688367
ITLB TOTAL     ACCESS:    5867308  HIT:    5373776  MISS:     493532  HIT %:    91.5884  MISS %:    8.41156   MPKI: 9.87064
ITLB LOAD TRANSLATION INSTRUCTION	ACCESS:    5744524  HIT:    5250992  MISS:     493532  HIT %:    91.4087  MISS %:    8.59135  MPKI: 9.87064
ITLB TRANSLATION FROM L1D PREFETCHER INSTRUCTION	ACCESS:     122784  HIT:     122784  MISS:          0  HIT %:        100  MISS %:          0  MPKI: 0

ITLB AVERAGE MISS LATENCY: 9.06424 cycles
ITLB RQ	ACCESS:    8005048	FORWARD:          0	MERGED:    1714948	TO_CACHE:    6290100

DTLB TOTAL     ACCESS:    9016403  HIT:    8545841  MISS:     470562  HIT %:     94.781  MISS %:    5.21895   MPKI: 9.41124
DTLB LOAD TRANSLATION DATA	ACCESS:    9016403  HIT:    8545841  MISS:     470562  HIT %:     94.781  MISS %:    5.21895  MPKI: 9.41124

DTLB AVERAGE MISS LATENCY: 9.33272 cycles
DTLB RQ	ACCESS:   13375957	FORWARD:          0	MERGED:    4322535	TO_CACHE:    9053422

STLB TOTAL     ACCESS:    1212374  HIT:    1210285  MISS:       2089  HIT %:    99.8277  MISS %:   0.172307   MPKI: 0.04178
STLB LOAD TRANSLATION INSTRUCTION	ACCESS:     493532  HIT:     493249  MISS:        283  HIT %:    99.9427  MISS %:  0.0573418  MPKI: 0.00566
STLB LOAD TRANSLATION DATA	ACCESS:     470558  HIT:     468788  MISS:       1770  HIT %:    99.6239  MISS %:   0.376149  MPKI: 0.0354
STLB TRANSLATION FROM L1D PREFETCHER DATA	ACCESS:     248284  HIT:     248248  MISS:         36  HIT %:    99.9855  MISS %:  0.0144995  MPKI: 0.00072

STLB AVERAGE MISS LATENCY: 73.6769 cycles
STLB RQ	ACCESS:    1333438	FORWARD:          0	MERGED:     121020	TO_CACHE:    1212418

STLB Hit, L1D data hit: 0
STLB Hit, L2C data hit: 0
STLB Hit, LLC data hit: 0
STLB Hit, LLC data miss: 0
STLB STLB hints to L2: 0
L1D TOTAL     ACCESS:   13120917  HIT:   12002261  MISS:    1118656  HIT %:    91.4743  MISS %:    8.52575   MPKI: 22.3731
L1D LOAD DATA	ACCESS:    6586825  HIT:    5851423  MISS:     735402  HIT %:    88.8353  MISS %:    11.1647  MPKI: 14.708
L1D RFO DATA	ACCESS:    6206075  HIT:    5918990  MISS:     287085  HIT %:    95.3741  MISS %:    4.62587  MPKI: 5.7417
L1D PREFETCH DATA	ACCESS:     328017  HIT:     231848  MISS:      96169  HIT %:    70.6817  MISS %:    29.3183  MPKI: 1.92338

L1D PREFETCH  REQUESTED:     739008  ISSUED:     739008  USEFUL:      35352  USELESS:      69154
L1D USEFUL LOAD PREFETCHES:      35352 PREFETCH ISSUED TO LOWER LEVEL:     104532  ACCURACY: 33.8193
 TIMELY PREFETCHES:      35352 LATE PREFETCHES: 8326 DROPPED PREFETCHES: 10
L1D AVERAGE MISS LATENCY: 243846 cycles
L1D RQ	ACCESS:   10716312	FORWARD:          0	MERGED:    3931904	TO_CACHE:    6621768
L1D WQ	ACCESS:    6947799	FORWARD:     162962	MERGED:     193610	TO_CACHE:    6754189
L1D PQ	ACCESS:     369665	FORWARD:          0	MERGED:          0	TO_CACHE:     369343

L1D UNIQUE REGIONS ACCESSED: 0
L1D REGIONS CONFLICTS: 0
L1D Cross Page Prefetch Requests: 6905
L1D Same Page Prefetch Requests: 751755
L1D ROI Sum of L1D PQ occupancy: 4699417
L1D PREFETCHES PUSHED FROM L2C: 0
L1I TOTAL     ACCESS:    7204172  HIT:    4443649  MISS:    2760523  HIT %:    61.6816  MISS %:    38.3184   MPKI: 55.2105
L1I LOAD INSTRUCTION	ACCESS:    6549930  HIT:    3789407  MISS:    2760523  HIT %:    57.8542  MISS %:    42.1458  MPKI: 55.2105
L1I PREFETCH INSTRUCTION	ACCESS:     654242  HIT:     654242  MISS:          0  HIT %:        100  MISS %:          0  MPKI: 0

L1I PREFETCH  REQUESTED:    1585524  ISSUED:    1585524  USEFUL:          0  USELESS:          0
L1I USEFUL LOAD PREFETCHES:          0 PREFETCH ISSUED TO LOWER LEVEL:          0  ACCURACY: -nan
 TIMELY PREFETCHES:          0 LATE PREFETCHES: 0 DROPPED PREFETCHES: 0
L1I AVERAGE MISS LATENCY: 17.1023 cycles
L1I RQ	ACCESS:    9472280	FORWARD:          0	MERGED:    2614997	TO_CACHE:    6857283
L1I PQ	ACCESS:    1585524	FORWARD:          0	MERGED:     437759	TO_CACHE:    1147765

L1BTB TOTAL     ACCESS:    5667979  HIT:    2041911  MISS:    3626068  HIT %:    36.0254  MISS %:    63.9746   MPKI: 72.5214
L1BTB BRANCH_DIRECT_JUMP	ACCESS:     548037  HIT:     144577  MISS:     403460	AVERAGE STALL: 41.1112
L1BTB BRANCH_INDIRECT	ACCESS:     182828  HIT:      66039  MISS:     116789	AVERAGE STALL: 91.9253
L1BTB BRANCH_CONDITIONAL	ACCESS:    2704926  HIT:    1412952  MISS:    1291974	AVERAGE STALL: 48.0316
L1BTB BRANCH_DIRECT_CALL	ACCESS:     944383  HIT:     106142  MISS:     838241	AVERAGE STALL: 62.1108
L1BTB BRANCH_INDIRECT_CALL	ACCESS:     171712  HIT:      21413  MISS:     150299	AVERAGE STALL: 117.697
L1BTB BRANCH_RETURN	ACCESS:    1116093  HIT:     290788  MISS:     825305	AVERAGE STALL: 43.6406
L1BTB BRANCH_OTHER ACCESS:          0  HIT:          0  MISS:          0	AVERAGE STALL: -nan
L1BTB TOTAL ROB OCCUPANCY AT BTB MISS: 2.24984

L2BTB TOTAL     ACCESS:    3600730  HIT:    3536010  MISS:      64720  HIT %:    98.2026  MISS %:    1.79741   MPKI: 1.2944
L2BTB BRANCH_DIRECT_JUMP	ACCESS:     399304  HIT:     395643  MISS:       3661	AVERAGE STALL: 41.1112
L2BTB BRANCH_INDIRECT	ACCESS:     106530  HIT:     103906  MISS:       2624	AVERAGE STALL: 91.9253
L2BTB BRANCH_CONDITIONAL	ACCESS:    1291974  HIT:    1288346  MISS:       3628	AVERAGE STALL: 48.0316
L2BTB BRANCH_DIRECT_CALL	ACCESS:     838241  HIT:     837143  MISS:       1098	AVERAGE STALL: 62.1108
L2BTB BRANCH_INDIRECT_CALL	ACCESS:     140769  HIT:     130209  MISS:      10560	AVERAGE STALL: 117.697
L2BTB BRANCH_RETURN	ACCESS:     823912  HIT:     780763  MISS:      43149	AVERAGE STALL: 43.6406
L2BTB BRANCH_OTHER ACCESS:          0  HIT:          0  MISS:          0	AVERAGE STALL: -nan
L2BTB TOTAL ROB OCCUPANCY AT BTB MISS: 126.052

L2C TOTAL     ACCESS:    4491778  HIT:    4011313  MISS:     480465  HIT %:    89.3035  MISS %:    10.6965   MPKI: 9.6093
L2C LOAD INSTRUCTION	ACCESS:    2760524  HIT:    2506804  MISS:     253720  HIT %:     90.809  MISS %:    9.19101  MPKI: 5.0744
L2C LOAD TRANSLATION INSTRUCTION	ACCESS:        319  HIT:         73  MISS:        246  HIT %:     22.884  MISS %:     77.116  MPKI: 0.00492
L2C LOAD DATA	ACCESS:     727056  HIT:     650126  MISS:      76930  HIT %:     89.419  MISS %:     10.581  MPKI: 1.5386
L2C RFO DATA	ACCESS:     287017  HIT:     230758  MISS:      56259  HIT %:    80.3987  MISS %:    19.6013  MPKI: 1.12518
L2C PREFETCH DATA	ACCESS:     192520  HIT:     117864  MISS:      74656  HIT %:    61.2217  MISS %:    38.7783  MPKI: 1.49312
L2C WRITEBACK DATA	ACCESS:     522439  HIT:     505154  MISS:      17285  HIT %:    96.6915  MISS %:    3.30852  MPKI: 0.3457
L2C LOAD TRANSLATION DATA	ACCESS:       1842  HIT:        493  MISS:       1349  HIT %:    26.7644  MISS %:    73.2356  MPKI: 0.02698
L2C TRANSLATION FROM L1D PREFETCHER DATA	ACCESS:         61  HIT:         41  MISS:         20  HIT %:    67.2131  MISS %:    32.7869  MPKI: 0.0004

L2C PREFETCH  REQUESTED:      95588  ISSUED:      95588  USEFUL:       8251  USELESS:      66961
L2C USEFUL LOAD PREFETCHES:       8251 PREFETCH ISSUED TO LOWER LEVEL:      75015  ACCURACY: 10.9991
 TIMELY PREFETCHES:       8251 LATE PREFETCHES: 359 DROPPED PREFETCHES: 0
L2C AVERAGE MISS LATENCY: 38.8557 cycles
L2C RQ	ACCESS:    3776872	FORWARD:          0	MERGED:          0	TO_CACHE:    3776822
L2C WQ	ACCESS:     522439	FORWARD:         50	MERGED:          0	TO_CACHE:     522439
L2C PQ	ACCESS:     200120	FORWARD:          0	MERGED:       3675	TO_CACHE:     196445

L2C Dense regions hint from L2: 0
PSCL5 TOTAL     ACCESS:       4206  HIT:       2103  MISS:       2103  HIT %:         50  MISS %:         50   MPKI: 0.04206
PSCL5 LOAD TRANSLATION INSTRUCTION	ACCESS:       4084  HIT:       2042  MISS:       2042  HIT %:         50  MISS %:         50  MPKI: 0.04084
PSCL5 TRANSLATION FROM L1D PREFETCHER INSTRUCTION	ACCESS:        122  HIT:         61  MISS:         61  HIT %:         50  MISS %:         50  MPKI: 0.00122


PSCL4 TOTAL     ACCESS:       3984  HIT:       1988  MISS:       1996  HIT %:    49.8996  MISS %:    50.1004   MPKI: 0.03992
PSCL4 LOAD TRANSLATION INSTRUCTION	ACCESS:       3010  HIT:       1928  MISS:       1082  HIT %:    64.0532  MISS %:    35.9468  MPKI: 0.02164
PSCL4 TRANSLATION FROM L1D PREFETCHER INSTRUCTION	ACCESS:         95  HIT:         60  MISS:         35  HIT %:    63.1579  MISS %:    36.8421  MPKI: 0.0007
PSCL4 LOAD TRANSLATION DATA	ACCESS:        854  HIT:          0  MISS:        854  HIT %:          0  MISS %:        100  MPKI: 0.01708
PSCL4 TRANSLATION FROM L1D PREFETCHER DATA	ACCESS:         25  HIT:          0  MISS:         25  HIT %:          0  MISS %:        100  MPKI: 0.0005


PSCL3 TOTAL     ACCESS:       4036  HIT:       2014  MISS:       2022  HIT %:    49.9009  MISS %:    50.0991   MPKI: 0.04044
PSCL3 LOAD TRANSLATION INSTRUCTION	ACCESS:       3036  HIT:       1954  MISS:       1082  HIT %:     64.361  MISS %:     35.639  MPKI: 0.02164
PSCL3 TRANSLATION FROM L1D PREFETCHER INSTRUCTION	ACCESS:         95  HIT:         60  MISS:         35  HIT %:    63.1579  MISS %:    36.8421  MPKI: 0.0007
PSCL3 LOAD TRANSLATION DATA	ACCESS:        880  HIT:          0  MISS:        880  HIT %:          0  MISS %:        100  MPKI: 0.0176
PSCL3 TRANSLATION FROM L1D PREFETCHER DATA	ACCESS:         25  HIT:          0  MISS:         25  HIT %:          0  MISS %:        100  MPKI: 0.0005


PSCL2 TOTAL     ACCESS:       4102  HIT:       1999  MISS:       2103  HIT %:    48.7323  MISS %:    51.2677   MPKI: 0.04206
PSCL2 LOAD TRANSLATION INSTRUCTION	ACCESS:       2221  HIT:       1938  MISS:        283  HIT %:     87.258  MISS %:     12.742  MPKI: 0.00566
PSCL2 TRANSLATION FROM L1D PREFETCHER INSTRUCTION	ACCESS:         61  HIT:         61  MISS:          0  HIT %:        100  MISS %:          0  MPKI: 0
PSCL2 LOAD TRANSLATION DATA	ACCESS:       1759  HIT:          0  MISS:       1759  HIT %:          0  MISS %:        100  MPKI: 0.03518
PSCL2 TRANSLATION FROM L1D PREFETCHER DATA	ACCESS:         61  HIT:          0  MISS:         61  HIT %:          0  MISS %:        100  MPKI: 0.00122


LLC TOTAL     ACCESS:     544035  HIT:     514453  MISS:      29582  HIT %:    94.5625  MISS %:    5.43752   MPKI: 0.59164
LLC LOAD INSTRUCTION	ACCESS:     253720  HIT:     252911  MISS:        809  HIT %:    99.6811  MISS %:   0.318855  MPKI: 0.01618
LLC LOAD TRANSLATION INSTRUCTION	ACCESS:        246  HIT:        212  MISS:         34  HIT %:    86.1789  MISS %:    13.8211  MPKI: 0.00068
LLC LOAD DATA	ACCESS:      76585  HIT:      73198  MISS:       3387  HIT %:    95.5775  MISS %:    4.42254  MPKI: 0.06774
LLC RFO DATA	ACCESS:      56243  HIT:      41077  MISS:      15166  HIT %:    73.0349  MISS %:    26.9651  MPKI: 0.30332
LLC PREFETCH DATA	ACCESS:      75015  HIT:      65262  MISS:       9753  HIT %:    86.9986  MISS %:    13.0014  MPKI: 0.19506
LLC WRITEBACK DATA	ACCESS:      80857  HIT:      80494  MISS:        363  HIT %:    99.5511  MISS %:   0.448941  MPKI: 0.00726
LLC LOAD TRANSLATION DATA	ACCESS:       1349  HIT:       1279  MISS:         70  HIT %:     94.811  MISS %:    5.18903  MPKI: 0.0014
LLC TRANSLATION FROM L1D PREFETCHER DATA	ACCESS:         20  HIT:         20  MISS:          0  HIT %:        100  MISS %:          0  MPKI: 0

LLC AVERAGE MISS LATENCY: 159.906 cycles
LLC RQ	ACCESS:     388165	FORWARD:          0	MERGED:          0	TO_CACHE:     388163
LLC WQ	ACCESS:      80857	FORWARD:          2	MERGED:          0	TO_CACHE:      80857
LLC PQ	ACCESS:      75015	FORWARD:          0	MERGED:          0	TO_CACHE:      75015

LLC Dense regions hint to LLC: 0

RAW hits: 1921951
Loads Generated: 12638263
Loads sent to L1D: 10716312
Stores Generated: 6947803
Stores sent to L1D: 6947799
Major fault: 0 Minor fault: 2539
Allocated PAGES: 2539

stream: 
stream:times selected: 1188164
stream:pref_filled: 123749
stream:pref_useful: 24280
stream:pref_late: 6640
stream:misses: 8116
stream:misses_by_poll: 0

CS: 
CS:times selected: 179608
CS:pref_filled: 59898
CS:pref_useful: 36314
CS:pref_late: 7145
CS:misses: 16956
CS:misses_by_poll: 6

CPLX: 
CPLX:times selected: 1007333
CPLX:pref_filled: 19390
CPLX:pref_useful: 4485
CPLX:pref_late: 3076
CPLX:misses: 92603
CPLX:misses_by_poll: 0

NL_L1: 
NL:times selected: 20892
NL:pref_filled: 735
NL:pref_useful: 310
NL:pref_late: 283
NL:misses: 1821
NL:misses_by_poll: 0

total selections: 2395997
total_filled: 96169
total_useful: 35352
total_late: 18702
total_polluted: 6
total_misses_after_warmup: 770349
conflicts: 5531169

test: 116618

DRAM Statistics
 CHANNEL 0
 RQ ROW_BUFFER_HIT:      10994  ROW_BUFFER_MISS:      18212
 DBUS_CONGESTED:         11
 WQ ROW_BUFFER_HIT:       1483  ROW_BUFFER_MISS:      13017  FULL:          0

 AVG_CONGESTED_CYCLE: 4

CPU 0 Branch Prediction Accuracy: 99.8221% MPKI: 0.32538 Average ROB Occupancy at Mispredict: 171.893
Branch types
NOT_BRANCH: 40855837 81.7117%
BRANCH_DIRECT_JUMP: 548037 1.09607%
BRANCH_INDIRECT: 182828 0.365656%
BRANCH_CONDITIONAL: 6180749 12.3615%
BRANCH_DIRECT_CALL: 944383 1.88877%
BRANCH_INDIRECT_CALL: 171712 0.343424%
BRANCH_RETURN: 1116093 2.23219%
BRANCH_OTHER: 0 0%

DRAM PAGES: 1048576
Allocated PAGES: 2539
Average_ROB_Occupancy: 210.752
Average_Decode_Occupancy: 27.7393
Average_FTQ_Occupancy: 10.7346
Indirect max targets: 14 Average targets: 1.14527
Branch_type:  BRANCH_DIRECT_JUMP:  Count Percentage: 4.03058 4.7638 4.93335 3.0079 3.0643 6.01234 7.27985 66.9079 
Branch_type:  BRANCH_INDIRECT:  Count Percentage: 13.7445 0.811105 2.56882 0 0 17.7484 17.4902 47.6369 
Branch_type:  BRANCH_CONDITIONAL:  Count Percentage: 26.2716 1.94536 1.54049 6.25448 1.55418 5.09184 5.62217 51.7199 
Branch_type:  BRANCH_DIRECT_CALL:  Count Percentage: 0.885198 1.47925 1.16308 2.38365 2.50939 3.52069 6.166 81.8927 
Branch_type:  BRANCH_INDIRECT_CALL:  Count Percentage: 9.52115 0 2.98392 6.41717 0 2.4763 5.11579 73.4857 
Branch_type:  BRANCH_RETURN:  Count Percentage: 10.4596 1.45934 1.49155 6.79354 1.66171 6.47524 6.53458 65.1244 
Branch_type:  BRANCH_DIRECT_JUMP:  Total Count: 44169 52204 54062 32962 33580 65886 79776 733208 
Branch_type:  BRANCH_INDIRECT:  Total Count: 50311 2969 9403 0 0 64967 64022 174372 
Branch_type:  BRANCH_CONDITIONAL:  Total Count: 3246774 240417 190382 772960 192073 629275 694816 6391804 
Branch_type:  BRANCH_DIRECT_CALL:  Total Count: 16692 27894 21932 44948 47319 66389 116271 1544234 
Branch_type:  BRANCH_INDIRECT_CALL:  Total Count: 32674 0 10240 22022 0 8498 17556 252183 
Branch_type:  BRANCH_RETURN:  Total Count: 233211 32538 33256 151471 37050 144374 145697 1452035 
Number of unique branch instructions: 9804
Upper 32 bits: 
aaaa
ffff
ffff0000
Unique upper 32 bits: 3
Unique upper 36 bits: 3
Unique upper 40 bits: 5
Unique upper 44 bits: 32
Unique upper 48 bits: 154
Variant_0 : 1385 0.338135
Variant_1 : 1281 0.312744
Variant_2 : 1347 0.328857
Variant_3 : 0 0
Offset_3 4030
Offset_4 244
Offset_5 449
Offset_6 498
Offset_7 571
Offset_8 508
Offset_9 463
Offset_10 374
Offset_11 301
Offset_12 269
Offset_13 203
Offset_14 227
Offset_15 184
Offset_16 220
Offset_17 145
Offset_18 118
Offset_19 234
Offset_20 136
Offset_21 235
Offset_22 392
Offset_23 241
Offset_24 331
Offset_25 88
Offset_47 82
Offset_64 1
decode_dispatch_called: 23642613 64.3008
Dispatch_width: 0 12501800 52.8782 34.0011
Dispatch_width: 1 809533 3.42404 2.20169
Dispatch_width: 2 742885 3.14214 2.02042
Dispatch_width: 3 463048 1.95853 1.25935
Dispatch_width: 4 4114546 17.4031 11.1903
Dispatch_width: 5 207705 0.87852 0.564895
Dispatch_width: 6 4803096 20.3154 13.063
Empty_decode_cycles: 13126170 35.6992
ROB_full_cycles: 6480985 17.6263
Starvation_cycles_per_kilo_instr: 254.847
Starvation_cycles_per_kilo_instr_3: 211.625
Starvation_cycles_per_kilo_instr_0: 191.47
Branch_type_1  (3,1)  (4,9)  (5,37)  (6,68)  (7,113)  (8,128)  (9,122)  (10,97)  (11,67)  (12,43)  (13,5)  (14,2)  (15,3)  (16,4)  (18,1)  (19,4)  (20,2)  (21,1)  (22,3)  (23,2)  (24,10)  (25,12) 
Branch_type_2  (3,1)  (5,1)  (8,3)  (9,3)  (12,1)  (13,1)  (14,1)  (16,3)  (17,2)  (20,2)  (21,2)  (23,5)  (24,1)  (47,38) 
Branch_type_3  (3,4028)  (4,235)  (5,407)  (6,415)  (7,429)  (8,316)  (9,255)  (10,151)  (11,120)  (12,50)  (13,4)  (64,1) 
Branch_type_4  (6,3)  (7,8)  (8,25)  (9,51)  (10,60)  (11,58)  (12,96)  (13,88)  (14,100)  (15,86)  (16,98)  (17,64)  (18,53)  (19,115)  (20,71)  (21,124)  (22,209)  (23,136)  (24,192)  (25,72) 
Branch_type_5  (8,2)  (9,1)  (10,3)  (11,5)  (12,3)  (13,14)  (14,16)  (15,11)  (16,20)  (17,11)  (18,16)  (19,12)  (20,10)  (21,13)  (22,42)  (23,26)  (24,37) 
Branch_type_6  (5,4)  (6,12)  (7,21)  (8,34)  (9,31)  (10,63)  (11,51)  (12,76)  (13,91)  (14,108)  (15,84)  (16,95)  (17,68)  (18,48)  (19,103)  (20,51)  (21,95)  (22,138)  (23,72)  (24,91)  (25,4)  (47,44) 
Unique trigger count: 
Variant_0_evicts_0 : 0
Variant_0_evicts_1 : 0
Variant_0_evicts_2 : 0
Variant_0_evicts_3 : 0
Variant_1_evicts_0 : 0
Variant_1_evicts_1 : 0
Variant_1_evicts_2 : 0
Variant_1_evicts_3 : 0
Variant_2_evicts_0 : 0
Variant_2_evicts_1 : 0
Variant_2_evicts_2 : 0
Variant_2_evicts_3 : 0
Variant_3_evicts_0 : 0
Variant_3_evicts_1 : 0
Variant_3_evicts_2 : 0
Variant_3_evicts_3 : 0
BTB PER SET UNIQUE ADDR: 9 12 10 13 13 10 8 10 8 11 12 14 12 12 11 10 9 10 10 14 9 12 12 10 11 12 11 8 10 7 13 14 8 9 7 11 6 10 9 11 9 10 11 12 6 8 11 6 6 10 16 12 10 9 10 8 5 7 6 8 10 16 13 14 10 9 12 8 13 7 7 11 14 6 8 6 8 14 11 10 15 6 11 11 15 11 13 6 8 18 9 6 17 10 6 15 6 7 10 12 14 10 12 7 10 10 8 11 7 6 12 15 15 8 11 7 11 11 7 8 12 8 8 9 9 15 6 10 15 10 8 14 9 11 8 15 9 11 8 11 8 12 9 8 10 10 12 7 6 14 12 13 9 12 8 14 13 9 8 14 12 11 14 10 12 11 10 11 12 8 10 10 11 9 11 10 9 10 10 13 6 9 8 10 15 17 7 10 10 10 12 10 12 11 9 12 8 16 10 13 12 13 8 7 10 10 12 10 9 8 9 14 10 14 9 8 13 7 11 10 10 14 11 9 9 11 14 9 7 15 8 5 10 11 10 13 11 13 10 7 13 7 14 7 9 10 8 9 9 8 19 10 12 8 12 9 10 9 10 9 10 9 7 10 10 6 9 8 9 10 9 12 9 4 4 7 9 13 13 7 10 11 8 11 8 9 13 15 16 13 5 13 10 13 6 16 10 14 8 15 10 10 11 13 10 13 10 6 11 11 12 14 8 10 10 6 16 11 12 14 10 13 9 8 10 13 14 10 9 8 11 12 7 11 7 12 11 9 6 17 10 12 8 8 12 9 11 9 11 10 11 7 14 10 10 15 8 10 11 5 13 12 12 12 8 11 5 14 15 10 10 10 13 12 6 15 11 12 11 11 10 8 7 7 9 15 16 8 9 10 11 8 5 14 5 6 11 4 10 9 6 8 12 12 13 11 13 14 13 12 12 5 8 15 12 10 13 11 21 15 10 9 11 8 13 12 9 10 10 8 14 12 9 13 14 11 18 7 11 9 10 8 10 7 20 8 6 9 12 13 12 9 11 12 10 16 17 15 7 15 9 11 11 15 11 8 15 11 9 11 13 14 12 9 9 18 8 13 8 10 16 9 10 12 7 10 16 14 17 7 6 9 9 11 10 10 11 12 7 8 13 12 11 15 8 7 7 17 13 9 10 19 9 8 9 10 7 12 11 10 11 12 10 9 10 10 18 10 8 10 9 9 9 6 9 8 4 10 15 13 12 9 9 15 13 9 9 7 7 11 13 12 11 10 9 8 12 13 15 11 12 11 10 9 10 8 12 13 10 19 7 14 16 15 12 14 14 12 8 12 11 11 8 8 10 9 12 10 10 6 7 12 11 11 15 9 6 12 11 10 14 12 5 4 10 14 11 9 15 8 16 11 8 10 3 16 11 9 13 11 16 9 5 7 10 15 8 11 8 13 10 10 11 10 10 8 14 10 8 16 7 10 13 15 7 9 10 14 19 9 9 11 11 11 11 12 11 10 10 11 9 6 11 14 11 9 8 12 7 9 14 7 10 14 12 6 13 13 11 11 9 11 9 7 9 13 12 12 13 10 9 10 13 6 6 10 6 15 10 14 5 9 9 19 7 12 8 13 7 9 9 12 8 7 9 8 14 12 6 9 14 9 12 8 7 8 13 10 10 10 13 8 14 7 11 14 12 6 13 9 8 12 6 9 11 14 12 10 9 11 12 7 13 8 8 8 17 9 7 4 9 5 9 13 10 7 10 12 6 11 10 15 8 7 11 8 8 13 13 10 6 14 9 11 13 12 11 9 9 6 9 7 13 11 12 14 8 9 13 10 13 10 11 10 18 12 11 9 8 11 11 16 8 13 10 15 15 11 7 14 10 13 10 13 8 10 7 10 10 10 10 12 11 8 8 13 11 10 10 6 10 15 10 10 8 14 10 15 5 8 9 10 10 12 13 11 8 8 13 9 11 10 8 10 12 6 11 8 12 12 8 13 17 12 15 6 12 10 11 12 12 9 15 14 7 10 14 8 15 13 10 10 14 11 9 11 14 8 9 6 14 10 9 10 6 15 12 9 11 14 8 10 10 12 11 8 12 18 9 11 9 11 10 10 6 11 9 11 12 9 17 15 19 11 9 11 12 12 11 15 8 15 10 11 11 7 7 11 8 12 10 15 9 11 9 10 11 8 12 12 11 9 9 11 13 13 10 14 8 12 10 10 13 11 11 9 12 14 13 15 8 13 9 13 10 9 9 11 15 12 9 9 9 10 10 7 8 11 16 10 19 13 12 12 11 12 5 12 8 12 8 14 15 6 8 7 4 9 4 8 9 19 12 7 
BTB PER SET COUNT: 354 16 1474 18 13 19 12 13 1474 13 15 508 15 1478 13 13 979 10 11 22 10 18 776 360 23 14 17 415 12 7 17 1434 8 12 10 15 6 11 14 1949 10 15 20 1481 6 13 12 6 176 13 19 376 10 16 14 10 5 9 6 10 12 26 17 18 12 11 14 9 20 7 10 793 21 6 11 7 12 19 14 11 21 9 38 57 15 69 19 7 11 26 17 846 21 16 6 15 6 974 19 13 15 447 12 9 2180 11 17 13 11 2907 18 24 28 10 17 1319 11 14 1439 337 999 8 9 11 13 22 6 1989 24 972 8 17 15 21 9 24 972 21 12 15 8 17 10 10 11 10 1149 9 7 254 26 16 9 12 8 16 56 10 10 30 15 174 20 10 126 16 15 15 13 1820 11 10 11 10 11 14 14 13 81 511 999 9 3426 14 84 33 8 13 13 12 21 13 15 13 9 52 9 90 11 215 15 17 10 9 13 12 15 11 12 1001 11 369 14 20 22 14 14 7 1531 12 11 24 158 10 15 16 16 254 7 23 12 7 12 15 1000 17 18 448 21 9 14 7 28 9 11 615 8 9 9 9 25 18 14 8 12 524 10 219 14 9 977 14 7 224 11 6 10 9 187 14 11 15 507 4 4 7 12 22 14 9 14 15 976 14 10 12 16 317 18 15 5 16 11 16 7 23 12 14 8 28 17 10 270 17 11 14 14 101 17 201 12 19 8 10 1473 335 22 15 22 19 16 6353 13 12 12 306 16 23 14 8 14 20 10 13 11 21 17 13 8 45 10 12 11 8 16 10 12 12 15 14 648 1469 16 11 10 17 9 16 230 5 19 15 15 13 9 446 5 15 22 10 11 516 18 12 10 22 14 18 14 1479 50 8 10 7 10 22 1992 9 12 1490 370 8 5 24 5 7 11 4 12 827 9 11 13 14 15 12 17 183 22 14 12 5 10 31 14 17 15 13 25 25 12 23 18 11 19 16 13 12 12 12 17 14 16 19 420 14 19 9 15 9 11 9 13 7 34 8 6 14 18 14 1004 2951 17 12 79 25 29 21 7 17 11 255 15 16 14 13 2438 13 9 19 21 24 15 11 11 22 11 1807 15 14 24 313 12 18 10 14 299 19 23 8 996 12 206 14 15 13 1460 15 8 10 18 13 11 245 13 7 9 31 27 14 270 363 276 1379 15 12 7 17 20 157 14 14 11 445 11 12 27 16 11 810 10 64 13 6 12 8 4 1005 19 448 14 9 12 15 22 9 11 8 8 979 17 20 1008 21 12 9 14 13 25 15 15 104 12 11 748 10 117 14 15 38 7 30 24 22 2440 16 73 685 9 14 13 14 18 10 12 10 509 14 13 6 11 16 13 15 26 11 6 369 17 13 14 13 5 4 15 16 14 1098 15 10 22 16 2142 10 4 27 15 12 17 16 22 10 6 996 13 21 8 11 10 18 12 15 20 12 13 8 17 994 11 23 13 14 16 27 9 11 1002 28 117 9 9 19 23 15 18 346 11 12 12 804 12 6 12 24 20495 9 19 745 1469 14 21 7 21 19 80 6 19 13 14 19 10 11 17 7 1979 19 16 15 21 11 9 12 15 7 23 12 6 132 13 17 5 15 12 21 7 20 10 18 7 11 261 14 578 8 11 11 584 17 21 225 17 90 18 19 7 10 13 13 11 2433 40 12480 16 12 17 23 1002 6 15 9 24 15 9 9 14 16 233 11 11 21 702 9 1476 1967 1145 10 25 10 11 4 12 6 11 290 28 9 14 1417 7 363 108 21 11 8 15 8 12 14 23 13 12 22 733 14 19 18 13 9 9 6 18 10 19 18 1334 17 103 9 13 184 23 12 16 15 22 13 15 9 9 12 15 7827 12 373 248 676 19 1362 7 22 15 476 11 17 164 10 9 12 13 11 12 17 13 11 128 18 14 11 1004 6 18 18 13 13 11 16 14 45 5 9 10 24 16 17 1477 15 130 8 19 9 21 13 13 14 12 8 14 11 15 19 8 39 28 12 21 6 12 10 24 16 16 11 173 15 7 10 17 9 20 19 13 1199 795 57 14 17 18 9 1946 8 19 13 23 308 8 23 13 11 14 21 11 12 10 15 44 978 24 757 9 12 10 1003 522 12 7 12 13 13 14 12 94 17 450 17 13 14 12 13 22 18 11 387 10 16 17 9 7 12 9 17 510 844 1474 17 9 14 220 12 13 14 12 16 1000 13 17 17 14 18 10 14 15 13 17 12 440 11 15 18 17 79 13 14 10 554 16 12 49 220 20 23 9 950 10 14 13 7 9 1476 21 13 30 1481 15 17 14 14 5 18 8 14 9 18 17 6 8 10 6 10 5 9 10 30 15 7 
To predecode: 0
Predecoding something: 0
Predecode request dropped: 0
sizeofblock_0 0
sizeofblock_1 35322
sizeofblock_2 37947
sizeofblock_3 39789
sizeofblock_4 22453
sizeofblock_5 0
sizeofblock_6 0
sizeofblock_7 0
sizeofblock_8 0
Variant_0 Correct: 1610353 Incorrect: 0 Accuracy: 1
Variant_1 Correct: 2087153 Incorrect: 0 Accuracy: 1
Variant_2 Correct: 3635880 Incorrect: 0 Accuracy: 1
Variant_3 Correct: 0 Incorrect: 0 Accuracy: -nan
