
*** ChampSim Multicore Out-of-Order Simulator ***

Warmup Instructions: 50000000
Simulation Instructions: 50000000
Number of CPUs: 1
LLC sets: 2048
LLC ways: 16
Off-chip DRAM Size: 4096 MB Channels: 1 Width: 64-bit Data Rate: 6400 MT/s
CPU 0 runs ./micro_traces/srv567.trace.gz
.gz
ITLB has LRU replacement policy
DTLB has LRU replacement policy
STLB has LRU replacement policy
FDIP Prefetcher at L1I
L1I has LRU replacement policy
L1D has LRU replacement policy
Initialize SRRIP state for L2C
Initialize DRRIP state for LLC
Heartbeat_Variant_0 : 1152 0.28125 per_variant_size: 0 1152 0 0 0 0 0 0 0 
Heartbeat_Variant_1 : 2595 0.633545 per_variant_size: 0 1029 1566 0 0 0 0 0 0 
Heartbeat_Variant_2 : 0 0 per_variant_size: 0 0 0 0 0 0 0 0 0 
Heartbeat_Variant_3 : 0 0 per_variant_size: 0 0 0 0 0 0 0 0 0 
Heartbeat_Variant_0_evicts 0 : 12110 1 : 15066 2 : 0 3 : 0 
Heartbeat_Variant_1_evicts 0 : 14926 1 : 0 2 : 0 3 : 0 
Heartbeat_Variant_2_evicts 0 : 0 1 : 0 2 : 0 3 : 0 
Heartbeat_Variant_3_evicts 0 : 0 1 : 0 2 : 0 3 : 0 
Heartbeat CPU 0 instructions: 10000000 cycles: 2798172 heartbeat IPC: 3.57376 cumulative IPC: 3.57376 (Simulation time: 0 hr 1 min 45 sec) 
Heartbeat_Variant_0 : 1136 0.277344 per_variant_size: 0 1136 0 0 0 0 0 0 0 
Heartbeat_Variant_1 : 2644 0.645508 per_variant_size: 0 1016 1628 0 0 0 0 0 0 
Heartbeat_Variant_2 : 0 0 per_variant_size: 0 0 0 0 0 0 0 0 0 
Heartbeat_Variant_3 : 0 0 per_variant_size: 0 0 0 0 0 0 0 0 0 
Heartbeat_Variant_0_evicts 0 : 12499 1 : 15080 2 : 0 3 : 0 
Heartbeat_Variant_1_evicts 0 : 15098 1 : 0 2 : 0 3 : 0 
Heartbeat_Variant_2_evicts 0 : 0 1 : 0 2 : 0 3 : 0 
Heartbeat_Variant_3_evicts 0 : 0 1 : 0 2 : 0 3 : 0 
Heartbeat CPU 0 instructions: 20000002 cycles: 5593294 heartbeat IPC: 3.57766 cumulative IPC: 3.57571 (Simulation time: 0 hr 3 min 23 sec) 
Heartbeat_Variant_0 : 1150 0.280762 per_variant_size: 0 1150 0 0 0 0 0 0 0 
Heartbeat_Variant_1 : 2632 0.642578 per_variant_size: 0 1002 1630 0 0 0 0 0 0 
Heartbeat_Variant_2 : 0 0 per_variant_size: 0 0 0 0 0 0 0 0 0 
Heartbeat_Variant_3 : 0 0 per_variant_size: 0 0 0 0 0 0 0 0 0 
Heartbeat_Variant_0_evicts 0 : 12119 1 : 14928 2 : 0 3 : 0 
Heartbeat_Variant_1_evicts 0 : 14914 1 : 0 2 : 0 3 : 0 
Heartbeat_Variant_2_evicts 0 : 0 1 : 0 2 : 0 3 : 0 
Heartbeat_Variant_3_evicts 0 : 0 1 : 0 2 : 0 3 : 0 
Heartbeat CPU 0 instructions: 30000003 cycles: 8389488 heartbeat IPC: 3.57629 cumulative IPC: 3.5759 (Simulation time: 0 hr 5 min 2 sec) 
Heartbeat_Variant_0 : 1139 0.278076 per_variant_size: 0 1139 0 0 0 0 0 0 0 
Heartbeat_Variant_1 : 2661 0.649658 per_variant_size: 0 1015 1646 0 0 0 0 0 0 
Heartbeat_Variant_2 : 0 0 per_variant_size: 0 0 0 0 0 0 0 0 0 
Heartbeat_Variant_3 : 0 0 per_variant_size: 0 0 0 0 0 0 0 0 0 
Heartbeat_Variant_0_evicts 0 : 12179 1 : 15100 2 : 0 3 : 0 
Heartbeat_Variant_1_evicts 0 : 15114 1 : 0 2 : 0 3 : 0 
Heartbeat_Variant_2_evicts 0 : 0 1 : 0 2 : 0 3 : 0 
Heartbeat_Variant_3_evicts 0 : 0 1 : 0 2 : 0 3 : 0 
Heartbeat CPU 0 instructions: 40000002 cycles: 11185681 heartbeat IPC: 3.57629 cumulative IPC: 3.576 (Simulation time: 0 hr 6 min 40 sec) 
Heartbeat_Variant_0 : 1144 0.279297 per_variant_size: 0 1144 0 0 0 0 0 0 0 
Heartbeat_Variant_1 : 2658 0.648926 per_variant_size: 0 974 1684 0 0 0 0 0 0 
Heartbeat_Variant_2 : 0 0 per_variant_size: 0 0 0 0 0 0 0 0 0 
Heartbeat_Variant_3 : 0 0 per_variant_size: 0 0 0 0 0 0 0 0 0 
Heartbeat_Variant_0_evicts 0 : 12242 1 : 14808 2 : 0 3 : 0 
Heartbeat_Variant_1_evicts 0 : 14804 1 : 0 2 : 0 3 : 0 
Heartbeat_Variant_2_evicts 0 : 0 1 : 0 2 : 0 3 : 0 
Heartbeat_Variant_3_evicts 0 : 0 1 : 0 2 : 0 3 : 0 
Heartbeat CPU 0 instructions: 50000001 cycles: 13982217 heartbeat IPC: 3.57585 cumulative IPC: 3.57597 (Simulation time: 0 hr 8 min 20 sec) 

Warmup complete CPU 0 instructions: 50000001 cycles: 13982217 (Simulation time: 0 hr 8 min 20 sec) 

Cycle: 20000000 FTQ IN: 57341105 FTQ occupancy: 18.6308 DECODE IN: 57341100 DECODE occupancy: 47.8502 ROB IN: 57341098 ROB occupancy: 291.242 ROB OUT: 57340796
Heartbeat_Variant_0 : 1142 0.278809 per_variant_size: 0 1142 0 0 0 0 0 0 0 
Heartbeat_Variant_1 : 2667 0.651123 per_variant_size: 0 1001 1666 0 0 0 0 0 0 
Heartbeat_Variant_2 : 0 0 per_variant_size: 0 0 0 0 0 0 0 0 0 
Heartbeat_Variant_3 : 0 0 per_variant_size: 0 0 0 0 0 0 0 0 0 
Heartbeat_Variant_0_evicts 0 : 12341 1 : 15452 2 : 0 3 : 0 
Heartbeat_Variant_1_evicts 0 : 15454 1 : 0 2 : 0 3 : 0 
Heartbeat_Variant_2_evicts 0 : 0 1 : 0 2 : 0 3 : 0 
Heartbeat_Variant_3_evicts 0 : 0 1 : 0 2 : 0 3 : 0 
Heartbeat CPU 0 instructions: 60000001 cycles: 22134311 heartbeat IPC: 1.22668 cumulative IPC: 1.22668 (Simulation time: 0 hr 9 min 55 sec) 
Cycle: 30000000 FTQ IN: 12529173 FTQ occupancy: 8.52081 DECODE IN: 12529082 DECODE occupancy: 19.8567 ROB IN: 12529024 ROB occupancy: 161.506 ROB OUT: 12528974
Heartbeat_Variant_0 : 1143 0.279053 per_variant_size: 0 1143 0 0 0 0 0 0 0 
Heartbeat_Variant_1 : 2669 0.651611 per_variant_size: 0 999 1670 0 0 0 0 0 0 
Heartbeat_Variant_2 : 0 0 per_variant_size: 0 0 0 0 0 0 0 0 0 
Heartbeat_Variant_3 : 0 0 per_variant_size: 0 0 0 0 0 0 0 0 0 
Heartbeat_Variant_0_evicts 0 : 12253 1 : 14707 2 : 0 3 : 0 
Heartbeat_Variant_1_evicts 0 : 14707 1 : 0 2 : 0 3 : 0 
Heartbeat_Variant_2_evicts 0 : 0 1 : 0 2 : 0 3 : 0 
Heartbeat_Variant_3_evicts 0 : 0 1 : 0 2 : 0 3 : 0 
Heartbeat CPU 0 instructions: 70000002 cycles: 30105562 heartbeat IPC: 1.25451 cumulative IPC: 1.24044 (Simulation time: 0 hr 11 min 27 sec) 
Heartbeat_Variant_0 : 1151 0.281006 per_variant_size: 0 1151 0 0 0 0 0 0 0 
Heartbeat_Variant_1 : 2661 0.649658 per_variant_size: 0 989 1672 0 0 0 0 0 0 
Heartbeat_Variant_2 : 0 0 per_variant_size: 0 0 0 0 0 0 0 0 0 
Heartbeat_Variant_3 : 0 0 per_variant_size: 0 0 0 0 0 0 0 0 0 
Heartbeat_Variant_0_evicts 0 : 12113 1 : 15093 2 : 0 3 : 0 
Heartbeat_Variant_1_evicts 0 : 15085 1 : 0 2 : 0 3 : 0 
Heartbeat_Variant_2_evicts 0 : 0 1 : 0 2 : 0 3 : 0 
Heartbeat_Variant_3_evicts 0 : 0 1 : 0 2 : 0 3 : 0 
Heartbeat CPU 0 instructions: 80000002 cycles: 38191664 heartbeat IPC: 1.23669 cumulative IPC: 1.23919 (Simulation time: 0 hr 13 min 1 sec) 
Cycle: 40000000 FTQ IN: 12356609 FTQ occupancy: 8.56203 DECODE IN: 12356610 DECODE occupancy: 19.8149 ROB IN: 12356670 ROB occupancy: 161.02 ROB OUT: 12356932
Heartbeat_Variant_0 : 1140 0.27832 per_variant_size: 0 1140 0 0 0 0 0 0 0 
Heartbeat_Variant_1 : 2677 0.653564 per_variant_size: 0 1004 1673 0 0 0 0 0 0 
Heartbeat_Variant_2 : 0 0 per_variant_size: 0 0 0 0 0 0 0 0 0 
Heartbeat_Variant_3 : 0 0 per_variant_size: 0 0 0 0 0 0 0 0 0 
Heartbeat_Variant_0_evicts 0 : 12156 1 : 14920 2 : 0 3 : 0 
Heartbeat_Variant_1_evicts 0 : 14931 1 : 0 2 : 0 3 : 0 
Heartbeat_Variant_2_evicts 0 : 0 1 : 0 2 : 0 3 : 0 
Heartbeat_Variant_3_evicts 0 : 0 1 : 0 2 : 0 3 : 0 
Heartbeat CPU 0 instructions: 90000001 cycles: 46221385 heartbeat IPC: 1.24537 cumulative IPC: 1.24073 (Simulation time: 0 hr 14 min 33 sec) 
Cycle: 50000000 FTQ IN: 12467227 FTQ occupancy: 8.46106 DECODE IN: 12467322 DECODE occupancy: 19.6051 ROB IN: 12467322 ROB occupancy: 159.487 ROB OUT: 12467348
Heartbeat_Variant_0 : 1148 0.280273 per_variant_size: 0 1148 0 0 0 0 0 0 0 
Heartbeat_Variant_1 : 2670 0.651855 per_variant_size: 0 989 1681 0 0 0 0 0 0 
Heartbeat_Variant_2 : 0 0 per_variant_size: 0 0 0 0 0 0 0 0 0 
Heartbeat_Variant_3 : 0 0 per_variant_size: 0 0 0 0 0 0 0 0 0 
Heartbeat_Variant_0_evicts 0 : 12439 1 : 15439 2 : 0 3 : 0 
Heartbeat_Variant_1_evicts 0 : 15431 1 : 0 2 : 0 3 : 0 
Heartbeat_Variant_2_evicts 0 : 0 1 : 0 2 : 0 3 : 0 
Heartbeat_Variant_3_evicts 0 : 0 1 : 0 2 : 0 3 : 0 
Heartbeat CPU 0 instructions: 100000001 cycles: 54356217 heartbeat IPC: 1.22928 cumulative IPC: 1.23842 (Simulation time: 0 hr 16 min 5 sec) 
Finished CPU 0 instructions: 50000000 cycles: 40374000 cumulative IPC: 1.23842 (Simulation time: 0 hr 16 min 5 sec) 

ChampSim completed all CPUs

Region of Interest Statistics

CPU 0 cumulative IPC: 1.23842 instructions: 50000000 cycles: 40374000
 Fetch stage stalled: 65.3872  Sim cycles: 40374000 fetch stall cycle: 26399416
 Empty decode stage: 52.0887  Sim cycles: 40374000 fetch stall cycle: 21030287
ITLB TOTAL     ACCESS:    5658570  HIT:    5164856  MISS:     493714  HIT %:    91.2749  MISS %:    8.72507   MPKI: 9.87428
ITLB LOAD TRANSLATION INSTRUCTION	ACCESS:    5541468  HIT:    5047754  MISS:     493714  HIT %:    91.0906  MISS %:    8.90944  MPKI: 9.87428
ITLB TRANSLATION FROM L1D PREFETCHER INSTRUCTION	ACCESS:     117102  HIT:     117102  MISS:          0  HIT %:        100  MISS %:          0  MPKI: 0

ITLB AVERAGE MISS LATENCY: 9.04256 cycles
ITLB RQ	ACCESS:    7587828	FORWARD:          0	MERGED:    1433694	TO_CACHE:    6154134

DTLB TOTAL     ACCESS:    9160679  HIT:    8689952  MISS:     470727  HIT %:    94.8614  MISS %:    5.13856   MPKI: 9.41454
DTLB LOAD TRANSLATION DATA	ACCESS:    9160679  HIT:    8689952  MISS:     470727  HIT %:    94.8614  MISS %:    5.13856  MPKI: 9.41454

DTLB AVERAGE MISS LATENCY: 9.31956 cycles
DTLB RQ	ACCESS:   13485311	FORWARD:          0	MERGED:    4289619	TO_CACHE:    9195692

STLB TOTAL     ACCESS:    1212994  HIT:    1210908  MISS:       2086  HIT %:     99.828  MISS %:   0.171971   MPKI: 0.04172
STLB LOAD TRANSLATION INSTRUCTION	ACCESS:     493714  HIT:     493431  MISS:        283  HIT %:    99.9427  MISS %:  0.0573206  MPKI: 0.00566
STLB LOAD TRANSLATION DATA	ACCESS:     470506  HIT:     468722  MISS:       1784  HIT %:    99.6208  MISS %:   0.379166  MPKI: 0.03568
STLB TRANSLATION FROM L1D PREFETCHER DATA	ACCESS:     248774  HIT:     248755  MISS:         19  HIT %:    99.9924  MISS %: 0.00763745  MPKI: 0.00038

STLB AVERAGE MISS LATENCY: 69.5657 cycles
STLB RQ	ACCESS:    1332701	FORWARD:          0	MERGED:     119666	TO_CACHE:    1213035

STLB Hit, L1D data hit: 0
STLB Hit, L2C data hit: 0
STLB Hit, LLC data hit: 0
STLB Hit, LLC data miss: 0
STLB STLB hints to L2: 0
L1D TOTAL     ACCESS:   13238131  HIT:   12120339  MISS:    1117792  HIT %:    91.5563  MISS %:    8.44373   MPKI: 22.3558
L1D LOAD DATA	ACCESS:    6688065  HIT:    5952951  MISS:     735114  HIT %:    89.0086  MISS %:    10.9914  MPKI: 14.7023
L1D RFO DATA	ACCESS:    6222317  HIT:    5935650  MISS:     286667  HIT %:    95.3929  MISS %:    4.60708  MPKI: 5.73334
L1D PREFETCH DATA	ACCESS:     327749  HIT:     231738  MISS:      96011  HIT %:    70.7059  MISS %:    29.2941  MPKI: 1.92022

L1D PREFETCH  REQUESTED:     736823  ISSUED:     736823  USEFUL:      35111  USELESS:      68627
L1D USEFUL LOAD PREFETCHES:      35111 PREFETCH ISSUED TO LOWER LEVEL:     103749  ACCURACY: 33.8423
 TIMELY PREFETCHES:      35111 LATE PREFETCHES: 7714 DROPPED PREFETCHES: 3
L1D AVERAGE MISS LATENCY: 236923 cycles
L1D RQ	ACCESS:   10796853	FORWARD:          0	MERGED:    3908390	TO_CACHE:    6722323
L1D WQ	ACCESS:    6947799	FORWARD:     166443	MERGED:     184811	TO_CACHE:    6762988
L1D PQ	ACCESS:     368563	FORWARD:          0	MERGED:          0	TO_CACHE:     368260

L1D UNIQUE REGIONS ACCESSED: 0
L1D REGIONS CONFLICTS: 0
L1D Cross Page Prefetch Requests: 5308
L1D Same Page Prefetch Requests: 749725
L1D ROI Sum of L1D PQ occupancy: 4685642
L1D PREFETCHES PUSHED FROM L2C: 0
L1I TOTAL     ACCESS:    6978236  HIT:    4217247  MISS:    2760989  HIT %:    60.4343  MISS %:    39.5657   MPKI: 55.2198
L1I LOAD INSTRUCTION	ACCESS:    6436197  HIT:    3675208  MISS:    2760989  HIT %:    57.1022  MISS %:    42.8978  MPKI: 55.2198
L1I PREFETCH INSTRUCTION	ACCESS:     542039  HIT:     542039  MISS:          0  HIT %:        100  MISS %:          0  MPKI: 0

L1I PREFETCH  REQUESTED:    1262755  ISSUED:    1262755  USEFUL:          0  USELESS:          0
L1I USEFUL LOAD PREFETCHES:          0 PREFETCH ISSUED TO LOWER LEVEL:          0  ACCURACY: -nan
 TIMELY PREFETCHES:          0 LATE PREFETCHES: 0 DROPPED PREFETCHES: 0
L1I AVERAGE MISS LATENCY: 16.9615 cycles
L1I RQ	ACCESS:    9469891	FORWARD:          0	MERGED:    2787883	TO_CACHE:    6682008
L1I PQ	ACCESS:    1262755	FORWARD:          0	MERGED:     356935	TO_CACHE:     905820

L1BTB TOTAL     ACCESS:    5667980  HIT:    2041900  MISS:    3626080  HIT %:    36.0252  MISS %:    63.9748   MPKI: 72.5216
L1BTB BRANCH_DIRECT_JUMP	ACCESS:     548037 HIT:     144576 MISS:     403461 AVERAGE STALL: 41.0315 AVERAGE FETCH STALL: 17.9486 AVERAGE FETCH QUEUE STALL: 12.287 AVERAGE DECODE STALL: 9.97043 AVERAGE EXECUTE STALL: 6.03328e+14
L1BTB BRANCH_INDIRECT	ACCESS:     182828 HIT:      66037 MISS:     116791 AVERAGE STALL: 95.524 AVERAGE FETCH STALL: 13.0059 AVERAGE FETCH QUEUE STALL: 9.82409 AVERAGE DECODE STALL: 8.67598 AVERAGE EXECUTE STALL: 63.074
L1BTB BRANCH_CONDITIONAL	ACCESS:    2704925 HIT:    1412947 MISS:    1291978 AVERAGE STALL: 40.5634 AVERAGE FETCH STALL: 21.5921 AVERAGE FETCH QUEUE STALL: 9.83589 AVERAGE DECODE STALL: 8.39389 AVERAGE EXECUTE STALL: 2.31798e+14
L1BTB BRANCH_DIRECT_CALL	ACCESS:     944384 HIT:     106140 MISS:     838244 AVERAGE STALL: 42.3579 AVERAGE FETCH STALL: 21.7054 AVERAGE FETCH QUEUE STALL: 10.7207 AVERAGE DECODE STALL: 9.17118 AVERAGE EXECUTE STALL: 1.75216e+14
L1BTB BRANCH_INDIRECT_CALL	ACCESS:     171712 HIT:      21412 MISS:     150300 AVERAGE STALL: 126.917 AVERAGE FETCH STALL: 16.5975 AVERAGE FETCH QUEUE STALL: 8.44493 AVERAGE DECODE STALL: 8.13829 AVERAGE EXECUTE STALL: 93.2138
L1BTB BRANCH_RETURN	ACCESS:    1116094 HIT:     290788 MISS:     825306 AVERAGE STALL: 41.2616 AVERAGE FETCH STALL: 17.6939 AVERAGE FETCH QUEUE STALL: 6.84327 AVERAGE DECODE STALL: 7.01299 AVERAGE EXECUTE STALL: 2.48763e+14
L1BTB BRANCH_OTHER ACCESS:          0 HIT:          0 MISS:          0 AVERAGE STALL: -nan AVERAGE FETCH STALL: -nan AVERAGE FETCH QUEUE STALL: -nan AVERAGE DECODE STALL: -nan AVERAGE EXECUTE STALL: -nan
L1BTB TOTAL ROB OCCUPANCY AT BTB MISS: 11.7265

L2BTB TOTAL     ACCESS:    3600743  HIT:    3284562  MISS:     316181  HIT %:     91.219  MISS %:    8.78099   MPKI: 6.32362
L2BTB BRANCH_DIRECT_JUMP	ACCESS:     399305 HIT:     372877 MISS:      26428 AVERAGE STALL: 41.0315 AVERAGE FETCH STALL: 17.9486 AVERAGE FETCH QUEUE STALL: 12.287 AVERAGE DECODE STALL: 9.97043 AVERAGE EXECUTE STALL: 6.03328e+14
L2BTB BRANCH_INDIRECT	ACCESS:     106534 HIT:     100389 MISS:       6145 AVERAGE STALL: 95.524 AVERAGE FETCH STALL: 13.0059 AVERAGE FETCH QUEUE STALL: 9.82409 AVERAGE DECODE STALL: 8.67598 AVERAGE EXECUTE STALL: 63.074
L2BTB BRANCH_CONDITIONAL	ACCESS:    1291978 HIT:    1211967 MISS:      80011 AVERAGE STALL: 40.5634 AVERAGE FETCH STALL: 21.5921 AVERAGE FETCH QUEUE STALL: 9.83589 AVERAGE DECODE STALL: 8.39389 AVERAGE EXECUTE STALL: 2.31798e+14
L2BTB BRANCH_DIRECT_CALL	ACCESS:     838244 HIT:     732928 MISS:     105316 AVERAGE STALL: 42.3579 AVERAGE FETCH STALL: 21.7054 AVERAGE FETCH QUEUE STALL: 10.7207 AVERAGE DECODE STALL: 9.17118 AVERAGE EXECUTE STALL: 1.75216e+14
L2BTB BRANCH_INDIRECT_CALL	ACCESS:     140769 HIT:     115270 MISS:      25499 AVERAGE STALL: 126.917 AVERAGE FETCH STALL: 16.5975 AVERAGE FETCH QUEUE STALL: 8.44493 AVERAGE DECODE STALL: 8.13829 AVERAGE EXECUTE STALL: 93.2138
L2BTB BRANCH_RETURN	ACCESS:     823913 HIT:     751131 MISS:      72782 AVERAGE STALL: 41.2616 AVERAGE FETCH STALL: 17.6939 AVERAGE FETCH QUEUE STALL: 6.84327 AVERAGE DECODE STALL: 7.01299 AVERAGE EXECUTE STALL: 2.48763e+14
L2BTB BRANCH_OTHER ACCESS:          0 HIT:          0 MISS:          0 AVERAGE STALL: -nan AVERAGE FETCH STALL: -nan AVERAGE FETCH QUEUE STALL: -nan AVERAGE DECODE STALL: -nan AVERAGE EXECUTE STALL: -nan
L2BTB TOTAL ROB OCCUPANCY AT BTB MISS: 134.484

L2C TOTAL     ACCESS:    4498303  HIT:    4019629  MISS:     478674  HIT %:    89.3588  MISS %:    10.6412   MPKI: 9.57348
L2C LOAD INSTRUCTION	ACCESS:    2760989  HIT:    2528742  MISS:     232247  HIT %:    91.5883  MISS %:    8.41173  MPKI: 4.64494
L2C LOAD TRANSLATION INSTRUCTION	ACCESS:        319  HIT:         91  MISS:        228  HIT %:    28.5266  MISS %:    71.4734  MPKI: 0.00456
L2C LOAD DATA	ACCESS:     727383  HIT:     641073  MISS:      86310  HIT %:    88.1342  MISS %:    11.8658  MPKI: 1.7262
L2C RFO DATA	ACCESS:     286620  HIT:     227392  MISS:      59228  HIT %:    79.3357  MISS %:    20.6643  MPKI: 1.18456
L2C PREFETCH DATA	ACCESS:     198792  HIT:     120198  MISS:      78594  HIT %:    60.4642  MISS %:    39.5358  MPKI: 1.57188
L2C WRITEBACK DATA	ACCESS:     522309  HIT:     501574  MISS:      20735  HIT %:    96.0301  MISS %:    3.96987  MPKI: 0.4147
L2C LOAD TRANSLATION DATA	ACCESS:       1860  HIT:        537  MISS:       1323  HIT %:     28.871  MISS %:     71.129  MPKI: 0.02646
L2C TRANSLATION FROM L1D PREFETCHER DATA	ACCESS:         31  HIT:         22  MISS:          9  HIT %:    70.9677  MISS %:    29.0323  MPKI: 0.00018

L2C PREFETCH  REQUESTED:     102528  ISSUED:     102528  USEFUL:       9963  USELESS:      69198
L2C USEFUL LOAD PREFETCHES:       9963 PREFETCH ISSUED TO LOWER LEVEL:      78986  ACCURACY: 12.6136
 TIMELY PREFETCHES:       9963 LATE PREFETCHES: 391 DROPPED PREFETCHES: 0
L2C AVERAGE MISS LATENCY: 38.8087 cycles
L2C RQ	ACCESS:    3777242	FORWARD:          0	MERGED:          0	TO_CACHE:    3777202
L2C WQ	ACCESS:     522309	FORWARD:         40	MERGED:          0	TO_CACHE:     522309
L2C PQ	ACCESS:     206277	FORWARD:          0	MERGED:       3431	TO_CACHE:     202846

L2C Dense regions hint from L2: 0
PSCL5 TOTAL     ACCESS:       4182  HIT:       2091  MISS:       2091  HIT %:         50  MISS %:         50   MPKI: 0.04182
PSCL5 LOAD TRANSLATION INSTRUCTION	ACCESS:       4120  HIT:       2060  MISS:       2060  HIT %:         50  MISS %:         50  MPKI: 0.0412
PSCL5 TRANSLATION FROM L1D PREFETCHER INSTRUCTION	ACCESS:         62  HIT:         31  MISS:         31  HIT %:         50  MISS %:         50  MPKI: 0.00062


PSCL4 TOTAL     ACCESS:       3960  HIT:       1976  MISS:       1984  HIT %:     49.899  MISS %:     50.101   MPKI: 0.03968
PSCL4 LOAD TRANSLATION INSTRUCTION	ACCESS:       3036  HIT:       1945  MISS:       1091  HIT %:    64.0646  MISS %:    35.9354  MPKI: 0.02182
PSCL4 TRANSLATION FROM L1D PREFETCHER INSTRUCTION	ACCESS:         48  HIT:         31  MISS:         17  HIT %:    64.5833  MISS %:    35.4167  MPKI: 0.00034
PSCL4 LOAD TRANSLATION DATA	ACCESS:        862  HIT:          0  MISS:        862  HIT %:          0  MISS %:        100  MPKI: 0.01724
PSCL4 TRANSLATION FROM L1D PREFETCHER DATA	ACCESS:         14  HIT:          0  MISS:         14  HIT %:          0  MISS %:        100  MPKI: 0.00028


PSCL3 TOTAL     ACCESS:       4012  HIT:       2002  MISS:       2010  HIT %:    49.9003  MISS %:    50.0997   MPKI: 0.0402
PSCL3 LOAD TRANSLATION INSTRUCTION	ACCESS:       3062  HIT:       1971  MISS:       1091  HIT %:    64.3697  MISS %:    35.6303  MPKI: 0.02182
PSCL3 TRANSLATION FROM L1D PREFETCHER INSTRUCTION	ACCESS:         48  HIT:         31  MISS:         17  HIT %:    64.5833  MISS %:    35.4167  MPKI: 0.00034
PSCL3 LOAD TRANSLATION DATA	ACCESS:        888  HIT:          0  MISS:        888  HIT %:          0  MISS %:        100  MPKI: 0.01776
PSCL3 TRANSLATION FROM L1D PREFETCHER DATA	ACCESS:         14  HIT:          0  MISS:         14  HIT %:          0  MISS %:        100  MPKI: 0.00028


PSCL2 TOTAL     ACCESS:       4078  HIT:       1987  MISS:       2091  HIT %:    48.7249  MISS %:    51.2751   MPKI: 0.04182
PSCL2 LOAD TRANSLATION INSTRUCTION	ACCESS:       2239  HIT:       1956  MISS:        283  HIT %:    87.3604  MISS %:    12.6396  MPKI: 0.00566
PSCL2 TRANSLATION FROM L1D PREFETCHER INSTRUCTION	ACCESS:         31  HIT:         31  MISS:          0  HIT %:        100  MISS %:          0  MPKI: 0
PSCL2 LOAD TRANSLATION DATA	ACCESS:       1777  HIT:          0  MISS:       1777  HIT %:          0  MISS %:        100  MPKI: 0.03554
PSCL2 TRANSLATION FROM L1D PREFETCHER DATA	ACCESS:         31  HIT:          0  MISS:         31  HIT %:          0  MISS %:        100  MPKI: 0.00062


LLC TOTAL     ACCESS:     544889  HIT:     514813  MISS:      30076  HIT %:    94.4803  MISS %:    5.51966   MPKI: 0.60152
LLC LOAD INSTRUCTION	ACCESS:     232247  HIT:     231408  MISS:        839  HIT %:    99.6387  MISS %:   0.361253  MPKI: 0.01678
LLC LOAD TRANSLATION INSTRUCTION	ACCESS:        228  HIT:        204  MISS:         24  HIT %:    89.4737  MISS %:    10.5263  MPKI: 0.00048
LLC LOAD DATA	ACCESS:      85926  HIT:      82405  MISS:       3521  HIT %:    95.9023  MISS %:    4.09771  MPKI: 0.07042
LLC RFO DATA	ACCESS:      59220  HIT:      44011  MISS:      15209  HIT %:    74.3178  MISS %:    25.6822  MPKI: 0.30418
LLC PREFETCH DATA	ACCESS:      78985  HIT:      69035  MISS:       9950  HIT %:    87.4027  MISS %:    12.5973  MPKI: 0.199
LLC WRITEBACK DATA	ACCESS:      86951  HIT:      86490  MISS:        461  HIT %:    99.4698  MISS %:   0.530184  MPKI: 0.00922
LLC LOAD TRANSLATION DATA	ACCESS:       1323  HIT:       1251  MISS:         72  HIT %:    94.5578  MISS %:    5.44218  MPKI: 0.00144
LLC TRANSLATION FROM L1D PREFETCHER DATA	ACCESS:          9  HIT:          9  MISS:          0  HIT %:        100  MISS %:          0  MPKI: 0

LLC AVERAGE MISS LATENCY: 159.615 cycles
LLC RQ	ACCESS:     378954	FORWARD:          0	MERGED:          0	TO_CACHE:     378953
LLC WQ	ACCESS:      86951	FORWARD:          1	MERGED:          0	TO_CACHE:      86951
LLC PQ	ACCESS:      78986	FORWARD:          0	MERGED:          0	TO_CACHE:      78986

LLC Dense regions hint to LLC: 0

RAW hits: 1841410
Loads Generated: 12638263
Loads sent to L1D: 10796853
Stores Generated: 6947803
Stores sent to L1D: 6947799
Major fault: 0 Minor fault: 2539
Allocated PAGES: 2539

stream: 
stream:times selected: 1191331
stream:pref_filled: 123170
stream:pref_useful: 24268
stream:pref_late: 6738
stream:misses: 8294
stream:misses_by_poll: 0

CS: 
CS:times selected: 181534
CS:pref_filled: 60276
CS:pref_useful: 36741
CS:pref_late: 6891
CS:misses: 16675
CS:misses_by_poll: 5

CPLX: 
CPLX:times selected: 1008532
CPLX:pref_filled: 19349
CPLX:pref_useful: 4544
CPLX:pref_late: 3127
CPLX:misses: 93191
CPLX:misses_by_poll: 0

NL_L1: 
NL:times selected: 14308
NL:pref_filled: 462
NL:pref_useful: 155
NL:pref_late: 348
NL:misses: 1144
NL:misses_by_poll: 0

total selections: 2395705
total_filled: 96011
total_useful: 35111
total_late: 18449
total_polluted: 5
total_misses_after_warmup: 769376
conflicts: 5577192

test: 116416

DRAM Statistics
 CHANNEL 0
 RQ ROW_BUFFER_HIT:      11076  ROW_BUFFER_MISS:      18514
 DBUS_CONGESTED:          9
 WQ ROW_BUFFER_HIT:       1415  ROW_BUFFER_MISS:      13087  FULL:          0

 AVG_CONGESTED_CYCLE: 6

CPU 0 Branch Prediction Accuracy: 99.8221% MPKI: 0.32538 Average ROB Occupancy at Mispredict: 153.401
Branch types
NOT_BRANCH: 40855853 81.7117%
BRANCH_DIRECT_JUMP: 548037 1.09607%
BRANCH_INDIRECT: 182828 0.365656%
BRANCH_CONDITIONAL: 6180752 12.3615%
BRANCH_DIRECT_CALL: 944384 1.88877%
BRANCH_INDIRECT_CALL: 171712 0.343424%
BRANCH_RETURN: 1116094 2.23219%
BRANCH_OTHER: 0 0%

DRAM PAGES: 1048576
Allocated PAGES: 2539
Average_ROB_Occupancy: 161.427
Average_Decode_Occupancy: 19.7506
Average_FTQ_Occupancy: 8.53562
Indirect max targets: 14 Average targets: 1.14527
Branch_type:  BRANCH_DIRECT_JUMP:  Count Percentage: 4.03058 4.7638 4.93335 3.0079 3.0643 6.01234 7.27985 66.9079 
Branch_type:  BRANCH_INDIRECT:  Count Percentage: 13.7445 0.811105 2.56882 0 0 17.7484 17.4902 47.6369 
Branch_type:  BRANCH_CONDITIONAL:  Count Percentage: 26.2716 1.94536 1.54049 6.25448 1.55418 5.09184 5.62217 51.7199 
Branch_type:  BRANCH_DIRECT_CALL:  Count Percentage: 0.885198 1.47925 1.16308 2.38365 2.50939 3.52069 6.166 81.8927 
Branch_type:  BRANCH_INDIRECT_CALL:  Count Percentage: 9.52115 0 2.98392 6.41717 0 2.4763 5.11579 73.4857 
Branch_type:  BRANCH_RETURN:  Count Percentage: 10.4596 1.45934 1.49155 6.79354 1.66171 6.47524 6.53457 65.1244 
Branch_type:  BRANCH_DIRECT_JUMP:  Total Count: 44169 52204 54062 32962 33580 65886 79776 733208 
Branch_type:  BRANCH_INDIRECT:  Total Count: 50311 2969 9403 0 0 64967 64022 174372 
Branch_type:  BRANCH_CONDITIONAL:  Total Count: 3246774 240417 190382 772960 192073 629275 694816 6391807 
Branch_type:  BRANCH_DIRECT_CALL:  Total Count: 16692 27894 21932 44948 47319 66389 116271 1544235 
Branch_type:  BRANCH_INDIRECT_CALL:  Total Count: 32674 0 10240 22022 0 8498 17556 252183 
Branch_type:  BRANCH_RETURN:  Total Count: 233211 32538 33256 151471 37050 144374 145697 1452036 
Number of unique branch instructions: 9804
Upper 32 bits: 
aaaa
ffff
ffff0000
Unique upper 32 bits: 3
Unique upper 36 bits: 3
Unique upper 40 bits: 5
Unique upper 44 bits: 32
Unique upper 48 bits: 154
Variant_0 : 1148 0.280273
Variant_1 : 2670 0.651855
Variant_2 : 0 0
Variant_3 : 0 0
Offset_3 4030
Offset_4 244
Offset_5 449
Offset_6 498
Offset_7 571
Offset_8 508
Offset_9 463
Offset_10 374
Offset_11 301
Offset_12 269
Offset_13 203
Offset_14 227
Offset_15 184
Offset_16 220
Offset_17 145
Offset_18 118
Offset_19 234
Offset_20 136
Offset_21 235
Offset_22 392
Offset_23 241
Offset_24 331
Offset_25 88
Offset_47 82
Offset_64 1
decode_dispatch_called: 21009278 52.0367
Dispatch_width: 0 10714474 50.9988 26.5381
Dispatch_width: 1 606323 2.88598 1.50177
Dispatch_width: 2 637251 3.03319 1.57837
Dispatch_width: 3 420922 2.00351 1.04256
Dispatch_width: 4 2332886 11.1041 5.77819
Dispatch_width: 5 259854 1.23685 0.643617
Dispatch_width: 6 6037568 28.7376 14.9541
Empty_decode_cycles: 19364722 47.9633
ROB_full_cycles: 3681372 9.11818
Starvation_cycles_per_kilo_instr: 306.551
Starvation_cycles_per_kilo_instr_3: 280.623
Starvation_cycles_per_kilo_instr_0: 263.978
Branch_type_1  (3,1)  (4,9)  (5,37)  (6,68)  (7,113)  (8,128)  (9,122)  (10,97)  (11,67)  (12,43)  (13,5)  (14,2)  (15,3)  (16,4)  (18,1)  (19,4)  (20,2)  (21,1)  (22,3)  (23,2)  (24,10)  (25,12) 
Branch_type_2  (3,1)  (5,1)  (8,3)  (9,3)  (12,1)  (13,1)  (14,1)  (16,3)  (17,2)  (20,2)  (21,2)  (23,5)  (24,1)  (47,38) 
Branch_type_3  (3,4028)  (4,235)  (5,407)  (6,415)  (7,429)  (8,316)  (9,255)  (10,151)  (11,120)  (12,50)  (13,4)  (64,1) 
Branch_type_4  (6,3)  (7,8)  (8,25)  (9,51)  (10,60)  (11,58)  (12,96)  (13,88)  (14,100)  (15,86)  (16,98)  (17,64)  (18,53)  (19,115)  (20,71)  (21,124)  (22,209)  (23,136)  (24,192)  (25,72) 
Branch_type_5  (8,2)  (9,1)  (10,3)  (11,5)  (12,3)  (13,14)  (14,16)  (15,11)  (16,20)  (17,11)  (18,16)  (19,12)  (20,10)  (21,13)  (22,42)  (23,26)  (24,37) 
Branch_type_6  (5,4)  (6,12)  (7,21)  (8,34)  (9,31)  (10,63)  (11,51)  (12,76)  (13,91)  (14,108)  (15,84)  (16,95)  (17,68)  (18,48)  (19,103)  (20,51)  (21,95)  (22,138)  (23,72)  (24,91)  (25,4)  (47,44) 
Unique trigger count: 
Variant_0_evicts_0 : 0
Variant_0_evicts_1 : 0
Variant_0_evicts_2 : 0
Variant_0_evicts_3 : 0
Variant_1_evicts_0 : 0
Variant_1_evicts_1 : 0
Variant_1_evicts_2 : 0
Variant_1_evicts_3 : 0
Variant_2_evicts_0 : 0
Variant_2_evicts_1 : 0
Variant_2_evicts_2 : 0
Variant_2_evicts_3 : 0
Variant_3_evicts_0 : 0
Variant_3_evicts_1 : 0
Variant_3_evicts_2 : 0
Variant_3_evicts_3 : 0
BTB PER SET UNIQUE ADDR: 2 7 3 5 5 4 7 5 1 6 5 4 3 4 10 8 3 4 3 2 4 7 6 9 4 6 3 4 5 6 6 5 4 7 5 6 7 4 5 8 4 7 3 4 7 5 4 4 7 7 9 4 4 2 2 8 5 3 7 5 5 7 3 6 5 2 4 4 4 7 6 4 5 7 6 8 2 5 6 7 10 6 6 9 7 2 6 2 6 7 6 6 7 5 3 1 5 3 4 7 4 3 4 6 3 5 4 5 6 6 5 2 3 9 2 5 4 6 4 10 5 3 5 3 7 7 3 6 6 2 2 5 3 5 7 6 4 1 6 5 3 5 9 6 3 6 5 5 4 7 3 2 2 11 2 5 7 3 7 5 2 7 4 5 8 3 1 4 7 9 7 5 6 4 4 5 2 6 6 6 4 4 4 8 4 5 4 3 4 6 4 3 6 6 1 4 5 6 6 4 6 6 3 5 1 6 3 3 5 4 2 3 6 5 5 4 6 3 4 5 3 8 6 8 5 10 7 3 5 9 3 5 6 8 3 5 2 6 4 5 5 4 4 4 5 4 2 4 3 5 3 7 4 3 5 5 4 6 7 1 8 5 6 4 3 4 5 5 8 4 7 6 5 6 6 5 6 2 5 7 7 2 4 7 3 5 11 4 8 4 5 3 10 7 8 5 3 3 6 4 12 3 5 7 3 3 6 6 7 3 7 3 6 5 5 6 5 7 6 3 7 7 4 4 10 5 3 5 2 7 4 10 3 6 5 5 6 7 6 8 2 5 6 3 5 5 4 6 2 3 5 5 4 2 6 4 4 6 5 5 11 6 3 8 5 10 5 6 4 3 8 7 10 4 5 4 7 7 5 1 5 5 4 5 9 3 4 7 4 5 5 2 4 7 4 5 6 2 5 3 7 7 6 4 4 10 10 4 7 2 5 4 1 5 6 3 6 4 5 6 7 0 4 4 6 3 7 8 5 6 8 3 3 4 5 1 4 2 2 3 9 5 3 1 5 0 3 5 6 4 7 3 4 4 5 3 7 2 9 5 3 6 4 12 1 8 4 7 2 6 6 7 2 7 4 8 3 2 3 8 6 3 6 5 3 4 3 4 7 6 7 5 5 4 6 4 7 4 2 9 3 3 3 4 4 6 5 6 2 3 6 2 5 3 2 6 9 5 7 4 6 4 9 4 5 10 2 3 5 3 9 7 5 2 3 5 7 8 3 6 3 8 9 11 5 4 9 9 5 4 3 6 2 5 5 7 7 0 4 4 3 2 4 7 5 3 4 4 9 3 4 4 1 6 2 6 7 2 6 5 1 9 3 8 4 4 3 1 5 8 6 6 5 5 3 6 11 8 2 5 8 3 4 2 4 10 8 2 4 4 4 4 4 7 1 4 10 5 9 6 3 4 6 2 7 5 2 6 5 4 5 7 4 5 7 5 3 7 5 11 2 5 3 2 2 7 5 4 4 8 5 5 5 8 4 7 5 4 3 4 4 5 5 6 6 5 3 9 6 6 8 5 7 4 7 4 4 6 3 6 7 7 3 6 7 7 3 4 8 3 7 2 4 6 5 9 4 7 5 8 7 6 4 3 8 4 3 6 7 8 4 1 3 5 4 5 7 8 3 3 6 6 3 7 6 9 9 7 3 6 3 5 8 4 6 2 6 6 1 7 4 10 6 5 5 3 7 2 4 5 6 4 7 5 9 9 9 1 2 6 7 7 5 7 9 6 6 11 5 3 6 5 1 6 9 6 4 7 3 5 4 2 3 4 10 5 3 7 5 9 5 4 4 4 8 6 6 2 6 4 6 5 7 3 4 3 5 3 6 5 6 2 0 5 7 5 11 4 7 5 7 5 3 3 5 5 5 6 10 5 6 6 2 6 5 4 6 4 2 5 1 8 4 5 4 4 4 6 4 4 3 5 4 3 6 3 9 7 4 3 0 5 4 7 6 6 7 5 5 4 3 4 6 3 2 3 4 6 0 5 6 5 6 4 4 6 6 10 1 0 8 2 3 1 4 6 4 8 7 2 7 2 5 5 3 2 5 4 6 8 6 4 5 7 8 10 6 5 8 6 8 0 6 6 3 2 6 7 5 4 2 7 7 5 5 5 4 3 2 6 5 5 3 3 5 3 3 2 6 2 9 6 4 2 11 5 8 3 4 2 5 4 7 5 5 3 5 4 2 3 5 1 3 6 2 4 2 9 5 7 4 6 7 5 8 3 3 6 6 3 3 6 6 11 6 4 4 5 2 3 6 4 7 6 3 4 5 8 4 3 4 9 8 5 4 5 4 6 3 4 5 3 6 8 8 4 7 8 4 5 6 3 5 5 5 7 7 6 1 4 4 4 5 6 6 4 4 6 2 3 5 5 6 4 3 5 8 6 6 2 3 7 3 5 3 6 9 6 6 7 1 5 3 6 8 4 5 5 6 4 8 2 4 5 6 5 4 3 3 7 8 9 6 5 6 3 2 3 4 3 5 10 6 9 3 6 4 5 3 1 6 7 4 3 9 3 6 6 4 4 5 4 3 8 2 7 6 6 4 3 5 5 8 1 5 3 4 5 3 4 8 8 6 3 5 5 2 7 6 4 4 6 1 4 4 4 5 10 7 3 4 2 6 4 3 3 6 5 4 8 6 4 5 4 4 7 4 7 3 6 7 1 10 4 3 4 6 3 7 8 10 6 5 1 5 4 7 5 4 3 6 3 4 3 7 4 5 2 7 4 5 3 7 6 1 6 7 3 7 5 8 4 5 4 5 6 8 5 4 4 4 2 4 3 8 5 3 6 4 3 4 6 4 4 6 7 8 4 2 5 4 8 3 3 3 2 3 3 2 7 2 4 4 4 5 2 7 7 4 9 6 4 8 3 5 7 5 7 7 4 7 5 5 8 4 5 5 4 10 8 6 5 6 11 4 5 7 4 5 6 2 5 5 7 7 5 7 7 9 8 11 7 3 5 10 3 4 4 3 3 3 6 4 5 5 3 5 3 8 10 5 4 2 6 7 3 7 6 6 5 5 5 8 5 8 10 4 6 8 5 5 3 5 7 5 2 7 1 4 5 4 7 7 7 6 2 4 4 4 7 3 5 3 12 7 6 4 5 3 6 3 5 3 4 5 3 7 5 4 2 1 4 7 8 1 5 5 5 5 4 7 4 8 2 2 4 8 7 4 5 2 5 8 5 9 6 3 2 2 4 7 6 4 7 7 8 5 4 3 6 8 2 5 3 9 6 7 7 6 3 6 6 6 4 4 4 8 5 7 4 3 6 2 6 4 4 5 6 8 5 6 4 5 6 7 7 2 5 5 9 4 4 6 1 4 2 6 5 5 9 5 6 4 4 7 4 4 4 4 5 2 5 4 8 3 9 6 5 6 2 5 3 9 8 6 4 10 3 6 3 6 5 10 3 3 7 5 9 7 9 9 1 3 7 7 4 11 6 5 1 4 3 5 2 4 7 4 4 1 5 4 3 7 5 4 6 4 7 3 2 5 5 4 4 3 4 4 7 5 4 3 7 5 4 4 4 4 5 6 6 8 3 6 4 1 6 5 8 5 3 4 4 5 6 2 7 7 6 4 8 7 5 3 6 5 2 3 6 4 6 5 5 5 6 4 6 10 4 7 7 4 6 8 3 4 6 4 5 7 4 4 7 7 8 5 5 3 2 3 4 4 6 6 4 6 5 7 4 6 6 4 6 8 3 6 6 6 5 4 7 9 6 3 4 5 4 4 4 6 3 3 6 3 6 6 4 5 5 2 2 6 4 3 2 5 3 1 5 5 3 5 4 4 1 1 3 5 6 13 1 4 8 1 3 5 4 0 4 4 4 3 5 5 2 4 8 9 3 4 4 2 1 6 5 5 3 4 5 4 6 2 3 3 8 7 5 7 4 4 3 3 2 4 5 3 6 4 4 8 6 4 3 7 4 2 6 6 8 5 5 7 3 3 3 4 6 1 1 4 4 8 9 3 7 5 6 7 5 7 4 4 4 6 9 0 6 5 8 5 8 5 8 1 5 10 7 6 6 2 6 3 8 3 5 4 4 7 5 4 5 4 4 2 3 1 1 3 2 6 2 5 5 6 2 6 4 3 7 1 5 3 3 7 7 6 7 5 4 6 4 4 7 3 1 4 5 5 4 3 7 5 5 2 3 6 6 4 4 4 6 3 4 5 5 5 2 5 6 4 4 2 3 6 4 5 5 2 6 4 3 3 8 4 6 4 4 4 8 4 8 3 6 3 4 4 9 4 6 3 2 3 3 2 5 2 10 1 5 2 8 3 3 3 5 3 5 2 1 3 7 1 5 4 4 3 5 4 2 4 6 5 6 6 3 4 8 2 5 10 4 1 1 9 9 1 4 6 7 5 5 5 5 9 6 7 6 4 1 5 3 5 6 4 7 8 9 4 4 1 7 3 8 5 5 7 7 6 7 5 8 7 4 4 6 5 5 5 6 3 9 3 7 5 10 8 3 5 8 3 5 5 4 2 3 8 7 4 8 3 5 2 4 7 6 4 4 2 3 7 5 0 4 7 8 3 4 5 9 7 7 3 9 6 3 5 9 6 4 5 2 3 11 5 3 6 5 4 14 4 6 4 7 3 5 2 5 6 5 
BTB PER SET COUNT: 2 1803 182 559 167 48 378 264 1 1013 746 310 3 1485 1117 153 276 196 3 2 263 548 597 245 497 917 169 211 451 452 328 145 169 1418 407 269 723 218 129 1256 12 1749 3 5 802 769 4 93 295 649 710 4 697 2 2 348 542 1190 614 94 1153 715 8 9 10 7 216 275 5 711 1309 114 214 969 10 1021 2 199 820 233 831 226 190 532 407 2 698 2 583 1591 334 539 295 290 5 1 203 3 164 524 135 3 118 9 6 5 129 201 678 648 73 2 248 1199 5 10 271 10 349 2093 421 214 1600 3 354 880 5 388 877 2 2 165 3 102 250 348 149 1 474 684 4 780 953 285 3 361 7 8 77 396 170 468 2 792 2 1529 286 910 288 209 2 123 5 459 684 95 1 15 203 304 242 266 372 103 299 77 2 292 76 470 67 144 160 430 211 165 31 8 4 51 68 3 223 300 1 386 8 617 1234 5 196 130 108 165 1 413 3 556 189 7 4 7 685 475 256 219 962 276 5 247 3 432 285 796 361 1065 295 31 206 1102 127 217 8 6136 3 274 2 197 283 487 435 186 293 148 260 179 7855 9 3 238 136 780 9 206 432 89 1734 163 321 2 455 50 286 331 4 338 11 475 378 17 213 287 8 165 427 275 151 267 158 400 628 2 347 543 3 173 1302 198 381 7 8 3 1109 501 509 172 4 3 344 9 811 187 1435 337 3 3 64 71 93 13 148 4 100 207 8 392 40 475 312 3 424 238 257 188 1069 165 285 180 2 341 10 842 196 642 152 178 770 156 249 504 2 290 255 3 690 210 245 575 2 188 120 6 49 2 476 5 355 510 440 126 1199 406 8 679 145 2539 477 944 4 297 907 646 1074 8 254 175 1062 194 137 1 43 1063 7 781 1235 6 5 326 4 29 281 2 5 57 160 7 1721 4 257 132 1064 378 302 4 282 766 2297 362 80 7 6 93 1 308 714 7 217 385 457 143 324 0 4 357 73 438 483 498 833 149 714 38 4 186 87 1 4 3 2 3 943 270 3 1 818 0 2435 34 331 127 840 776 219 199 89 4 364 2 638 281 786 12 28 1132 1 570 202 181 2 520 147 994 2 343 967 221 130 2 3 603 51 330 325 380 92 4 173 292 597 471 1291 467 148 268 166 966 510 214 70 288 3 102 3 273 94 475 162 119 2 5 961 2 866 773 2 70 635 1028 400 220 421 4 928 4 171 927 7 3 183 3 1393 481 5 6 3 228 644 527 4 8 138 486 756 1157 323 1405 712 942 250 150 3 1752 992 5 230 254 1104 0 5 79 439 3 315 434 143 3 1552 69 1796 199 174 326 1 1041 2 640 748 2 165 5 1 338 3 452 4 140 257 1 5 1623 163 362 462 1051 184 1474 598 521 2 77 428 4 353 2 122 1018 1154 2 98 114 4 4 974 480 1 126 549 384 9454 564 141 121 160 2 316 326 237 90 144 7 709 1169 119 571 551 609 3 472 184 1649 2 179 436 2 2 386 221 230 4 458 459 7 201 1044 6 69 413 93 3 5 273 11 5 13 530 754 3 1214 139 907 581 448 240 5 612 68 199 1087 113 583 481 247 64 1195 324 346 243 1466 35 4 341 2 153 468 5 1030 9 721 13 704 296 587 12 3 810 7 4 195 449 620 9 1 283 249 72 810 280 452 5 3 311 355 819 460 608 655 822 412 410 428 328 260 368 158 16 2 8 203 1 2093 202 819 238 160 99 4 77 82 8 574 509 63 354 237 51 404 652 1 2 861 144 13 80 164 201 131 244 2911 447 3 36 308 1 129 659 334 4 743 21 105 238 2 3 159 819 399 599 574 231 743 264 313 13 238 490 484 114 208 407 60 131 6 555 182 67 4 8 3 16 167 483 2 0 348 225 235 1388 268 310 6 423 278 3 3 177 859 344 666 1509 373 722 232 112 623 5 102 817 4 2 105 15 866 400 5 200 7 176 833 119 676 3 248 7 245 404 69 597 340 149 4 0 348 5 347 667 15 233 263 590 4 465 307 132 4 2 3 1166 835 0 81 362 1008 320 4 4 653 207 1005 1 0 1588 2 81 1 6 455 367 675 633 243 191 103 444 1021 70 209 5 85 234 911 247 205 315 351 456 837 13 9 993 453 1469 0 238 192 3 2 1471 324 172 218 2 355 1140 337 193 151 4 970 180 203 529 192 4 3 667 65 3 2 517 2 701 1048 5 2 2071 371 1018 3 1882 256 191 315 199 217 230 3 561 158 2 129 103 1 17 420 2 4 61 1122 171 62 301 146 483 9 440 3 3 1091 142 3 3 432 257 937 190 6 132 1383 2 3 9 86 254 1644 3 5 305 1927 1033 497 126 471 490 321 130 26 199 1133 3 64 323 455 367 52 505 276 558 803 4 97 245 3 331 416 122 428 265 126 1452 4 54 4 11 210 384 432 632 56 2 3 434 429 225 82 132 147 677 553 226 2 3 433 118 636 434 132 708 554 258 353 1 607 4 621 602 4 17 104 142 5 911 2 87 290 521 185 15 82 3 410 944 766 382 68 301 538 2 3 111 3 107 971 260 1391 355 542 57 64 3 1 164 440 355 387 400 3 132 277 7 13 181 15 477 17 2 502 286 17 6 3 8 402 166 1 120 140 6 458 5 341 513 16383 435 298 134 47 2 397 110 4 4 168 1 126 132 493 7 559 976 34 4 2 111 272 3 9 367 177 7 392 472 4 391 6 248 512 5 14 5 229 330 1 836 103 4 5 72 291 413 444 721 283 205 1 1190 488 819 323 435 163 330 9 13 3 610 233 131 3 309 357 680 3 610 1629 1 241 752 3 377 232 477 16 278 94 323 73 377 79 5 101 305 3 48 3 658 147 7 270 198 3 49 456 4 16 23 158 30 4 17 310 408 180 3 176 79 2 3 3 2 11 2 250 215 5 693 2 235 184 139 710 146 4 426 3 266 451 85 287 539 4 372 7 6 301 4 527 192 662 1943 390 130 456 10 868 228 403 448 240 360 650 3 92 7 601 579 426 466 596 684 431 535 479 3 130 374 3 9 4 179 3 4 336 4 360 119 3 150 1468 138 1692 164 155 2 577 362 3 152 446 154 387 5 10 131 259 629 595 92 335 1125 475 914 3 12 310 101 3 432 1 4 34 319 567 790 270 8 2 197 4 14 544 3 72 137 1189 658 148 271 45 3 508 3 511 3 4 323 144 102 239 6 166 1 7 415 19 1 146 560 18 11 192 708 230 264 2 2 204 898 587 10 465 2 170 908 54 606 1030 3 3 2 499 621 233 57 290 45 461 180 4 139 2335 1179 2 194 2905 687 692 312 40 389 43 214 650 161 88 183 28 509 73 315 11 3 179 2 530 314 7 12 458 416 7 314 4 64 7 708 161 2 10 8 837 136 418 579 1 4 3 411 215 450 1190 146 668 971 123 306 224 38 182 4 368 2 133 201 408 8 864 552 211 222 2 423 958 670 233 379 4 1100 480 202 3 316 369 1354 3 4 1068 6 399 640 1452 1113 1 3 1146 569 466 1079 334 979 1 122 3 742 2 107 452 4 11 1 606 118 3 284 8 6 268 136 710 28 2 642 156 174 13 92 9 59 520 231 576 466 628 397 329 15 191 2929 745 423 163 596 3 117 215 1 373 5 1057 10 1465 569 10 28 330 2 568 845 6 134 459 65 179 3 502 540 2 3 589 47 288 154 334 288 493 209 543 734 5 1026 34 200 440 699 104 163 14 5 306 513 4 6 374 443 662 336 165 193 2 3 4 85 72 421 4 384 272 819 6 597 189 4 319 346 134 516 465 437 242 7 522 292 255 219 220 66 184 243 136 717 669 169 245 8 67 411 4 657 318 2 134 212 121 5 3 362 207 1 299 5 374 120 4 73 1 1 95 5 222 1545 1 34 1239 1 4 417 5 0 105 746 314 139 109 64 2 13 838 402 4 4 7 2 1 627 107 148 235 4 301 173 226 3 3 4 655 252 158 336 554 20 251 8 2 63 192 3 670 4 172 524 177 201 3 369 8 2 526 189 524 129 394 408 3 3 3 20 363 1 1 9 305 320 868 3 918 116 510 315 247 869 384 4 4 434 797 0 217 246 181 281 1439 354 384 1 503 1819 278 113 180 2 1136 3 622 3 166 244 6 74 6 68 260 4 287 671 3 1 1 4 2 736 2 341 384 199 2 245 5 4 175 1 186 102 342 284 649 603 498 254 18 387 4 171 663 3 1 77 5 160 831 162 661 453 505 2 313 198 1320 718 259 5 939 3 30 62 333 561 2 296 12 172 340 2 56 365 291 158 196 2 474 4809 326 97 741 182 796 306 4 251 1011 243 940 376 314 196 4 197 194 6 8 3 2 6 3 2 1548 8 358 1 70 268 155 3 100 347 6 8 309 2 1 3 549 1 44 1455 598 3 247 129 2 80 859 12 193 617 3 456 874 2 884 548 69 1 1 321 687 1 195 348 172 93 163 445 331 482 261 679 434 4 1 34 164 215 750 166 353 1143 435 64 130 1 481 75 318 209 491 224 1077 469 769 646 717 749 1013 92 550 2877 644 6 262 145 512 121 858 340 1017 67 195 360 892 379 398 444 170 2 6 988 1401 6 1058 31 217 2 160 751 462 108 169 1323 226 182 246 0 6 256 452 3 225 236 821 656 652 220 898 384 1465 5 443 1824 14 136 2 5 1832 1289 15 317 630 154 1866 199 405 6 685 211 7 5 238 711 33 
To predecode: 0
Predecoding something: 0
Predecode request dropped: 0
sizeofblock_0 0
sizeofblock_1 203513
sizeofblock_2 214658
sizeofblock_3 0
sizeofblock_4 0
sizeofblock_5 0
sizeofblock_6 0
sizeofblock_7 0
sizeofblock_8 0
Variant_0 Correct: 1391438 Incorrect: 0 Accuracy: 1
Variant_1 Correct: 5431485 Incorrect: 0 Accuracy: 1
Variant_2 Correct: 0 Incorrect: 0 Accuracy: -nan
Variant_3 Correct: 0 Incorrect: 0 Accuracy: -nan
