
*** ChampSim Multicore Out-of-Order Simulator ***

Warmup Instructions: 50000000
Simulation Instructions: 50000000
Number of CPUs: 1
LLC sets: 2048
LLC ways: 16
Off-chip DRAM Size: 4096 MB Channels: 1 Width: 64-bit Data Rate: 6400 MT/s
CPU 0 runs ./micro_traces/srv5.trace.gz
.gz
ITLB has LRU replacement policy
DTLB has LRU replacement policy
STLB has LRU replacement policy
CPU 0 L1I next line prefetcher
./conditional/srv5.cond
L1I has LRU replacement policy
L1D has LRU replacement policy
Initialize SRRIP state for L2C
Initialize DRRIP state for LLC
Heartbeat_Variant_0 : 1333 0.325439 per_variant_size: 0 1333 0 0 0 0 0 0 0 
Heartbeat_Variant_1 : 1234 0.30127 per_variant_size: 0 578 656 0 0 0 0 0 0 
Heartbeat_Variant_2 : 1323 0.322998 per_variant_size: 0 519 377 336 91 0 0 0 0 
Heartbeat_Variant_3 : 0 0 per_variant_size: 0 0 0 0 0 0 0 0 0 
Heartbeat_Variant_0_evicts 0 : 5860 1 : 250 2 : 275 3 : 0 
Heartbeat_Variant_1_evicts 0 : 250 1 : 0 2 : 487 3 : 0 
Heartbeat_Variant_2_evicts 0 : 253 1 : 479 2 : 0 3 : 0 
Heartbeat_Variant_3_evicts 0 : 0 1 : 0 2 : 0 3 : 0 
Heartbeat CPU 0 instructions: 10000002 cycles: 2797962 heartbeat IPC: 3.57403 cumulative IPC: 3.57403 (Simulation time: 0 hr 1 min 41 sec) 
Heartbeat_Variant_0 : 1353 0.330322 per_variant_size: 0 1353 0 0 0 0 0 0 0 
Heartbeat_Variant_1 : 1250 0.305176 per_variant_size: 0 562 688 0 0 0 0 0 0 
Heartbeat_Variant_2 : 1348 0.329102 per_variant_size: 0 526 374 349 99 0 0 0 0 
Heartbeat_Variant_3 : 0 0 per_variant_size: 0 0 0 0 0 0 0 0 0 
Heartbeat_Variant_0_evicts 0 : 5749 1 : 70 2 : 68 3 : 0 
Heartbeat_Variant_1_evicts 0 : 76 1 : 0 2 : 317 3 : 0 
Heartbeat_Variant_2_evicts 0 : 61 1 : 325 2 : 0 3 : 0 
Heartbeat_Variant_3_evicts 0 : 0 1 : 0 2 : 0 3 : 0 
Heartbeat CPU 0 instructions: 20000002 cycles: 5595037 heartbeat IPC: 3.57516 cumulative IPC: 3.5746 (Simulation time: 0 hr 3 min 21 sec) 
Heartbeat_Variant_0 : 1357 0.331299 per_variant_size: 0 1357 0 0 0 0 0 0 0 
Heartbeat_Variant_1 : 1264 0.308594 per_variant_size: 0 578 686 0 0 0 0 0 0 
Heartbeat_Variant_2 : 1353 0.330322 per_variant_size: 0 523 384 356 90 0 0 0 0 
Heartbeat_Variant_3 : 0 0 per_variant_size: 0 0 0 0 0 0 0 0 0 
Heartbeat_Variant_0_evicts 0 : 5703 1 : 106 2 : 103 3 : 0 
Heartbeat_Variant_1_evicts 0 : 114 1 : 0 2 : 318 3 : 0 
Heartbeat_Variant_2_evicts 0 : 96 1 : 322 2 : 0 3 : 0 
Heartbeat_Variant_3_evicts 0 : 0 1 : 0 2 : 0 3 : 0 
Heartbeat CPU 0 instructions: 30000002 cycles: 8393064 heartbeat IPC: 3.57395 cumulative IPC: 3.57438 (Simulation time: 0 hr 5 min 6 sec) 
Heartbeat_Variant_0 : 1366 0.333496 per_variant_size: 0 1366 0 0 0 0 0 0 0 
Heartbeat_Variant_1 : 1265 0.308838 per_variant_size: 0 583 682 0 0 0 0 0 0 
Heartbeat_Variant_2 : 1356 0.331055 per_variant_size: 0 517 392 347 100 0 0 0 0 
Heartbeat_Variant_3 : 0 0 per_variant_size: 0 0 0 0 0 0 0 0 0 
Heartbeat_Variant_0_evicts 0 : 5743 1 : 71 2 : 72 3 : 0 
Heartbeat_Variant_1_evicts 0 : 66 1 : 0 2 : 286 3 : 0 
Heartbeat_Variant_2_evicts 0 : 70 1 : 284 2 : 0 3 : 0 
Heartbeat_Variant_3_evicts 0 : 0 1 : 0 2 : 0 3 : 0 
Heartbeat CPU 0 instructions: 40000003 cycles: 11192034 heartbeat IPC: 3.57274 cumulative IPC: 3.57397 (Simulation time: 0 hr 6 min 47 sec) 
Heartbeat_Variant_0 : 1361 0.332275 per_variant_size: 0 1361 0 0 0 0 0 0 0 
Heartbeat_Variant_1 : 1273 0.310791 per_variant_size: 0 591 682 0 0 0 0 0 0 
Heartbeat_Variant_2 : 1371 0.334717 per_variant_size: 0 531 391 354 95 0 0 0 0 
Heartbeat_Variant_3 : 0 0 per_variant_size: 0 0 0 0 0 0 0 0 0 
Heartbeat_Variant_0_evicts 0 : 5652 1 : 65 2 : 73 3 : 0 
Heartbeat_Variant_1_evicts 0 : 70 1 : 0 2 : 300 3 : 0 
Heartbeat_Variant_2_evicts 0 : 76 1 : 303 2 : 0 3 : 0 
Heartbeat_Variant_3_evicts 0 : 0 1 : 0 2 : 0 3 : 0 
Heartbeat CPU 0 instructions: 50000001 cycles: 13989404 heartbeat IPC: 3.57479 cumulative IPC: 3.57413 (Simulation time: 0 hr 8 min 30 sec) 

Warmup complete CPU 0 instructions: 50000001 cycles: 13989404 (Simulation time: 0 hr 8 min 30 sec) 

Cycle: 20000000 FTQ IN: 58075611 FTQ occupancy: 19.5272 DECODE IN: 58075539 DECODE occupancy: 50.9398 ROB IN: 58075479 ROB occupancy: 310.749 ROB OUT: 58075127
Heartbeat_Variant_0 : 1370 0.334473 per_variant_size: 0 1370 0 0 0 0 0 0 0 
Heartbeat_Variant_1 : 1269 0.309814 per_variant_size: 0 596 673 0 0 0 0 0 0 
Heartbeat_Variant_2 : 1379 0.33667 per_variant_size: 0 537 390 338 114 0 0 0 0 
Heartbeat_Variant_3 : 0 0 per_variant_size: 0 0 0 0 0 0 0 0 0 
Heartbeat_Variant_0_evicts 0 : 5698 1 : 137 2 : 121 3 : 0 
Heartbeat_Variant_1_evicts 0 : 132 1 : 0 2 : 337 3 : 0 
Heartbeat_Variant_2_evicts 0 : 120 1 : 339 2 : 0 3 : 0 
Heartbeat_Variant_3_evicts 0 : 0 1 : 0 2 : 0 3 : 0 
Heartbeat CPU 0 instructions: 60000001 cycles: 21414326 heartbeat IPC: 1.34682 cumulative IPC: 1.34682 (Simulation time: 0 hr 10 min 22 sec) 
Heartbeat_Variant_0 : 1368 0.333984 per_variant_size: 0 1368 0 0 0 0 0 0 0 
Heartbeat_Variant_1 : 1274 0.311035 per_variant_size: 0 602 672 0 0 0 0 0 0 
Heartbeat_Variant_2 : 1377 0.336182 per_variant_size: 0 534 388 355 100 0 0 0 0 
Heartbeat_Variant_3 : 0 0 per_variant_size: 0 0 0 0 0 0 0 0 0 
Heartbeat_Variant_0_evicts 0 : 5537 1 : 5 2 : 10 3 : 0 
Heartbeat_Variant_1_evicts 0 : 10 1 : 0 2 : 261 3 : 0 
Heartbeat_Variant_2_evicts 0 : 7 1 : 261 2 : 0 3 : 0 
Heartbeat_Variant_3_evicts 0 : 0 1 : 0 2 : 0 3 : 0 
Heartbeat CPU 0 instructions: 70000000 cycles: 28738413 heartbeat IPC: 1.36536 cumulative IPC: 1.35602 (Simulation time: 0 hr 12 min 11 sec) 
Cycle: 30000000 FTQ IN: 13652295 FTQ occupancy: 11.3135 DECODE IN: 13652332 DECODE occupancy: 29.6765 ROB IN: 13652344 ROB occupancy: 224.987 ROB OUT: 13652348
Heartbeat_Variant_0 : 1368 0.333984 per_variant_size: 0 1368 0 0 0 0 0 0 0 
Heartbeat_Variant_1 : 1283 0.313232 per_variant_size: 0 614 669 0 0 0 0 0 0 
Heartbeat_Variant_2 : 1374 0.335449 per_variant_size: 0 530 389 357 98 0 0 0 0 
Heartbeat_Variant_3 : 0 0 per_variant_size: 0 0 0 0 0 0 0 0 0 
Heartbeat_Variant_0_evicts 0 : 5705 1 : 88 2 : 121 3 : 0 
Heartbeat_Variant_1_evicts 0 : 100 1 : 0 2 : 317 3 : 0 
Heartbeat_Variant_2_evicts 0 : 111 1 : 322 2 : 0 3 : 0 
Heartbeat_Variant_3_evicts 0 : 0 1 : 0 2 : 0 3 : 0 
Heartbeat CPU 0 instructions: 80000000 cycles: 36170558 heartbeat IPC: 1.34551 cumulative IPC: 1.3525 (Simulation time: 0 hr 13 min 47 sec) 
Cycle: 40000000 FTQ IN: 13484385 FTQ occupancy: 11.4836 DECODE IN: 13484278 DECODE occupancy: 29.891 ROB IN: 13484266 ROB occupancy: 223.477 ROB OUT: 13484262
Heartbeat_Variant_0 : 1391 0.3396 per_variant_size: 0 1391 0 0 0 0 0 0 0 
Heartbeat_Variant_1 : 1312 0.320312 per_variant_size: 0 586 726 0 0 0 0 0 0 
Heartbeat_Variant_2 : 1352 0.330078 per_variant_size: 0 487 364 372 129 0 0 0 0 
Heartbeat_Variant_3 : 0 0 per_variant_size: 0 0 0 0 0 0 0 0 0 
Heartbeat_Variant_0_evicts 0 : 5961 1 : 396 2 : 383 3 : 0 
Heartbeat_Variant_1_evicts 0 : 393 1 : 0 2 : 606 3 : 0 
Heartbeat_Variant_2_evicts 0 : 371 1 : 585 2 : 0 3 : 0 
Heartbeat_Variant_3_evicts 0 : 0 1 : 0 2 : 0 3 : 0 
Heartbeat CPU 0 instructions: 90000001 cycles: 43691947 heartbeat IPC: 1.32954 cumulative IPC: 1.34669 (Simulation time: 0 hr 15 min 42 sec) 
Cycle: 50000000 FTQ IN: 13332935 FTQ occupancy: 11.061 DECODE IN: 13333014 DECODE occupancy: 28.7571 ROB IN: 13333074 ROB occupancy: 217.317 ROB OUT: 13333264
Heartbeat_Variant_0 : 1387 0.338623 per_variant_size: 0 1387 0 0 0 0 0 0 0 
Heartbeat_Variant_1 : 1312 0.320312 per_variant_size: 0 581 731 0 0 0 0 0 0 
Heartbeat_Variant_2 : 1358 0.331543 per_variant_size: 0 481 371 398 108 0 0 0 0 
Heartbeat_Variant_3 : 0 0 per_variant_size: 0 0 0 0 0 0 0 0 0 
Heartbeat_Variant_0_evicts 0 : 5713 1 : 77 2 : 88 3 : 0 
Heartbeat_Variant_1_evicts 0 : 77 1 : 0 2 : 301 3 : 0 
Heartbeat_Variant_2_evicts 0 : 92 1 : 302 2 : 0 3 : 0 
Heartbeat_Variant_3_evicts 0 : 0 1 : 0 2 : 0 3 : 0 
Heartbeat CPU 0 instructions: 100000002 cycles: 51057121 heartbeat IPC: 1.35774 cumulative IPC: 1.34888 (Simulation time: 0 hr 17 min 25 sec) 
Finished CPU 0 instructions: 50000001 cycles: 37067717 cumulative IPC: 1.34888 (Simulation time: 0 hr 17 min 25 sec) 

ChampSim completed all CPUs

Region of Interest Statistics

CPU 0 cumulative IPC: 1.34888 instructions: 50000001 cycles: 37067717
 Fetch stage stalled: 57.5535  Sim cycles: 37067717 fetch stall cycle: 21333780
 Empty decode stage: 41.419  Sim cycles: 37067717 fetch stall cycle: 15353071
ITLB TOTAL     ACCESS:    6905065  HIT:    6397191  MISS:     507874  HIT %:    92.6449  MISS %:    7.35509   MPKI: 10.1575
ITLB LOAD TRANSLATION INSTRUCTION	ACCESS:    5670893  HIT:    5183622  MISS:     487271  HIT %:    91.4075  MISS %:    8.59249  MPKI: 9.74542
ITLB TRANSLATION FROM L1D PREFETCHER INSTRUCTION	ACCESS:    1234172  HIT:    1213569  MISS:      20603  HIT %:    98.3306  MISS %:    1.66938  MPKI: 0.41206

ITLB AVERAGE MISS LATENCY: 62527.4 cycles
ITLB RQ	ACCESS:   10179501	FORWARD:          0	MERGED:    2792780	TO_CACHE:    7386721

DTLB TOTAL     ACCESS:    9000952  HIT:    8527990  MISS:     472962  HIT %:    94.7454  MISS %:    5.25458   MPKI: 9.45924
DTLB LOAD TRANSLATION DATA	ACCESS:    9000952  HIT:    8527990  MISS:     472962  HIT %:    94.7454  MISS %:    5.25458  MPKI: 9.45924

DTLB AVERAGE MISS LATENCY: 9.37584 cycles
DTLB RQ	ACCESS:   13363203	FORWARD:          0	MERGED:    4327334	TO_CACHE:    9035869

STLB TOTAL     ACCESS:    1227945  HIT:    1225647  MISS:       2298  HIT %:    99.8129  MISS %:   0.187142   MPKI: 0.04596
STLB LOAD TRANSLATION INSTRUCTION	ACCESS:     486287  HIT:     485993  MISS:        294  HIT %:    99.9395  MISS %:  0.0604581  MPKI: 0.00588
STLB TRANSLATION FROM L1D PREFETCHER INSTRUCTION	ACCESS:      21587  HIT:      21543  MISS:         44  HIT %:    99.7962  MISS %:   0.203826  MPKI: 0.00088
STLB LOAD TRANSLATION DATA	ACCESS:     472962  HIT:     471014  MISS:       1948  HIT %:    99.5881  MISS %:   0.411872  MPKI: 0.03896
STLB TRANSLATION FROM L1D PREFETCHER DATA	ACCESS:     247109  HIT:     247097  MISS:         12  HIT %:    99.9951  MISS %: 0.00485616  MPKI: 0.00024

STLB AVERAGE MISS LATENCY: 74.305 cycles
STLB RQ	ACCESS:    1376885	FORWARD:          0	MERGED:     118345	TO_CACHE:    1258540

STLB Hit, L1D data hit: 0
STLB Hit, L2C data hit: 0
STLB Hit, LLC data hit: 0
STLB Hit, LLC data miss: 0
STLB STLB hints to L2: 0
L1D TOTAL     ACCESS:   13096718  HIT:   11973565  MISS:    1123153  HIT %:    91.4242  MISS %:    8.57584   MPKI: 22.4631
L1D LOAD DATA	ACCESS:    6566252  HIT:    5824180  MISS:     742072  HIT %:    88.6987  MISS %:    11.3013  MPKI: 14.8414
L1D RFO DATA	ACCESS:    6206571  HIT:    5919826  MISS:     286745  HIT %:      95.38  MISS %:    4.62002  MPKI: 5.7349
L1D PREFETCH DATA	ACCESS:     323895  HIT:     229559  MISS:      94336  HIT %:    70.8745  MISS %:    29.1255  MPKI: 1.88672

L1D PREFETCH  REQUESTED:     731449  ISSUED:     731449  USEFUL:      34151  USELESS:      68240
L1D USEFUL LOAD PREFETCHES:      34151 PREFETCH ISSUED TO LOWER LEVEL:     102491  ACCURACY: 33.321
 TIMELY PREFETCHES:      34151 LATE PREFETCHES: 8046 DROPPED PREFETCHES: 7
L1D AVERAGE MISS LATENCY: 231033 cycles
L1D RQ	ACCESS:   10696587	FORWARD:          0	MERGED:    3930044	TO_CACHE:    6603185
L1D WQ	ACCESS:    6955398	FORWARD:     163839	MERGED:     195380	TO_CACHE:    6760018
L1D PQ	ACCESS:     365965	FORWARD:          0	MERGED:          0	TO_CACHE:     365484

L1D UNIQUE REGIONS ACCESSED: 0
L1D REGIONS CONFLICTS: 0
L1D Cross Page Prefetch Requests: 5255
L1D Same Page Prefetch Requests: 752596
L1D ROI Sum of L1D PQ occupancy: 4656364
L1D PREFETCHES PUSHED FROM L2C: 0
L1I TOTAL     ACCESS:    8785151  HIT:    5456169  MISS:    3328982  HIT %:    62.1067  MISS %:    37.8933   MPKI: 66.5796
L1I LOAD INSTRUCTION	ACCESS:    6561690  HIT:    4432699  MISS:    2128991  HIT %:    67.5542  MISS %:    32.4458  MPKI: 42.5798
L1I PREFETCH INSTRUCTION	ACCESS:    2223461  HIT:    1023470  MISS:    1199991  HIT %:    46.0305  MISS %:    53.9695  MPKI: 23.9998

L1I PREFETCH  REQUESTED:    3952571  ISSUED:    3949211  USEFUL:     941044  USELESS:     491431
L1I USEFUL LOAD PREFETCHES:     941044 PREFETCH ISSUED TO LOWER LEVEL:    1432464  ACCURACY: 65.6941
 TIMELY PREFETCHES:     941044 LATE PREFETCHES: 232473 DROPPED PREFETCHES: 70688
L1I AVERAGE MISS LATENCY: 2.27282e+06 cycles
L1I RQ	ACCESS:    9496104	FORWARD:          0	MERGED:    2725108	TO_CACHE:    6770996
L1I PQ	ACCESS:    3949211	FORWARD:          0	MERGED:     540706	TO_CACHE:    3408505

L1BTB TOTAL     ACCESS:    5670599  HIT:    2029036  MISS:    3641563  HIT %:    35.7817  MISS %:    64.2183   MPKI: 72.8313
L1BTB BRANCH_DIRECT_JUMP	ACCESS:     548408  HIT:     143251  MISS:     405157	AVERAGE STALL: 53.9658
L1BTB BRANCH_INDIRECT	ACCESS:     182571  HIT:      65572  MISS:     116999	AVERAGE STALL: 101.571
L1BTB BRANCH_CONDITIONAL	ACCESS:    2702921  HIT:    1405419  MISS:    1297502	AVERAGE STALL: 54.988
L1BTB BRANCH_DIRECT_CALL	ACCESS:     946380  HIT:     104576  MISS:     841804	AVERAGE STALL: 60.9536
L1BTB BRANCH_INDIRECT_CALL	ACCESS:     171970  HIT:      21099  MISS:     150871	AVERAGE STALL: 128.015
L1BTB BRANCH_RETURN	ACCESS:    1118349  HIT:     289119  MISS:     829230	AVERAGE STALL: 44.3321
L1BTB BRANCH_OTHER ACCESS:          0  HIT:          0  MISS:          0	AVERAGE STALL: -nan
L1BTB TOTAL ROB OCCUPANCY AT BTB MISS: 5.00498

L2BTB TOTAL     ACCESS:    3616169  HIT:    3506985  MISS:     109184  HIT %:    96.9807  MISS %:    3.01933   MPKI: 2.18368
L2BTB BRANCH_DIRECT_JUMP	ACCESS:     401029  HIT:     393262  MISS:       7767	AVERAGE STALL: 53.9658
L2BTB BRANCH_INDIRECT	ACCESS:     106651  HIT:     103913  MISS:       2738	AVERAGE STALL: 101.571
L2BTB BRANCH_CONDITIONAL	ACCESS:    1297502  HIT:    1273550  MISS:      23952	AVERAGE STALL: 54.988
L2BTB BRANCH_DIRECT_CALL	ACCESS:     841804  HIT:     839154  MISS:       2650	AVERAGE STALL: 60.9536
L2BTB BRANCH_INDIRECT_CALL	ACCESS:     141363  HIT:     131006  MISS:      10357	AVERAGE STALL: 128.015
L2BTB BRANCH_RETURN	ACCESS:     827820  HIT:     766100  MISS:      61720	AVERAGE STALL: 44.3321
L2BTB BRANCH_OTHER ACCESS:          0  HIT:          0  MISS:          0	AVERAGE STALL: -nan
L2BTB TOTAL ROB OCCUPANCY AT BTB MISS: 166.929

L2C TOTAL     ACCESS:    5725452  HIT:    4854653  MISS:     870799  HIT %:    84.7907  MISS %:    15.2093   MPKI: 17.416
L2C LOAD INSTRUCTION	ACCESS:    1896518  HIT:    1632509  MISS:     264009  HIT %:    86.0793  MISS %:    13.9207  MPKI: 5.28018
L2C PREFETCH INSTRUCTION	ACCESS:    1432464  HIT:    1240337  MISS:     192127  HIT %:    86.5877  MISS %:    13.4123  MPKI: 3.84254
L2C LOAD TRANSLATION INSTRUCTION	ACCESS:        331  HIT:        118  MISS:        213  HIT %:    35.6495  MISS %:    64.3505  MPKI: 0.00426
L2C TRANSLATION FROM L1D PREFETCHER INSTRUCTION	ACCESS:      44559  HIT:      30898  MISS:      13661  HIT %:    69.3418  MISS %:    30.6582  MPKI: 0.27322
L2C LOAD DATA	ACCESS:     734011  HIT:     614059  MISS:     119952  HIT %:     83.658  MISS %:     16.342  MPKI: 2.39904
L2C RFO DATA	ACCESS:     286604  HIT:     213732  MISS:      72872  HIT %:     74.574  MISS %:     25.426  MPKI: 1.45744
L2C PREFETCH DATA	ACCESS:     804765  HIT:     623772  MISS:     180993  HIT %:    77.5098  MISS %:    22.4902  MPKI: 3.61986
L2C WRITEBACK DATA	ACCESS:     524106  HIT:     498732  MISS:      25374  HIT %:    95.1586  MISS %:    4.84139  MPKI: 0.50748
L2C LOAD TRANSLATION DATA	ACCESS:       2067  HIT:        478  MISS:       1589  HIT %:    23.1253  MISS %:    76.8747  MPKI: 0.03178
L2C TRANSLATION FROM L1D PREFETCHER DATA	ACCESS:         27  HIT:         18  MISS:          9  HIT %:    66.6667  MISS %:    33.3333  MPKI: 0.00018

L2C PREFETCH  REQUESTED:    1504405  ISSUED:    1504405  USEFUL:      29513  USELESS:     359499
L2C USEFUL LOAD PREFETCHES:      29513 PREFETCH ISSUED TO LOWER LEVEL:     374564  ACCURACY: 7.87929
 TIMELY PREFETCHES:      29513 LATE PREFETCHES: 1444 DROPPED PREFETCHES: 0
L2C AVERAGE MISS LATENCY: 35.3327 cycles
L2C RQ	ACCESS:    2964164	FORWARD:          0	MERGED:          0	TO_CACHE:    2964117
L2C WQ	ACCESS:     524106	FORWARD:         47	MERGED:          0	TO_CACHE:     524106
L2C PQ	ACCESS:    3039360	FORWARD:          0	MERGED:     784183	TO_CACHE:    2255177

L2C Dense regions hint from L2: 0
PSCL5 TOTAL     ACCESS:      65742  HIT:      32871  MISS:      32871  HIT %:         50  MISS %:         50   MPKI: 0.65742
PSCL5 LOAD TRANSLATION INSTRUCTION	ACCESS:       4470  HIT:       2235  MISS:       2235  HIT %:         50  MISS %:         50  MPKI: 0.0447
PSCL5 TRANSLATION FROM L1D PREFETCHER INSTRUCTION	ACCESS:      61272  HIT:      30636  MISS:      30636  HIT %:         50  MISS %:         50  MPKI: 0.61272


PSCL4 TOTAL     ACCESS:      59298  HIT:      29646  MISS:      29652  HIT %:    49.9949  MISS %:    50.0051   MPKI: 0.59304
PSCL4 LOAD TRANSLATION INSTRUCTION	ACCESS:       1980  HIT:       1866  MISS:        114  HIT %:    94.2424  MISS %:    5.75758  MPKI: 0.00228
PSCL4 TRANSLATION FROM L1D PREFETCHER INSTRUCTION	ACCESS:      37851  HIT:      27780  MISS:      10071  HIT %:     73.393  MISS %:     26.607  MPKI: 0.20142
PSCL4 LOAD TRANSLATION DATA	ACCESS:       1758  HIT:          0  MISS:       1758  HIT %:          0  MISS %:        100  MPKI: 0.03516
PSCL4 TRANSLATION FROM L1D PREFETCHER DATA	ACCESS:      17709  HIT:          0  MISS:      17709  HIT %:          0  MISS %:        100  MPKI: 0.35418


PSCL3 TOTAL     ACCESS:      62265  HIT:      31127  MISS:      31138  HIT %:    49.9912  MISS %:    50.0088   MPKI: 0.62276
PSCL3 LOAD TRANSLATION INSTRUCTION	ACCESS:       2569  HIT:       2201  MISS:        368  HIT %:    85.6754  MISS %:    14.3246  MPKI: 0.00736
PSCL3 TRANSLATION FROM L1D PREFETCHER INSTRUCTION	ACCESS:      34852  HIT:      28926  MISS:       5926  HIT %:    82.9967  MISS %:    17.0033  MPKI: 0.11852
PSCL3 LOAD TRANSLATION DATA	ACCESS:       1844  HIT:          0  MISS:       1844  HIT %:          0  MISS %:        100  MPKI: 0.03688
PSCL3 TRANSLATION FROM L1D PREFETCHER DATA	ACCESS:      23000  HIT:          0  MISS:      23000  HIT %:          0  MISS %:        100  MPKI: 0.46


PSCL2 TOTAL     ACCESS:      40365  HIT:      20103  MISS:      20262  HIT %:     49.803  MISS %:     50.197   MPKI: 0.40524
PSCL2 LOAD TRANSLATION INSTRUCTION	ACCESS:       2388  HIT:       2087  MISS:        301  HIT %:    87.3953  MISS %:    12.6047  MPKI: 0.00602
PSCL2 TRANSLATION FROM L1D PREFETCHER INSTRUCTION	ACCESS:      34848  HIT:      18016  MISS:      16832  HIT %:    51.6988  MISS %:    48.3012  MPKI: 0.33664
PSCL2 LOAD TRANSLATION DATA	ACCESS:       1945  HIT:          0  MISS:       1945  HIT %:          0  MISS %:        100  MPKI: 0.0389
PSCL2 TRANSLATION FROM L1D PREFETCHER DATA	ACCESS:       1184  HIT:          0  MISS:       1184  HIT %:          0  MISS %:        100  MPKI: 0.02368


LLC TOTAL     ACCESS:     955820  HIT:     922597  MISS:      33223  HIT %:    96.5241  MISS %:    3.47586   MPKI: 0.66446
LLC LOAD INSTRUCTION	ACCESS:     263186  HIT:     262274  MISS:        912  HIT %:    99.6535  MISS %:   0.346523  MPKI: 0.01824
LLC PREFETCH INSTRUCTION	ACCESS:     190723  HIT:     189439  MISS:       1284  HIT %:    99.3268  MISS %:   0.673228  MPKI: 0.02568
LLC LOAD TRANSLATION INSTRUCTION	ACCESS:        213  HIT:        209  MISS:          4  HIT %:    98.1221  MISS %:    1.87793  MPKI: 8e-05
LLC TRANSLATION FROM L1D PREFETCHER INSTRUCTION	ACCESS:      13661  HIT:      13565  MISS:         96  HIT %:    99.2973  MISS %:    0.70273  MPKI: 0.00192
LLC LOAD DATA	ACCESS:     119405  HIT:     115083  MISS:       4322  HIT %:    96.3804  MISS %:    3.61961  MPKI: 0.08644
LLC RFO DATA	ACCESS:      72775  HIT:      58806  MISS:      13969  HIT %:    80.8052  MISS %:    19.1948  MPKI: 0.27938
LLC PREFETCH DATA	ACCESS:     183840  HIT:     171639  MISS:      12201  HIT %:    93.3633  MISS %:    6.63675  MPKI: 0.24402
LLC WRITEBACK DATA	ACCESS:     110419  HIT:     110105  MISS:        314  HIT %:    99.7156  MISS %:   0.284371  MPKI: 0.00628
LLC LOAD TRANSLATION DATA	ACCESS:       1589  HIT:       1468  MISS:        121  HIT %:    92.3851  MISS %:    7.61485  MPKI: 0.00242
LLC TRANSLATION FROM L1D PREFETCHER DATA	ACCESS:          9  HIT:          9  MISS:          0  HIT %:        100  MISS %:          0  MPKI: 0

LLC AVERAGE MISS LATENCY: 161.522 cycles
LLC RQ	ACCESS:     470861	FORWARD:          0	MERGED:          0	TO_CACHE:     470838
LLC WQ	ACCESS:     110419	FORWARD:         24	MERGED:          0	TO_CACHE:     110419
LLC PQ	ACCESS:     374564	FORWARD:          0	MERGED:          0	TO_CACHE:     374563

LLC Dense regions hint to LLC: 0

RAW hits: 1938887
Loads Generated: 12635471
Loads sent to L1D: 10696587
Stores Generated: 6955386
Stores sent to L1D: 6955398
Major fault: 0 Minor fault: 2591
Allocated PAGES: 2591
I-Shadow cache 408 bytes
Touched + WorthPF tables 12288 bytes 
MMA filter 42 bytes 
FNL filter 272 bytes 
TOTAL PREFETCHER STORAGE SIZE: 19922 bytes
CPU 0 L1I next line prefetcher final stats

stream: 
stream:times selected: 1191640
stream:pref_filled: 119827
stream:pref_useful: 22564
stream:pref_late: 8010
stream:misses: 8272
stream:misses_by_poll: 0

CS: 
CS:times selected: 179138
CS:pref_filled: 55807
CS:pref_useful: 32654
CS:pref_late: 10203
CS:misses: 19725
CS:misses_by_poll: 4

CPLX: 
CPLX:times selected: 1011343
CPLX:pref_filled: 18986
CPLX:pref_useful: 3781
CPLX:pref_late: 3731
CPLX:misses: 95593
CPLX:misses_by_poll: 2

NL_L1: 
NL:times selected: 13808
NL:pref_filled: 493
NL:pref_useful: 161
NL:pref_late: 326
NL:misses: 1117
NL:misses_by_poll: 0

total selections: 2395929
total_filled: 94336
total_useful: 34151
total_late: 23540
total_polluted: 6
total_misses_after_warmup: 779006
conflicts: 5526833

test: 117136

DRAM Statistics
 CHANNEL 0
 RQ ROW_BUFFER_HIT:      10999  ROW_BUFFER_MISS:      21908
 DBUS_CONGESTED:          8
 WQ ROW_BUFFER_HIT:       1585  ROW_BUFFER_MISS:      13711  FULL:          0

 AVG_CONGESTED_CYCLE: 5

CPU 0 Branch Prediction Accuracy: 99.8098% MPKI: 0.34798 Average ROB Occupancy at Mispredict: 174.495
Branch types
NOT_BRANCH: 40852013 81.704%
BRANCH_DIRECT_JUMP: 548408 1.09682%
BRANCH_INDIRECT: 182571 0.365142%
BRANCH_CONDITIONAL: 6180328 12.3607%
BRANCH_DIRECT_CALL: 946380 1.89276%
BRANCH_INDIRECT_CALL: 171970 0.34394%
BRANCH_RETURN: 1118349 2.2367%
BRANCH_OTHER: 0 0%

DRAM PAGES: 1048576
Allocated PAGES: 2591
Average_ROB_Occupancy: 223.292
Average_Decode_Occupancy: 29.5107
Average_FTQ_Occupancy: 11.322
Indirect max targets: 14 Average targets: 1.17572
Branch_type:  BRANCH_DIRECT_JUMP:  Count Percentage: 3.65456 5.30924 4.21505 2.77702 8.18439 6.01067 6.80713 63.0419 
Branch_type:  BRANCH_INDIRECT:  Count Percentage: 11.7748 3.41525 2.56267 0 13.0274 2.80817 16.5336 49.8781 
Branch_type:  BRANCH_CONDITIONAL:  Count Percentage: 20.9081 9.54656 2.46823 2.45299 3.75546 4.63238 3.16228 53.074 
Branch_type:  BRANCH_DIRECT_CALL:  Count Percentage: 0.390154 1.76233 0.740932 1.48346 5.09137 2.62409 0.741887 87.1658 
Branch_type:  BRANCH_INDIRECT_CALL:  Count Percentage: 9.56376 0 2.99636 0.000876043 0.848009 1.715 0.00759237 84.8684 
Branch_type:  BRANCH_RETURN:  Count Percentage: 3.73481 5.5896 2.15223 2.84173 4.80672 5.13361 3.51602 72.2253 
Branch_type:  BRANCH_DIRECT_JUMP:  Total Count: 40113 58275 46265 30481 89833 65974 74716 691957 
Branch_type:  BRANCH_INDIRECT:  Total Count: 43117 12506 9384 0 47704 10283 60543 182644 
Branch_type:  BRANCH_CONDITIONAL:  Total Count: 2584652 1180141 305121 303237 464248 572653 390920 6560983 
Branch_type:  BRANCH_DIRECT_CALL:  Total Count: 7352 33209 13962 27954 95941 49448 13980 1642538 
Branch_type:  BRANCH_INDIRECT_CALL:  Total Count: 32751 0 10261 3 2904 5873 26 290631 
Branch_type:  BRANCH_RETURN:  Total Count: 83200 124519 47945 63305 107079 114361 78326 1608957 
Number of unique branch instructions: 10653
Upper 32 bits: 
aaaa
ffff
ffff0000
Unique upper 32 bits: 3
Unique upper 36 bits: 3
Unique upper 40 bits: 5
Unique upper 44 bits: 32
Unique upper 48 bits: 158
Variant_0 : 1387 0.338623
Variant_1 : 1312 0.320312
Variant_2 : 1358 0.331543
Variant_3 : 0 0
Offset_3 4405
Offset_4 260
Offset_5 479
Offset_6 541
Offset_7 634
Offset_8 576
Offset_9 510
Offset_10 417
Offset_11 342
Offset_12 308
Offset_13 238
Offset_14 244
Offset_15 196
Offset_16 226
Offset_17 163
Offset_18 144
Offset_19 259
Offset_20 141
Offset_21 235
Offset_22 409
Offset_23 241
Offset_24 343
Offset_25 117
Offset_47 92
Offset_64 2
decode_dispatch_called: 24368562 65.7407
Dispatch_width: 0 13019686 53.4282 35.1241
Dispatch_width: 1 834524 3.42459 2.25135
Dispatch_width: 2 801229 3.28796 2.16153
Dispatch_width: 3 475027 1.94934 1.28151
Dispatch_width: 4 4542828 18.6422 12.2555
Dispatch_width: 5 204982 0.841174 0.552993
Dispatch_width: 6 4490286 18.4266 12.1137
Empty_decode_cycles: 12699155 34.2593
ROB_full_cycles: 7440574 20.0729
Starvation_cycles_per_kilo_instr: 251.369
Starvation_cycles_per_kilo_instr_3: 203.89
Starvation_cycles_per_kilo_instr_0: 182.783
Branch_type_1  (3,1)  (4,9)  (5,39)  (6,74)  (7,123)  (8,151)  (9,134)  (10,110)  (11,76)  (12,47)  (13,11)  (14,2)  (15,3)  (16,4)  (18,1)  (19,5)  (20,2)  (21,1)  (22,3)  (23,2)  (24,10)  (25,12) 
Branch_type_2  (3,1)  (4,1)  (5,1)  (8,4)  (9,4)  (10,1)  (12,1)  (13,1)  (14,1)  (16,3)  (17,2)  (20,2)  (21,2)  (23,5)  (24,1)  (47,41) 
Branch_type_3  (3,4403)  (4,250)  (5,435)  (6,451)  (7,481)  (8,354)  (9,279)  (10,168)  (11,130)  (12,54)  (13,10)  (64,2) 
Branch_type_4  (6,3)  (7,8)  (8,26)  (9,55)  (10,66)  (11,70)  (12,115)  (13,101)  (14,110)  (15,93)  (16,99)  (17,75)  (18,61)  (19,126)  (20,72)  (21,124)  (22,214)  (23,136)  (24,198)  (25,101) 
Branch_type_5  (8,3)  (9,1)  (10,4)  (11,5)  (12,3)  (13,14)  (14,16)  (15,11)  (16,22)  (17,11)  (18,23)  (19,14)  (20,11)  (21,13)  (22,43)  (23,26)  (24,38) 
Branch_type_6  (5,4)  (6,13)  (7,22)  (8,38)  (9,37)  (10,68)  (11,61)  (12,88)  (13,101)  (14,115)  (15,89)  (16,98)  (17,75)  (18,59)  (19,114)  (20,54)  (21,95)  (22,149)  (23,72)  (24,96)  (25,4)  (47,51) 
Unique trigger count: 
Variant_0_evicts_0 : 0
Variant_0_evicts_1 : 0
Variant_0_evicts_2 : 0
Variant_0_evicts_3 : 0
Variant_1_evicts_0 : 0
Variant_1_evicts_1 : 0
Variant_1_evicts_2 : 0
Variant_1_evicts_3 : 0
Variant_2_evicts_0 : 0
Variant_2_evicts_1 : 0
Variant_2_evicts_2 : 0
Variant_2_evicts_3 : 0
Variant_3_evicts_0 : 0
Variant_3_evicts_1 : 0
Variant_3_evicts_2 : 0
Variant_3_evicts_3 : 0
BTB PER SET UNIQUE ADDR: 11 13 12 15 11 16 9 17 11 13 15 19 11 12 11 13 11 13 12 14 15 12 15 14 14 14 13 16 10 11 15 17 12 6 10 7 15 12 9 13 13 8 11 15 8 15 13 10 22 12 13 9 14 13 17 5 14 10 14 12 13 20 13 14 8 16 13 12 16 10 16 16 14 12 10 7 9 13 12 13 16 5 11 18 13 16 15 12 10 16 8 10 15 10 8 16 13 9 13 18 19 20 16 10 13 13 13 12 9 10 11 15 15 16 8 7 15 12 10 14 14 11 10 12 14 16 6 11 17 11 8 15 14 11 11 16 8 12 13 16 11 17 16 10 18 12 12 8 9 13 13 14 11 15 15 15 19 14 15 14 8 11 13 19 13 23 16 9 16 12 11 14 11 14 18 8 12 14 9 17 13 13 13 14 20 14 6 13 11 12 15 10 10 15 13 15 8 12 13 15 17 16 12 10 13 7 11 15 10 16 10 15 12 11 11 14 14 15 13 23 7 17 10 13 10 17 17 9 8 16 7 11 15 12 15 14 12 13 11 10 13 11 16 15 6 14 14 9 11 10 13 10 16 9 19 13 9 10 14 12 16 11 7 10 13 8 14 11 12 12 15 12 11 6 10 10 12 16 10 12 11 14 7 13 14 8 13 21 19 16 11 8 10 17 9 15 13 15 16 12 13 10 12 14 12 18 15 8 22 10 14 17 13 17 12 8 17 17 13 19 11 18 10 13 18 17 13 5 11 10 15 12 11 11 12 13 7 11 7 18 14 11 8 12 10 15 13 16 16 13 12 11 9 17 10 11 15 15 11 12 11 18 10 13 14 17 7 16 12 15 13 12 16 13 8 13 16 11 14 11 14 11 9 9 11 10 13 16 16 13 13 15 17 16 12 7 9 8 15 11 11 16 11 14 16 10 14 20 8 12 11 9 6 19 14 8 12 13 17 19 15 14 9 15 21 9 13 13 8 12 15 7 13 13 16 13 20 11 12 9 15 9 14 14 23 10 12 16 13 19 20 9 17 9 11 22 15 17 14 16 14 11 15 9 23 9 12 12 13 16 9 10 14 13 12 17 11 14 11 16 21 15 12 18 7 19 16 14 15 15 8 18 12 7 9 10 15 18 12 12 16 19 16 17 14 8 12 20 14 13 13 20 18 12 17 13 9 21 8 14 9 11 10 9 14 18 23 9 13 21 17 15 16 15 14 21 13 14 11 15 16 13 13 14 21 14 8 15 7 7 16 16 14 15 13 12 17 10 15 20 14 14 12 14 14 15 10 14 12 14 14 15 17 15 11 14 21 18 12 13 17 13 6 11 16 12 18 11 19 18 12 12 14 8 15 7 11 13 9 15 16 12 13 9 10 13 23 11 15 9 21 14 13 15 5 15 9 15 15 15 19 15 8 11 12 18 16 20 9 14 12 15 17 12 10 10 11 18 12 18 11 13 15 20 11 14 10 19 17 10 12 12 13 11 9 15 12 9 13 11 14 8 13 16 15 15 9 11 12 9 17 12 13 16 18 12 13 17 15 18 12 15 16 16 11 15 12 16 14 16 15 12 16 10 10 12 9 14 11 14 11 9 16 15 9 13 15 8 15 9 12 9 8 14 13 10 17 13 12 11 10 10 14 14 6 11 14 12 8 10 12 11 12 4 9 18 13 14 22 13 9 12 13 9 17 15 17 13 12 14 17 12 12 12 9 14 18 12 8 8 11 7 8 13 19 13 10 13 17 14 16 17 14 9 13 13 18 10 18 13 8 13 14 13 15 8 8 14 12 6 7 8 16 10 14 20 14 12 20 14 17 11 23 17 22 10 14 10 12 13 12 15 15 19 14 11 12 14 8 15 15 21 10 16 14 13 11 17 10 15 18 21 12 10 13 18 16 10 13 12 13 13 9 8 12 16 10 18 15 12 9 15 12 13 13 19 12 14 14 9 13 8 11 13 23 9 13 7 17 15 14 10 14 12 19 7 13 13 13 15 13 11 15 16 16 13 19 10 18 13 20 15 14 13 11 14 17 14 15 10 18 14 15 16 10 6 9 17 11 17 10 11 12 12 13 11 14 18 12 10 16 15 10 10 12 8 9 14 11 10 16 17 14 19 9 19 12 15 13 14 10 17 6 15 15 9 15 8 14 12 15 17 14 16 11 12 10 15 17 14 17 17 12 14 13 8 18 12 13 14 15 15 15 13 20 13 17 15 15 21 12 11 14 17 11 18 18 13 14 14 17 12 15 13 14 14 12 11 18 11 23 13 11 11 14 18 9 14 13 14 9 14 11 8 13 8 5 10 9 8 13 9 13 8 
BTB PER SET COUNT: 993 1026 1917 4511 3793 64 5233 1114 3611 1520 1028 6038 47 2014 3551 1786 7505 610 18 239 1455 47 4200 461 2119 518 1190 3879 103 1577 4685 3604 287 39 17 572 1465 24 508 953 2623 21 2488 702 3961 2385 48 13 1983 1681 958 501 514 1461 2318 5 4008 3515 2349 126 486 1821 800 784 1443 2262 1710 2109 45 240 4682 2100 1931 864 2164 10 14 5477 24 589 915 923 4534 1624 5709 2858 24 20 87 1354 51 385 432 1208 570 383 3715 147 999 8729 1211 6002 1655 391 4791 44 357 2012 4751 1950 783 30 738 919 926 1170 2664 438 3054 1534 426 4991 135 2329 4179 2791 579 19 98 5156 1267 81 528 1582 21 5801 2179 466 2540 1832 14 277 237 2175 1847 2550 61 1001 801 2605 5416 4203 3658 1338 1125 823 1095 2231 1864 35 1255 17 1436 6023 3784 3341 46 1363 1385 2378 20 632 14 2748 1052 651 2456 3618 211 1719 1582 2807 9317 623 1227 50 458 529 1317 2903 99 669 1349 91 4660 8399 1112 2741 62 2189 3166 629 2930 498 2773 1260 20 1697 14 2434 1708 36 4422 11384 17 329 3308 211 3219 789 9 1075 17 4645 84 763 3638 2019 1946 4375 1223 968 1614 301 1252 20322 2514 1749 3220 29 957 3355 179 1433 12 8447 692 2653 659 17 21 25 1436 8014 38 2148 3451 33 556 14 2954 2808 12 1080 1376 5556 25 3916 1003 2691 1706 4166 881 1888 719 1605 497 1786 1617 138 151 1455 2014 3471 3103 8 2700 1770 1430 2598 796 726 12 1813 836 694 5003 24 5594 202 3523 2140 6104 28 2939 1156 2380 8 1398 3000 3894 1907 737 3923 2355 867 1339 281 1894 1335 470 5321 15 286 7651 607 2555 6 692 4178 1474 1449 22 2818 1862 837 14 2535 134 1245 392 3025 1993 17 29 3534 3978 37 3135 45 769 250 28 58 3565 8704 1810 6398 1009 7715 24 809 1266 1493 282 2717 3401 1596 1341 1857 795 2405 1903 1237 1585 3201 1396 1318 2761 2931 2884 2895 1242 296 15 82 880 790 337 1321 2220 5616 153 918 98 2062 335 95 3418 16 547 945 1070 6374 140 1181 1001 229 8 29 12 419 1376 1963 1757 445 792 453 1167 4909 23 1481 1974 1909 825 309 296 3552 15 823 1044 7 2863 647 1129 96 248 2214 9736 15 1746 489 2592 877 3397 15 3665 326 17 3836 315 2556 1692 939 16 1634 2649 4293 3690 4753 1435 302 1687 25 1503 2127 4436 1545 1774 501 16 838 1755 2200 3190 41 470 168 1219 1288 125 4264 5729 2746 239 296 316 4475 3171 2511 1181 2269 3791 529 2611 1537 5727 5297 1362 1560 2226 1348 3113 2950 79 559 1489 934 1796 303 466 1964 398 6487 1700 715 1384 3061 97 2684 1935 2841 26 666 690 1414 718 87 1181 5012 1478 38 986 1502 670 4109 5194 357 450 880 722 3112 782 615 566 4322 684 1182 524 486 3874 3132 147 1249 1148 488 1394 1136 903 2283 1773 3759 1081 3725 79 1129 43 421 1071 1611 900 52 6283 725 3221 1322 6399 2882 1182 16 1748 1717 1950 5931 254 101 1808 21 3765 2313 436 5562 2172 2631 3737 186 4390 2626 582 4171 715 4235 170 457 87 7084 1649 3436 3276 11 2194 3784 121 2461 1015 1523 2713 2082 485 3266 4501 88 323 969 1054 540 751 602 60 3137 949 2485 3607 1705 3251 2182 232 10332 14 3542 1145 2257 325 389 197 118 2765 4379 2708 1689 538 2902 38 198 60 131 3015 1298 2065 4223 7055 68 1922 25 1866 2625 24 1429 4660 741 511 244 2795 1400 2410 1336 496 3815 552 2410 5076 913 1113 942 1185 4839 23 1006 1852 1303 3239 253 2874 54 3556 18 1649 2984 1458 99 1598 16 1760 30 2221 465 1781 3709 2300 15 17 19 209 1836 3216 118 1163 26 2295 42 99 23 4863 5380 6 1853 1108 5545 3409 16 1258 3651 32 745 373 1861 5677 1601 4784 3818 1438 96 1276 77 981 2951 1107 2561 7746 97 5997 4373 1539 4080 14 891 2783 4371 992 192 37 1478 138 333 34 106 2388 3286 515 4365 1017 2763 2128 1434 50 1428 5179 16 2972 575 4815 2969 3872 1795 1260 2266 329 1021 744 7 96 302 5682 1241 314 4916 105 1408 3338 1622 3797 1606 1797 1052 2018 4953 226 11 431 383 2145 7876 2398 592 602 5785 353 1826 2365 1150 1287 4887 1332 1949 628 1209 2405 2003 3688 448 177 8246 801 21 2117 3285 219 1186 1792 1489 4316 746 2853 15 3185 909 19 1931 2801 1040 14 6732 5760 1534 23 5692 1152 95 156 254 2449 18 1495 2329 5323 282 2189 6393 7131 101 1533 279 1690 4467 1489 3123 665 604 4726 182 34 2760 4136 2623 2039 2228 2029 1058 4711 3352 1538 1389 1092 2757 16 80 1833 381 267 868 676 52 863 898 385 9 265 949 638 2783 740 3348 122 7214 2863 2846 1674 982 89 20 400 1993 2364 158 28 393 63 536 5154 23 1094 268 4018 2236 2050 5627 3259 111 162 1502 3943 5507 8 606 4493 10 97 724 661 1774 1299 1575 5432 11540 5584 3767 2394 1807 1835 3104 394 825 3687 456 2857 1194 835 2115 1591 323 60 1739 181 2062 4802 19 65 785 6602 6729 693 3230 1808 923 28 6036 2216 2733 382 838 3005 86 90 1015 3117 1438 484 1488 258 59 3142 328 1830 644 76 1004 171 541 222 5198 67 3347 19 10 565 1696 143 18 1157 329 47 49 2333 777 
To predecode: 1199991
Predecoding something: 758993
Predecode request dropped: 0
sizeofblock_0 0
sizeofblock_1 346370
sizeofblock_2 435392
sizeofblock_3 794827
sizeofblock_4 210778
sizeofblock_5 0
sizeofblock_6 0
sizeofblock_7 0
sizeofblock_8 0
Variant_0 Correct: 1611835 Incorrect: 0 Accuracy: 1
Variant_1 Correct: 2090102 Incorrect: 0 Accuracy: 1
Variant_2 Correct: 5057755 Incorrect: 0 Accuracy: 1
Variant_3 Correct: 0 Incorrect: 0 Accuracy: -nan
