
*** ChampSim Multicore Out-of-Order Simulator ***

Warmup Instructions: 50000000
Simulation Instructions: 50000000
Number of CPUs: 1
LLC sets: 2048
LLC ways: 16
Off-chip DRAM Size: 4096 MB Channels: 1 Width: 64-bit Data Rate: 6400 MT/s
CPU 0 runs ./micro_traces/srv559.trace.gz
.gz
ITLB has LRU replacement policy
DTLB has LRU replacement policy
STLB has LRU replacement policy
FDIP Prefetcher at L1I
L1I has LRU replacement policy
L1D has LRU replacement policy
Initialize SRRIP state for L2C
Initialize DRRIP state for LLC
Heartbeat_Variant_0 : 1287 0.157104 per_variant_size: 0 1287 0 0 0 0 0 0 0 
Heartbeat_Variant_1 : 1360 0.166016 per_variant_size: 0 921 439 0 0 0 0 0 0 
Heartbeat_Variant_2 : 1480 0.180664 per_variant_size: 0 825 443 183 29 0 0 0 0 
Heartbeat_Variant_3 : 0 0 per_variant_size: 0 0 0 0 0 0 0 0 0 
Heartbeat_Variant_0_evicts 0 : 7278 1 : 583 2 : 1489 3 : 0 
Heartbeat_Variant_1_evicts 0 : 667 1 : 0 2 : 608 3 : 0 
Heartbeat_Variant_2_evicts 0 : 1313 1 : 555 2 : 0 3 : 0 
Heartbeat_Variant_3_evicts 0 : 0 1 : 0 2 : 0 3 : 0 
Heartbeat CPU 0 instructions: 10000001 cycles: 2798729 heartbeat IPC: 3.57305 cumulative IPC: 3.57305 (Simulation time: 0 hr 1 min 56 sec) 
Heartbeat_Variant_0 : 1382 0.168701 per_variant_size: 0 1382 0 0 0 0 0 0 0 
Heartbeat_Variant_1 : 1462 0.178467 per_variant_size: 0 961 501 0 0 0 0 0 0 
Heartbeat_Variant_2 : 1536 0.1875 per_variant_size: 0 795 478 224 39 0 0 0 0 
Heartbeat_Variant_3 : 0 0 per_variant_size: 0 0 0 0 0 0 0 0 0 
Heartbeat_Variant_0_evicts 0 : 7450 1 : 600 2 : 1494 3 : 0 
Heartbeat_Variant_1_evicts 0 : 676 1 : 0 2 : 524 3 : 0 
Heartbeat_Variant_2_evicts 0 : 1387 1 : 579 2 : 0 3 : 0 
Heartbeat_Variant_3_evicts 0 : 0 1 : 0 2 : 0 3 : 0 
Heartbeat CPU 0 instructions: 20000003 cycles: 5596359 heartbeat IPC: 3.57445 cumulative IPC: 3.57375 (Simulation time: 0 hr 3 min 35 sec) 
Heartbeat_Variant_0 : 1383 0.168823 per_variant_size: 0 1383 0 0 0 0 0 0 0 
Heartbeat_Variant_1 : 1464 0.178711 per_variant_size: 0 965 499 0 0 0 0 0 0 
Heartbeat_Variant_2 : 1533 0.187134 per_variant_size: 0 793 476 225 39 0 0 0 0 
Heartbeat_Variant_3 : 0 0 per_variant_size: 0 0 0 0 0 0 0 0 0 
Heartbeat_Variant_0_evicts 0 : 7433 1 : 587 2 : 1449 3 : 0 
Heartbeat_Variant_1_evicts 0 : 650 1 : 0 2 : 511 3 : 0 
Heartbeat_Variant_2_evicts 0 : 1385 1 : 572 2 : 0 3 : 0 
Heartbeat_Variant_3_evicts 0 : 0 1 : 0 2 : 0 3 : 0 
Heartbeat CPU 0 instructions: 30000003 cycles: 8394237 heartbeat IPC: 3.57414 cumulative IPC: 3.57388 (Simulation time: 0 hr 5 min 15 sec) 
Heartbeat_Variant_0 : 1392 0.169922 per_variant_size: 0 1392 0 0 0 0 0 0 0 
Heartbeat_Variant_1 : 1497 0.182739 per_variant_size: 0 977 520 0 0 0 0 0 0 
Heartbeat_Variant_2 : 1557 0.190063 per_variant_size: 0 792 482 239 44 0 0 0 0 
Heartbeat_Variant_3 : 0 0 per_variant_size: 0 0 0 0 0 0 0 0 0 
Heartbeat_Variant_0_evicts 0 : 7382 1 : 595 2 : 1434 3 : 0 
Heartbeat_Variant_1_evicts 0 : 685 1 : 0 2 : 506 3 : 0 
Heartbeat_Variant_2_evicts 0 : 1349 1 : 584 2 : 0 3 : 0 
Heartbeat_Variant_3_evicts 0 : 0 1 : 0 2 : 0 3 : 0 
Heartbeat CPU 0 instructions: 40000002 cycles: 11191733 heartbeat IPC: 3.57463 cumulative IPC: 3.57407 (Simulation time: 0 hr 6 min 53 sec) 
Heartbeat_Variant_0 : 1394 0.170166 per_variant_size: 0 1394 0 0 0 0 0 0 0 
Heartbeat_Variant_1 : 1495 0.182495 per_variant_size: 0 976 519 0 0 0 0 0 0 
Heartbeat_Variant_2 : 1558 0.190186 per_variant_size: 0 795 480 239 44 0 0 0 0 
Heartbeat_Variant_3 : 0 0 per_variant_size: 0 0 0 0 0 0 0 0 0 
Heartbeat_Variant_0_evicts 0 : 7357 1 : 579 2 : 1437 3 : 0 
Heartbeat_Variant_1_evicts 0 : 708 1 : 0 2 : 448 3 : 0 
Heartbeat_Variant_2_evicts 0 : 1306 1 : 579 2 : 0 3 : 0 
Heartbeat_Variant_3_evicts 0 : 0 1 : 0 2 : 0 3 : 0 
Heartbeat CPU 0 instructions: 50000003 cycles: 13989095 heartbeat IPC: 3.5748 cumulative IPC: 3.57421 (Simulation time: 0 hr 8 min 31 sec) 

Warmup complete CPU 0 instructions: 50000003 cycles: 13989095 (Simulation time: 0 hr 8 min 31 sec) 

Cycle: 20000000 FTQ IN: 58001985 FTQ occupancy: 19.2586 DECODE IN: 58001943 DECODE occupancy: 49.8888 ROB IN: 58001924 ROB occupancy: 304.302 ROB OUT: 58001792
Heartbeat_Variant_0 : 1390 0.169678 per_variant_size: 0 1390 0 0 0 0 0 0 0 
Heartbeat_Variant_1 : 1500 0.183105 per_variant_size: 0 984 516 0 0 0 0 0 0 
Heartbeat_Variant_2 : 1559 0.190308 per_variant_size: 0 793 484 237 45 0 0 0 0 
Heartbeat_Variant_3 : 0 0 per_variant_size: 0 0 0 0 0 0 0 0 0 
Heartbeat_Variant_0_evicts 0 : 7390 1 : 577 2 : 1495 3 : 0 
Heartbeat_Variant_1_evicts 0 : 713 1 : 0 2 : 452 3 : 0 
Heartbeat_Variant_2_evicts 0 : 1363 1 : 583 2 : 0 3 : 0 
Heartbeat_Variant_3_evicts 0 : 0 1 : 0 2 : 0 3 : 0 
Heartbeat CPU 0 instructions: 60000001 cycles: 21479380 heartbeat IPC: 1.33506 cumulative IPC: 1.33506 (Simulation time: 0 hr 10 min 12 sec) 
Heartbeat_Variant_0 : 1469 0.179321 per_variant_size: 0 1469 0 0 0 0 0 0 0 
Heartbeat_Variant_1 : 1609 0.196411 per_variant_size: 0 1018 591 0 0 0 0 0 0 
Heartbeat_Variant_2 : 1594 0.19458 per_variant_size: 0 773 512 256 53 0 0 0 0 
Heartbeat_Variant_3 : 0 0 per_variant_size: 0 0 0 0 0 0 0 0 0 
Heartbeat_Variant_0_evicts 0 : 7458 1 : 654 2 : 1543 3 : 0 
Heartbeat_Variant_1_evicts 0 : 787 1 : 0 2 : 506 3 : 0 
Heartbeat_Variant_2_evicts 0 : 1402 1 : 609 2 : 0 3 : 0 
Heartbeat_Variant_3_evicts 0 : 0 1 : 0 2 : 0 3 : 0 
Heartbeat CPU 0 instructions: 70000002 cycles: 29053918 heartbeat IPC: 1.32021 cumulative IPC: 1.3276 (Simulation time: 0 hr 11 min 43 sec) 
Cycle: 30000000 FTQ IN: 13274377 FTQ occupancy: 10.2333 DECODE IN: 13274388 DECODE occupancy: 25.6051 ROB IN: 13274405 ROB occupancy: 198.213 ROB OUT: 13274333
Heartbeat_Variant_0 : 1469 0.179321 per_variant_size: 0 1469 0 0 0 0 0 0 0 
Heartbeat_Variant_1 : 1609 0.196411 per_variant_size: 0 1022 587 0 0 0 0 0 0 
Heartbeat_Variant_2 : 1594 0.19458 per_variant_size: 0 769 516 257 52 0 0 0 0 
Heartbeat_Variant_3 : 0 0 per_variant_size: 0 0 0 0 0 0 0 0 0 
Heartbeat_Variant_0_evicts 0 : 7506 1 : 658 2 : 1534 3 : 0 
Heartbeat_Variant_1_evicts 0 : 788 1 : 0 2 : 480 3 : 0 
Heartbeat_Variant_2_evicts 0 : 1404 1 : 610 2 : 0 3 : 0 
Heartbeat_Variant_3_evicts 0 : 0 1 : 0 2 : 0 3 : 0 
Heartbeat CPU 0 instructions: 80000003 cycles: 36437877 heartbeat IPC: 1.35429 cumulative IPC: 1.33638 (Simulation time: 0 hr 13 min 21 sec) 
Cycle: 40000000 FTQ IN: 13521088 FTQ occupancy: 10.3432 DECODE IN: 13521067 DECODE occupancy: 26.0272 ROB IN: 13521009 ROB occupancy: 199.339 ROB OUT: 13521030
Heartbeat_Variant_0 : 1484 0.181152 per_variant_size: 0 1484 0 0 0 0 0 0 0 
Heartbeat_Variant_1 : 1641 0.200317 per_variant_size: 0 1022 619 0 0 0 0 0 0 
Heartbeat_Variant_2 : 1603 0.195679 per_variant_size: 0 767 516 265 55 0 0 0 0 
Heartbeat_Variant_3 : 0 0 per_variant_size: 0 0 0 0 0 0 0 0 0 
Heartbeat_Variant_0_evicts 0 : 7286 1 : 614 2 : 1413 3 : 0 
Heartbeat_Variant_1_evicts 0 : 719 1 : 0 2 : 450 3 : 0 
Heartbeat_Variant_2_evicts 0 : 1307 1 : 549 2 : 0 3 : 0 
Heartbeat_Variant_3_evicts 0 : 0 1 : 0 2 : 0 3 : 0 
Heartbeat CPU 0 instructions: 90000003 cycles: 43926157 heartbeat IPC: 1.33542 cumulative IPC: 1.33614 (Simulation time: 0 hr 15 min 2 sec) 
Cycle: 50000000 FTQ IN: 13471317 FTQ occupancy: 10.5724 DECODE IN: 13471369 DECODE occupancy: 26.4736 ROB IN: 13471376 ROB occupancy: 203.013 ROB OUT: 13471211
Heartbeat_Variant_0 : 1488 0.181641 per_variant_size: 0 1488 0 0 0 0 0 0 0 
Heartbeat_Variant_1 : 1641 0.200317 per_variant_size: 0 1025 616 0 0 0 0 0 0 
Heartbeat_Variant_2 : 1599 0.19519 per_variant_size: 0 762 517 265 55 0 0 0 0 
Heartbeat_Variant_3 : 0 0 per_variant_size: 0 0 0 0 0 0 0 0 0 
Heartbeat_Variant_0_evicts 0 : 7419 1 : 644 2 : 1428 3 : 0 
Heartbeat_Variant_1_evicts 0 : 721 1 : 0 2 : 462 3 : 0 
Heartbeat_Variant_2_evicts 0 : 1347 1 : 539 2 : 0 3 : 0 
Heartbeat_Variant_3_evicts 0 : 0 1 : 0 2 : 0 3 : 0 
Heartbeat CPU 0 instructions: 100000002 cycles: 51272395 heartbeat IPC: 1.36124 cumulative IPC: 1.34108 (Simulation time: 0 hr 16 min 32 sec) 
Finished CPU 0 instructions: 50000003 cycles: 37283301 cumulative IPC: 1.34108 (Simulation time: 0 hr 16 min 32 sec) 

ChampSim completed all CPUs

Region of Interest Statistics

CPU 0 cumulative IPC: 1.34108 instructions: 50000003 cycles: 37283301
 Fetch stage stalled: 60.5899  Sim cycles: 37283301 fetch stall cycle: 22589904
 Empty decode stage: 47.0323  Sim cycles: 37283301 fetch stall cycle: 17535194
ITLB TOTAL     ACCESS:    5815219  HIT:    5322595  MISS:     492624  HIT %:    91.5287  MISS %:    8.47129   MPKI: 9.85248
ITLB LOAD TRANSLATION INSTRUCTION	ACCESS:    5697834  HIT:    5205210  MISS:     492624  HIT %:    91.3542  MISS %:    8.64581  MPKI: 9.85248
ITLB TRANSLATION FROM L1D PREFETCHER INSTRUCTION	ACCESS:     117385  HIT:     117385  MISS:          0  HIT %:        100  MISS %:          0  MPKI: 0

ITLB AVERAGE MISS LATENCY: 9.05785 cycles
ITLB RQ	ACCESS:    7895885	FORWARD:          0	MERGED:    1634746	TO_CACHE:    6261139

DTLB TOTAL     ACCESS:    9026864  HIT:    8553573  MISS:     473291  HIT %:    94.7569  MISS %:    5.24314   MPKI: 9.46582
DTLB LOAD TRANSLATION DATA	ACCESS:    9026864  HIT:    8553573  MISS:     473291  HIT %:    94.7569  MISS %:    5.24314  MPKI: 9.46582

DTLB AVERAGE MISS LATENCY: 9.36313 cycles
DTLB RQ	ACCESS:   13380706	FORWARD:          0	MERGED:    4316794	TO_CACHE:    9063912

STLB TOTAL     ACCESS:    1215605  HIT:    1213400  MISS:       2205  HIT %:    99.8186  MISS %:   0.181391   MPKI: 0.0441
STLB LOAD TRANSLATION INSTRUCTION	ACCESS:     492624  HIT:     492350  MISS:        274  HIT %:    99.9444  MISS %:  0.0556205  MPKI: 0.00548
STLB LOAD TRANSLATION DATA	ACCESS:     473220  HIT:     471315  MISS:       1905  HIT %:    99.5974  MISS %:   0.402561  MPKI: 0.0381
STLB TRANSLATION FROM L1D PREFETCHER DATA	ACCESS:     249761  HIT:     249735  MISS:         26  HIT %:    99.9896  MISS %:    0.01041  MPKI: 0.00052

STLB AVERAGE MISS LATENCY: 77.1859 cycles
STLB RQ	ACCESS:    1336168	FORWARD:          0	MERGED:     120523	TO_CACHE:    1215645

STLB Hit, L1D data hit: 0
STLB Hit, L2C data hit: 0
STLB Hit, LLC data hit: 0
STLB Hit, LLC data miss: 0
STLB STLB hints to L2: 0
L1D TOTAL     ACCESS:   13133458  HIT:   12019345  MISS:    1114113  HIT %:     91.517  MISS %:    8.48301   MPKI: 22.2823
L1D LOAD DATA	ACCESS:    6597091  HIT:    5863705  MISS:     733386  HIT %:    88.8832  MISS %:    11.1168  MPKI: 14.6677
L1D RFO DATA	ACCESS:    6206053  HIT:    5920239  MISS:     285814  HIT %:    95.3946  MISS %:    4.60541  MPKI: 5.71628
L1D PREFETCH DATA	ACCESS:     330314  HIT:     235401  MISS:      94913  HIT %:    71.2658  MISS %:    28.7342  MPKI: 1.89826

L1D PREFETCH  REQUESTED:     740875  ISSUED:     740875  USEFUL:      34042  USELESS:      68516
L1D USEFUL LOAD PREFETCHES:      34042 PREFETCH ISSUED TO LOWER LEVEL:     102620  ACCURACY: 33.1729
 TIMELY PREFETCHES:      34042 LATE PREFETCHES: 7670 DROPPED PREFETCHES: 5
L1D AVERAGE MISS LATENCY: 220927 cycles
L1D RQ	ACCESS:   10722034	FORWARD:          0	MERGED:    3930162	TO_CACHE:    6629391
L1D WQ	ACCESS:    6943304	FORWARD:     162850	MERGED:     191989	TO_CACHE:    6751315
L1D PQ	ACCESS:     370622	FORWARD:          0	MERGED:          0	TO_CACHE:     370253

L1D UNIQUE REGIONS ACCESSED: 0
L1D REGIONS CONFLICTS: 0
L1D Cross Page Prefetch Requests: 6925
L1D Same Page Prefetch Requests: 753397
L1D ROI Sum of L1D PQ occupancy: 4713901
L1D PREFETCHES PUSHED FROM L2C: 0
L1I TOTAL     ACCESS:    7141240  HIT:    4385187  MISS:    2756053  HIT %:    61.4065  MISS %:    38.5935   MPKI: 55.1211
L1I LOAD INSTRUCTION	ACCESS:    6507125  HIT:    3751072  MISS:    2756053  HIT %:    57.6456  MISS %:    42.3544  MPKI: 55.1211
L1I PREFETCH INSTRUCTION	ACCESS:     634115  HIT:     634115  MISS:          0  HIT %:        100  MISS %:          0  MPKI: 0

L1I PREFETCH  REQUESTED:    1486899  ISSUED:    1486899  USEFUL:          0  USELESS:          0
L1I USEFUL LOAD PREFETCHES:          0 PREFETCH ISSUED TO LOWER LEVEL:          0  ACCURACY: -nan
 TIMELY PREFETCHES:          0 LATE PREFETCHES: 0 DROPPED PREFETCHES: 0
L1I AVERAGE MISS LATENCY: 17.0606 cycles
L1I RQ	ACCESS:    9479079	FORWARD:          0	MERGED:    2668372	TO_CACHE:    6810707
L1I PQ	ACCESS:    1486899	FORWARD:          0	MERGED:     401721	TO_CACHE:    1085178

L1BTB TOTAL     ACCESS:    5671259  HIT:    2050084  MISS:    3621175  HIT %:    36.1487  MISS %:    63.8513   MPKI: 72.4235
L1BTB BRANCH_DIRECT_JUMP	ACCESS:     548608  HIT:     145731  MISS:     402877	AVERAGE STALL: 46.6638
L1BTB BRANCH_INDIRECT	ACCESS:     183227  HIT:      66273  MISS:     116954	AVERAGE STALL: 97.1245
L1BTB BRANCH_CONDITIONAL	ACCESS:    2707782  HIT:    1418637  MISS:    1289145	AVERAGE STALL: 49.1568
L1BTB BRANCH_DIRECT_CALL	ACCESS:     944369  HIT:     106669  MISS:     837700	AVERAGE STALL: 52.2552
L1BTB BRANCH_INDIRECT_CALL	ACCESS:     171449  HIT:      21395  MISS:     150054	AVERAGE STALL: 119.358
L1BTB BRANCH_RETURN	ACCESS:    1115824  HIT:     291379  MISS:     824445	AVERAGE STALL: 45.0862
L1BTB BRANCH_OTHER ACCESS:          0  HIT:          0  MISS:          0	AVERAGE STALL: -nan
L1BTB TOTAL ROB OCCUPANCY AT BTB MISS: 6.54801

L2BTB TOTAL     ACCESS:    3595777  HIT:    3448779  MISS:     146998  HIT %:    95.9119  MISS %:    4.08807   MPKI: 2.93996
L2BTB BRANCH_DIRECT_JUMP	ACCESS:     398706  HIT:     384532  MISS:      14174	AVERAGE STALL: 46.6638
L2BTB BRANCH_INDIRECT	ACCESS:     106658  HIT:     103526  MISS:       3132	AVERAGE STALL: 97.1245
L2BTB BRANCH_CONDITIONAL	ACCESS:    1289145  HIT:    1236135  MISS:      53010	AVERAGE STALL: 49.1568
L2BTB BRANCH_DIRECT_CALL	ACCESS:     837700  HIT:     817901  MISS:      19799	AVERAGE STALL: 52.2552
L2BTB BRANCH_INDIRECT_CALL	ACCESS:     140525  HIT:     128479  MISS:      12046	AVERAGE STALL: 119.358
L2BTB BRANCH_RETURN	ACCESS:     823043  HIT:     778206  MISS:      44837	AVERAGE STALL: 45.0862
L2BTB BRANCH_OTHER ACCESS:          0  HIT:          0  MISS:          0	AVERAGE STALL: -nan
L2BTB TOTAL ROB OCCUPANCY AT BTB MISS: 161.305

L2C TOTAL     ACCESS:    4475363  HIT:    4021660  MISS:     453703  HIT %:    89.8622  MISS %:    10.1378   MPKI: 9.07406
L2C LOAD INSTRUCTION	ACCESS:    2756053  HIT:    2511829  MISS:     244224  HIT %:    91.1386  MISS %:    8.86137  MPKI: 4.88448
L2C LOAD TRANSLATION INSTRUCTION	ACCESS:        319  HIT:         82  MISS:        237  HIT %:    25.7053  MISS %:    74.2947  MPKI: 0.00474
L2C LOAD DATA	ACCESS:     725684  HIT:     655186  MISS:      70498  HIT %:    90.2853  MISS %:     9.7147  MPKI: 1.40996
L2C RFO DATA	ACCESS:     285753  HIT:     230737  MISS:      55016  HIT %:     80.747  MISS %:     19.253  MPKI: 1.10032
L2C PREFETCH DATA	ACCESS:     185216  HIT:     116974  MISS:      68242  HIT %:    63.1555  MISS %:    36.8445  MPKI: 1.36484
L2C WRITEBACK DATA	ACCESS:     520313  HIT:     506271  MISS:      14042  HIT %:    97.3012  MISS %:    2.69876  MPKI: 0.28084
L2C LOAD TRANSLATION DATA	ACCESS:       1975  HIT:        552  MISS:       1423  HIT %:    27.9494  MISS %:    72.0506  MPKI: 0.02846
L2C TRANSLATION FROM L1D PREFETCHER DATA	ACCESS:         50  HIT:         29  MISS:         21  HIT %:         58  MISS %:         42  MPKI: 0.00042

L2C PREFETCH  REQUESTED:      90075  ISSUED:      90075  USEFUL:       7650  USELESS:      61193
L2C USEFUL LOAD PREFETCHES:       7650 PREFETCH ISSUED TO LOWER LEVEL:      68732  ACCURACY: 11.1302
 TIMELY PREFETCHES:       7650 LATE PREFETCHES: 490 DROPPED PREFETCHES: 0
L2C AVERAGE MISS LATENCY: 39.7313 cycles
L2C RQ	ACCESS:    3769889	FORWARD:          0	MERGED:          0	TO_CACHE:    3769834
L2C WQ	ACCESS:     520313	FORWARD:         55	MERGED:          0	TO_CACHE:     520313
L2C PQ	ACCESS:     192695	FORWARD:          0	MERGED:       3293	TO_CACHE:     189402

L2C Dense regions hint from L2: 0
PSCL5 TOTAL     ACCESS:       4430  HIT:       2215  MISS:       2215  HIT %:         50  MISS %:         50   MPKI: 0.0443
PSCL5 LOAD TRANSLATION INSTRUCTION	ACCESS:       4336  HIT:       2168  MISS:       2168  HIT %:         50  MISS %:         50  MPKI: 0.04336
PSCL5 TRANSLATION FROM L1D PREFETCHER INSTRUCTION	ACCESS:         94  HIT:         47  MISS:         47  HIT %:         50  MISS %:         50  MPKI: 0.00094


PSCL4 TOTAL     ACCESS:       4312  HIT:       2153  MISS:       2159  HIT %:    49.9304  MISS %:    50.0696   MPKI: 0.04318
PSCL4 LOAD TRANSLATION INSTRUCTION	ACCESS:       2132  HIT:       2107  MISS:         25  HIT %:    98.8274  MISS %:    1.17261  MPKI: 0.0005
PSCL4 TRANSLATION FROM L1D PREFETCHER INSTRUCTION	ACCESS:         46  HIT:         46  MISS:          0  HIT %:        100  MISS %:          0  MPKI: 0
PSCL4 LOAD TRANSLATION DATA	ACCESS:       2088  HIT:          0  MISS:       2088  HIT %:          0  MISS %:        100  MPKI: 0.04176
PSCL4 TRANSLATION FROM L1D PREFETCHER DATA	ACCESS:         46  HIT:          0  MISS:         46  HIT %:          0  MISS %:        100  MPKI: 0.00092


PSCL3 TOTAL     ACCESS:       4352  HIT:       2173  MISS:       2179  HIT %:    49.9311  MISS %:    50.0689   MPKI: 0.04358
PSCL3 LOAD TRANSLATION INSTRUCTION	ACCESS:       2152  HIT:       2127  MISS:         25  HIT %:    98.8383  MISS %:    1.16171  MPKI: 0.0005
PSCL3 TRANSLATION FROM L1D PREFETCHER INSTRUCTION	ACCESS:         46  HIT:         46  MISS:          0  HIT %:        100  MISS %:          0  MPKI: 0
PSCL3 LOAD TRANSLATION DATA	ACCESS:       2108  HIT:          0  MISS:       2108  HIT %:          0  MISS %:        100  MPKI: 0.04216
PSCL3 TRANSLATION FROM L1D PREFETCHER DATA	ACCESS:         46  HIT:          0  MISS:         46  HIT %:          0  MISS %:        100  MPKI: 0.00092


PSCL2 TOTAL     ACCESS:       4309  HIT:       2094  MISS:       2215  HIT %:     48.596  MISS %:     51.404   MPKI: 0.0443
PSCL2 LOAD TRANSLATION INSTRUCTION	ACCESS:       2329  HIT:       2048  MISS:        281  HIT %:    87.9347  MISS %:    12.0653  MPKI: 0.00562
PSCL2 TRANSLATION FROM L1D PREFETCHER INSTRUCTION	ACCESS:         46  HIT:         46  MISS:          0  HIT %:        100  MISS %:          0  MPKI: 0
PSCL2 LOAD TRANSLATION DATA	ACCESS:       1888  HIT:          0  MISS:       1888  HIT %:          0  MISS %:        100  MPKI: 0.03776
PSCL2 TRANSLATION FROM L1D PREFETCHER DATA	ACCESS:         46  HIT:          0  MISS:         46  HIT %:          0  MISS %:        100  MPKI: 0.00092


LLC TOTAL     ACCESS:     516475  HIT:     486141  MISS:      30334  HIT %:    94.1267  MISS %:    5.87328   MPKI: 0.60668
LLC LOAD INSTRUCTION	ACCESS:     244224  HIT:     242966  MISS:       1258  HIT %:    99.4849  MISS %:   0.515101  MPKI: 0.02516
LLC LOAD TRANSLATION INSTRUCTION	ACCESS:        237  HIT:        200  MISS:         37  HIT %:    84.3882  MISS %:    15.6118  MPKI: 0.00074
LLC LOAD DATA	ACCESS:      70028  HIT:      66160  MISS:       3868  HIT %:    94.4765  MISS %:     5.5235  MPKI: 0.07736
LLC RFO DATA	ACCESS:      54990  HIT:      40702  MISS:      14288  HIT %:    74.0171  MISS %:    25.9829  MPKI: 0.28576
LLC PREFETCH DATA	ACCESS:      68732  HIT:      58384  MISS:      10348  HIT %:    84.9444  MISS %:    15.0556  MPKI: 0.20696
LLC WRITEBACK DATA	ACCESS:      76820  HIT:      76397  MISS:        423  HIT %:    99.4494  MISS %:   0.550638  MPKI: 0.00846
LLC LOAD TRANSLATION DATA	ACCESS:       1423  HIT:       1313  MISS:        110  HIT %:    92.2699  MISS %:    7.73015  MPKI: 0.0022
LLC TRANSLATION FROM L1D PREFETCHER DATA	ACCESS:         21  HIT:         19  MISS:          2  HIT %:    90.4762  MISS %:    9.52381  MPKI: 4e-05

LLC AVERAGE MISS LATENCY: 158.029 cycles
LLC RQ	ACCESS:     370929	FORWARD:          0	MERGED:          0	TO_CACHE:     370923
LLC WQ	ACCESS:      76820	FORWARD:          6	MERGED:          0	TO_CACHE:      76820
LLC PQ	ACCESS:      68732	FORWARD:          0	MERGED:          0	TO_CACHE:      68732

LLC Dense regions hint to LLC: 0

RAW hits: 1911088
Loads Generated: 12633122
Loads sent to L1D: 10722034
Stores Generated: 6943287
Stores sent to L1D: 6943304
Major fault: 0 Minor fault: 2620
Allocated PAGES: 2620

stream: 
stream:times selected: 1191661
stream:pref_filled: 122851
stream:pref_useful: 24542
stream:pref_late: 6378
stream:misses: 7885
stream:misses_by_poll: 0

CS: 
CS:times selected: 179068
CS:pref_filled: 59049
CS:pref_useful: 35713
CS:pref_late: 6779
CS:misses: 16139
CS:misses_by_poll: 2

CPLX: 
CPLX:times selected: 1011397
CPLX:pref_filled: 19992
CPLX:pref_useful: 4745
CPLX:pref_late: 2999
CPLX:misses: 92562
CPLX:misses_by_poll: 1

NL_L1: 
NL:times selected: 20559
NL:pref_filled: 776
NL:pref_useful: 350
NL:pref_late: 278
NL:misses: 1752
NL:misses_by_poll: 0

total selections: 2402685
total_filled: 94913
total_useful: 34042
total_late: 17803
total_polluted: 3
total_misses_after_warmup: 765688
conflicts: 5536278

test: 118643

DRAM Statistics
 CHANNEL 0
 RQ ROW_BUFFER_HIT:      10908  ROW_BUFFER_MISS:      18998
 DBUS_CONGESTED:          8
 WQ ROW_BUFFER_HIT:       1517  ROW_BUFFER_MISS:      12964  FULL:          0

 AVG_CONGESTED_CYCLE: 6

CPU 0 Branch Prediction Accuracy: 99.809% MPKI: 0.34944 Average ROB Occupancy at Mispredict: 160.984
Branch types
NOT_BRANCH: 40853360 81.7067%
BRANCH_DIRECT_JUMP: 548608 1.09722%
BRANCH_INDIRECT: 183227 0.366454%
BRANCH_CONDITIONAL: 6182973 12.3659%
BRANCH_DIRECT_CALL: 944369 1.88874%
BRANCH_INDIRECT_CALL: 171449 0.342898%
BRANCH_RETURN: 1115824 2.23165%
BRANCH_OTHER: 0 0%

DRAM PAGES: 1048576
Allocated PAGES: 2620
Average_ROB_Occupancy: 201.444
Average_Decode_Occupancy: 26.0531
Average_FTQ_Occupancy: 10.4071
Indirect max targets: 14 Average targets: 1.17778
Branch_type:  BRANCH_DIRECT_JUMP:  Count Percentage: 3.39792 6.82409 4.04421 9.43577 1.69504 5.9665 1.01495 67.6215 
Branch_type:  BRANCH_INDIRECT:  Count Percentage: 11.7555 3.44574 2.56616 0 1.33234 9.70081 19.2401 51.9593 
Branch_type:  BRANCH_CONDITIONAL:  Count Percentage: 21.0563 3.09802 1.85263 9.04356 1.19632 4.79893 1.85577 57.0985 
Branch_type:  BRANCH_DIRECT_CALL:  Count Percentage: 0.754216 1.26775 1.46163 5.13768 2.44078 2.36341 0.649048 85.9255 
Branch_type:  BRANCH_INDIRECT_CALL:  Count Percentage: 9.54649 0.577008 2.99168 4.85096 0.999173 1.71233 1.28841 78.034 
Branch_type:  BRANCH_RETURN:  Count Percentage: 3.97085 0.69828 1.40967 9.54713 2.65258 6.20265 3.04355 72.4753 
Branch_type:  BRANCH_DIRECT_JUMP:  Total Count: 37292 74894 44385 103557 18603 65482 11139 742142 
Branch_type:  BRANCH_INDIRECT:  Total Count: 43075 12626 9403 0 4882 35546 70500 190391 
Branch_type:  BRANCH_CONDITIONAL:  Total Count: 2603072 382991 229031 1118006 147894 593265 229419 7058770 
Branch_type:  BRANCH_DIRECT_CALL:  Total Count: 14214 23892 27546 96825 45999 44541 12232 1619357 
Branch_type:  BRANCH_INDIRECT_CALL:  Total Count: 32676 1975 10240 16604 3420 5861 4410 267097 
Branch_type:  BRANCH_RETURN:  Total Count: 88461 15556 31404 212687 59093 138180 67803 1614575 
Number of unique branch instructions: 10784
Upper 32 bits: 
aaaa
ffff
ffff0000
Unique upper 32 bits: 3
Unique upper 36 bits: 3
Unique upper 40 bits: 5
Unique upper 44 bits: 32
Unique upper 48 bits: 158
Variant_0 : 1488 0.181641
Variant_1 : 1641 0.200317
Variant_2 : 1599 0.19519
Variant_3 : 0 0
Offset_3 4456
Offset_4 260
Offset_5 483
Offset_6 544
Offset_7 645
Offset_8 584
Offset_9 514
Offset_10 421
Offset_11 351
Offset_12 327
Offset_13 241
Offset_14 247
Offset_15 194
Offset_16 229
Offset_17 165
Offset_18 152
Offset_19 265
Offset_20 144
Offset_21 235
Offset_22 409
Offset_23 241
Offset_24 353
Offset_25 117
Offset_47 94
Offset_64 3
decode_dispatch_called: 23066586 61.8684
Dispatch_width: 0 12271067 53.1985 32.913
Dispatch_width: 1 721233 3.12674 1.93447
Dispatch_width: 2 695661 3.01588 1.86588
Dispatch_width: 3 437930 1.89855 1.1746
Dispatch_width: 4 3424210 14.8449 9.1843
Dispatch_width: 5 222374 0.964053 0.596444
Dispatch_width: 6 5294111 22.9514 14.1997
Empty_decode_cycles: 14216715 38.1316
ROB_full_cycles: 5510796 14.7809
Starvation_cycles_per_kilo_instr: 264.784
Starvation_cycles_per_kilo_instr_3: 228.318
Starvation_cycles_per_kilo_instr_0: 209.77
Branch_type_1  (3,1)  (4,9)  (5,39)  (6,75)  (7,127)  (8,149)  (9,136)  (10,111)  (11,79)  (12,55)  (13,11)  (14,2)  (15,3)  (16,4)  (18,1)  (19,5)  (20,2)  (21,1)  (22,3)  (23,2)  (24,10)  (25,12) 
Branch_type_2  (3,1)  (4,1)  (5,1)  (8,4)  (9,4)  (10,1)  (12,1)  (13,1)  (14,1)  (16,3)  (17,2)  (20,2)  (21,2)  (23,5)  (24,1)  (47,43) 
Branch_type_3  (3,4454)  (4,250)  (5,439)  (6,452)  (7,486)  (8,363)  (9,279)  (10,169)  (11,138)  (12,63)  (13,10)  (64,1) 
Branch_type_4  (6,4)  (7,8)  (8,27)  (9,57)  (10,67)  (11,69)  (12,117)  (13,102)  (14,112)  (15,92)  (16,101)  (17,76)  (18,65)  (19,128)  (20,73)  (21,124)  (22,215)  (23,136)  (24,208)  (25,101)  (64,1) 
Branch_type_5  (8,3)  (9,1)  (10,4)  (11,5)  (12,3)  (13,14)  (14,16)  (15,11)  (16,22)  (17,11)  (18,23)  (19,14)  (20,11)  (21,13)  (22,43)  (23,26)  (24,38) 
Branch_type_6  (5,4)  (6,13)  (7,24)  (8,38)  (9,37)  (10,69)  (11,60)  (12,88)  (13,103)  (14,116)  (15,88)  (16,99)  (17,76)  (18,63)  (19,118)  (20,56)  (21,95)  (22,148)  (23,72)  (24,96)  (25,4)  (47,51)  (64,1) 
Unique trigger count: 
Variant_0_evicts_0 : 0
Variant_0_evicts_1 : 0
Variant_0_evicts_2 : 0
Variant_0_evicts_3 : 0
Variant_1_evicts_0 : 0
Variant_1_evicts_1 : 0
Variant_1_evicts_2 : 0
Variant_1_evicts_3 : 0
Variant_2_evicts_0 : 0
Variant_2_evicts_1 : 0
Variant_2_evicts_2 : 0
Variant_2_evicts_3 : 0
Variant_3_evicts_0 : 0
Variant_3_evicts_1 : 0
Variant_3_evicts_2 : 0
Variant_3_evicts_3 : 0
BTB PER SET UNIQUE ADDR: 3 4 3 3 1 1 3 2 4 0 2 0 5 3 1 3 3 2 4 5 3 4 2 3 4 5 1 3 3 2 6 5 4 4 5 2 1 4 5 2 4 4 4 7 6 4 4 4 6 3 3 2 3 1 0 3 4 3 3 3 1 4 2 3 1 4 5 4 3 5 5 1 1 4 2 3 3 7 2 4 2 3 1 4 3 4 2 5 3 3 6 5 3 5 3 0 3 4 2 3 3 4 3 3 4 2 1 2 3 2 2 2 3 6 2 6 2 5 4 1 5 4 2 0 1 2 2 2 7 6 6 2 3 3 6 4 2 2 3 3 4 4 4 3 2 4 3 5 5 5 3 9 3 5 4 1 4 4 4 3 5 6 4 4 7 5 2 2 8 3 2 3 5 3 1 2 4 5 6 1 3 4 7 4 7 6 4 1 2 3 5 2 3 4 4 4 4 3 2 5 3 2 3 2 3 3 2 5 3 1 2 4 5 3 4 2 2 5 3 0 1 3 2 4 3 2 4 3 0 4 7 4 2 4 4 4 5 2 2 3 1 0 6 4 11 7 1 3 4 3 3 1 1 4 2 7 3 5 4 3 4 4 4 2 3 7 3 2 4 2 3 2 2 3 4 2 2 1 2 3 4 3 5 2 5 5 3 3 1 1 0 3 1 6 2 1 4 3 2 2 3 3 2 2 4 2 4 2 7 5 4 1 3 2 5 2 7 6 2 3 4 6 3 5 2 3 2 7 1 1 5 0 2 4 5 2 4 5 6 0 4 0 1 5 5 3 1 6 5 5 4 8 6 3 5 3 2 0 5 1 2 6 2 4 7 5 1 1 2 2 3 2 3 4 4 4 3 4 3 4 6 3 2 6 3 2 6 2 6 2 5 5 4 2 3 1 5 1 1 3 4 2 5 2 2 4 4 3 1 1 1 4 6 4 2 3 6 3 1 3 1 1 4 4 5 6 3 0 2 6 2 2 9 3 5 5 3 3 4 0 2 4 5 4 5 6 2 4 3 2 4 3 1 3 5 1 1 4 7 3 3 3 4 6 2 3 6 3 2 3 0 4 5 3 3 1 4 5 2 1 2 1 2 2 0 4 3 0 7 1 5 2 3 5 0 6 3 3 3 1 4 1 1 2 1 2 2 2 2 3 3 2 5 8 2 1 2 5 4 6 4 4 4 3 6 6 1 5 6 4 5 3 4 6 4 4 2 2 4 1 2 5 6 3 5 2 8 3 7 9 4 6 3 5 1 3 3 1 4 4 7 3 5 3 2 1 4 3 3 7 3 2 3 7 2 2 3 4 1 5 5 2 2 0 1 0 0 9 4 3 6 8 2 2 3 3 6 2 4 2 6 2 6 7 2 4 4 4 2 2 5 3 3 2 2 3 2 0 3 1 5 4 8 2 2 5 3 5 2 3 5 4 3 3 4 5 3 4 3 3 8 1 4 4 1 0 4 4 3 4 3 2 5 2 3 0 5 3 2 3 6 2 6 4 6 4 5 3 2 4 5 5 4 3 6 6 3 3 3 2 4 2 5 2 6 3 5 3 4 3 1 5 2 3 3 3 6 4 5 5 0 6 0 3 3 3 4 1 3 1 3 3 3 2 2 1 8 2 0 3 2 0 1 1 1 3 1 4 2 4 6 5 2 2 3 4 8 3 2 2 2 3 2 4 2 3 4 2 3 2 0 2 1 4 2 2 3 6 4 1 3 3 1 5 4 4 8 3 2 2 5 4 0 3 3 4 4 2 1 3 4 4 0 3 8 6 3 4 0 3 2 4 2 1 5 7 7 2 2 4 5 3 5 3 5 3 3 5 2 3 1 4 4 1 5 4 1 2 0 4 5 2 5 2 2 2 4 2 4 4 3 1 3 2 5 2 2 2 5 3 2 2 3 4 2 4 7 5 5 2 6 3 5 4 5 5 3 2 4 4 2 6 2 1 9 3 3 4 5 3 1 3 3 6 4 0 2 3 5 4 3 5 5 4 5 3 2 3 3 5 4 3 4 4 3 2 6 4 3 2 5 2 1 4 5 5 5 5 3 5 5 4 1 3 1 5 0 2 6 2 6 4 5 3 4 1 3 2 5 8 5 4 9 7 6 4 6 5 2 7 4 2 1 4 4 6 5 4 4 4 7 1 5 5 2 4 6 6 4 2 3 3 4 5 2 6 9 5 6 3 3 4 0 6 7 1 7 5 1 3 7 5 3 5 2 1 2 5 4 2 5 4 2 6 5 5 4 5 3 5 3 3 5 2 3 5 4 3 3 3 5 3 4 4 6 2 5 3 2 5 5 2 10 5 3 3 3 2 2 3 3 7 6 2 3 2 3 2 2 1 3 2 4 4 3 4 6 5 4 6 0 3 3 4 4 4 2 1 3 2 3 1 2 1 3 1 3 3 3 5 2 8 5 3 2 1 9 1 2 4 1 2 6 5 3 7 3 4 5 6 3 5 3 1 1 1 5 1 4 4 3 8 4 1 6 4 6 2 3 4 5 3 5 8 4 4 6 1 4 5 7 4 3 3 4 3 6 6 3 5 6 6 4 3 5 5 1 2 3 5 1 3 2 1 3 5 2 3 5 2 2 5 4 2 5 1 6 3 3 2 3 1 3 5 3 4 3 4 2 6 2 3 7 3 5 5 4 5 2 8 3 5 3 8 6 2 7 1 5 2 1 2 4 3 3 1 3 5 3 1 2 3 4 4 3 3 3 4 2 5 2 5 4 5 0 5 3 3 2 6 8 1 7 0 1 4 5 2 5 1 4 3 4 1 1 2 4 5 3 4 1 4 4 6 5 1 4 3 3 6 10 4 3 7 6 5 1 1 3 5 6 3 2 2 4 3 4 4 5 3 0 4 2 3 6 8 5 3 3 5 1 2 6 3 4 1 3 2 6 8 3 3 3 3 4 5 2 5 5 6 5 2 1 5 4 2 4 3 4 3 4 4 7 3 5 4 3 5 5 3 1 7 4 4 3 3 3 2 3 2 2 2 5 4 3 3 5 2 1 3 3 8 5 2 3 4 2 4 3 3 4 3 2 0 4 2 3 2 4 3 3 4 2 1 2 6 1 5 2 4 2 2 7 1 1 5 4 3 3 4 5 2 3 4 5 5 4 4 4 3 3 3 2 3 5 2 4 1 4 0 7 3 3 6 4 4 5 7 3 2 3 3 2 3 4 1 4 2 4 3 0 5 1 6 3 3 3 5 3 2 5 3 4 2 4 1 6 3 0 3 3 1 1 4 1 5 3 3 6 3 2 1 2 3 2 2 7 2 3 5 3 3 3 4 2 2 5 0 2 3 4 3 2 2 2 0 3 0 4 2 4 4 2 3 2 1 2 6 4 2 6 1 3 4 2 2 5 5 2 2 6 0 1 2 3 1 1 2 3 3 5 3 1 1 8 2 1 4 1 6 1 4 3 3 6 2 4 2 1 3 3 1 2 3 5 2 3 3 1 3 0 5 2 3 3 0 4 3 4 3 5 3 3 4 2 3 2 2 2 3 5 0 2 3 3 3 4 1 3 3 2 10 7 2 3 2 4 1 1 3 6 2 3 0 3 2 4 2 3 5 6 6 8 0 4 2 8 4 4 5 4 8 2 4 8 3 0 6 4 3 3 5 3 3 2 1 1 5 2 2 3 3 2 3 6 3 5 4 6 1 1 5 5 3 3 5 5 4 5 2 5 5 2 6 4 3 3 2 3 6 5 3 2 3 3 3 4 4 2 3 3 2 3 1 3 8 0 2 2 3 3 4 5 3 3 2 5 1 2 2 6 2 4 5 7 1 1 7 3 4 3 3 4 8 2 3 2 4 7 3 5 3 5 3 5 10 3 3 3 5 2 5 4 3 2 3 1 2 3 4 4 3 2 4 3 5 4 2 4 9 0 3 2 4 4 4 3 4 3 6 4 5 1 4 3 3 4 3 3 0 3 5 0 7 2 6 5 1 4 3 2 0 4 2 3 5 3 6 2 3 2 2 3 5 6 1 4 3 0 3 2 4 5 3 2 3 5 2 3 2 6 4 4 1 4 3 0 2 4 1 1 8 2 0 4 2 4 3 2 3 6 3 2 6 1 5 4 6 2 6 5 3 3 2 7 1 4 1 3 3 4 4 3 4 2 1 2 5 0 3 0 3 5 6 2 2 5 2 3 3 3 1 3 2 4 2 4 2 5 3 2 3 1 1 3 2 4 2 3 4 2 1 1 3 2 5 1 5 1 6 4 3 3 2 5 1 2 3 5 4 3 4 5 6 3 3 3 4 3 2 0 3 2 0 2 1 2 2 4 2 5 2 2 3 4 1 2 4 3 2 3 9 3 2 7 7 4 2 5 2 3 6 3 4 5 3 4 1 2 4 6 4 2 4 3 2 5 3 5 7 3 3 0 4 1 0 2 3 0 4 4 6 1 3 3 7 5 0 2 2 4 3 5 2 3 3 8 3 2 3 3 7 2 7 3 3 7 0 1 3 1 4 4 2 0 2 2 4 6 5 1 0 3 4 6 1 1 1 3 6 2 1 5 5 3 3 5 4 1 6 3 6 1 1 2 2 2 2 5 1 3 3 3 3 4 1 4 3 4 3 4 2 1 3 6 4 3 0 
BTB PER SET COUNT: 3 4 3 3 2 2 3 2 5 0 2 0 7 6 1 3 3 3 4 1478 3 6 2 3 4 5 1 4 1465 3 10 11 6 5 6 2 2926 4 11 2 5 5 9 1321 4855 6 4 5 6 3 3 2 3 1 0 3 5 3 3 3 1 4 2 3 1 375 428 6 3 5 972 1 1 4 2 3 496 798 4 4 2 4 2 4 4 7 2 5 3 3 7 485 3 5 3 0 3 8 2 3 4 4 5 3 4 2 1 3 4 2 2 2 3 12 2 7 2 7 4 1 5 5 2 0 2 2 2 3 10 10 996 2 3 5 10 4 2 2 3 3 4 8 6 3 3 966 5 5 5 7 3 73 3 5 10 1 4 6 980 5 6 9 992 5 13 1946 2 2 3408 3 2 3 5 3 1 6 4 5 976 1 3 4 27 4 11 7 5 1 2 4 8 2 3 4 4 6 5 3 3 5 3 3 3 2 3 3 2 1483 3 1 4 7 5 3 4 2 2 9 3 0 1 3 2 4 4 2 8 37 0 4 1191 5 2 5 4 5 9 2 2 3 1 0 9 4 17 13 1 3 6 3 4 1 1 4 3 10 5 6 4 4 8 4 4 2 1465 10 3 2 4 3 3 2 3 3 6 2 2 1 2 3 6 990 5 2 7 1487 3 4 1 1 0 1940 1 6 4 1 8 3 3 2 3 3 2 2 4 3 5 2 1981 9 5 1 3 2 5 2 9 14 2 4 5 6 3 5 2 3 2 12 1 1 1006 0 2 4 1936 4 994 7 6 0 5 0 1 992 992 3 1 6 6 8 4 17 7 3 5 6 2 0 6 1 3 11 2 4 10 7 1 2 3 3 5 2 3 5 8 4 5 4 3 6 25 4 2 8 3 2 13 2 6 2 7 8 4 2 5 1 1471 1 1 3 5 2 6 2 2 4 1466 3 1 969 1 4 6 8 970 3 166 3 1 90 1 1 7 4 5 8 6 0 2 7 145 2 2745 3 5 6 4 3 5 0 2 5 5 4 7 22 2 5 3 2 4 5 1 4 5 2 1 4 998 3 4 3 4 6 2 4 7 3 3 3 0 5 2946 496 4 1 5 5 2 1 3 1 2 495 0 7 3 0 7 1 7 2 4 6 0 14 8 4 3 1 4 6 1 2 1 3 2 2 2 3 3 2 6 21 5 1 2 6 4 996 5 1467 4 4 9 9 1 6 6 6 5 3 4 9 4 1003 2 2 10 1 3 5 10 7 997 2 16 3 8 15 6 23 4 7 1 3 5 1 4 5 11 1941 5 4 2 1 4 3 3 1019 3 3 3 1983 2 2 4 4 2 7 5 35 3 0 1 0 0 2327 5 3 10 34 3 4 971 5 6 2 5 2 8 5 9 8 2 6 4 4 4 2 5 3 5 2 2 3 989 0 4 1 11 497 15 3 4 5 4 6 2 5 498 1466 3 5 4 6 5 4 3 3 2000 1 4 4 1 0 7 4 3 6 5 2 9 2 6 0 7 4 2 4 7852 4 15 6 8 5 2934 991 2 4 989 5 5 7 6 993 3 3 6 2 6 4 7 990 14 4 5 1465 4 3 2 996 4 3 3 3 7 9 13 42 0 6 0 3 3 991 5 1 3 2 3 4 4 2 989 1 1478 2 0 3 2 0 1 1 1 5 1 975 2 5 1937 5 970 2 3 4 13 3 2 2 2 3 2 4 2 3 509 3 3 979 0 3 1 5 2 2 3 8 6 1 3 4 1 8 4 4 10 3 4 2 6 19 0 150 5 5 8 4 1 3 4 24 0 1965 750 11 3 4 0 3 3 1359 3 1 6 7 1114 2 2 4 5 3 5 991 1982 5 5 6 3 5 1 4 4 1 6 5 4 3 0 4 11 3 7 2 2 2 5 2 4 107 4 1 3 2 12 983 15 2 5 3 3 2 3 1468 2 15 2944 7 7 3 9 3 11 5 9 5 4 2 7 7 2 6 2 1 2934 971 5 4 6 7 1 3 3 13 8 0 4 4 6 4 3 5 31 5 8 3 2 4 3 7 5 3 6 6 3 4 11 4 3 2 5 2 1 46 8 6 5 5 3 11 8 4 1 3 1 5 0 2 8 2 11 6 5 3 9 1 3 2 5 1008 6 500 2816 1448 8 4 65 10 4 16 4 2 1 974 6 19 5 249 5 4 8 1 7 5 2 4 14 11 6 2 3 508 4 5 5 9 23 5 7 3 3 4 0 377 10 1 1052 5 1 3 996 6 496 5 2 4 2 9 6 2 10 993 2 993 9 8 5 1955 3 7 5 6 5 2 3 6 5 10 3 4 1982 4 2435 373 1777 4 10 6 2 6 685 6 1895 5 3 990 4 2 2 3 3 18 6 6 5 1939 3 2 2 3 990 2 6 4 3 4 10 6 4 6 0 3 3 4 1467 376 2 1 6 3 4 1 5 1 3 1 3 3 3 10 2 11 5 3 2 2 1937 1 2 4 1 2 7 84 3 7 3 4 5 7 5 5 3 1 2 1 13 1 991 4 3 20 4 1 6 4 18 2 498 4 5 4 6 672 4 4 10 2 5 7 12 6 3 3 4 4 6 957 4 6 6 1545 7 3 6 9 1 4 3 5 1 3 2 1 3 8 2 4 1711 2 2 6 6 2 5 1 13 4 3 2 4 1 4 6 3 10 4 4 3 11 2 3 11 3 6 9 6 7 2 15 5 992 3 997 15 2 975 1 14 2 1 2 508 991 3 1 3 155 3 1 2 497 7 4 3 3 4 4 2 1485 2 5 4 5 0 9 3 3 2 12 982 1 12 0 1 7 5 3 8 1 4 980 8 1 1 2 5 4883 3 4 1 4 6 6 5 1 4 3 5 6 14 1956 5 1978 8 5 1 1 3 5 7 3 2 2 4 4 5 4 5 3 0 4 2 3 6 327 8 4 3 5 1 2 6 3 4 1 3 2 9 1480 971 3 3 3 6 8 2 6 6 7 5 2 1 19 4 2 7 3 2928 3 4 4 10 3 5 4 990 5 2471 998 1 2142 4 4 3 3 3 4 3 2 2 2 8 4 3 3 5 2 1 3 4 1964 9 3 4 4 2 4 3 3 5 3 3 0 4 2 3 2 4 3 994 4 2 1 2 6 1 5 2 4 2 2 10 1 1 5 4 971 3 5 7 2 3 30 8 5 6 5 4 3 3 3 3 3 8 4 7 1 6 0 9 3 3 11 6 7 8 2758 3 2 3 3 2 4 6 1 9 3 993 5 0 6 1 7 4 4 5 8 4 2 1467 3 4 1340 13 1 502 4 0 3 4 1 1 1342 1 992 3 3 6 3 3 1 2 4 2 2 3402 2 4 14 3 3 3 4 2 2 8 0 4 992 4 972 2 2 2 0 4 0 4 2 6 5 2 3 979 1 12 19 38 2 2466 1 4 6 2 2 8 986 134 2 20490 0 1 2 3 1 1 2 3 3 266 381 1 1 56 2 1 4 1 8 1 4 4 3 47 2 13 2 1 3 3 1 3 3 6 3 3 4 1 3 0 3814 2 3 6 0 6 480 4 4 8 3 3 5 2 7 2 2 2 5 7 0 2 3 3 3 16 1 961 3 2 77 7 2 7 2 4 1 1 6 978 2 3 0 3 2 4 2 3 7 8 12 18 0 963 2 15 4 4 8 4 10 2 7 4892 3 0 992 1466 3 5 8 3 4 2 1 1 978 4 2 3 3 2 4 7 5 5 6 2932 2965 1 5 6 5 4 11 7 5 8 4 993 8 2 7 8 1242 373 2 1465 13 7 186 7 3 3 3 5 5 2 12 3 3 4 1 3 14 0 3 2 4 3 6 499 4 3 2 17 2 2 6 7 2 1490 10 11 1 1 9 3 994 3 5 4 9 507 3 2 990 7 3 499 4 942 3 1981 6477 4 3 14634 998 2 1961 1466 15 2 979 1 3 3 4 4 3 2 4 3 5 4 2 155 15 0 2428 2 1466 111 5 3 4 3 10 4 777 1 4 7 4 6 4 1917 0 989 648 0 2468 2 17 8 1 5 3 2 0 4 2 9 5 4 6 2 4 4 3 3 7 10 1 4 512 0 3 2 5 5 1928 2 3 976 2 3 2 1519 4 4 1 6 3 0 2 13 1463 1 2679 2 0 4 4 5 5 4 4 8 4 448 6 1 5 4 6 217 984 68 3 3 2 911 2 356 1 3 2939 4 7 4 6 2 1 2 496 0 3 0 3 5 9 2 2 1956 421 3 8 971 1 3 2 6 2 4 2 35 5 988 3 1 1 363 2 6 2 3 6 2 1 1 4 2 5 1 5 1 3818 4 3 3 9 11 1 2 3 5 4 3 981 9 8 3 4 3 4 3 2 0 3 2 0 2 1 2 3 4 2 5 2 3 3 4 1 2 4 4 2 3 30 6 2 1536 15 107 2 7 5 3 12 3 5 16 5 8 2 3 4 8 981 2 5 3 2 5 4 6 12 3 4 0 1922 1 0 3 4 0 4 2928 403 1 3 3 964 7 0 5 2 13 3 5 2 4 3 4231 3 3 4 3 526 10 998 3 3 5085 0 1 4 1 5 5 2 0 2 2 2907 6 6 2 0 4 4 7 1 1 1 3 14 2 1 5 7 3 5 5 4 1 24 3 7 1 1 2 2 2 2 6 1 3 3 3 4 4 2 4 3 348 3 4 2 1 3 1493 4 4 0 
To predecode: 0
Predecoding something: 0
Predecode request dropped: 0
sizeofblock_0 0
sizeofblock_1 109248
sizeofblock_2 82595
sizeofblock_3 64075
sizeofblock_4 5587
sizeofblock_5 0
sizeofblock_6 0
sizeofblock_7 0
sizeofblock_8 0
