
*** ChampSim Multicore Out-of-Order Simulator ***

Warmup Instructions: 50000000
Simulation Instructions: 50000000
Number of CPUs: 1
LLC sets: 2048
LLC ways: 16
Off-chip DRAM Size: 4096 MB Channels: 1 Width: 64-bit Data Rate: 6400 MT/s
CPU 0 runs ./micro_traces/srv518.trace.gz
.gz
ITLB has LRU replacement policy
DTLB has LRU replacement policy
STLB has LRU replacement policy
CPU 0 L1I next line prefetcher
L1I has LRU replacement policy
L1D has LRU replacement policy
Initialize SRRIP state for L2C
Initialize DRRIP state for LLC
Heartbeat CPU 0 instructions: 10000002 cycles: 2798274 heartbeat IPC: 3.57363 cumulative IPC: 3.57363 (Simulation time: 0 hr 1 min 40 sec) 
Heartbeat CPU 0 instructions: 20000001 cycles: 5596320 heartbeat IPC: 3.57392 cumulative IPC: 3.57378 (Simulation time: 0 hr 3 min 21 sec) 
Heartbeat CPU 0 instructions: 30000000 cycles: 8392294 heartbeat IPC: 3.57657 cumulative IPC: 3.57471 (Simulation time: 0 hr 5 min 1 sec) 
Heartbeat CPU 0 instructions: 40000001 cycles: 11189374 heartbeat IPC: 3.57516 cumulative IPC: 3.57482 (Simulation time: 0 hr 6 min 39 sec) 
Heartbeat CPU 0 instructions: 50000000 cycles: 13986464 heartbeat IPC: 3.57514 cumulative IPC: 3.57488 (Simulation time: 0 hr 8 min 18 sec) 

Warmup complete CPU 0 instructions: 50000004 cycles: 13986465 (Simulation time: 0 hr 8 min 18 sec) 

Cycle: 20000000 FTQ IN: 56663841 FTQ occupancy: 17.1835 DECODE IN: 56663825 DECODE occupancy: 44.9136 ROB IN: 56663825 ROB occupancy: 279.094 ROB OUT: 56663553
Heartbeat CPU 0 instructions: 60000002 cycles: 23100935 heartbeat IPC: 1.09716 cumulative IPC: 1.09716 (Simulation time: 0 hr 9 min 35 sec) 
Cycle: 30000000 FTQ IN: 10948680 FTQ occupancy: 3.83309 DECODE IN: 10948677 DECODE occupancy: 10.0048 ROB IN: 10948672 ROB occupancy: 117.983 ROB OUT: 10948921
Heartbeat CPU 0 instructions: 70000000 cycles: 32172082 heartbeat IPC: 1.1024 cumulative IPC: 1.09977 (Simulation time: 0 hr 10 min 49 sec) 
Cycle: 40000000 FTQ IN: 11042908 FTQ occupancy: 3.63308 DECODE IN: 11042912 DECODE occupancy: 9.71704 ROB IN: 11042917 ROB occupancy: 118.919 ROB OUT: 11042940
Heartbeat CPU 0 instructions: 80000003 cycles: 41248877 heartbeat IPC: 1.10171 cumulative IPC: 1.10042 (Simulation time: 0 hr 12 min 8 sec) 
Cycle: 50000000 FTQ IN: 11056273 FTQ occupancy: 3.87008 DECODE IN: 11056288 DECODE occupancy: 10.4112 ROB IN: 11056281 ROB occupancy: 124.334 ROB OUT: 11055929
Heartbeat CPU 0 instructions: 90000003 cycles: 50243327 heartbeat IPC: 1.1118 cumulative IPC: 1.10324 (Simulation time: 0 hr 13 min 25 sec) 
Heartbeat CPU 0 instructions: 100000001 cycles: 59157382 heartbeat IPC: 1.12182 cumulative IPC: 1.10691 (Simulation time: 0 hr 14 min 40 sec) 
Finished CPU 0 instructions: 50000003 cycles: 45170922 cumulative IPC: 1.10691 (Simulation time: 0 hr 14 min 40 sec) 

ChampSim completed all CPUs

Region of Interest Statistics

CPU 0 cumulative IPC: 1.10691 instructions: 50000003 cycles: 45170922
 Fetch stage stalled: 73.3924  Sim cycles: 45170922 fetch stall cycle: 33152016
 Empty decode stage: 58.3178  Sim cycles: 45170922 fetch stall cycle: 26342706
ITLB TOTAL     ACCESS:    7607257  HIT:    7013497  MISS:     593760  HIT %:    92.1948  MISS %:    7.80518   MPKI: 11.8752
ITLB LOAD TRANSLATION INSTRUCTION	ACCESS:    5863433  HIT:    5734326  MISS:     129107  HIT %:    97.7981  MISS %:     2.2019  MPKI: 2.58214
ITLB TRANSLATION FROM L1D PREFETCHER INSTRUCTION	ACCESS:    1743824  HIT:    1279171  MISS:     464653  HIT %:    73.3544  MISS %:    26.6456  MPKI: 9.29306

ITLB AVERAGE MISS LATENCY: 74072.2 cycles
ITLB RQ	ACCESS:   11503264	FORWARD:          0	MERGED:    3757913	TO_CACHE:    7745351

DTLB TOTAL     ACCESS:    9387517  HIT:    8916777  MISS:     470740  HIT %:    94.9855  MISS %:    5.01453   MPKI: 9.4148
DTLB LOAD TRANSLATION DATA	ACCESS:    9387517  HIT:    8916777  MISS:     470740  HIT %:    94.9855  MISS %:    5.01453  MPKI: 9.4148

DTLB AVERAGE MISS LATENCY: 9.31161 cycles
DTLB RQ	ACCESS:   13663237	FORWARD:          0	MERGED:    4242755	TO_CACHE:    9420482

STLB TOTAL     ACCESS:    1313857  HIT:    1311974  MISS:       1883  HIT %:    99.8567  MISS %:   0.143318   MPKI: 0.03766
STLB LOAD TRANSLATION INSTRUCTION	ACCESS:     127875  HIT:     127773  MISS:        102  HIT %:    99.9202  MISS %:  0.0797654  MPKI: 0.00204
STLB TRANSLATION FROM L1D PREFETCHER INSTRUCTION	ACCESS:     465885  HIT:     465807  MISS:         78  HIT %:    99.9833  MISS %:  0.0167423  MPKI: 0.00156
STLB LOAD TRANSLATION DATA	ACCESS:     470740  HIT:     469045  MISS:       1695  HIT %:    99.6399  MISS %:   0.360071  MPKI: 0.0339
STLB TRANSLATION FROM L1D PREFETCHER DATA	ACCESS:     249357  HIT:     249349  MISS:          8  HIT %:    99.9968  MISS %: 0.00320825  MPKI: 0.00016

STLB AVERAGE MISS LATENCY: 71.4004 cycles
STLB RQ	ACCESS:    1438899	FORWARD:          0	MERGED:     121623	TO_CACHE:    1317276

STLB Hit, L1D data hit: 0
STLB Hit, L2C data hit: 0
STLB Hit, LLC data hit: 0
STLB Hit, LLC data miss: 0
STLB STLB hints to L2: 0
L1D TOTAL     ACCESS:   13418683  HIT:   12311850  MISS:    1106833  HIT %:    91.7516  MISS %:    8.24845   MPKI: 22.1367
L1D LOAD DATA	ACCESS:    6857340  HIT:    6128694  MISS:     728646  HIT %:    89.3742  MISS %:    10.6258  MPKI: 14.5729
L1D RFO DATA	ACCESS:    6230447  HIT:    5945413  MISS:     285034  HIT %:    95.4251  MISS %:    4.57486  MPKI: 5.70068
L1D PREFETCH DATA	ACCESS:     330896  HIT:     237743  MISS:      93153  HIT %:    71.8483  MISS %:    28.1517  MPKI: 1.86306

L1D PREFETCH  REQUESTED:     742296  ISSUED:     742296  USEFUL:      33104  USELESS:      67920
L1D USEFUL LOAD PREFETCHES:      33104 PREFETCH ISSUED TO LOWER LEVEL:     101088  ACCURACY: 32.7477
 TIMELY PREFETCHES:      33104 LATE PREFETCHES: 7872 DROPPED PREFETCHES: 4
L1D AVERAGE MISS LATENCY: 259929 cycles
L1D RQ	ACCESS:   10930928	FORWARD:          0	MERGED:    3872266	TO_CACHE:    6893585
L1D WQ	ACCESS:    6939555	FORWARD:     165351	MERGED:     169903	TO_CACHE:    6769652
L1D PQ	ACCESS:     371285	FORWARD:          0	MERGED:          0	TO_CACHE:     371011

L1D UNIQUE REGIONS ACCESSED: 0
L1D REGIONS CONFLICTS: 0
L1D Cross Page Prefetch Requests: 5515
L1D Same Page Prefetch Requests: 755227
L1D ROI Sum of L1D PQ occupancy: 4715184
L1D PREFETCHES PUSHED FROM L2C: 0
L1I TOTAL     ACCESS:   11207878  HIT:    7598359  MISS:    3609519  HIT %:    67.7948  MISS %:    32.2052   MPKI: 72.1904
L1I LOAD INSTRUCTION	ACCESS:    6673926  HIT:    6164311  MISS:     509615  HIT %:    92.3641  MISS %:    7.63591  MPKI: 10.1923
L1I PREFETCH INSTRUCTION	ACCESS:    4533952  HIT:    1434048  MISS:    3099904  HIT %:    31.6291  MISS %:    68.3709  MPKI: 61.9981

L1I PREFETCH  REQUESTED:    5094257  ISSUED:    5094234  USEFUL:    2374990  USELESS:     766482
L1I USEFUL LOAD PREFETCHES:    2374990 PREFETCH ISSUED TO LOWER LEVEL:    3141363  ACCURACY: 75.6038
 TIMELY PREFETCHES:    2374990 LATE PREFETCHES: 41459 DROPPED PREFETCHES: 9974
L1I AVERAGE MISS LATENCY: 419847 cycles
L1I RQ	ACCESS:    9424567	FORWARD:          0	MERGED:    2729744	TO_CACHE:    6694823
L1I PQ	ACCESS:    5094234	FORWARD:          0	MERGED:     285793	TO_CACHE:    4808441

L1BTB TOTAL     ACCESS:    5672335  HIT:    2054244  MISS:    3618091  HIT %:    36.2151  MISS %:    63.7849   MPKI: 72.3618
L1BTB BRANCH_DIRECT_JUMP	ACCESS:     550040  HIT:     145873  MISS:     404167	AVERAGE STALL: 19.4643
L1BTB BRANCH_INDIRECT	ACCESS:     183638  HIT:      66488  MISS:     117150	AVERAGE STALL: 77.5445
L1BTB BRANCH_CONDITIONAL	ACCESS:    2717593  HIT:    1426802  MISS:    1290791	AVERAGE STALL: 19.5133
L1BTB BRANCH_DIRECT_CALL	ACCESS:     939770  HIT:     105163  MISS:     834607	AVERAGE STALL: 20.1961
L1BTB BRANCH_INDIRECT_CALL	ACCESS:     170781  HIT:      20755  MISS:     150026	AVERAGE STALL: 100.343
L1BTB BRANCH_RETURN	ACCESS:    1110513  HIT:     289163  MISS:     821350	AVERAGE STALL: 21.5705
L1BTB BRANCH_OTHER ACCESS:          0  HIT:          0  MISS:          0	AVERAGE STALL: -nan
L1BTB TOTAL ROB OCCUPANCY AT BTB MISS: 29.2716

L2BTB TOTAL     ACCESS:    3592553  HIT:    2558811  MISS:    1033742  HIT %:    71.2254  MISS %:    28.7746   MPKI: 20.6748
L2BTB BRANCH_DIRECT_JUMP	ACCESS:     399932  HIT:     282866  MISS:     117066	AVERAGE STALL: 19.4643
L2BTB BRANCH_INDIRECT	ACCESS:     106887  HIT:      93668  MISS:      13219	AVERAGE STALL: 77.5445
L2BTB BRANCH_CONDITIONAL	ACCESS:    1290791  HIT:     916976  MISS:     373815	AVERAGE STALL: 19.5133
L2BTB BRANCH_DIRECT_CALL	ACCESS:     834607  HIT:     567851  MISS:     266756	AVERAGE STALL: 20.1961
L2BTB BRANCH_INDIRECT_CALL	ACCESS:     140390  HIT:      92069  MISS:      48321	AVERAGE STALL: 100.343
L2BTB BRANCH_RETURN	ACCESS:     819946  HIT:     605381  MISS:     214565	AVERAGE STALL: 21.5705
L2BTB BRANCH_OTHER ACCESS:          0  HIT:          0  MISS:          0	AVERAGE STALL: -nan
L2BTB TOTAL ROB OCCUPANCY AT BTB MISS: 102.451

L2C TOTAL     ACCESS:    6551151  HIT:    5627456  MISS:     923695  HIT %:    85.9003  MISS %:    14.0997   MPKI: 18.4739
L2C LOAD INSTRUCTION	ACCESS:     468156  HIT:     388777  MISS:      79379  HIT %:    83.0443  MISS %:    16.9557  MPKI: 1.58758
L2C PREFETCH INSTRUCTION	ACCESS:    3141363  HIT:    2791533  MISS:     349830  HIT %:    88.8638  MISS %:    11.1362  MPKI: 6.9966
L2C LOAD TRANSLATION INSTRUCTION	ACCESS:        108  HIT:         37  MISS:         71  HIT %:    34.2593  MISS %:    65.7407  MPKI: 0.00142
L2C TRANSLATION FROM L1D PREFETCHER INSTRUCTION	ACCESS:       4392  HIT:       4297  MISS:         95  HIT %:     97.837  MISS %:    2.16302  MPKI: 0.0019
L2C LOAD DATA	ACCESS:     720748  HIT:     591478  MISS:     129270  HIT %:    82.0645  MISS %:    17.9355  MPKI: 2.5854
L2C RFO DATA	ACCESS:     284950  HIT:     200866  MISS:      84084  HIT %:    70.4917  MISS %:    29.5083  MPKI: 1.68168
L2C PREFETCH DATA	ACCESS:    1412354  HIT:    1166681  MISS:     245673  HIT %:    82.6054  MISS %:    17.3946  MPKI: 4.91346
L2C WRITEBACK DATA	ACCESS:     517329  HIT:     483419  MISS:      33910  HIT %:    93.4452  MISS %:    6.55482  MPKI: 0.6782
L2C LOAD TRANSLATION DATA	ACCESS:       1734  HIT:        357  MISS:       1377  HIT %:    20.5882  MISS %:    79.4118  MPKI: 0.02754
L2C TRANSLATION FROM L1D PREFETCHER DATA	ACCESS:         17  HIT:         11  MISS:          6  HIT %:    64.7059  MISS %:    35.2941  MPKI: 0.00012

L2C PREFETCH  REQUESTED:    3249713  ISSUED:    3249713  USEFUL:      31401  USELESS:     566131
L2C USEFUL LOAD PREFETCHES:      31401 PREFETCH ISSUED TO LOWER LEVEL:     596660  ACCURACY: 5.2628
 TIMELY PREFETCHES:      31401 LATE PREFETCHES: 1157 DROPPED PREFETCHES: 0
L2C AVERAGE MISS LATENCY: 33.8222 cycles
L2C RQ	ACCESS:    1480152	FORWARD:          0	MERGED:          0	TO_CACHE:    1480105
L2C WQ	ACCESS:     517329	FORWARD:         47	MERGED:          0	TO_CACHE:     517329
L2C PQ	ACCESS:    6492164	FORWARD:          0	MERGED:    1921044	TO_CACHE:    4571120

L2C Dense regions hint from L2: 0
PSCL5 TOTAL     ACCESS:      10552  HIT:       5276  MISS:       5276  HIT %:         50  MISS %:         50   MPKI: 0.10552
PSCL5 LOAD TRANSLATION INSTRUCTION	ACCESS:       3586  HIT:       1793  MISS:       1793  HIT %:         50  MISS %:         50  MPKI: 0.03586
PSCL5 TRANSLATION FROM L1D PREFETCHER INSTRUCTION	ACCESS:       6966  HIT:       3483  MISS:       3483  HIT %:         50  MISS %:         50  MPKI: 0.06966


PSCL4 TOTAL     ACCESS:      10527  HIT:       5263  MISS:       5264  HIT %:    49.9953  MISS %:    50.0047   MPKI: 0.10528
PSCL4 LOAD TRANSLATION INSTRUCTION	ACCESS:       1780  HIT:       1780  MISS:          0  HIT %:        100  MISS %:          0  MPKI: 0
PSCL4 TRANSLATION FROM L1D PREFETCHER INSTRUCTION	ACCESS:       3483  HIT:       3483  MISS:          0  HIT %:        100  MISS %:          0  MPKI: 0
PSCL4 LOAD TRANSLATION DATA	ACCESS:       1781  HIT:          0  MISS:       1781  HIT %:          0  MISS %:        100  MPKI: 0.03562
PSCL4 TRANSLATION FROM L1D PREFETCHER DATA	ACCESS:       3483  HIT:          0  MISS:       3483  HIT %:          0  MISS %:        100  MPKI: 0.06966


PSCL3 TOTAL     ACCESS:      10529  HIT:       5264  MISS:       5265  HIT %:    49.9953  MISS %:    50.0047   MPKI: 0.1053
PSCL3 LOAD TRANSLATION INSTRUCTION	ACCESS:       1781  HIT:       1781  MISS:          0  HIT %:        100  MISS %:          0  MPKI: 0
PSCL3 TRANSLATION FROM L1D PREFETCHER INSTRUCTION	ACCESS:       3483  HIT:       3483  MISS:          0  HIT %:        100  MISS %:          0  MPKI: 0
PSCL3 LOAD TRANSLATION DATA	ACCESS:       1782  HIT:          0  MISS:       1782  HIT %:          0  MISS %:        100  MPKI: 0.03564
PSCL3 TRANSLATION FROM L1D PREFETCHER DATA	ACCESS:       3483  HIT:          0  MISS:       3483  HIT %:          0  MISS %:        100  MPKI: 0.06966


PSCL2 TOTAL     ACCESS:       8663  HIT:       4303  MISS:       4360  HIT %:     49.671  MISS %:     50.329   MPKI: 0.0872
PSCL2 LOAD TRANSLATION INSTRUCTION	ACCESS:       1859  HIT:       1746  MISS:        113  HIT %:    93.9215  MISS %:    6.07854  MPKI: 0.00226
PSCL2 TRANSLATION FROM L1D PREFETCHER INSTRUCTION	ACCESS:       5096  HIT:       2557  MISS:       2539  HIT %:    50.1766  MISS %:    49.8234  MPKI: 0.05078
PSCL2 LOAD TRANSLATION DATA	ACCESS:       1690  HIT:          0  MISS:       1690  HIT %:          0  MISS %:        100  MPKI: 0.0338
PSCL2 TRANSLATION FROM L1D PREFETCHER DATA	ACCESS:         18  HIT:          0  MISS:         18  HIT %:          0  MISS %:        100  MPKI: 0.00036


LLC TOTAL     ACCESS:    1014183  HIT:     985693  MISS:      28490  HIT %:    97.1908  MISS %:    2.80916   MPKI: 0.5698
LLC LOAD INSTRUCTION	ACCESS:      78940  HIT:      78748  MISS:        192  HIT %:    99.7568  MISS %:   0.243223  MPKI: 0.00384
LLC PREFETCH INSTRUCTION	ACCESS:     348095  HIT:     347610  MISS:        485  HIT %:    99.8607  MISS %:    0.13933  MPKI: 0.0097
LLC LOAD TRANSLATION INSTRUCTION	ACCESS:         71  HIT:         56  MISS:         15  HIT %:    78.8732  MISS %:    21.1268  MPKI: 0.0003
LLC TRANSLATION FROM L1D PREFETCHER INSTRUCTION	ACCESS:         95  HIT:         83  MISS:         12  HIT %:    87.3684  MISS %:    12.6316  MPKI: 0.00024
LLC LOAD DATA	ACCESS:     128556  HIT:     124942  MISS:       3614  HIT %:    97.1888  MISS %:    2.81123  MPKI: 0.07228
LLC RFO DATA	ACCESS:      84045  HIT:      70562  MISS:      13483  HIT %:    83.9574  MISS %:    16.0426  MPKI: 0.26966
LLC PREFETCH DATA	ACCESS:     248559  HIT:     238230  MISS:      10329  HIT %:    95.8444  MISS %:    4.15555  MPKI: 0.20658
LLC WRITEBACK DATA	ACCESS:     124439  HIT:     124159  MISS:        280  HIT %:     99.775  MISS %:    0.22501  MPKI: 0.0056
LLC LOAD TRANSLATION DATA	ACCESS:       1377  HIT:       1297  MISS:         80  HIT %:    94.1903  MISS %:    5.80973  MPKI: 0.0016
LLC TRANSLATION FROM L1D PREFETCHER DATA	ACCESS:          6  HIT:          6  MISS:          0  HIT %:        100  MISS %:          0  MPKI: 0

LLC AVERAGE MISS LATENCY: 158.55 cycles
LLC RQ	ACCESS:     293125	FORWARD:          0	MERGED:          0	TO_CACHE:     293090
LLC WQ	ACCESS:     124439	FORWARD:         41	MERGED:          0	TO_CACHE:     124439
LLC PQ	ACCESS:     596660	FORWARD:          0	MERGED:          0	TO_CACHE:     596654

LLC Dense regions hint to LLC: 0

RAW hits: 1703894
Loads Generated: 12634824
Loads sent to L1D: 10930928
Stores Generated: 6939544
Stores sent to L1D: 6939555
Major fault: 0 Minor fault: 2500
Allocated PAGES: 2500
I-Shadow cache 408 bytes
Touched + WorthPF tables 12288 bytes 
MMA filter 174 bytes 
FNL filter 272 bytes 
TOTAL PREFETCHER STORAGE SIZE: 31318 bytes
CPU 0 L1I next line prefetcher final stats

stream: 
stream:times selected: 1197871
stream:pref_filled: 118164
stream:pref_useful: 22674
stream:pref_late: 7044
stream:misses: 8251
stream:misses_by_poll: 0

CS: 
CS:times selected: 177118
CS:pref_filled: 53615
CS:pref_useful: 29950
CS:pref_late: 12451
CS:misses: 21399
CS:misses_by_poll: 5

CPLX: 
CPLX:times selected: 1019550
CPLX:pref_filled: 19354
CPLX:pref_useful: 4248
CPLX:pref_late: 3294
CPLX:misses: 93111
CPLX:misses_by_poll: 0

NL_L1: 
NL:times selected: 14612
NL:pref_filled: 435
NL:pref_useful: 154
NL:pref_late: 335
NL:misses: 1160
NL:misses_by_poll: 0

total selections: 2409151
total_filled: 93153
total_useful: 33104
total_late: 24664
total_polluted: 5
total_misses_after_warmup: 764892
conflicts: 5659208

test: 117065

DRAM Statistics
 CHANNEL 0
 RQ ROW_BUFFER_HIT:       9841  ROW_BUFFER_MISS:      18343
 DBUS_CONGESTED:          9
 WQ ROW_BUFFER_HIT:       1498  ROW_BUFFER_MISS:      13115  FULL:          0

 AVG_CONGESTED_CYCLE: 6

CPU 0 Branch Prediction Accuracy: 99.8245% MPKI: 0.321 Average ROB Occupancy at Mispredict: 131.156
Branch types
NOT_BRANCH: 40856431 81.7129%
BRANCH_DIRECT_JUMP: 550040 1.10008%
BRANCH_INDIRECT: 183638 0.367276%
BRANCH_CONDITIONAL: 6188333 12.3767%
BRANCH_DIRECT_CALL: 939770 1.87954%
BRANCH_INDIRECT_CALL: 170781 0.341562%
BRANCH_RETURN: 1110513 2.22103%
BRANCH_OTHER: 0 0%

DRAM PAGES: 1048576
Allocated PAGES: 2500
Average_ROB_Occupancy: 121.922
Average_Decode_Occupancy: 10.0432
Average_FTQ_Occupancy: 3.76217
Indirect max targets: 14 Average targets: 1.14527
Branch_type:  BRANCH_DIRECT_JUMP:  Count Percentage: 3.83254 5.22747 4.46891 7.21447 2.9599 6.01204 1.52967 68.755 
Branch_type:  BRANCH_INDIRECT:  Count Percentage: 6.15595 3.45596 8.18332 9.69391 3.33391 2.79888 3.05958 63.3185 
Branch_type:  BRANCH_CONDITIONAL:  Count Percentage: 26.3254 2.09831 1.5393 3.86457 2.04745 3.99283 1.24759 58.8845 
Branch_type:  BRANCH_DIRECT_CALL:  Count Percentage: 0.391287 1.2672 0.768944 2.87009 3.03196 2.63375 1.24132 87.7955 
Branch_type:  BRANCH_INDIRECT_CALL:  Count Percentage: 9.55481 0 2.99431 0 0 1.71091 3.28859 82.4514 
Branch_type:  BRANCH_RETURN:  Count Percentage: 7.91486 1.39208 1.04643 4.08365 3.64945 4.32703 1.57551 76.011 
Branch_type:  BRANCH_DIRECT_JUMP:  Total Count: 42127 57460 49122 79301 32535 66084 16814 755751 
Branch_type:  BRANCH_INDIRECT:  Total Count: 22597 12686 30039 35584 12238 10274 11231 232427 
Branch_type:  BRANCH_CONDITIONAL:  Total Count: 3256597 259572 190420 478068 253281 493935 154334 7284327 
Branch_type:  BRANCH_DIRECT_CALL:  Total Count: 7349 23800 14442 53905 56945 49466 23314 1648940 
Branch_type:  BRANCH_INDIRECT_CALL:  Total Count: 32631 0 10226 0 0 5843 11231 281583 
Branch_type:  BRANCH_RETURN:  Total Count: 175743 30910 23235 90674 81033 96078 34983 1687761 
Number of unique branch instructions: 9803
Upper 32 bits: 
aaaa
ffff
ffff0000
Unique upper 32 bits: 3
Unique upper 36 bits: 3
Unique upper 40 bits: 5
Unique upper 44 bits: 32
Unique upper 48 bits: 154
Offset_3 4033
Offset_4 245
Offset_5 448
Offset_6 499
Offset_7 572
Offset_8 504
Offset_9 464
Offset_10 376
Offset_11 300
Offset_12 269
Offset_13 203
Offset_14 225
Offset_15 184
Offset_16 220
Offset_17 143
Offset_18 118
Offset_19 234
Offset_20 137
Offset_21 235
Offset_22 389
Offset_23 241
Offset_24 331
Offset_25 88
Offset_47 82
decode_dispatch_called: 20763662 45.9669
Dispatch_width: 0 10058566 48.4431 22.2678
Dispatch_width: 1 694060 3.34267 1.53652
Dispatch_width: 2 991073 4.77311 2.19405
Dispatch_width: 3 691306 3.3294 1.53042
Dispatch_width: 4 2102071 10.1238 4.65359
Dispatch_width: 5 518257 2.49598 1.14732
Dispatch_width: 6 5708329 27.4919 12.6372
Empty_decode_cycles: 24407260 54.0331
ROB_full_cycles: 2386301 5.28283
Starvation_cycles_per_kilo_instr: 370.763
Starvation_cycles_per_kilo_instr_3: 344.56
Starvation_cycles_per_kilo_instr_0: 320.795
Branch_type_1  (3,1)  (4,9)  (5,37)  (6,68)  (7,113)  (8,128)  (9,123)  (10,97)  (11,67)  (12,43)  (13,5)  (14,2)  (15,3)  (16,4)  (18,1)  (19,4)  (20,2)  (21,1)  (22,3)  (23,2)  (24,10)  (25,12) 
Branch_type_2  (3,1)  (5,1)  (8,3)  (9,3)  (12,1)  (13,1)  (14,1)  (16,3)  (17,2)  (20,2)  (21,2)  (23,5)  (24,1)  (47,38) 
Branch_type_3  (3,4031)  (4,236)  (5,406)  (6,416)  (7,430)  (8,314)  (9,255)  (10,152)  (11,120)  (12,50)  (13,4) 
Branch_type_4  (6,3)  (7,8)  (8,24)  (9,52)  (10,60)  (11,57)  (12,96)  (13,88)  (14,99)  (15,86)  (16,98)  (17,64)  (18,53)  (19,114)  (20,72)  (21,124)  (22,206)  (23,136)  (24,192)  (25,72) 
Branch_type_5  (8,2)  (9,1)  (10,3)  (11,5)  (12,3)  (13,14)  (14,16)  (15,11)  (16,20)  (17,11)  (18,16)  (19,12)  (20,10)  (21,13)  (22,42)  (23,26)  (24,37) 
Branch_type_6  (5,4)  (6,12)  (7,21)  (8,33)  (9,30)  (10,64)  (11,51)  (12,76)  (13,91)  (14,107)  (15,84)  (16,95)  (17,66)  (18,48)  (19,104)  (20,51)  (21,95)  (22,138)  (23,72)  (24,91)  (25,4)  (47,44) 
Unique trigger count: 
BTB PER SET UNIQUE ADDR: 23 27 20 27 26 25 18 21 13 25 19 28 26 20 22 16 20 21 22 25 21 20 23 25 18 24 25 25 23 22 22 24 27 16 17 22 22 25 16 20 21 22 24 29 20 15 26 16 25 21 29 20 23 26 20 11 19 18 16 24 23 31 23 23 23 26 24 16 29 24 21 22 27 19 17 15 16 24 19 32 26 15 20 29 27 22 27 22 16 40 19 15 25 21 13 27 18 21 28 28 34 31 24 19 23 20 23 24 13 19 20 32 24 19 21 14 26 24 23 22 25 17 20 15 24 20 12 24 32 17 19 31 21 29 20 29 14 28 21 32 20 29 21 22 24 24 27 19 15 23 22 26 16 20 15 30 25 26 26 25 26 22 25 27 21 26 25 17 26 19 20 27 24 24 24 22 22 22 19 26 17 22 21 27 33 31 16 24 27 19 24 18 17 30 25 16 17 22 22 24 27 26 19 19 18 23 24 21 20 23 21 25 20 22 24 22 20 26 17 39 13 27 17 22 19 26 32 26 16 28 20 12 23 29 20 28 27 19 21 17 22 23 30 28 20 22 21 21 25 22 28 27 26 18 26 27 20 16 18 20 25 18 10 22 21 16 20 18 23 20 20 24 17 14 16 17 24 28 22 22 16 24 18 17 26 19 19 32 31 26 24 17 23 28 18 28 24 26 24 24 21 20 20 37 23 29 27 22 31 25 22 29 22 35 26 13 29 23 21 29 20 28 17 23 25 29 24 17 22 17 21 29 20 21 21 24 18 20 19 36 24 25 16 26 26 26 19 22 21 23 25 22 27 24 23 27 24 28 18 17 17 29 21 31 24 27 12 23 27 22 23 17 23 25 17 30 23 29 20 24 24 22 17 19 18 23 28 28 27 24 28 13 27 29 17 16 21 19 30 21 22 24 23 23 26 28 26 27 22 23 28 19 18 28 21 21 20 30 36 32 19 26 23 27 28 17 26 19 27 21 29 22 19 21 29 28 25 20 21 24 26 21 18 30 33 21 15 24 28 24 26 37 25 18 28 33 26 28 18 29 18 23 20 27 33 20 23 23 25 26 24 28 26 24 23 35 27 34 17 24 33 26 20 27 17 24 35 31 27 22 21 26 17 17 20 20 28 25 21 28 20 30 19 34 20 18 19 30 30 27 23 31 24 22 21 26 22 31 18 16 14 22 25 16 24 33 36 14 15 32 27 24 25 24 26 30 20 24 26 23 27 18 26 25 27 30 13 26 17 23 24 30 22 23 19 21 23 24 30 24 21 34 21 24 24 29 24 26 23 28 28 24 29 34 23 28 27 30 22 23 24 26 14 25 25 25 21 23 34 28 20 22 25 16 26 18 15 22 25 21 24 22 22 14 23 25 31 21 20 23 31 26 21 16 10 29 15 28 22 26 31 25 19 19 20 31 20 30 17 25 22 28 30 22 23 22 24 30 22 27 22 27 26 32 26 25 20 24 35 18 16 24 19 20 30 23 21 23 28 23 24 13 28 31 21 26 18 22 19 20 24 20 19 27 33 21 26 26 28 29 22 30 21 27 27 21 21 22 26 27 23 24 22 15 15 22 17 26 20 29 14 27 27 33 11 28 23 18 16 14 22 22 18 22 18 20 32 24 19 28 25 24 21 21 18 20 25 23 20 21 25 20 21 20 24 25 25 31 37 20 20 20 21 25 32 29 22 23 23 19 23 20 24 22 16 21 32 21 20 18 24 15 14 24 23 28 16 24 19 27 24 29 19 17 24 17 28 20 23 27 15 25 23 21 25 22 18 25 22 14 17 14 29 26 20 31 20 18 28 23 34 23 32 28 34 19 25 21 23 20 20 34 29 29 19 28 35 28 12 28 25 31 17 28 27 22 18 27 25 25 24 29 26 23 17 26 24 24 25 22 28 23 22 24 25 28 20 35 19 27 24 20 18 20 30 29 31 29 26 27 25 25 19 25 28 17 24 17 30 18 19 28 27 21 25 13 22 21 19 22 28 16 21 29 26 25 31 22 25 22 25 17 21 21 19 28 30 22 19 19 23 21 22 26 14 27 21 27 23 32 19 23 22 24 25 26 35 20 23 24 23 26 19 25 20 20 14 29 18 17 32 32 28 19 21 30 20 21 25 25 17 29 24 22 22 25 24 29 23 27 23 24 18 24 20 24 26 22 26 24 23 25 20 33 29 24 28 24 19 26 24 27 29 23 27 19 34 30 30 35 18 30 26 24 22 31 37 19 27 24 28 26 25 21 23 20 21 25 29 23 31 29 20 22 26 27 18 31 20 26 28 26 27 17 17 23 13 21 10 14 19 29 22 15 
BTB PER SET COUNT: 2351 2500 2879 2124 2722 2228 1835 1754 1628 2191 1214 2575 11887 1695 1915 1117 2129 2269 1627 2235 1878 1675 2223 2213 1119 1925 2169 2124 2335 1844 1897 2520 2145 909 1227 2018 1929 2307 1127 2190 1564 1624 2491 2394 1817 760 2234 1466 2113 1818 2437 1400 2009 2126 1748 944 1608 1574 1394 2141 1690 3244 2031 1982 2312 2213 1622 1606 2228 1969 2459 2105 2655 1446 1303 849 864 2198 1501 2731 2526 1123 1887 2558 2024 1907 2248 2357 1799 3829 1483 1405 2401 1933 809 2155 1502 1548 2243 4058 3670 2754 2137 1726 3643 1395 1795 2212 1654 2971 1837 3022 2334 1553 1696 1101 2175 2408 2504 1974 2286 1427 1639 1098 1885 1598 737 2781 3400 1769 1395 2990 1572 2595 1730 2310 1391 2277 1586 2929 1667 2256 1804 1837 1845 1800 2701 1502 1081 1802 1736 2066 1482 1678 948 3036 2638 2333 2206 2462 2004 2018 2630 2178 1615 2277 1870 1483 2284 1734 1537 2454 2036 1847 2060 2002 1809 1635 1889 2610 1443 1916 1805 2206 2928 3009 1104 1832 2423 2452 1762 1326 1268 2669 2137 1216 1328 1897 1605 1652 2135 1926 1879 1492 1182 2028 1797 1932 1960 2419 1539 2257 1388 4046 1969 2419 1704 2525 1703 3585 1101 2177 1404 1785 1660 2162 2751 2205 1445 3382 1632 555 1653 2367 1501 6382 2284 1688 2193 1277 1940 2055 2930 2704 1831 2147 1331 1885 2079 1692 1904 2063 2142 1525 1997 2490 1560 1377 1363 1680 2084 1526 297 1888 2070 777 1779 1487 2256 1977 1572 1872 1201 949 1525 1282 2179 2405 1963 2115 1010 2244 1368 1872 1967 1534 1302 2942 2997 2391 2154 1200 1998 2550 1133 2876 2323 2055 1704 2244 1611 1456 1936 3044 2055 2812 1974 1835 2954 2360 2561 2307 1400 3182 3009 1411 2604 1786 1783 2817 1558 3266 1085 1725 2864 2387 2328 1319 1776 1093 1792 2801 1297 1373 2028 1760 1313 1690 1148 3588 1996 2859 1156 2094 2461 1984 1438 1770 1908 2080 2296 1816 2418 1804 1707 2440 2132 2592 1574 1344 1332 2745 1529 2774 1922 3065 734 1609 1824 1586 2034 1326 2261 2301 1162 2790 1964 2430 1730 2391 2284 2135 1635 1100 1232 1724 3042 2487 2164 2290 2204 915 2305 2421 1334 1254 1458 1592 2851 2098 1703 2142 2045 1582 2298 2216 2145 2343 1344 2076 1971 1445 1387 2583 1586 1820 1787 4787 3361 2742 1364 2179 2412 1881 2388 1700 2514 1381 1682 1944 2802 2119 1409 1649 2694 2364 1825 1618 1852 1923 2824 1450 1346 2737 3001 1875 1368 1986 2386 1899 2463 3960 1862 1737 2659 3101 2012 2671 1314 2275 1299 1874 1418 2554 2892 1960 7749 1970 2533 2184 2154 2136 1969 1757 2032 3039 1999 3315 1300 1951 2702 2256 1648 2211 1543 1915 3264 2581 2580 1840 1723 2281 4679 1074 1051 1735 2748 2667 1686 2262 1565 2884 1384 3257 1522 1279 1252 2866 2887 2038 1863 3314 2725 2651 1711 2566 1479 2924 1224 1308 857 1855 2229 1164 1841 2998 3401 2164 1171 4385 3075 2127 2045 1749 2378 2407 2357 2310 2089 1845 2312 1656 2520 2010 2102 2784 975 2228 1269 2464 1815 2864 2127 2102 1467 1458 1857 1904 2408 2276 1337 2960 1704 1962 2323 2670 1798 2288 1812 2628 2590 2192 3033 3145 2019 2658 2675 2708 1727 1969 2375 2208 1048 3089 2164 2294 1801 2109 3057 2731 1967 1908 2416 1019 1760 1332 1773 2336 2110 1438 1402 1964 1758 984 2068 2229 2693 2211 1340 1722 3010 2625 2327 1138 702 2571 1010 2439 2280 2265 2942 1823 1077 1518 1578 2974 1558 2816 2246 2023 1755 3155 3180 1799 1874 1723 2323 2591 1635 2354 2236 2213 2716 2664 3045 2423 1470 2481 3774 1163 1060 2267 1103 1857 3437 1947 1597 1771 2404 2030 2211 634 2437 2772 6482 2457 1335 1917 2159 1836 1661 1713 1382 2218 2900 2119 2054 2647 2321 2952 1913 2681 1953 2379 2837 2060 1861 2054 2377 2532 1653 2515 2125 890 1472 1738 1665 2616 1606 1960 1336 2446 2595 2879 802 2226 1847 1438 1265 1114 1901 2109 1160 1843 1579 1579 3147 2141 1562 2682 2310 2339 1622 1897 1588 1723 1804 2232 1772 2121 2243 5100 1702 1789 1816 2092 2348 3205 3616 1714 2020 1432 1797 2450 3021 2684 2237 1840 1928 1655 2560 1540 2634 1951 1210 2003 2867 2399 1748 1175 2296 1071 757 1875 2784 2935 1199 1940 1147 2089 1751 2475 1870 1461 2147 1362 2330 1872 1544 2698 1741 2313 1976 1726 2079 1939 1515 2215 1504 1039 1264 1437 2154 2418 1715 2710 1653 1447 1716 2211 3275 1936 2645 2520 2895 1613 1807 1908 1813 1661 1488 4866 2766 2386 1774 3041 2777 2986 1156 2879 1876 2919 1174 2368 2720 1959 1552 2002 2217 2729 2170 3152 2196 1998 1226 2834 1942 1989 2400 1915 2379 1972 1992 1992 2077 2223 1823 3549 1460 4844 2574 1990 1628 1679 2747 2642 2843 2365 2569 2125 2643 2104 1731 2094 2775 1174 1843 954 2858 1396 1621 2721 2348 1589 1928 928 1696 1883 2400 1947 2184 894 1492 2861 2306 2351 2452 1965 1996 2015 2399 1160 2965 2472 1506 2548 2890 1667 1661 1644 2171 1662 1762 2245 764 2286 1649 2691 1790 2762 1804 1795 2068 2330 2555 2362 3678 2000 2049 2077 2020 2147 1398 2386 1403 1534 656 2662 1305 1219 2330 2760 3086 1538 1867 3200 2039 1656 2406 2377 1333 3186 2171 1589 2055 2015 1861 2478 2223 2091 2193 2380 1894 3596 1678 2211 2314 1797 2018 2218 2022 2236 1690 2733 2462 1528 2690 2284 1389 2130 1959 2755 2324 1821 2656 1551 3320 2309 2837 3363 1878 2344 2393 2170 1533 3442 4216 1424 2590 2228 2194 2678 1908 1965 2338 1817 1381 3198 2260 2259 2518 3084 1642 1728 2332 2039 1526 3136 1717 2253 2499 2336 2326 1335 1292 1834 987 1726 553 1124 1559 3064 2080 1110 
