
*** ChampSim Multicore Out-of-Order Simulator ***

Warmup Instructions: 50000000
Simulation Instructions: 50000000
Number of CPUs: 1
LLC sets: 2048
LLC ways: 16
Off-chip DRAM Size: 4096 MB Channels: 1 Width: 64-bit Data Rate: 6400 MT/s
CPU 0 runs ./micro_traces/srv553.trace.gz
.gz
ITLB has LRU replacement policy
DTLB has LRU replacement policy
STLB has LRU replacement policy
FDIP Prefetcher at L1I
L1I has LRU replacement policy
L1D has LRU replacement policy
Initialize SRRIP state for L2C
Initialize DRRIP state for LLC
Heartbeat_Variant_0 : 1295 0.316162 per_variant_size: 0 1295 0 0 0 0 0 0 0 
Heartbeat_Variant_1 : 2466 0.602051 per_variant_size: 0 591 1875 0 0 0 0 0 0 
Heartbeat_Variant_2 : 0 0 per_variant_size: 0 0 0 0 0 0 0 0 0 
Heartbeat_Variant_3 : 0 0 per_variant_size: 0 0 0 0 0 0 0 0 0 
Heartbeat_Variant_0_evicts 0 : 5782 1 : 317 2 : 0 3 : 0 
Heartbeat_Variant_1_evicts 0 : 289 1 : 0 2 : 0 3 : 0 
Heartbeat_Variant_2_evicts 0 : 0 1 : 0 2 : 0 3 : 0 
Heartbeat_Variant_3_evicts 0 : 0 1 : 0 2 : 0 3 : 0 
Heartbeat CPU 0 instructions: 10000003 cycles: 2796052 heartbeat IPC: 3.57647 cumulative IPC: 3.57647 (Simulation time: 0 hr 1 min 41 sec) 
Heartbeat_Variant_0 : 1356 0.331055 per_variant_size: 0 1356 0 0 0 0 0 0 0 
Heartbeat_Variant_1 : 2596 0.633789 per_variant_size: 0 537 2059 0 0 0 0 0 0 
Heartbeat_Variant_2 : 0 0 per_variant_size: 0 0 0 0 0 0 0 0 0 
Heartbeat_Variant_3 : 0 0 per_variant_size: 0 0 0 0 0 0 0 0 0 
Heartbeat_Variant_0_evicts 0 : 5757 1 : 418 2 : 0 3 : 0 
Heartbeat_Variant_1_evicts 0 : 408 1 : 0 2 : 0 3 : 0 
Heartbeat_Variant_2_evicts 0 : 0 1 : 0 2 : 0 3 : 0 
Heartbeat_Variant_3_evicts 0 : 0 1 : 0 2 : 0 3 : 0 
Heartbeat CPU 0 instructions: 20000000 cycles: 5592266 heartbeat IPC: 3.57626 cumulative IPC: 3.57637 (Simulation time: 0 hr 3 min 20 sec) 
Heartbeat_Variant_0 : 1356 0.331055 per_variant_size: 0 1356 0 0 0 0 0 0 0 
Heartbeat_Variant_1 : 2598 0.634277 per_variant_size: 0 538 2060 0 0 0 0 0 0 
Heartbeat_Variant_2 : 0 0 per_variant_size: 0 0 0 0 0 0 0 0 0 
Heartbeat_Variant_3 : 0 0 per_variant_size: 0 0 0 0 0 0 0 0 0 
Heartbeat_Variant_0_evicts 0 : 5515 1 : 19 2 : 0 3 : 0 
Heartbeat_Variant_1_evicts 0 : 19 1 : 0 2 : 0 3 : 0 
Heartbeat_Variant_2_evicts 0 : 0 1 : 0 2 : 0 3 : 0 
Heartbeat_Variant_3_evicts 0 : 0 1 : 0 2 : 0 3 : 0 
Heartbeat CPU 0 instructions: 30000000 cycles: 8386547 heartbeat IPC: 3.57874 cumulative IPC: 3.57716 (Simulation time: 0 hr 5 min 1 sec) 
Heartbeat_Variant_0 : 1371 0.334717 per_variant_size: 0 1371 0 0 0 0 0 0 0 
Heartbeat_Variant_1 : 2609 0.636963 per_variant_size: 0 530 2079 0 0 0 0 0 0 
Heartbeat_Variant_2 : 0 0 per_variant_size: 0 0 0 0 0 0 0 0 0 
Heartbeat_Variant_3 : 0 0 per_variant_size: 0 0 0 0 0 0 0 0 0 
Heartbeat_Variant_0_evicts 0 : 5680 1 : 171 2 : 0 3 : 0 
Heartbeat_Variant_1_evicts 0 : 162 1 : 0 2 : 0 3 : 0 
Heartbeat_Variant_2_evicts 0 : 0 1 : 0 2 : 0 3 : 0 
Heartbeat_Variant_3_evicts 0 : 0 1 : 0 2 : 0 3 : 0 
Heartbeat CPU 0 instructions: 40000001 cycles: 11182615 heartbeat IPC: 3.57645 cumulative IPC: 3.57698 (Simulation time: 0 hr 6 min 42 sec) 
Heartbeat_Variant_0 : 1371 0.334717 per_variant_size: 0 1371 0 0 0 0 0 0 0 
Heartbeat_Variant_1 : 2612 0.637695 per_variant_size: 0 522 2090 0 0 0 0 0 0 
Heartbeat_Variant_2 : 0 0 per_variant_size: 0 0 0 0 0 0 0 0 0 
Heartbeat_Variant_3 : 0 0 per_variant_size: 0 0 0 0 0 0 0 0 0 
Heartbeat_Variant_0_evicts 0 : 5560 1 : 5 2 : 0 3 : 0 
Heartbeat_Variant_1_evicts 0 : 6 1 : 0 2 : 0 3 : 0 
Heartbeat_Variant_2_evicts 0 : 0 1 : 0 2 : 0 3 : 0 
Heartbeat_Variant_3_evicts 0 : 0 1 : 0 2 : 0 3 : 0 
Heartbeat CPU 0 instructions: 50000002 cycles: 13977336 heartbeat IPC: 3.57818 cumulative IPC: 3.57722 (Simulation time: 0 hr 8 min 18 sec) 

Warmup complete CPU 0 instructions: 50000002 cycles: 13977336 (Simulation time: 0 hr 8 min 18 sec) 

Cycle: 20000000 FTQ IN: 58270069 FTQ occupancy: 20.6226 DECODE IN: 58269992 DECODE occupancy: 53.3953 ROB IN: 58269992 ROB occupancy: 318.125 ROB OUT: 58269726
Heartbeat_Variant_0 : 1365 0.333252 per_variant_size: 0 1365 0 0 0 0 0 0 0 
Heartbeat_Variant_1 : 2629 0.641846 per_variant_size: 0 530 2099 0 0 0 0 0 0 
Heartbeat_Variant_2 : 0 0 per_variant_size: 0 0 0 0 0 0 0 0 0 
Heartbeat_Variant_3 : 0 0 per_variant_size: 0 0 0 0 0 0 0 0 0 
Heartbeat_Variant_0_evicts 0 : 5642 1 : 70 2 : 0 3 : 0 
Heartbeat_Variant_1_evicts 0 : 80 1 : 0 2 : 0 3 : 0 
Heartbeat_Variant_2_evicts 0 : 0 1 : 0 2 : 0 3 : 0 
Heartbeat_Variant_3_evicts 0 : 0 1 : 0 2 : 0 3 : 0 
Heartbeat CPU 0 instructions: 60000003 cycles: 21236365 heartbeat IPC: 1.37759 cumulative IPC: 1.37759 (Simulation time: 0 hr 10 min 13 sec) 
Heartbeat_Variant_0 : 1374 0.335449 per_variant_size: 0 1374 0 0 0 0 0 0 0 
Heartbeat_Variant_1 : 2640 0.644531 per_variant_size: 0 504 2136 0 0 0 0 0 0 
Heartbeat_Variant_2 : 0 0 per_variant_size: 0 0 0 0 0 0 0 0 0 
Heartbeat_Variant_3 : 0 0 per_variant_size: 0 0 0 0 0 0 0 0 0 
Heartbeat_Variant_0_evicts 0 : 5659 1 : 259 2 : 0 3 : 0 
Heartbeat_Variant_1_evicts 0 : 253 1 : 0 2 : 0 3 : 0 
Heartbeat_Variant_2_evicts 0 : 0 1 : 0 2 : 0 3 : 0 
Heartbeat_Variant_3_evicts 0 : 0 1 : 0 2 : 0 3 : 0 
Heartbeat CPU 0 instructions: 70000003 cycles: 28471434 heartbeat IPC: 1.38216 cumulative IPC: 1.37987 (Simulation time: 0 hr 12 min 14 sec) 
Cycle: 30000000 FTQ IN: 13879077 FTQ occupancy: 14.85 DECODE IN: 13879081 DECODE occupancy: 37.5894 ROB IN: 13879021 ROB occupancy: 245.847 ROB OUT: 13879219
Heartbeat_Variant_0 : 1375 0.335693 per_variant_size: 0 1375 0 0 0 0 0 0 0 
Heartbeat_Variant_1 : 2646 0.645996 per_variant_size: 0 518 2128 0 0 0 0 0 0 
Heartbeat_Variant_2 : 0 0 per_variant_size: 0 0 0 0 0 0 0 0 0 
Heartbeat_Variant_3 : 0 0 per_variant_size: 0 0 0 0 0 0 0 0 0 
Heartbeat_Variant_0_evicts 0 : 5740 1 : 123 2 : 0 3 : 0 
Heartbeat_Variant_1_evicts 0 : 123 1 : 0 2 : 0 3 : 0 
Heartbeat_Variant_2_evicts 0 : 0 1 : 0 2 : 0 3 : 0 
Heartbeat_Variant_3_evicts 0 : 0 1 : 0 2 : 0 3 : 0 
Heartbeat CPU 0 instructions: 80000001 cycles: 35695095 heartbeat IPC: 1.38434 cumulative IPC: 1.38136 (Simulation time: 0 hr 14 min 7 sec) 
Cycle: 40000000 FTQ IN: 13874978 FTQ occupancy: 15.0432 DECODE IN: 13875005 DECODE occupancy: 37.8998 ROB IN: 13875015 ROB occupancy: 247.017 ROB OUT: 13874924
Heartbeat_Variant_0 : 1375 0.335693 per_variant_size: 0 1375 0 0 0 0 0 0 0 
Heartbeat_Variant_1 : 2648 0.646484 per_variant_size: 0 506 2142 0 0 0 0 0 0 
Heartbeat_Variant_2 : 0 0 per_variant_size: 0 0 0 0 0 0 0 0 0 
Heartbeat_Variant_3 : 0 0 per_variant_size: 0 0 0 0 0 0 0 0 0 
Heartbeat_Variant_0_evicts 0 : 5639 1 : 110 2 : 0 3 : 0 
Heartbeat_Variant_1_evicts 0 : 110 1 : 0 2 : 0 3 : 0 
Heartbeat_Variant_2_evicts 0 : 0 1 : 0 2 : 0 3 : 0 
Heartbeat_Variant_3_evicts 0 : 0 1 : 0 2 : 0 3 : 0 
Heartbeat CPU 0 instructions: 90000000 cycles: 42856645 heartbeat IPC: 1.39635 cumulative IPC: 1.38507 (Simulation time: 0 hr 16 min 5 sec) 
Cycle: 50000000 FTQ IN: 13820500 FTQ occupancy: 15.001 DECODE IN: 13820498 DECODE occupancy: 37.7481 ROB IN: 13820542 ROB occupancy: 246.865 ROB OUT: 13820413
*** Reached end of trace for Core: 0 Repeating trace: ./micro_traces/srv553.trace.gz
Heartbeat_Variant_0 : 1375 0.335693 per_variant_size: 0 1375 0 0 0 0 0 0 0 
Heartbeat_Variant_1 : 2650 0.646973 per_variant_size: 0 490 2160 0 0 0 0 0 0 
Heartbeat_Variant_2 : 0 0 per_variant_size: 0 0 0 0 0 0 0 0 0 
Heartbeat_Variant_3 : 0 0 per_variant_size: 0 0 0 0 0 0 0 0 0 
Heartbeat_Variant_0_evicts 0 : 5659 1 : 92 2 : 0 3 : 0 
Heartbeat_Variant_1_evicts 0 : 93 1 : 0 2 : 0 3 : 0 
Heartbeat_Variant_2_evicts 0 : 0 1 : 0 2 : 0 3 : 0 
Heartbeat_Variant_3_evicts 0 : 0 1 : 0 2 : 0 3 : 0 
Heartbeat CPU 0 instructions: 100000001 cycles: 50118124 heartbeat IPC: 1.37713 cumulative IPC: 1.38348 (Simulation time: 0 hr 18 min 8 sec) 
Finished CPU 0 instructions: 50000003 cycles: 36140789 cumulative IPC: 1.38348 (Simulation time: 0 hr 18 min 8 sec) 

ChampSim completed all CPUs

Region of Interest Statistics

CPU 0 cumulative IPC: 1.38348 instructions: 50000003 cycles: 36140789
 Fetch stage stalled: 45.7342  Sim cycles: 36140789 fetch stall cycle: 16528717
 Empty decode stage: 26.0175  Sim cycles: 36140789 fetch stall cycle: 9402914
ITLB TOTAL     ACCESS:    5833868  HIT:    5346180  MISS:     487688  HIT %:    91.6404  MISS %:     8.3596   MPKI: 9.75376
ITLB LOAD TRANSLATION INSTRUCTION	ACCESS:    5695269  HIT:    5207581  MISS:     487688  HIT %:     91.437  MISS %:    8.56304  MPKI: 9.75376
ITLB TRANSLATION FROM L1D PREFETCHER INSTRUCTION	ACCESS:     138599  HIT:     138599  MISS:          0  HIT %:        100  MISS %:          0  MPKI: 0

ITLB AVERAGE MISS LATENCY: 9.0487 cycles
ITLB RQ	ACCESS:    7911554	FORWARD:          0	MERGED:    1599794	TO_CACHE:    6311760

DTLB TOTAL     ACCESS:    8931384  HIT:    8460452  MISS:     470932  HIT %:    94.7272  MISS %:    5.27278   MPKI: 9.41864
DTLB LOAD TRANSLATION DATA	ACCESS:    8931384  HIT:    8460452  MISS:     470932  HIT %:    94.7272  MISS %:    5.27278  MPKI: 9.41864

DTLB AVERAGE MISS LATENCY: 9.33116 cycles
DTLB RQ	ACCESS:   13283985	FORWARD:          0	MERGED:    4315537	TO_CACHE:    8968448

STLB TOTAL     ACCESS:    1219157  HIT:    1217013  MISS:       2144  HIT %:    99.8241  MISS %:   0.175859   MPKI: 0.04288
STLB LOAD TRANSLATION INSTRUCTION	ACCESS:     487688  HIT:     487426  MISS:        262  HIT %:    99.9463  MISS %:  0.0537229  MPKI: 0.00524
STLB LOAD TRANSLATION DATA	ACCESS:     470932  HIT:     469065  MISS:       1867  HIT %:    99.6036  MISS %:   0.396448  MPKI: 0.03734
STLB TRANSLATION FROM L1D PREFETCHER DATA	ACCESS:     260537  HIT:     260522  MISS:         15  HIT %:    99.9942  MISS %: 0.00575734  MPKI: 0.0003

STLB AVERAGE MISS LATENCY: 69.9981 cycles
STLB RQ	ACCESS:    1365513	FORWARD:          0	MERGED:     146315	TO_CACHE:    1219198

STLB Hit, L1D data hit: 0
STLB Hit, L2C data hit: 0
STLB Hit, LLC data hit: 0
STLB Hit, LLC data miss: 0
STLB STLB hints to L2: 0
L1D TOTAL     ACCESS:   13041831  HIT:   11887882  MISS:    1153949  HIT %:    91.1519  MISS %:    8.84806   MPKI: 23.079
L1D LOAD DATA	ACCESS:    6542111  HIT:    5783263  MISS:     758848  HIT %:    88.4006  MISS %:    11.5994  MPKI: 15.177
L1D RFO DATA	ACCESS:    6155694  HIT:    5866820  MISS:     288874  HIT %:    95.3072  MISS %:    4.69279  MPKI: 5.77748
L1D PREFETCH DATA	ACCESS:     344026  HIT:     237799  MISS:     106227  HIT %:    69.1224  MISS %:    30.8776  MPKI: 2.12454

L1D PREFETCH  REQUESTED:     814135  ISSUED:     814135  USEFUL:      48448  USELESS:      70345
L1D USEFUL LOAD PREFETCHES:      48448 PREFETCH ISSUED TO LOWER LEVEL:     118803  ACCURACY: 40.7801
 TIMELY PREFETCHES:      48448 LATE PREFETCHES: 12541 DROPPED PREFETCHES: 6
L1D AVERAGE MISS LATENCY: 348914 cycles
L1D RQ	ACCESS:   10679893	FORWARD:          0	MERGED:    3939236	TO_CACHE:    6578141
L1D WQ	ACCESS:    6902088	FORWARD:     162867	MERGED:     196244	TO_CACHE:    6705844
L1D PQ	ACCESS:     407243	FORWARD:          0	MERGED:          0	TO_CACHE:     406892

L1D UNIQUE REGIONS ACCESSED: 0
L1D REGIONS CONFLICTS: 0
L1D Cross Page Prefetch Requests: 6119
L1D Same Page Prefetch Requests: 818854
L1D ROI Sum of L1D PQ occupancy: 5182402
L1D PREFETCHES PUSHED FROM L2C: 0
L1I TOTAL     ACCESS:    7096399  HIT:    4364193  MISS:    2732206  HIT %:    61.4987  MISS %:    38.5013   MPKI: 54.6441
L1I LOAD INSTRUCTION	ACCESS:    6430160  HIT:    3697954  MISS:    2732206  HIT %:    57.5095  MISS %:    42.4905  MPKI: 54.6441
L1I PREFETCH INSTRUCTION	ACCESS:     666239  HIT:     666239  MISS:          0  HIT %:        100  MISS %:          0  MPKI: 0

L1I PREFETCH  REQUESTED:    1612305  ISSUED:    1612305  USEFUL:          0  USELESS:          0
L1I USEFUL LOAD PREFETCHES:          0 PREFETCH ISSUED TO LOWER LEVEL:          0  ACCURACY: -nan
 TIMELY PREFETCHES:          0 LATE PREFETCHES: 0 DROPPED PREFETCHES: 0
L1I AVERAGE MISS LATENCY: 17.8015 cycles
L1I RQ	ACCESS:    9574597	FORWARD:          0	MERGED:    2841111	TO_CACHE:    6733486
L1I PQ	ACCESS:    1612305	FORWARD:          0	MERGED:     434237	TO_CACHE:    1178068

L1BTB TOTAL     ACCESS:    5679738  HIT:    2087140  MISS:    3592598  HIT %:    36.7471  MISS %:    63.2529   MPKI: 71.852
L1BTB BRANCH_DIRECT_JUMP	ACCESS:     545897 HIT:     145047 MISS:     400850 AVERAGE STALL: 55.6853 AVERAGE FETCH STALL: 13.6862 AVERAGE FETCH QUEUE STALL: 19.6308 AVERAGE DECODE STALL: 21.434 AVERAGE EXECUTE STALL: 2.19421e+15
L1BTB BRANCH_INDIRECT	ACCESS:     182493 HIT:      66214 MISS:     116279 AVERAGE STALL: 112.073 AVERAGE FETCH STALL: 11.5262 AVERAGE FETCH QUEUE STALL: 17.9464 AVERAGE DECODE STALL: 12.8483 AVERAGE EXECUTE STALL: 68.7917
L1BTB BRANCH_CONDITIONAL	ACCESS:    2745604 HIT:    1464411 MISS:    1281193 AVERAGE STALL: 66.632 AVERAGE FETCH STALL: 19.7991 AVERAGE FETCH QUEUE STALL: 27.1382 AVERAGE DECODE STALL: 18.9887 AVERAGE EXECUTE STALL: 3.37235e+15
L1BTB BRANCH_DIRECT_CALL	ACCESS:     933082 HIT:     103400 MISS:     829682 AVERAGE STALL: 73.6378 AVERAGE FETCH STALL: 26.6811 AVERAGE FETCH QUEUE STALL: 30.1948 AVERAGE DECODE STALL: 16.0803 AVERAGE EXECUTE STALL: 1.03575e+16
L1BTB BRANCH_INDIRECT_CALL	ACCESS:     169789 HIT:      20867 MISS:     148922 AVERAGE STALL: 141.744 AVERAGE FETCH STALL: 12.7102 AVERAGE FETCH QUEUE STALL: 20.4651 AVERAGE DECODE STALL: 11.6803 AVERAGE EXECUTE STALL: 96.4044
L1BTB BRANCH_RETURN	ACCESS:    1102873 HIT:     287201 MISS:     815672 AVERAGE STALL: 51.4183 AVERAGE FETCH STALL: 17.3079 AVERAGE FETCH QUEUE STALL: 7.29513 AVERAGE DECODE STALL: 6.52795 AVERAGE EXECUTE STALL: 4.38019e+14
L1BTB BRANCH_OTHER ACCESS:          0 HIT:          0 MISS:          0 AVERAGE STALL: -nan AVERAGE FETCH STALL: -nan AVERAGE FETCH QUEUE STALL: -nan AVERAGE DECODE STALL: -nan AVERAGE EXECUTE STALL: -nan
L1BTB TOTAL ROB OCCUPANCY AT BTB MISS: 2.72814

L2BTB TOTAL     ACCESS:    3567185  HIT:    3501928  MISS:      65257  HIT %:    98.1706  MISS %:    1.82937   MPKI: 1.30514
L2BTB BRANCH_DIRECT_JUMP	ACCESS:     396608 HIT:     392437 MISS:       4171 AVERAGE STALL: 55.6853 AVERAGE FETCH STALL: 13.6862 AVERAGE FETCH QUEUE STALL: 19.6308 AVERAGE DECODE STALL: 21.434 AVERAGE EXECUTE STALL: 2.19421e+15
L2BTB BRANCH_INDIRECT	ACCESS:     106086 HIT:     103345 MISS:       2741 AVERAGE STALL: 112.073 AVERAGE FETCH STALL: 11.5262 AVERAGE FETCH QUEUE STALL: 17.9464 AVERAGE DECODE STALL: 12.8483 AVERAGE EXECUTE STALL: 68.7917
L2BTB BRANCH_CONDITIONAL	ACCESS:    1281193 HIT:    1275667 MISS:       5526 AVERAGE STALL: 66.632 AVERAGE FETCH STALL: 19.7991 AVERAGE FETCH QUEUE STALL: 27.1382 AVERAGE DECODE STALL: 18.9887 AVERAGE EXECUTE STALL: 3.37235e+15
L2BTB BRANCH_DIRECT_CALL	ACCESS:     829682 HIT:     827879 MISS:       1803 AVERAGE STALL: 73.6378 AVERAGE FETCH STALL: 26.6811 AVERAGE FETCH QUEUE STALL: 30.1948 AVERAGE DECODE STALL: 16.0803 AVERAGE EXECUTE STALL: 1.03575e+16
L2BTB BRANCH_INDIRECT_CALL	ACCESS:     139330 HIT:     129063 MISS:      10267 AVERAGE STALL: 141.744 AVERAGE FETCH STALL: 12.7102 AVERAGE FETCH QUEUE STALL: 20.4651 AVERAGE DECODE STALL: 11.6803 AVERAGE EXECUTE STALL: 96.4044
L2BTB BRANCH_RETURN	ACCESS:     814286 HIT:     773537 MISS:      40749 AVERAGE STALL: 51.4183 AVERAGE FETCH STALL: 17.3079 AVERAGE FETCH QUEUE STALL: 7.29513 AVERAGE DECODE STALL: 6.52795 AVERAGE EXECUTE STALL: 4.38019e+14
L2BTB BRANCH_OTHER ACCESS:          0 HIT:          0 MISS:          0 AVERAGE STALL: -nan AVERAGE FETCH STALL: -nan AVERAGE FETCH QUEUE STALL: -nan AVERAGE DECODE STALL: -nan AVERAGE EXECUTE STALL: -nan
L2BTB TOTAL ROB OCCUPANCY AT BTB MISS: 150.193

L2C TOTAL     ACCESS:    4508284  HIT:    3949286  MISS:     558998  HIT %:    87.6006  MISS %:    12.3994   MPKI: 11.18
L2C LOAD INSTRUCTION	ACCESS:    2732206  HIT:    2426938  MISS:     305268  HIT %:    88.8271  MISS %:    11.1729  MPKI: 6.10536
L2C LOAD TRANSLATION INSTRUCTION	ACCESS:        290  HIT:         62  MISS:        228  HIT %:    21.3793  MISS %:    78.6207  MPKI: 0.00456
L2C LOAD DATA	ACCESS:     746275  HIT:     652855  MISS:      93420  HIT %:    87.4818  MISS %:    12.5182  MPKI: 1.8684
L2C RFO DATA	ACCESS:     288813  HIT:     230505  MISS:      58308  HIT %:    79.8112  MISS %:    20.1888  MPKI: 1.16616
L2C PREFETCH DATA	ACCESS:     214710  HIT:     128028  MISS:      86682  HIT %:    59.6283  MISS %:    40.3717  MPKI: 1.73364
L2C WRITEBACK DATA	ACCESS:     524026  HIT:     510302  MISS:      13724  HIT %:     97.381  MISS %:    2.61895  MPKI: 0.27448
L2C LOAD TRANSLATION DATA	ACCESS:       1936  HIT:        576  MISS:       1360  HIT %:    29.7521  MISS %:    70.2479  MPKI: 0.0272
L2C TRANSLATION FROM L1D PREFETCHER DATA	ACCESS:         28  HIT:         20  MISS:          8  HIT %:    71.4286  MISS %:    28.5714  MPKI: 0.00016

L2C PREFETCH  REQUESTED:     104387  ISSUED:     104387  USEFUL:       8847  USELESS:      78367
L2C USEFUL LOAD PREFETCHES:       8847 PREFETCH ISSUED TO LOWER LEVEL:      87095  ACCURACY: 10.1579
 TIMELY PREFETCHES:       8847 LATE PREFETCHES: 413 DROPPED PREFETCHES: 0
L2C AVERAGE MISS LATENCY: 38.0697 cycles
L2C RQ	ACCESS:    3769607	FORWARD:          0	MERGED:          0	TO_CACHE:    3769549
L2C WQ	ACCESS:     524026	FORWARD:         58	MERGED:          0	TO_CACHE:     524026
L2C PQ	ACCESS:     223190	FORWARD:          0	MERGED:       3431	TO_CACHE:     219759

L2C Dense regions hint from L2: 0
PSCL5 TOTAL     ACCESS:       4304  HIT:       2152  MISS:       2152  HIT %:         50  MISS %:         50   MPKI: 0.04304
PSCL5 LOAD TRANSLATION INSTRUCTION	ACCESS:       4248  HIT:       2124  MISS:       2124  HIT %:         50  MISS %:         50  MPKI: 0.04248
PSCL5 TRANSLATION FROM L1D PREFETCHER INSTRUCTION	ACCESS:         56  HIT:         28  MISS:         28  HIT %:         50  MISS %:         50  MPKI: 0.00056


PSCL4 TOTAL     ACCESS:       4156  HIT:       2075  MISS:       2081  HIT %:    49.9278  MISS %:    50.0722   MPKI: 0.04162
PSCL4 LOAD TRANSLATION INSTRUCTION	ACCESS:       2939  HIT:       2050  MISS:        889  HIT %:    69.7516  MISS %:    30.2484  MPKI: 0.01778
PSCL4 TRANSLATION FROM L1D PREFETCHER INSTRUCTION	ACCESS:         41  HIT:         25  MISS:         16  HIT %:    60.9756  MISS %:    39.0244  MPKI: 0.00032
PSCL4 LOAD TRANSLATION DATA	ACCESS:       1167  HIT:          0  MISS:       1167  HIT %:          0  MISS %:        100  MPKI: 0.02334
PSCL4 TRANSLATION FROM L1D PREFETCHER DATA	ACCESS:          9  HIT:          0  MISS:          9  HIT %:          0  MISS %:        100  MPKI: 0.00018


PSCL3 TOTAL     ACCESS:       4244  HIT:       2119  MISS:       2125  HIT %:    49.9293  MISS %:    50.0707   MPKI: 0.0425
PSCL3 LOAD TRANSLATION INSTRUCTION	ACCESS:       2983  HIT:       2094  MISS:        889  HIT %:    70.1978  MISS %:    29.8022  MPKI: 0.01778
PSCL3 TRANSLATION FROM L1D PREFETCHER INSTRUCTION	ACCESS:         41  HIT:         25  MISS:         16  HIT %:    60.9756  MISS %:    39.0244  MPKI: 0.00032
PSCL3 LOAD TRANSLATION DATA	ACCESS:       1211  HIT:          0  MISS:       1211  HIT %:          0  MISS %:        100  MPKI: 0.02422
PSCL3 TRANSLATION FROM L1D PREFETCHER DATA	ACCESS:          9  HIT:          0  MISS:          9  HIT %:          0  MISS %:        100  MPKI: 0.00018


PSCL2 TOTAL     ACCESS:       4211  HIT:       2060  MISS:       2151  HIT %:    48.9195  MISS %:    51.0805   MPKI: 0.04302
PSCL2 LOAD TRANSLATION INSTRUCTION	ACCESS:       2292  HIT:       2032  MISS:        260  HIT %:    88.6562  MISS %:    11.3438  MPKI: 0.0052
PSCL2 TRANSLATION FROM L1D PREFETCHER INSTRUCTION	ACCESS:         28  HIT:         28  MISS:          0  HIT %:        100  MISS %:          0  MPKI: 0
PSCL2 LOAD TRANSLATION DATA	ACCESS:       1863  HIT:          0  MISS:       1863  HIT %:          0  MISS %:        100  MPKI: 0.03726
PSCL2 TRANSLATION FROM L1D PREFETCHER DATA	ACCESS:         28  HIT:          0  MISS:         28  HIT %:          0  MISS %:        100  MPKI: 0.00056


LLC TOTAL     ACCESS:     625650  HIT:     595299  MISS:      30351  HIT %:    95.1489  MISS %:    4.85111   MPKI: 0.60702
LLC LOAD INSTRUCTION	ACCESS:     305268  HIT:     304186  MISS:       1082  HIT %:    99.6456  MISS %:   0.354443  MPKI: 0.02164
LLC LOAD TRANSLATION INSTRUCTION	ACCESS:        228  HIT:        209  MISS:         19  HIT %:    91.6667  MISS %:    8.33333  MPKI: 0.00038
LLC LOAD DATA	ACCESS:      93023  HIT:      89469  MISS:       3554  HIT %:    96.1794  MISS %:    3.82056  MPKI: 0.07108
LLC RFO DATA	ACCESS:      58284  HIT:      42955  MISS:      15329  HIT %:    73.6995  MISS %:    26.3005  MPKI: 0.30658
LLC PREFETCH DATA	ACCESS:      87093  HIT:      77182  MISS:       9911  HIT %:    88.6202  MISS %:    11.3798  MPKI: 0.19822
LLC WRITEBACK DATA	ACCESS:      80386  HIT:      80003  MISS:        383  HIT %:    99.5235  MISS %:   0.476451  MPKI: 0.00766
LLC LOAD TRANSLATION DATA	ACCESS:       1360  HIT:       1287  MISS:         73  HIT %:    94.6324  MISS %:    5.36765  MPKI: 0.00146
LLC TRANSLATION FROM L1D PREFETCHER DATA	ACCESS:          8  HIT:          8  MISS:          0  HIT %:        100  MISS %:          0  MPKI: 0

LLC AVERAGE MISS LATENCY: 160.6 cycles
LLC RQ	ACCESS:     458180	FORWARD:          0	MERGED:          0	TO_CACHE:     458172
LLC WQ	ACCESS:      80386	FORWARD:         10	MERGED:          0	TO_CACHE:      80386
LLC PQ	ACCESS:      87095	FORWARD:          0	MERGED:          0	TO_CACHE:      87093

LLC Dense regions hint to LLC: 0

RAW hits: 1933299
Loads Generated: 12613192
Loads sent to L1D: 10679893
Stores Generated: 6902078
Stores sent to L1D: 6902088
Major fault: 0 Minor fault: 2519
Allocated PAGES: 2519

stream: 
stream:times selected: 1260901
stream:pref_filled: 127387
stream:pref_useful: 29143
stream:pref_late: 9207
stream:misses: 10492
stream:misses_by_poll: 0

CS: 
CS:times selected: 196281
CS:pref_filled: 73660
CS:pref_useful: 50004
CS:pref_late: 9251
CS:misses: 23977
CS:misses_by_poll: 3

CPLX: 
CPLX:times selected: 1063433
CPLX:pref_filled: 24426
CPLX:pref_useful: 7270
CPLX:pref_late: 3973
CPLX:misses: 128513
CPLX:misses_by_poll: 0

NL_L1: 
NL:times selected: 12991
NL:pref_filled: 1323
NL:pref_useful: 334
NL:pref_late: 387
NL:misses: 2093
NL:misses_by_poll: 0

total selections: 2533606
total_filled: 106227
total_useful: 48448
total_late: 25062
total_polluted: 3
total_misses_after_warmup: 794882
conflicts: 5475077

test: 120524

DRAM Statistics
 CHANNEL 0
 RQ ROW_BUFFER_HIT:      11233  ROW_BUFFER_MISS:      18705
 DBUS_CONGESTED:         11
 WQ ROW_BUFFER_HIT:       1445  ROW_BUFFER_MISS:      13070  FULL:          0

 AVG_CONGESTED_CYCLE: 4

CPU 0 Branch Prediction Accuracy: 99.8159% MPKI: 0.33678 Average ROB Occupancy at Mispredict: 194.671
Branch types
NOT_BRANCH: 40852391 81.7048%
BRANCH_DIRECT_JUMP: 545897 1.09179%
BRANCH_INDIRECT: 182493 0.364986%
BRANCH_CONDITIONAL: 6213403 12.4268%
BRANCH_DIRECT_CALL: 933082 1.86616%
BRANCH_INDIRECT_CALL: 169789 0.339578%
BRANCH_RETURN: 1102873 2.20575%
BRANCH_OTHER: 0 0%

DRAM PAGES: 1048576
Allocated PAGES: 2519
Average_ROB_Occupancy: 247.877
Average_Decode_Occupancy: 37.7525
Average_FTQ_Occupancy: 14.9767
Indirect max targets: 14 Average targets: 1.14966
Branch_type:  BRANCH_DIRECT_JUMP:  Count Percentage: 3.34064 6.03018 5.05481 3.7701 7.05164 12.6717 1.71966 60.3613 
Branch_type:  BRANCH_INDIRECT:  Count Percentage: 13.7594 6.28724 2.61447 3.70073 9.68446 16.4482 3.18063 44.3248 
Branch_type:  BRANCH_CONDITIONAL:  Count Percentage: 21.9489 3.86835 1.73762 2.83677 4.69582 14.7827 0.98497 49.1448 
Branch_type:  BRANCH_DIRECT_CALL:  Count Percentage: 0.709738 1.25073 1.05329 2.19371 4.41696 4.87798 0.889675 84.6079 
Branch_type:  BRANCH_INDIRECT_CALL:  Count Percentage: 9.52119 0 2.98197 4.2448 0 5.40068 0.999277 76.8521 
Branch_type:  BRANCH_RETURN:  Count Percentage: 4.44094 2.2779 1.75192 3.31218 7.1335 15.1739 1.38574 64.5239 
Branch_type:  BRANCH_DIRECT_JUMP:  Total Count: 36459 65812 55167 41146 76960 138296 18768 658769 
Branch_type:  BRANCH_INDIRECT:  Total Count: 50186 22932 9536 13498 35323 59993 11601 161670 
Branch_type:  BRANCH_CONDITIONAL:  Total Count: 2726564 480538 215853 352392 583329 1836351 122356 6104922 
Branch_type:  BRANCH_DIRECT_CALL:  Total Count: 13261 23369 19680 40988 82528 91142 16623 1580845 
Branch_type:  BRANCH_INDIRECT_CALL:  Total Count: 32405 0 10149 14447 0 18381 3401 261563 
Branch_type:  BRANCH_RETURN:  Total Count: 98126 50332 38710 73185 157620 335278 30619 1425705 
Number of unique branch instructions: 9864
Upper 32 bits: 
aaaa
ffff
ffff0000
Unique upper 32 bits: 3
Unique upper 36 bits: 3
Unique upper 40 bits: 5
Unique upper 44 bits: 32
Unique upper 48 bits: 154
Variant_0 : 1375 0.335693
Variant_1 : 2650 0.646973
Variant_2 : 0 0
Variant_3 : 0 0
Offset_3 4071
Offset_4 244
Offset_5 452
Offset_6 498
Offset_7 576
Offset_8 505
Offset_9 468
Offset_10 377
Offset_11 318
Offset_12 271
Offset_13 199
Offset_14 227
Offset_15 184
Offset_16 224
Offset_17 142
Offset_18 121
Offset_19 234
Offset_20 137
Offset_21 235
Offset_22 393
Offset_23 241
Offset_24 326
Offset_25 88
Offset_47 80
Offset_64 2
decode_dispatch_called: 26279153 72.7133
Dispatch_width: 0 14229600 54.1479 39.3727
Dispatch_width: 1 1004814 3.82362 2.78028
Dispatch_width: 2 836394 3.18273 2.31427
Dispatch_width: 3 488896 1.86039 1.35275
Dispatch_width: 4 6177192 23.5061 17.092
Dispatch_width: 5 106597 0.405633 0.294949
Dispatch_width: 6 3435660 13.0737 9.50632
Empty_decode_cycles: 9861636 27.2867
ROB_full_cycles: 9945940 27.52
Starvation_cycles_per_kilo_instr: 227.592
Starvation_cycles_per_kilo_instr_3: 164.754
Starvation_cycles_per_kilo_instr_0: 141.453
Branch_type_1  (3,1)  (4,9)  (5,37)  (6,68)  (7,113)  (8,129)  (9,124)  (10,97)  (11,70)  (12,44)  (13,5)  (14,2)  (15,3)  (16,4)  (18,1)  (19,4)  (20,2)  (21,1)  (22,3)  (23,2)  (24,10)  (25,12) 
Branch_type_2  (3,1)  (5,1)  (8,3)  (9,3)  (12,1)  (13,1)  (14,1)  (16,3)  (17,2)  (20,2)  (21,2)  (23,5)  (24,1)  (47,36) 
Branch_type_3  (3,4069)  (4,235)  (5,410)  (6,415)  (7,434)  (8,313)  (9,258)  (10,153)  (11,133)  (12,51)  (13,4)  (64,1) 
Branch_type_4  (6,3)  (7,8)  (8,25)  (9,51)  (10,60)  (11,59)  (12,96)  (13,86)  (14,100)  (15,86)  (16,100)  (17,63)  (18,55)  (19,115)  (20,71)  (21,124)  (22,209)  (23,136)  (24,187)  (25,72)  (64,1) 
Branch_type_5  (8,2)  (9,1)  (10,3)  (11,5)  (12,3)  (13,14)  (14,16)  (15,11)  (16,20)  (17,11)  (18,16)  (19,12)  (20,10)  (21,13)  (22,42)  (23,26)  (24,37) 
Branch_type_6  (5,4)  (6,12)  (7,21)  (8,33)  (9,31)  (10,64)  (11,51)  (12,76)  (13,89)  (14,108)  (15,84)  (16,97)  (17,66)  (18,49)  (19,103)  (20,52)  (21,95)  (22,139)  (23,72)  (24,91)  (25,4)  (47,44) 
Unique trigger count: 
Variant_0_evicts_0 : 0
Variant_0_evicts_1 : 0
Variant_0_evicts_2 : 0
Variant_0_evicts_3 : 0
Variant_1_evicts_0 : 0
Variant_1_evicts_1 : 0
Variant_1_evicts_2 : 0
Variant_1_evicts_3 : 0
Variant_2_evicts_0 : 0
Variant_2_evicts_1 : 0
Variant_2_evicts_2 : 0
Variant_2_evicts_3 : 0
Variant_3_evicts_0 : 0
Variant_3_evicts_1 : 0
Variant_3_evicts_2 : 0
Variant_3_evicts_3 : 0
BTB PER SET UNIQUE ADDR: 12 13 10 8 13 13 12 10 7 12 9 12 11 12 9 9 7 9 11 9 9 9 12 15 8 12 8 11 9 11 12 11 11 8 7 8 8 14 9 10 12 11 10 12 8 12 9 10 4 10 9 10 8 8 12 7 11 11 9 15 13 12 12 10 8 13 9 6 10 5 15 9 11 9 8 10 6 12 10 14 9 8 14 13 9 14 17 11 6 12 8 6 8 11 8 13 8 9 14 18 10 14 12 9 10 9 6 13 6 7 10 12 9 8 6 7 11 9 11 5 11 7 9 9 10 8 5 10 13 11 7 17 12 13 8 11 8 8 10 11 6 7 10 8 10 7 8 7 6 5 11 7 7 9 9 8 15 11 11 9 11 8 12 14 12 13 11 9 10 8 11 9 10 7 14 9 10 9 11 10 8 9 10 8 14 15 5 8 9 8 10 11 7 14 10 7 7 14 8 9 10 11 12 7 9 7 12 12 10 16 9 12 8 11 10 11 12 8 10 16 6 11 6 10 10 12 13 9 10 12 9 8 8 11 9 9 12 9 10 10 10 8 12 10 9 10 8 8 12 11 10 10 16 10 12 11 5 7 11 8 11 8 7 10 10 7 9 11 10 8 11 10 10 8 7 6 7 10 7 8 9 11 8 8 13 8 9 12 13 14 7 7 13 12 7 8 9 7 13 8 8 11 7 15 11 12 8 10 12 9 7 13 8 16 14 9 10 14 11 12 5 10 12 12 13 12 8 10 10 8 11 12 12 9 11 8 8 12 7 11 10 9 7 11 10 10 6 11 13 9 9 10 12 12 10 9 11 9 7 9 9 10 7 14 8 11 7 6 9 8 9 10 9 13 11 11 10 16 10 13 13 9 9 11 8 10 11 18 10 10 12 9 12 15 7 9 7 10 13 10 8 9 7 17 13 10 9 10 11 8 14 8 9 14 11 9 12 7 12 15 12 9 10 12 12 11 8 12 13 13 11 12 10 9 9 13 13 11 9 10 10 12 12 7 15 10 9 11 8 10 9 15 11 10 12 16 12 13 7 9 11 10 11 7 9 7 9 11 10 11 13 14 12 7 12 10 9 12 6 9 14 11 9 13 8 10 12 10 14 11 10 8 9 7 9 10 11 10 9 11 8 14 10 18 9 7 10 9 15 11 10 13 10 11 11 9 10 12 8 9 6 7 13 8 12 11 15 8 8 16 11 12 11 11 10 7 6 12 11 10 10 9 10 11 16 11 8 18 7 12 13 12 12 10 10 14 12 7 10 12 8 12 9 10 10 14 7 17 12 14 13 11 12 14 9 13 13 13 9 10 11 11 9 7 12 6 8 11 8 10 8 9 11 7 11 8 14 11 10 8 12 10 8 6 5 10 13 8 11 11 13 10 9 7 5 12 9 14 7 15 12 7 7 7 11 15 10 15 11 12 9 8 9 13 12 8 9 9 9 12 14 10 10 16 9 10 10 13 13 7 11 8 8 6 11 11 8 13 7 8 14 7 12 15 10 13 9 9 11 11 13 11 10 12 16 11 10 10 9 13 7 8 13 11 9 12 9 9 10 10 8 9 9 6 10 10 10 11 6 14 11 12 11 9 6 15 11 10 8 11 10 11 10 10 7 8 11 11 10 12 10 10 13 7 8 14 12 8 6 10 11 9 13 7 8 14 17 10 12 9 9 11 15 10 9 10 9 10 9 10 13 12 10 8 7 8 16 7 6 6 10 7 6 12 10 13 9 10 12 9 9 6 7 7 9 6 12 10 12 9 7 12 12 8 11 8 8 11 12 8 7 7 13 10 12 10 9 11 10 9 14 11 10 12 12 9 11 13 12 10 7 17 12 14 12 11 11 14 7 13 6 13 5 9 12 9 10 9 8 15 10 12 9 11 9 11 13 8 9 7 16 12 6 8 9 11 10 12 10 9 10 9 6 14 11 10 8 11 13 10 11 5 10 7 11 9 8 8 10 10 9 14 10 11 14 6 11 10 6 13 8 6 9 8 10 9 8 13 11 8 13 8 16 8 7 12 11 13 10 10 12 9 8 14 7 8 11 9 12 8 7 13 11 13 13 10 12 11 8 10 14 12 10 9 7 9 8 12 11 7 8 14 12 10 7 12 8 13 13 11 6 9 9 7 12 11 12 11 11 11 8 13 8 12 8 11 8 9 12 9 16 12 10 9 8 6 12 7 9 10 12 7 9 7 10 9 14 12 11 10 10 12 8 8 9 15 12 10 12 10 10 15 10 14 10 7 8 9 11 9 13 11 6 9 12 10 9 11 7 12 8 10 9 9 9 8 5 12 5 8 10 12 11 6 
BTB PER SET COUNT: 781 14 1966 8 1216 20 1462 12 1457 14 11 13 52 13 14 11 10 10 14 10 10 13 515 19 8 15 9 11 9 13 17 12 15 10 10 509 8 17 11 14 18 13 13 15 8 14 17 11 4 10 10 11 9 8 16 388 15 13 70 20 13 17 20 13 9 20 14 6 11 5 1473 9 13 11 8 14 8 267 18 16 15 12 16 14 13 20 23 14 270 29 11 6 8 17 10 16 1139 12 16 4735 10 27 18 11 11 11 7 19 6 9 12 18 12 8 8 1080 13 12 1474 9 13 8 12 12 12 10 5 12 15 1015 7 3066 147 17 8 12 642 13 14 15 6 8 12 11 12 9 11 7 6 5 12 283 902 13 11 11 20 13 13 184 11 222 15 20 231 15 19 9 10 1838 14 12 11 9 17 913 11 12 153 13 10 214 18 8 443 663 7 10 11 8 14 17 7 20 15 7 10 1249 12 10 10 16 969 7 12 7 13 15 957 577 14 15 9 96 12 821 14 8 2012 22 8 14 430 10 20 16 14 9 634 17 12 9 8 15 10 14 13 11 14 12 11 12 14 379 11 10 8 11 13 12 10 12 24 13 14 17 79 13 16 16 13 9 7 516 12 7 12 16 466 9 17 14 13 9 9 6 7 10 7 12 23 17 603 1014 18 9 9 16 15 16 8 8 18 947 7 8 16 7 17 170 8 11 7 23 12 141 12 12 101 1016 958 16 13 21 1971 1014 13 20 15 23 5 2910 17 16 1464 13 9 13 17 8 12 17 61 9 19 14 12 615 9 14 12 1125 10 15 16 10 6 13 16 102 9 921 16 14 12 10 12 14 7 11 9 10 10 22 10 1955 7 6 16 9 10 15 11 401 15 11 12 23 13 551 195 11 941 11 8 12 12 32 12 273 16 11 13 1713 9 60 7 11 1153 14 13 9 7 30 17 14 13 824 17 8 1317 10 9 984 12 9 17 20314 328 17 17 10 22 17 13 14 10 14 22 15 13 13 13 10 13 28 15 392 9 13 608 12 37 7 1235 1248 597 16 8 13 9 15 20 18 13 254 20 19 8 10 14 126 15 7 9 54 13 12 12 14 17 14 18 7 16 11 14 19 6 16 20 20 9 15 10 10 19 11 230 15 76 11 3475 8 10 13 896 11 11 12 8 17 12 25 15 8 11 12 22 15 326 27 12 270 11 13 27 13 14 9 6 8 18 8 14 11 2570 1464 9 1813 16 15 482 12 13 7 8 49 24 728 12 11 30 16 21 13 8 28 10 14 15 16 12 257 11 18 14 10 14 41 10 105 9 17 16 24 72 25 16 21 15 15 17 17 14 19 14 15 11 16 12 12 10 2907 12 9 1003 20 12 13 9 23 15 9 11 12 1145 11 264 8 25 15 10 6 5 14 18 963 15 14 18 16 577 7 5 18 9 18 9 371 13 11 14 7 14 16 14 24 552 963 10 14 16 148 25 10 12 1012 9 15 18 13 11 152 2024 12 81 15 614 7 17 12 10 6 13 519 11 17 7 678 398 7 14 25 13 15 12 1472 1465 23 15 13 977 17 861 519 11 14 13 17 7 8 382 17 1970 12 11 10 13 14 12 9 9 6 1988 18 13 206 6 15 610 21 14 13 8 452 21 16 10 12 391 14 1252 12 7 122 1363 16 11 55 12 86 16 1459 8 15 14 9 1009 16 64 7200 15 8 8 20 361 18 26 14 11 21 124 10 507 10 1002 10 12 17 17 16 18 9 8 8 18 1456 6 6 12 8 6 14 2884 19 9 13 14 143 10 11 7 7 13 8 13 14 17 9 2033 13 872 9 18 9 11 14 14 9 7 8 14 11 205 14 202 16 12 286 17 15 12 260 462 11 14 18 18 28 12 190 14 20 15 243 961 225 7 15 6 1067 7 11 15 9 19 10 9 21 11 14 11 21 434 17 24 8 10 7 23 41 6 8 2577 11 180 14 12 7241 22 253 6 20 44 10 11 18 19 10 24 6 629 7 1018 10 10 12 11 14 13 41 12 13 21 6 19 11 6 22 11 6 108 11 513 12 8 24 13 9 15 1512 1380 14 7 16 14 17 15 11 21 11 8 368 7 11 11 13 129 11 509 772 15 16 17 229 17 973 9 12 20 16 14 10 7 12 14 12 13 9 10 25 12 11 9 150 9 17 17 18 8 901 12 10 12 12 15 15 20 13 9 964 9 897 10 19 8 9 14 16 26 24 10 10 9 6 1464 7 44 138 34 8 13 7 13 9 19 14 91 11 13 16 9 151 12 582 1712 15 16 16 18 850 11 999 1462 7 8 1460 19 11 13 20 6 10 17 11 10 16 9 15 515 10 10 9 9 10 8 45 5 9 13 543 12 6 
To predecode: 0
Predecoding something: 0
Predecode request dropped: 0
sizeofblock_0 0
sizeofblock_1 53852
sizeofblock_2 83469
sizeofblock_3 0
sizeofblock_4 0
sizeofblock_5 0
sizeofblock_6 0
sizeofblock_7 0
sizeofblock_8 0
Variant_0 Correct: 1598961 Incorrect: 0 Accuracy: 1
Variant_1 Correct: 5679667 Incorrect: 0 Accuracy: 1
Variant_2 Correct: 0 Incorrect: 0 Accuracy: -nan
Variant_3 Correct: 0 Incorrect: 0 Accuracy: -nan
