Set 35: way: 00
Set 35: way: 11
Set 35: way: 22
Set 35: way: 33

*** ChampSim Multicore Out-of-Order Simulator ***

Warmup Instructions: 50000000
Simulation Instructions: 50000000
Number of CPUs: 1
LLC sets: 2048
LLC ways: 16
Off-chip DRAM Size: 4096 MB Channels: 1 Width: 64-bit Data Rate: 6400 MT/s
CPU 0 runs ./micro_traces/srv563.trace.gz
.gz
ITLB has LRU replacement policy
DTLB has LRU replacement policy
STLB has LRU replacement policy
L1I has LRU replacement policy
L1D has LRU replacement policy
Initialize SRRIP state for L2C
Initialize DRRIP state for LLC
Heartbeat CPU 0 instructions: 10000000 cycles: 2797334 heartbeat IPC: 3.57483 cumulative IPC: 3.57483 (Simulation time: 0 hr 1 min 40 sec) 
Heartbeat CPU 0 instructions: 20000000 cycles: 5593839 heartbeat IPC: 3.57589 cumulative IPC: 3.57536 (Simulation time: 0 hr 3 min 17 sec) 
Heartbeat CPU 0 instructions: 30000002 cycles: 8390173 heartbeat IPC: 3.57611 cumulative IPC: 3.57561 (Simulation time: 0 hr 4 min 52 sec) 
Heartbeat CPU 0 instructions: 40000000 cycles: 11186011 heartbeat IPC: 3.57674 cumulative IPC: 3.57589 (Simulation time: 0 hr 6 min 29 sec) 
Heartbeat CPU 0 instructions: 50000003 cycles: 13981713 heartbeat IPC: 3.57692 cumulative IPC: 3.5761 (Simulation time: 0 hr 8 min 7 sec) 

Warmup complete CPU 0 instructions: 50000003 cycles: 13981713 (Simulation time: 0 hr 8 min 7 sec) 

Cycle: 20000000 FTQ IN: 57077333 FTQ occupancy: 17.8145 DECODE IN: 57077333 DECODE occupancy: 45.9242 ROB IN: 57077333 ROB occupancy: 281.992 ROB OUT: 57077299
Heartbeat CPU 0 instructions: 60000000 cycles: 22595324 heartbeat IPC: 1.16095 cumulative IPC: 1.16095 (Simulation time: 0 hr 9 min 28 sec) 
Cycle: 30000000 FTQ IN: 11639063 FTQ occupancy: 5.91679 DECODE IN: 11639056 DECODE occupancy: 13.2925 ROB IN: 11638996 ROB occupancy: 128.466 ROB OUT: 11638678
Heartbeat CPU 0 instructions: 70000003 cycles: 31118712 heartbeat IPC: 1.17324 cumulative IPC: 1.16707 (Simulation time: 0 hr 10 min 51 sec) 
Heartbeat CPU 0 instructions: 80000003 cycles: 39747047 heartbeat IPC: 1.15897 cumulative IPC: 1.16436 (Simulation time: 0 hr 12 min 11 sec) 
Cycle: 40000000 FTQ IN: 11571854 FTQ occupancy: 5.9174 DECODE IN: 11571752 DECODE occupancy: 13.3376 ROB IN: 11571752 ROB occupancy: 127.765 ROB OUT: 11571752
Heartbeat CPU 0 instructions: 90000000 cycles: 48267967 heartbeat IPC: 1.17358 cumulative IPC: 1.16665 (Simulation time: 0 hr 13 min 28 sec) 
Cycle: 50000000 FTQ IN: 11741849 FTQ occupancy: 5.78189 DECODE IN: 11741954 DECODE occupancy: 13.0741 ROB IN: 11742014 ROB occupancy: 126.388 ROB OUT: 11742316
Heartbeat CPU 0 instructions: 100000000 cycles: 56841426 heartbeat IPC: 1.16639 cumulative IPC: 1.1666 (Simulation time: 0 hr 14 min 50 sec) 
Finished CPU 0 instructions: 50000001 cycles: 42859749 cumulative IPC: 1.1666 (Simulation time: 0 hr 14 min 50 sec) 

ChampSim completed all CPUs

Region of Interest Statistics

CPU 0 cumulative IPC: 1.1666 instructions: 50000001 cycles: 42859749
 Fetch stage stalled: 72.2161  Sim cycles: 42859749 fetch stall cycle: 30951624
 Empty decode stage: 66.7552  Sim cycles: 42859749 fetch stall cycle: 28611120
ITLB TOTAL     ACCESS:    9161035  HIT:    8662541  MISS:     498494  HIT %:    94.5585  MISS %:    5.44146   MPKI: 9.96988
ITLB LOAD TRANSLATION INSTRUCTION	ACCESS:    5869715  HIT:    5447438  MISS:     422277  HIT %:    92.8058  MISS %:    7.19417  MPKI: 8.44554
ITLB TRANSLATION FROM L1D PREFETCHER INSTRUCTION	ACCESS:    3291320  HIT:    3215103  MISS:      76217  HIT %:    97.6843  MISS %:     2.3157  MPKI: 1.52434

ITLB AVERAGE MISS LATENCY: 2.88025e+07 cycles
ITLB RQ	ACCESS:   11233289	FORWARD:          0	MERGED:    1302296	TO_CACHE:    9930993

DTLB TOTAL     ACCESS:    9387375  HIT:    8913954  MISS:     473421  HIT %:    94.9568  MISS %:    5.04317   MPKI: 9.46842
DTLB LOAD TRANSLATION DATA	ACCESS:    9387375  HIT:    8913954  MISS:     473421  HIT %:    94.9568  MISS %:    5.04317  MPKI: 9.46842

DTLB AVERAGE MISS LATENCY: 9.32419 cycles
DTLB RQ	ACCESS:   13662328	FORWARD:          0	MERGED:    4242452	TO_CACHE:    9419876

STLB TOTAL     ACCESS:    1224386  HIT:    1222341  MISS:       2045  HIT %:     99.833  MISS %:   0.167022   MPKI: 0.0409
STLB LOAD TRANSLATION INSTRUCTION	ACCESS:      15715  HIT:      15696  MISS:         19  HIT %:    99.8791  MISS %:   0.120904  MPKI: 0.00038
STLB TRANSLATION FROM L1D PREFETCHER INSTRUCTION	ACCESS:     482779  HIT:     482547  MISS:        232  HIT %:    99.9519  MISS %:  0.0480551  MPKI: 0.00464
STLB LOAD TRANSLATION DATA	ACCESS:     473317  HIT:     471547  MISS:       1770  HIT %:     99.626  MISS %:   0.373957  MPKI: 0.0354
STLB TRANSLATION FROM L1D PREFETCHER DATA	ACCESS:     252575  HIT:     252551  MISS:         24  HIT %:    99.9905  MISS %: 0.00950213  MPKI: 0.00048

STLB AVERAGE MISS LATENCY: 74.7125 cycles
STLB RQ	ACCESS:    1345153	FORWARD:          0	MERGED:     120726	TO_CACHE:    1224427

STLB Hit, L1D data hit: 0
STLB Hit, L2C data hit: 0
STLB Hit, LLC data hit: 0
STLB Hit, LLC data miss: 0
STLB STLB hints to L2: 0
L1D TOTAL     ACCESS:   13423230  HIT:   12304977  MISS:    1118253  HIT %:    91.6693  MISS %:    8.33073   MPKI: 22.3651
L1D LOAD DATA	ACCESS:    6852058  HIT:    6115761  MISS:     736297  HIT %:    89.2544  MISS %:    10.7456  MPKI: 14.7259
L1D RFO DATA	ACCESS:    6241460  HIT:    5954240  MISS:     287220  HIT %:    95.3982  MISS %:    4.60181  MPKI: 5.7444
L1D PREFETCH DATA	ACCESS:     329712  HIT:     234976  MISS:      94736  HIT %:     71.267  MISS %:     28.733  MPKI: 1.89472

L1D PREFETCH  REQUESTED:     746742  ISSUED:     746742  USEFUL:      36349  USELESS:      68745
L1D USEFUL LOAD PREFETCHES:      36349 PREFETCH ISSUED TO LOWER LEVEL:     105080  ACCURACY: 34.5917
 TIMELY PREFETCHES:      36349 LATE PREFETCHES: 10309 DROPPED PREFETCHES: 5
L1D AVERAGE MISS LATENCY: 329714 cycles
L1D RQ	ACCESS:   10906507	FORWARD:          0	MERGED:    3854324	TO_CACHE:    6886959
L1D WQ	ACCESS:    6950443	FORWARD:     165496	MERGED:     175074	TO_CACHE:    6775369
L1D PQ	ACCESS:     373507	FORWARD:          0	MERGED:          0	TO_CACHE:     373235

L1D UNIQUE REGIONS ACCESSED: 0
L1D REGIONS CONFLICTS: 0
L1D Cross Page Prefetch Requests: 6422
L1D Same Page Prefetch Requests: 752946
L1D ROI Sum of L1D PQ occupancy: 4752881
L1D PREFETCHES PUSHED FROM L2C: 0
L1I TOTAL     ACCESS:    9771978  HIT:    7004703  MISS:    2767275  HIT %:    71.6815  MISS %:    28.3185   MPKI: 55.3455
L1I LOAD INSTRUCTION	ACCESS:    6732122  HIT:    4229087  MISS:    2503035  HIT %:    62.8195  MISS %:    37.1805  MPKI: 50.0607
L1I PREFETCH INSTRUCTION	ACCESS:    3039856  HIT:    2775616  MISS:     264240  HIT %:    91.3075  MISS %:    8.69252  MPKI: 5.2848

L1I PREFETCH  REQUESTED:    4595963  ISSUED:    4595963  USEFUL:    1026793  USELESS:       1898
L1I USEFUL LOAD PREFETCHES:    1026793 PREFETCH ISSUED TO LOWER LEVEL:    1028693  ACCURACY: 99.8153
 TIMELY PREFETCHES:    1026793 LATE PREFETCHES: 764453 DROPPED PREFETCHES: 0
L1I AVERAGE MISS LATENCY: 9.7656e+06 cycles
L1I RQ	ACCESS:    9446304	FORWARD:          0	MERGED:    2557519	TO_CACHE:    6888785
L1I PQ	ACCESS:    4595963	FORWARD:          0	MERGED:     251459	TO_CACHE:    4344504

BTB TOTAL     ACCESS:    6805355  HIT:    6265842  MISS:     464882  MISS TARGET:      74631  HIT %:    92.0722  MISS %:    6.83112   MPKI: 9.29764
BTB BRANCH_DIRECT_JUMP	ACCESS:     548589  HIT:     510410  MISS:      32157  MISS TARGET:       6022	AVERAGE STALL: 27.8622
BTB BRANCH_INDIRECT	ACCESS:     182966  HIT:     167906  MISS:       2578  MISS TARGET:      12482	AVERAGE STALL: 74.0228
BTB BRANCH_CONDITIONAL	ACCESS:    3845849  HIT:    3540810  MISS:     304994  MISS TARGET:         45	AVERAGE STALL: 32.8467
BTB BRANCH_DIRECT_CALL	ACCESS:     942635  HIT:     863885  MISS:      78750  MISS TARGET:          0	AVERAGE STALL: 35.6279
BTB BRANCH_INDIRECT_CALL	ACCESS:     171337  HIT:     140964  MISS:      12228  MISS TARGET:      18145	AVERAGE STALL: 111.383
BTB BRANCH_RETURN	ACCESS:    1113979  HIT:    1041867  MISS:      34175  MISS TARGET:      37937	AVERAGE STALL: 33.9687
BTB BRANCH_OTHER ACCESS:          0  HIT:          0  MISS:          0  MISS TARGET:          0	AVERAGE STALL: -nan
L2C TOTAL     ACCESS:    5402641  HIT:    4846693  MISS:     555948  HIT %:    89.7097  MISS %:    10.2903   MPKI: 11.119
L2C LOAD INSTRUCTION	ACCESS:    1738582  HIT:    1579269  MISS:     159313  HIT %:    90.8366  MISS %:    9.16339  MPKI: 3.18626
L2C PREFETCH INSTRUCTION	ACCESS:    1028693  HIT:     929278  MISS:      99415  HIT %:    90.3358  MISS %:     9.6642  MPKI: 1.9883
L2C LOAD TRANSLATION INSTRUCTION	ACCESS:         23  HIT:          8  MISS:         15  HIT %:    34.7826  MISS %:    65.2174  MPKI: 0.0003
L2C TRANSLATION FROM L1D PREFETCHER INSTRUCTION	ACCESS:        263  HIT:         54  MISS:        209  HIT %:    20.5323  MISS %:    79.4677  MPKI: 0.00418
L2C LOAD DATA	ACCESS:     725959  HIT:     642178  MISS:      83781  HIT %:    88.4593  MISS %:    11.5407  MPKI: 1.67562
L2C RFO DATA	ACCESS:     287131  HIT:     224618  MISS:      62513  HIT %:    78.2284  MISS %:    21.7716  MPKI: 1.25026
L2C PREFETCH DATA	ACCESS:    1097988  HIT:     966500  MISS:     131488  HIT %:    88.0246  MISS %:    11.9754  MPKI: 2.62976
L2C WRITEBACK DATA	ACCESS:     522124  HIT:     504351  MISS:      17773  HIT %:     96.596  MISS %:    3.40398  MPKI: 0.35546
L2C LOAD TRANSLATION DATA	ACCESS:       1834  HIT:        411  MISS:       1423  HIT %:      22.41  MISS %:      77.59  MPKI: 0.02846
L2C TRANSLATION FROM L1D PREFETCHER DATA	ACCESS:         44  HIT:         26  MISS:         18  HIT %:    59.0909  MISS %:    40.9091  MPKI: 0.00036

L2C PREFETCH  REQUESTED:    1098982  ISSUED:    1098982  USEFUL:      32787  USELESS:     209938
L2C USEFUL LOAD PREFETCHES:      32787 PREFETCH ISSUED TO LOWER LEVEL:     241809  ACCURACY: 13.559
 TIMELY PREFETCHES:      32787 LATE PREFETCHES: 10905 DROPPED PREFETCHES: 0
L2C AVERAGE MISS LATENCY: 37.7183 cycles
L2C RQ	ACCESS:    2753921	FORWARD:          0	MERGED:          0	TO_CACHE:    2753838
L2C WQ	ACCESS:     522124	FORWARD:         85	MERGED:          0	TO_CACHE:     522124
L2C PQ	ACCESS:    2232755	FORWARD:          0	MERGED:      63544	TO_CACHE:    2169209

L2C Dense regions hint from L2: 0
PSCL5 TOTAL     ACCESS:       4118  HIT:       2059  MISS:       2059  HIT %:         50  MISS %:         50   MPKI: 0.04118
PSCL5 LOAD TRANSLATION INSTRUCTION	ACCESS:       3560  HIT:       1780  MISS:       1780  HIT %:         50  MISS %:         50  MPKI: 0.0356
PSCL5 TRANSLATION FROM L1D PREFETCHER INSTRUCTION	ACCESS:        558  HIT:        279  MISS:        279  HIT %:         50  MISS %:         50  MPKI: 0.00558


PSCL4 TOTAL     ACCESS:       3832  HIT:       1913  MISS:       1919  HIT %:    49.9217  MISS %:    50.0783   MPKI: 0.03838
PSCL4 LOAD TRANSLATION INSTRUCTION	ACCESS:       1949  HIT:       1659  MISS:        290  HIT %:    85.1206  MISS %:    14.8794  MPKI: 0.0058
PSCL4 TRANSLATION FROM L1D PREFETCHER INSTRUCTION	ACCESS:        412  HIT:        254  MISS:        158  HIT %:    61.6505  MISS %:    38.3495  MPKI: 0.00316
PSCL4 LOAD TRANSLATION DATA	ACCESS:       1375  HIT:          0  MISS:       1375  HIT %:          0  MISS %:        100  MPKI: 0.0275
PSCL4 TRANSLATION FROM L1D PREFETCHER DATA	ACCESS:         96  HIT:          0  MISS:         96  HIT %:          0  MISS %:        100  MPKI: 0.00192


PSCL3 TOTAL     ACCESS:       3900  HIT:       1947  MISS:       1953  HIT %:    49.9231  MISS %:    50.0769   MPKI: 0.03906
PSCL3 LOAD TRANSLATION INSTRUCTION	ACCESS:       1983  HIT:       1693  MISS:        290  HIT %:    85.3757  MISS %:    14.6243  MPKI: 0.0058
PSCL3 TRANSLATION FROM L1D PREFETCHER INSTRUCTION	ACCESS:        412  HIT:        254  MISS:        158  HIT %:    61.6505  MISS %:    38.3495  MPKI: 0.00316
PSCL3 LOAD TRANSLATION DATA	ACCESS:       1409  HIT:          0  MISS:       1409  HIT %:          0  MISS %:        100  MPKI: 0.02818
PSCL3 TRANSLATION FROM L1D PREFETCHER DATA	ACCESS:         96  HIT:          0  MISS:         96  HIT %:          0  MISS %:        100  MPKI: 0.00192


PSCL2 TOTAL     ACCESS:       4022  HIT:       1964  MISS:       2058  HIT %:    48.8314  MISS %:    51.1686   MPKI: 0.04116
PSCL2 LOAD TRANSLATION INSTRUCTION	ACCESS:       1757  HIT:       1712  MISS:         45  HIT %:    97.4388  MISS %:    2.56118  MPKI: 0.0009
PSCL2 TRANSLATION FROM L1D PREFETCHER INSTRUCTION	ACCESS:        460  HIT:        252  MISS:        208  HIT %:    54.7826  MISS %:    45.2174  MPKI: 0.00416
PSCL2 LOAD TRANSLATION DATA	ACCESS:       1761  HIT:          0  MISS:       1761  HIT %:          0  MISS %:        100  MPKI: 0.03522
PSCL2 TRANSLATION FROM L1D PREFETCHER DATA	ACCESS:         44  HIT:          0  MISS:         44  HIT %:          0  MISS %:        100  MPKI: 0.00088


LLC TOTAL     ACCESS:     628048  HIT:     597729  MISS:      30319  HIT %:    95.1725  MISS %:     4.8275   MPKI: 0.60638
LLC LOAD INSTRUCTION	ACCESS:     148905  HIT:     148484  MISS:        421  HIT %:    99.7173  MISS %:   0.282731  MPKI: 0.00842
LLC PREFETCH INSTRUCTION	ACCESS:      97887  HIT:      97634  MISS:        253  HIT %:    99.7415  MISS %:   0.258461  MPKI: 0.00506
LLC LOAD TRANSLATION INSTRUCTION	ACCESS:         15  HIT:         10  MISS:          5  HIT %:    66.6667  MISS %:    33.3333  MPKI: 0.0001
LLC TRANSLATION FROM L1D PREFETCHER INSTRUCTION	ACCESS:        209  HIT:        190  MISS:         19  HIT %:    90.9091  MISS %:    9.09091  MPKI: 0.00038
LLC LOAD DATA	ACCESS:      83335  HIT:      79787  MISS:       3548  HIT %:    95.7425  MISS %:    4.25751  MPKI: 0.07096
LLC RFO DATA	ACCESS:      62460  HIT:      47010  MISS:      15450  HIT %:    75.2642  MISS %:    24.7358  MPKI: 0.309
LLC PREFETCH DATA	ACCESS:     143921  HIT:     133725  MISS:      10196  HIT %:    92.9156  MISS %:    7.08444  MPKI: 0.20392
LLC WRITEBACK DATA	ACCESS:      89875  HIT:      89525  MISS:        350  HIT %:    99.6106  MISS %:    0.38943  MPKI: 0.007
LLC LOAD TRANSLATION DATA	ACCESS:       1423  HIT:       1346  MISS:         77  HIT %:    94.5889  MISS %:     5.4111  MPKI: 0.00154
LLC TRANSLATION FROM L1D PREFETCHER DATA	ACCESS:         18  HIT:         18  MISS:          0  HIT %:        100  MISS %:          0  MPKI: 0

LLC AVERAGE MISS LATENCY: 158.68 cycles
LLC RQ	ACCESS:     296369	FORWARD:          0	MERGED:          0	TO_CACHE:     296367
LLC WQ	ACCESS:      89876	FORWARD:          2	MERGED:          0	TO_CACHE:      89876
LLC PQ	ACCESS:     241809	FORWARD:          0	MERGED:          0	TO_CACHE:     241809

LLC Dense regions hint to LLC: 0

RAW hits: 1734042
Loads Generated: 12640547
Loads sent to L1D: 10906507
Stores Generated: 6950437
Stores sent to L1D: 6950443
Major fault: 0 Minor fault: 2546
Allocated PAGES: 2546

stream: 
stream:times selected: 1188906
stream:pref_filled: 121145
stream:pref_useful: 23416
stream:pref_late: 8871
stream:misses: 7948
stream:misses_by_poll: 0

CS: 
CS:times selected: 180302
CS:pref_filled: 57245
CS:pref_useful: 34063
CS:pref_late: 9941
CS:misses: 19589
CS:misses_by_poll: 1

CPLX: 
CPLX:times selected: 1007486
CPLX:pref_filled: 19239
CPLX:pref_useful: 3863
CPLX:pref_late: 3998
CPLX:misses: 96022
CPLX:misses_by_poll: 1

NL_L1: 
NL:times selected: 18868
NL:pref_filled: 606
NL:pref_useful: 221
NL:pref_late: 384
NL:misses: 1606
NL:misses_by_poll: 0

total selections: 2395562
total_filled: 94736
total_useful: 36349
total_late: 24622
total_polluted: 2
total_misses_after_warmup: 771200
conflicts: 5661720

test: 118715

DRAM Statistics
 CHANNEL 0
 RQ ROW_BUFFER_HIT:      11202  ROW_BUFFER_MISS:      18734
 DBUS_CONGESTED:          6
 WQ ROW_BUFFER_HIT:       1613  ROW_BUFFER_MISS:      13015  FULL:          0

 AVG_CONGESTED_CYCLE: 4

CPU 0 Branch Prediction Accuracy: 99.8245% MPKI: 0.32086 Average ROB Occupancy at Mispredict: 151.322
Branch types
NOT_BRANCH: 40858434 81.7169%
BRANCH_DIRECT_JUMP: 548589 1.09718%
BRANCH_INDIRECT: 182966 0.365932%
BRANCH_CONDITIONAL: 6181835 12.3637%
BRANCH_DIRECT_CALL: 942635 1.88527%
BRANCH_INDIRECT_CALL: 171337 0.342674%
BRANCH_RETURN: 1113979 2.22796%
BRANCH_OTHER: 0 0%

DRAM PAGES: 1048576
Allocated PAGES: 2546
Average_ROB_Occupancy: 128.859
Average_Decode_Occupancy: 13.2655
Average_FTQ_Occupancy: 5.87371
Indirect max targets: 14 Average targets: 1.14966
Branch_type:  BRANCH_DIRECT_JUMP:  Count Percentage: 2.90188 6.71544 4.01451 9.10762 1.69594 5.97478 1.21898 68.3708 
Branch_type:  BRANCH_INDIRECT:  Count Percentage: 11.7689 3.45273 2.54578 0 1.33799 9.66649 5.88966 65.3384 
Branch_type:  BRANCH_CONDITIONAL:  Count Percentage: 20.8143 3.22781 1.77466 5.43709 1.17557 12.8983 1.14078 53.5314 
Branch_type:  BRANCH_DIRECT_CALL:  Count Percentage: 0.259583 1.7736 1.43083 4.70998 2.16542 2.99893 0.705794 85.9559 
Branch_type:  BRANCH_INDIRECT_CALL:  Count Percentage: 9.55558 0 2.99514 8.70266 0 2.6605 1.28405 74.8021 
Branch_type:  BRANCH_RETURN:  Count Percentage: 3.90656 1.38011 1.41195 6.33893 2.79834 12.8647 1.63594 69.6634 
Branch_type:  BRANCH_DIRECT_JUMP:  Total Count: 31814 73623 44012 99849 18593 65503 13364 749566 
Branch_type:  BRANCH_INDIRECT:  Total Count: 43030 12624 9308 0 4892 35343 21534 238893 
Branch_type:  BRANCH_CONDITIONAL:  Total Count: 2572197 398887 219309 671906 145275 1593953 140976 6615319 
Branch_type:  BRANCH_DIRECT_CALL:  Total Count: 4896 33452 26987 88835 40842 56563 13312 1621216 
Branch_type:  BRANCH_INDIRECT_CALL:  Total Count: 32781 0 10275 29855 0 9127 4405 256613 
Branch_type:  BRANCH_RETURN:  Total Count: 87115 30776 31486 141356 62402 286879 36481 1553470 
To Predecode: 22803265 Predecode_something: 33959185 Conditional: 14593549 Direct call: 8431543 Direct Branch: 3761947
Number of unique branch instructions: 9917
Upper 32 bits: 
aaaa
ffff
ffff0000
Unique upper 32 bits: 3
Unique upper 36 bits: 3
Unique upper 40 bits: 5
Unique upper 44 bits: 32
Unique upper 48 bits: 154
Offset_3 4073
Offset_4 249
Offset_5 451
Offset_6 503
Offset_7 585
Offset_8 509
Offset_9 468
Offset_10 385
Offset_11 315
Offset_12 288
Offset_13 201
Offset_14 230
Offset_15 189
Offset_16 223
Offset_17 143
Offset_18 126
Offset_19 240
Offset_20 142
Offset_21 235
Offset_22 392
Offset_23 241
Offset_24 327
Offset_25 88
Offset_47 80
decode_dispatch_called: 22091221 51.543
Dispatch_width: 0 11670475 52.8286 27.2295
Dispatch_width: 1 624603 2.82738 1.45732
Dispatch_width: 2 909326 4.11623 2.12163
Dispatch_width: 3 564389 2.55481 1.31683
Dispatch_width: 4 1832210 8.29384 4.2749
Dispatch_width: 5 406788 1.8414 0.949114
Dispatch_width: 6 6083430 27.5378 14.1938
Empty_decode_cycles: 20768528 48.457
ROB_full_cycles: 2309314 5.38807
Starvation_cycles_per_kilo_instr: 344.67
Starvation_cycles_per_kilo_instr_3: 322.28
Starvation_cycles_per_kilo_instr_0: 301.297
Branch_type_1  (3,1)  (4,9)  (5,37)  (6,69)  (7,114)  (8,127)  (9,123)  (10,98)  (11,70)  (12,51)  (13,5)  (14,2)  (15,3)  (16,4)  (18,1)  (19,4)  (20,2)  (21,1)  (22,3)  (23,2)  (24,10)  (25,12) 
Branch_type_2  (3,1)  (5,1)  (8,3)  (9,3)  (12,1)  (13,1)  (14,1)  (16,3)  (17,2)  (20,2)  (21,2)  (23,5)  (24,1)  (47,36) 
Branch_type_3  (3,4071)  (4,240)  (5,409)  (6,418)  (7,439)  (8,317)  (9,256)  (10,156)  (11,130)  (12,58)  (13,4) 
Branch_type_4  (6,4)  (7,8)  (8,26)  (9,54)  (10,62)  (11,59)  (12,99)  (13,87)  (14,102)  (15,89)  (16,100)  (17,64)  (18,57)  (19,116)  (20,74)  (21,124)  (22,209)  (23,136)  (24,188)  (25,72) 
Branch_type_5  (8,2)  (9,1)  (10,3)  (11,5)  (12,3)  (13,14)  (14,16)  (15,11)  (16,20)  (17,11)  (18,16)  (19,12)  (20,10)  (21,13)  (22,42)  (23,26)  (24,37) 
Branch_type_6  (5,4)  (6,12)  (7,24)  (8,34)  (9,31)  (10,66)  (11,51)  (12,76)  (13,90)  (14,109)  (15,86)  (16,96)  (17,66)  (18,52)  (19,108)  (20,54)  (21,95)  (22,138)  (23,72)  (24,91)  (25,4)  (47,44) 
Unique trigger count: 
UBTB set used: 957
CBTB set used: 512
RIB set used: 457
UBTB PER SET UNIQUE ADDR: 5 4 4 2 3 2 4 4 4 2 1 6 3 3 3 3 0 0 2 0 4 1 3 2 3 1 0 3 2 3 2 4 3 2 3 1 3 5 1 3 2 1 4 0 6 1 4 4 2 3 4 2 4 0 3 4 4 1 4 1 2 4 5 0 3 4 1 3 2 4 3 1 5 3 2 1 4 1 2 6 2 6 5 1 5 0 2 2 2 2 2 3 4 2 4 4 5 4 7 0 6 7 1 3 2 4 6 1 3 2 5 5 5 3 3 2 1 2 2 6 0 5 0 4 2 3 2 1 7 3 2 2 5 2 1 3 5 2 3 5 4 1 3 2 1 5 2 1 4 1 5 3 2 5 3 2 6 3 5 4 3 4 4 4 4 1 3 3 2 3 0 3 3 1 2 0 3 5 0 3 4 3 1 2 4 2 2 3 3 3 1 4 6 1 3 3 3 2 2 1 2 5 0 1 3 1 3 3 2 0 3 2 5 1 1 5 1 3 1 2 1 0 2 2 1 0 3 4 2 4 2 1 4 2 3 4 4 3 1 6 2 3 5 3 2 1 3 3 1 5 2 4 0 3 2 1 4 1 1 1 4 1 2 3 3 2 0 5 2 0 0 3 2 3 4 1 4 5 2 5 5 2 2 2 3 1 5 2 6 1 5 0 4 3 6 0 2 3 1 1 3 3 4 1 1 0 2 0 0 0 3 1 3 4 2 2 4 2 3 1 3 3 4 2 2 2 3 2 1 3 4 4 4 1 5 3 4 2 1 4 7 5 2 3 1 2 4 3 2 3 2 4 2 1 3 4 3 1 2 0 2 1 1 2 5 2 3 2 5 2 5 4 3 0 0 2 1 0 3 5 3 2 3 1 1 3 1 5 2 2 1 4 2 3 1 6 1 2 1 3 2 6 4 2 3 6 2 4 2 4 2 4 5 3 3 0 3 2 3 3 0 3 0 1 2 2 2 3 3 1 3 1 2 3 1 4 4 1 5 5 3 3 2 3 4 6 2 5 0 2 3 2 1 4 1 3 3 6 6 5 5 3 3 8 4 0 0 4 2 3 1 1 4 3 3 3 2 4 1 1 4 1 1 3 6 2 2 2 0 1 3 1 2 5 1 2 2 2 4 6 7 2 3 3 2 4 1 2 1 3 2 4 4 3 2 5 2 3 5 2 3 4 1 2 0 2 1 3 3 4 5 4 2 2 3 3 4 2 2 2 6 1 7 1 1 2 2 4 7 4 2 2 1 3 1 6 2 0 2 1 7 2 2 2 3 1 2 5 3 3 1 0 1 3 3 2 4 3 7 2 4 2 3 2 4 3 2 3 3 5 4 5 1 1 4 1 3 3 3 5 3 3 6 2 5 3 5 4 2 2 5 6 2 5 2 6 1 0 1 7 4 1 4 3 1 3 1 2 3 1 3 2 7 4 3 2 4 2 4 3 5 2 1 0 3 2 1 3 1 1 2 2 3 1 2 4 3 2 1 1 3 6 5 1 2 1 0 2 2 3 2 1 1 2 1 2 4 4 4 1 3 3 2 4 2 2 0 4 0 0 2 3 0 2 1 1 2 3 2 1 3 3 2 2 2 1 3 3 4 1 2 6 2 3 1 4 2 3 3 4 1 1 0 1 1 3 3 3 2 2 2 1 2 1 2 4 4 5 1 3 3 4 0 1 5 6 3 3 6 3 5 5 4 2 2 3 3 4 0 2 2 4 3 2 3 2 0 3 4 4 4 4 2 2 1 1 3 4 1 2 2 2 3 4 2 0 3 3 3 1 1 3 3 1 2 1 3 0 3 3 5 1 2 2 2 4 0 0 2 1 2 5 0 5 1 0 5 0 2 6 2 3 2 3 2 1 2 3 1 1 5 1 2 1 0 1 6 1 4 1 2 2 3 2 4 3 0 4 2 4 2 6 3 4 2 2 7 1 2 7 4 4 3 5 1 2 2 3 5 4 4 3 4 2 2 5 5 2 2 1 3 2 4 2 2 3 4 2 2 4 2 4 4 5 5 2 4 1 3 4 4 2 7 4 3 4 3 5 1 2 4 1 3 7 4 4 3 1 3 3 5 2 2 4 5 4 3 3 1 1 2 6 2 1 5 5 3 1 4 4 4 1 1 4 3 1 5 1 3 6 3 1 3 3 1 5 5 5 2 6 4 4 5 3 5 4 1 3 1 0 0 4 4 1 1 2 4 2 4 6 1 2 2 2 2 3 2 4 1 5 1 2 7 2 1 5 3 2 1 1 1 4 4 0 2 1 4 3 3 3 2 3 0 3 4 2 0 4 5 2 7 3 7 2 
CBTB PER SET UNIQUE ADDR: 9 12 13 9 10 12 8 5 11 4 13 8 6 5 10 10 8 11 8 10 9 4 5 7 10 12 12 9 7 8 11 7 13 7 9 11 9 6 11 8 7 10 7 8 10 17 7 13 12 12 7 12 11 5 9 10 9 10 12 10 5 12 12 7 9 13 12 7 10 10 11 12 6 11 10 11 14 13 10 12 7 11 8 9 11 15 12 17 7 10 13 8 9 14 10 10 10 13 10 11 5 14 12 12 11 13 15 13 8 15 7 12 9 12 11 11 10 11 14 9 12 7 7 11 6 12 9 7 8 11 13 21 8 7 6 10 9 7 12 14 11 13 11 6 11 11 5 14 13 7 14 18 4 8 11 3 9 5 8 9 6 6 12 11 5 6 4 5 11 7 10 5 16 4 10 12 5 6 2 10 6 7 4 8 9 6 10 13 6 4 4 12 11 7 5 8 14 15 11 10 9 12 8 6 8 10 11 3 8 13 8 5 5 12 7 11 14 6 6 2 10 11 10 9 7 11 7 7 11 15 7 6 12 11 7 10 13 14 5 8 11 5 10 6 8 8 11 4 14 5 5 5 11 9 5 5 10 11 10 15 6 13 12 8 10 15 6 7 11 9 7 8 9 8 10 11 9 6 12 4 12 8 10 10 5 10 12 4 9 16 11 10 11 5 12 8 9 12 7 11 7 10 9 15 11 18 5 13 8 11 13 11 9 13 14 10 8 10 5 8 8 7 11 19 5 5 10 12 11 9 12 12 9 7 10 9 12 6 9 12 8 11 6 10 8 10 12 5 11 7 6 11 4 12 11 12 10 12 9 8 14 8 7 7 6 14 11 7 8 12 7 8 11 9 9 13 8 15 12 4 12 9 14 11 10 9 3 11 9 15 11 12 12 12 12 10 8 12 6 8 13 5 10 13 7 6 6 7 15 11 11 14 16 10 10 13 9 10 12 8 10 12 11 19 6 13 8 4 11 9 8 14 10 9 9 8 7 13 15 8 15 10 12 6 12 16 6 12 10 9 15 12 11 12 11 8 11 11 7 16 10 10 8 11 12 10 7 5 7 10 9 10 13 11 10 10 5 13 12 7 8 7 12 14 9 9 8 11 6 15 8 16 4 16 3 15 15 8 6 12 5 14 14 7 8 7 9 7 11 14 12 9 
RIB PER SET UNIQUE ADDR: 2 5 4 1 2 3 3 2 0 2 2 4 2 3 0 1 4 2 0 1 2 1 5 4 1 3 2 2 1 0 2 0 1 3 3 3 2 5 0 2 1 3 2 1 2 4 2 2 3 1 0 2 2 3 0 1 2 4 3 2 0 1 2 1 3 6 3 0 3 1 2 3 0 2 3 0 1 3 2 2 0 1 4 4 2 1 0 4 4 2 0 1 2 2 3 4 3 3 0 0 2 2 1 4 0 1 5 2 3 4 2 1 1 4 2 2 0 4 2 7 2 1 3 4 1 2 1 2 1 4 2 4 4 3 0 2 1 2 5 4 2 2 2 5 2 3 4 2 4 1 3 2 2 2 2 1 4 1 0 2 3 1 1 2 3 0 0 1 4 2 1 1 3 0 0 3 0 2 2 2 2 0 3 2 6 1 3 4 1 1 1 2 3 1 2 3 3 0 4 2 3 2 3 3 1 5 2 4 1 5 2 2 0 3 4 0 5 0 4 2 2 3 2 1 2 4 2 3 1 1 2 4 1 4 0 3 2 2 1 4 2 0 3 1 5 3 5 0 3 2 3 0 2 2 1 5 4 2 1 1 1 0 2 2 3 2 0 3 4 3 1 2 0 1 5 3 0 2 3 1 2 2 2 1 3 0 2 5 2 2 2 5 1 1 2 5 1 4 3 1 2 2 3 4 2 3 2 3 3 3 3 5 1 1 0 3 2 3 1 3 4 4 5 5 1 3 3 4 1 1 4 4 4 5 6 3 1 0 2 2 0 1 7 2 5 5 6 2 0 5 3 3 3 1 4 1 6 2 5 2 0 3 3 1 4 6 2 0 4 3 2 4 3 3 4 3 1 3 0 1 2 1 3 2 0 5 1 0 3 2 2 4 1 4 1 2 4 7 3 3 2 1 1 2 3 3 4 1 3 1 2 1 3 1 1 3 5 1 1 1 1 4 4 2 2 5 0 1 3 1 2 1 2 2 3 2 3 3 2 3 1 4 4 3 5 2 3 1 1 5 4 1 2 3 2 4 1 1 2 4 3 1 2 2 3 3 2 5 1 0 3 0 2 1 2 2 1 9 6 4 3 1 0 5 2 1 3 0 1 3 2 3 0 5 1 1 2 2 3 1 2 2 3 4 2 1 1 3 1 2 2 1 
UBTB PER SET COUNT: 5 4 4 2 3 2 4 4 4 2 1 2454 3 3 3 3 0 0 2 0 4 1 3 2 3 1 0 3 2 3 2 4 3 2 3 1 3 341 1 3 2 1 4 0 2937 1 4 4 2 3 4 2 4 0 3 4 4 1 4 1 2 4 2168 0 3 4 1 3 2 4 3 1 502 3 2 1 4 1 2 989 2 30 1182 1 6 0 2 2 2 2 2 3 4 2 4 4 1223 4 2941 0 2939 35 1 3 2 4 2935 1 3 2 981 27 6 3 3 2 1 2 2 12 0 1469 0 4 2 3 2 1 2936 3 2 2 1811 2 1 3 1471 2 3 6 4 1 3 2 1 8 2 1 4 1 25 3 2 1806 3 2 1961 3 1470 4 3 4 4 4 4 1 3 3 2 3 0 3 3 1 2 0 3 14 0 3 4 3 1 2 4 2 2 3 3 3 1 4 2691 1 3 3 3 2 2 1 2 1470 0 1 3 1 3 3 2 0 3 2 5 1 1 8 1 3 1 2 1 0 2 2 1 0 3 4 2 4 2 1 4 2 3 4 4 3 1 2449 2 3 5 3 2 1 3 3 1 1470 2 4 0 3 2 1 4 1 1 1 4 1 2 3 3 2 0 1470 2 0 0 3 2 3 4 1 4 978 2 628 552 2 2 2 3 1 7 2 981 1 7 0 4 3 2938 0 2 3 1 1 3 3 4 1 1 0 2 0 0 0 3 1 3 4 2 2 4 2 3 1 3 3 4 2 2 2 3 2 1 3 4 4 4 1 17 3 4 2 1 4 1010 21 2 3 1 2 4 3 2 3 2 4 2 1 3 4 3 1 2 0 2 1 1 2 7 2 3 2 7 2 48 4 3 0 0 2 1 0 3 8 3 2 3 1 1 3 1 1470 2 2 1 4 2 3 1 4408 1 2 1 3 2 7833 4 2 3 5878 2 4 2 4 2 4 1372 3 3 0 3 2 3 3 0 3 0 1 2 2 2 3 3 1 3 1 2 3 1 4 4 1 1958 89 3 3 2 3 4 3947 2 980 0 2 3 2 1 4 1 3 3 2453 978 21 2202 3 3 3432 4 0 0 4 2 3 1 1 4 3 3 3 2 4 1 1 4 1 1 3 5385 2 2 2 0 1 3 1 2 22 1 2 2 2 4 16 2943 2 3 3 2 4 1 2 1 3 2 4 4 3 2 7 2 3 1470 2 3 4 1 2 0 2 1 3 3 4 979 4 2 2 3 3 4 2 2 2 2450 1 6375 1 1 2 2 4 2942 4 2 2 1 3 1 2936 2 0 2 1 1972 2 2 2 3 1 2 11 3 3 1 0 1 3 3 2 4 3 3425 2 4 2 3 2 4 3 2 3 3 1223 4 1221 1 1 4 1 3 3 3 744 3 3 2490 2 25 3 25 4 2 2 4898 2449 2 17 2 2815 1 0 1 3428 4 1 4 3 1 3 1 2 3 1 3 2 3426 4 3 2 4 2 4 3 2445 2 1 0 3 2 1 3 1 1 2 2 3 1 2 4 3 2 1 1 3 2935 2447 1 2 1 0 2 2 3 2 1 1 2 1 2 4 4 4 1 3 3 2 4 2 2 0 4 0 0 2 3 0 2 1 1 2 3 2 1 3 3 2 2 2 1 3 3 4 1 2 1960 2 3 1 4 2 3 3 4 1 1 0 1 1 3 3 3 2 2 2 1 2 1 2 4 4 1959 1 3 3 4 0 1 1958 3922 3 3 2936 3 979 982 4 2 2 3 3 4 0 2 2 4 3 2 3 2 0 3 4 4 4 4 2 2 1 1 3 4 1 2 2 2 3 4 2 0 3 3 3 1 1 3 3 1 2 1 3 0 3 3 2446 1 2 2 2 4 0 0 2 1 2 980 0 2445 1 0 1959 0 2 4409 2 3 2 3 2 1 2 3 1 1 2447 1 2 1 0 1 2936 1 4 1 2 2 3 2 4 3 0 4 2 4 2 2447 3 4 2 2 3428 1 2 5754 4 4 3 1958 1 2 2 3 7 4 4 3 4 2 2 1959 7 2 2 1 3 2 4 2 2 3 4 2 2 4 2 4 4 1471 1958 2 4 1 3 4 4 2 2364 4 3 4 3 17 1 2 4 1 3 7241 4 4 3 1 3 3 15 2 2 4 784 4 3 3 1 1 2 2203 2 1 13 1713 3 1 4 4 4 1 1 4 3 1 1226 1 3 3913 3 1 3 3 1 741 9 1501 2 2935 4 4 1958 3 3919 4 1 3 1 0 0 4 4 1 1 2 4 2 4 2937 1 2 2 2 2 3 2 4 1 1471 1 2 6854 2 1 352 3 2 1 1 1 4 4 0 2 1 4 3 3 3 2 3 0 3 4 2 0 4 1958 2 2830 3 2935 2 
CBTB PER SET COUNT: 10 51 302 140 13 21 12 60 4442 4 7483 3922 7 7 127 1480 1481 37 18 1509 2460 4 6 62 2462 6607 6576 16 173 10 32 11 9806 1472 2460 24 23 7 5392 18 15 1972 34 17 25 7010 11 1975 33 8327 17 7841 4908 6 2454 3459 13 11 2987 29 6 2470 59 8 699 3945 2456 8 2460 3432 46 26 23 1008 20 4906 8329 35 30 2460 4416 1545 10 14 3430 42 24 8349 1104 441 4548 10 11 317 14 46 27 1979 21 990 5 2229 1492 7354 15 2950 6256 2085 15 3933 13 4419 19 3939 30 35 23 2460 42 2249 2460 1727 10 522 10 1978 13 24 20 18 3440 10303 33 8 6 1970 12 31 2459 21 20 7844 17 6 4419 2334 6 5412 8458 5880 7847 14207 4 624 4906 3 1436 6 17 319 10 9 5529 6384 5 9 4 5 2948 13 8330 7 7653 4 58 2460 398 11 2 1234 22 22 4 11 4416 15 29 27 14 4 4 9320 8726 12 6 12 3081 7271 3203 23 248 2687 2450 14 1959 30 23 3 13 9305 1966 5 6 2950 9 25 6477 6 9 2 1481 29 24 1674 10 386 22 13 18 3703 25 7 4559 40 10 995 33 4422 8 15 29 5 341 6 1971 22 1978 4 778 5 5 5 1493 4911 14 7 1477 5396 18 1979 7 2463 1967 33 1489 1487 8 2460 1730 2944 22 15 15 39 2924 751 19 1963 2514 4 31 1961 69 2361 6 162 2958 4 6375 9308 1003 24 57 6 5139 1475 18 38 1962 27 21 15 742 5899 1762 9813 8 28 1479 25 2473 158 2454 2454 6291 1480 2500 33 6 2468 5347 333 2984 6411 5 6 214 56 123 23 2946 1493 414 11 1973 1963 47 980 2463 3932 628 31 10 19 9 19 6386 6 1968 9 6 25 4 9795 24 34 2675 3077 2223 1486 779 11 14 7 738 3338 2953 24 11 771 1980 17 987 1739 3928 2461 1485 3195 4177 4 7355 14 6171 28 2457 12 3 40 15 4681 1489 19 8216 10280 3928 2457 4660 3448 7 16 3589 5 4420 2951 16 8 7 9 12039 22 2456 4664 49 4907 10280 6251 19 17 2225 27 15 4884 2498 11765 7 2954 21 4 6865 1483 10 5403 21 33 27 9 10 52 3205 21 4423 12 3964 6 3447 1983 8 1500 21 132 3817 6376 39 1489 15 374 3926 3952 998 10294 2465 1966 1479 1504 7845 28 7 6 1602 2453 1479 1000 1434 35 18 17 5 2701 5399 9 12 12 3454 11260 23 26 30 1972 10 7701 4412 6262 4 7335 3 2466 2953 9 6 2461 6 4491 2483 165 1479 8 14 9 18 2467 2962 11 
RIB PER SET COUNT: 2 15 4 1 2 3 3 2 0 2 2 4 2 3 0 1 4 2 0 1 2 1 1959 4 1 3 2 2 1 0 2 0 1 3 3 3 2 2447 0 2 1 3 2 1 2 4 2 2 3 1 0 2 2 3 0 1 2 4 3 2 0 1 2 1 3 1965 3 0 3 1 2 3 0 2 3 0 1 3 2 2 0 1 4 4 2 1 0 4 4 2 0 1 2 2 3 4 3 3 0 0 2 2 1 4 0 1 2447 2 3 4 2 1 1 4 2 2 0 4 2 1971 2 1 3 4 1 2 1 2 1 4 2 4 4 3 0 2 1 2 18 4 2 2 2 10 2 3 4 2 4 1 3 2 2 2 2 1 4 1 0 2 3 1 1 2 3 0 0 1 4 2 1 1 3 0 0 3 0 2 2 2 2 0 3 2 1964 1 3 4 1 1 1 2 3 1 2 3 3 0 4 2 3 2 3 3 1 21 2 4 1 13 2 2 0 3 4 0 982 0 4 2 2 3 2 1 2 4 2 3 1 1 2 4 1 4 0 3 2 2 1 4 2 0 3 1 492 3 13 0 3 2 3 0 2 2 1 5 4 2 1 1 1 0 2 2 3 2 0 3 4 3 1 2 0 1 6 3 0 2 3 1 2 2 2 1 3 0 2 1470 2 2 2 1465 1 1 2 744 1 4 3 1 2 2 3 4 2 3 2 3 3 3 3 14 1 1 0 3 2 3 1 3 4 4 3923 1470 1 3 3 4 1 1 4 4 4 1469 6364 3 1 0 2 2 0 1 4164 2 1223 7 1476 2 0 17 3 3 3 1 4 1 3427 2 10 2 0 3 3 1 4 1601 2 0 4 3 2 4 3 3 4 3 1 3 0 1 2 1 3 2 0 13 1 0 3 2 2 4 1 4 1 2 4 3920 3 3 2 1 1 2 3 3 4 1 3 1 2 1 3 1 1 3 14 1 1 1 1 4 4 2 2 6364 0 1 3 1 2 1 2 2 3 2 3 3 2 3 1 4 4 3 982 2 3 1 1 13 4 1 2 3 2 4 1 1 2 4 3 1 2 2 3 3 2 1960 1 0 3 0 2 1 2 2 1 6616 2934 4 3 1 0 2456 2 1 3 0 1 3 2 3 0 12 1 1 2 2 3 1 2 2 3 4 2 1 1 3 1 2 2 1 
