
*** ChampSim Multicore Out-of-Order Simulator ***

Warmup Instructions: 50000000
Simulation Instructions: 50000000
Number of CPUs: 1
LLC sets: 2048
LLC ways: 16
Off-chip DRAM Size: 4096 MB Channels: 1 Width: 64-bit Data Rate: 6400 MT/s
CPU 0 runs ./micro_traces/srv554.trace.gz
.gz
ITLB has LRU replacement policy
DTLB has LRU replacement policy
STLB has LRU replacement policy
FDIP Prefetcher at L1I
L1I has LRU replacement policy
L1D has LRU replacement policy
Initialize SRRIP state for L2C
Initialize DRRIP state for LLC
Heartbeat CPU 0 instructions: 10000001 cycles: 2796985 heartbeat IPC: 3.57528 cumulative IPC: 3.57528 (Simulation time: 0 hr 1 min 37 sec) 
Heartbeat CPU 0 instructions: 20000001 cycles: 5594395 heartbeat IPC: 3.57474 cumulative IPC: 3.57501 (Simulation time: 0 hr 3 min 14 sec) 
Heartbeat CPU 0 instructions: 30000000 cycles: 8392149 heartbeat IPC: 3.5743 cumulative IPC: 3.57477 (Simulation time: 0 hr 4 min 51 sec) 
Heartbeat CPU 0 instructions: 40000002 cycles: 11189315 heartbeat IPC: 3.57505 cumulative IPC: 3.57484 (Simulation time: 0 hr 6 min 29 sec) 
Heartbeat CPU 0 instructions: 50000000 cycles: 13986522 heartbeat IPC: 3.57499 cumulative IPC: 3.57487 (Simulation time: 0 hr 8 min 6 sec) 

Warmup complete CPU 0 instructions: 50000003 cycles: 13986523 (Simulation time: 0 hr 8 min 6 sec) 

Cycle: 20000000 FTQ IN: 57166319 FTQ occupancy: 18.3844 DECODE IN: 57166264 DECODE occupancy: 47.1758 ROB IN: 57166264 ROB occupancy: 286.972 ROB OUT: 57166198
Heartbeat CPU 0 instructions: 60000001 cycles: 22442252 heartbeat IPC: 1.18263 cumulative IPC: 1.18263 (Simulation time: 0 hr 9 min 29 sec) 
Cycle: 30000000 FTQ IN: 11627966 FTQ occupancy: 7.73065 DECODE IN: 11627979 DECODE occupancy: 17.1109 ROB IN: 11627969 ROB occupancy: 139.121 ROB OUT: 11627966
Heartbeat CPU 0 instructions: 70000002 cycles: 31020947 heartbeat IPC: 1.16568 cumulative IPC: 1.17409 (Simulation time: 0 hr 10 min 55 sec) 
Heartbeat CPU 0 instructions: 80000000 cycles: 39436922 heartbeat IPC: 1.18822 cumulative IPC: 1.17876 (Simulation time: 0 hr 12 min 20 sec) 
Cycle: 40000000 FTQ IN: 11850032 FTQ occupancy: 7.62438 DECODE IN: 11850038 DECODE occupancy: 17.0194 ROB IN: 11850048 ROB occupancy: 140.76 ROB OUT: 11850065
Heartbeat CPU 0 instructions: 90000000 cycles: 48001653 heartbeat IPC: 1.16758 cumulative IPC: 1.17595 (Simulation time: 0 hr 13 min 46 sec) 
Cycle: 50000000 FTQ IN: 11765306 FTQ occupancy: 7.8556 DECODE IN: 11765307 DECODE occupancy: 17.5236 ROB IN: 11765307 ROB occupancy: 143.159 ROB OUT: 11765063
Heartbeat CPU 0 instructions: 100000001 cycles: 56406037 heartbeat IPC: 1.18986 cumulative IPC: 1.1787 (Simulation time: 0 hr 15 min 11 sec) 
Finished CPU 0 instructions: 50000002 cycles: 42419515 cumulative IPC: 1.1787 (Simulation time: 0 hr 15 min 11 sec) 

ChampSim completed all CPUs

Region of Interest Statistics

CPU 0 cumulative IPC: 1.1787 instructions: 50000002 cycles: 42419515
 Fetch stage stalled: 68.3709  Sim cycles: 42419515 fetch stall cycle: 29002588
 Empty decode stage: 57.69  Sim cycles: 42419515 fetch stall cycle: 24471802
ITLB TOTAL     ACCESS:    5657091  HIT:    5160221  MISS:     496870  HIT %:    91.2169  MISS %:    8.78314   MPKI: 9.9374
ITLB LOAD TRANSLATION INSTRUCTION	ACCESS:    5545885  HIT:    5049015  MISS:     496870  HIT %:    91.0407  MISS %:    8.95926  MPKI: 9.9374
ITLB TRANSLATION FROM L1D PREFETCHER INSTRUCTION	ACCESS:     111206  HIT:     111206  MISS:          0  HIT %:        100  MISS %:          0  MPKI: 0

ITLB AVERAGE MISS LATENCY: 9.05792 cycles
ITLB RQ	ACCESS:    7519115	FORWARD:          0	MERGED:    1373060	TO_CACHE:    6146055

DTLB TOTAL     ACCESS:    9245227  HIT:    8768292  MISS:     476935  HIT %:    94.8413  MISS %:    5.15872   MPKI: 9.5387
DTLB LOAD TRANSLATION DATA	ACCESS:    9245227  HIT:    8768292  MISS:     476935  HIT %:    94.8413  MISS %:    5.15872  MPKI: 9.5387

DTLB AVERAGE MISS LATENCY: 9.30424 cycles
DTLB RQ	ACCESS:   13555645	FORWARD:          0	MERGED:    4274610	TO_CACHE:    9281035

STLB TOTAL     ACCESS:    1218850  HIT:    1216563  MISS:       2287  HIT %:    99.8124  MISS %:   0.187636   MPKI: 0.04574
STLB LOAD TRANSLATION INSTRUCTION	ACCESS:     496870  HIT:     496399  MISS:        471  HIT %:    99.9052  MISS %:  0.0947934  MPKI: 0.00942
STLB LOAD TRANSLATION DATA	ACCESS:     476751  HIT:     474953  MISS:       1798  HIT %:    99.6229  MISS %:   0.377136  MPKI: 0.03596
STLB TRANSLATION FROM L1D PREFETCHER DATA	ACCESS:     245229  HIT:     245211  MISS:         18  HIT %:    99.9927  MISS %: 0.00734008  MPKI: 0.00036

STLB AVERAGE MISS LATENCY: 64.5907 cycles
STLB RQ	ACCESS:    1333900	FORWARD:          0	MERGED:     115008	TO_CACHE:    1218892

STLB Hit, L1D data hit: 0
STLB Hit, L2C data hit: 0
STLB Hit, LLC data hit: 0
STLB Hit, LLC data miss: 0
STLB STLB hints to L2: 0
L1D TOTAL     ACCESS:   13311809  HIT:   12196593  MISS:    1115216  HIT %:    91.6224  MISS %:    8.37764   MPKI: 22.3043
L1D LOAD DATA	ACCESS:    6743776  HIT:    6006452  MISS:     737324  HIT %:    89.0666  MISS %:    10.9334  MPKI: 14.7465
L1D RFO DATA	ACCESS:    6246789  HIT:    5961163  MISS:     285626  HIT %:    95.4276  MISS %:    4.57237  MPKI: 5.71252
L1D PREFETCH DATA	ACCESS:     321244  HIT:     228978  MISS:      92266  HIT %:    71.2785  MISS %:    28.7215  MPKI: 1.84532

L1D PREFETCH  REQUESTED:     720539  ISSUED:     720539  USEFUL:      32710  USELESS:      67555
L1D USEFUL LOAD PREFETCHES:      32710 PREFETCH ISSUED TO LOWER LEVEL:     100300  ACCURACY: 32.6122
 TIMELY PREFETCHES:      32710 LATE PREFETCHES: 7971 DROPPED PREFETCHES: 11
L1D AVERAGE MISS LATENCY: 251575 cycles
L1D RQ	ACCESS:   10829055	FORWARD:          0	MERGED:    3885669	TO_CACHE:    6776324
L1D WQ	ACCESS:    6956692	FORWARD:     167413	MERGED:     177371	TO_CACHE:    6779321
L1D PQ	ACCESS:     360445	FORWARD:          0	MERGED:          0	TO_CACHE:     360094

L1D UNIQUE REGIONS ACCESSED: 0
L1D REGIONS CONFLICTS: 0
L1D Cross Page Prefetch Requests: 6146
L1D Same Page Prefetch Requests: 742385
L1D ROI Sum of L1D PQ occupancy: 4563073
L1D PREFETCHES PUSHED FROM L2C: 0
L1I TOTAL     ACCESS:    6981742  HIT:    4206558  MISS:    2775184  HIT %:    60.2508  MISS %:    39.7492   MPKI: 55.5037
L1I LOAD INSTRUCTION	ACCESS:    6458627  HIT:    3683443  MISS:    2775184  HIT %:    57.0314  MISS %:    42.9686  MPKI: 55.5037
L1I PREFETCH INSTRUCTION	ACCESS:     523115  HIT:     523115  MISS:          0  HIT %:        100  MISS %:          0  MPKI: 0

L1I PREFETCH  REQUESTED:    1146009  ISSUED:    1146009  USEFUL:          0  USELESS:          0
L1I USEFUL LOAD PREFETCHES:          0 PREFETCH ISSUED TO LOWER LEVEL:          0  ACCURACY: -nan
 TIMELY PREFETCHES:          0 LATE PREFETCHES: 0 DROPPED PREFETCHES: 0
L1I AVERAGE MISS LATENCY: 17.4393 cycles
L1I RQ	ACCESS:    9473164	FORWARD:          0	MERGED:    2778749	TO_CACHE:    6694415
L1I PQ	ACCESS:    1146009	FORWARD:          0	MERGED:     321309	TO_CACHE:     824700

L1BTB TOTAL     ACCESS:    5670461  HIT:    2027413  MISS:    3643048  HIT %:    35.7539  MISS %:    64.2461   MPKI: 72.861
L1BTB BRANCH_DIRECT_JUMP	ACCESS:     547715 HIT:     144124 MISS:     403591 AVERAGE STALL: 37.2753 AVERAGE FETCH STALL: 18.5964 AVERAGE FETCH QUEUE STALL: 8.29305 AVERAGE DECODE STALL: 9.51946 AVERAGE EXECUTE STALL: 3.51762e+14
L1BTB BRANCH_INDIRECT	ACCESS:     182663 HIT:      65643 MISS:     117020 AVERAGE STALL: 86.6428 AVERAGE FETCH STALL: 13.6726 AVERAGE FETCH QUEUE STALL: 7.55937 AVERAGE DECODE STALL: 6.82669 AVERAGE EXECUTE STALL: 57.6306
L1BTB BRANCH_CONDITIONAL	ACCESS:    2696637 HIT:    1400519 MISS:    1296118 AVERAGE STALL: 38.1549 AVERAGE FETCH STALL: 21.6354 AVERAGE FETCH QUEUE STALL: 8.09921 AVERAGE DECODE STALL: 7.65939 AVERAGE EXECUTE STALL: 1.30948e+14
L1BTB BRANCH_DIRECT_CALL	ACCESS:     949515 HIT:     105243 MISS:     844272 AVERAGE STALL: 41.2988 AVERAGE FETCH STALL: 21.4622 AVERAGE FETCH QUEUE STALL: 9.89375 AVERAGE DECODE STALL: 9.16621 AVERAGE EXECUTE STALL: 1.59964e+14
L1BTB BRANCH_INDIRECT_CALL	ACCESS:     172209 HIT:      21148 MISS:     151061 AVERAGE STALL: 113.967 AVERAGE FETCH STALL: 16.1015 AVERAGE FETCH QUEUE STALL: 9.174 AVERAGE DECODE STALL: 7.77864 AVERAGE EXECUTE STALL: 80.3638
L1BTB BRANCH_RETURN	ACCESS:    1121722 HIT:     290736 MISS:     830986 AVERAGE STALL: 38.233 AVERAGE FETCH STALL: 18.4145 AVERAGE FETCH QUEUE STALL: 6.69358 AVERAGE DECODE STALL: 6.32194 AVERAGE EXECUTE STALL: 1.81725e+14
L1BTB BRANCH_OTHER ACCESS:          0 HIT:          0 MISS:          0 AVERAGE STALL: -nan AVERAGE FETCH STALL: -nan AVERAGE FETCH QUEUE STALL: -nan AVERAGE DECODE STALL: -nan AVERAGE EXECUTE STALL: -nan
L1BTB TOTAL ROB OCCUPANCY AT BTB MISS: 13.9202

L2BTB TOTAL     ACCESS:    3617716  HIT:    3185861  MISS:     431855  HIT %:    88.0628  MISS %:    11.9372   MPKI: 8.6371
L2BTB BRANCH_DIRECT_JUMP	ACCESS:     399492 HIT:     351143 MISS:      48349 AVERAGE STALL: 37.2753 AVERAGE FETCH STALL: 18.5964 AVERAGE FETCH QUEUE STALL: 8.29305 AVERAGE DECODE STALL: 9.51946 AVERAGE EXECUTE STALL: 3.51762e+14
L2BTB BRANCH_INDIRECT	ACCESS:     106687 HIT:     101574 MISS:       5113 AVERAGE STALL: 86.6428 AVERAGE FETCH STALL: 13.6726 AVERAGE FETCH QUEUE STALL: 7.55937 AVERAGE DECODE STALL: 6.82669 AVERAGE EXECUTE STALL: 57.6306
L2BTB BRANCH_CONDITIONAL	ACCESS:    1296118 HIT:    1154475 MISS:     141643 AVERAGE STALL: 38.1549 AVERAGE FETCH STALL: 21.6354 AVERAGE FETCH QUEUE STALL: 8.09921 AVERAGE DECODE STALL: 7.65939 AVERAGE EXECUTE STALL: 1.30948e+14
L2BTB BRANCH_DIRECT_CALL	ACCESS:     844271 HIT:     728939 MISS:     115332 AVERAGE STALL: 41.2988 AVERAGE FETCH STALL: 21.4622 AVERAGE FETCH QUEUE STALL: 9.89375 AVERAGE DECODE STALL: 9.16621 AVERAGE EXECUTE STALL: 1.59964e+14
L2BTB BRANCH_INDIRECT_CALL	ACCESS:     141578 HIT:     120276 MISS:      21302 AVERAGE STALL: 113.967 AVERAGE FETCH STALL: 16.1015 AVERAGE FETCH QUEUE STALL: 9.174 AVERAGE DECODE STALL: 7.77864 AVERAGE EXECUTE STALL: 80.3638
L2BTB BRANCH_RETURN	ACCESS:     829570 HIT:     729454 MISS:     100116 AVERAGE STALL: 38.233 AVERAGE FETCH STALL: 18.4145 AVERAGE FETCH QUEUE STALL: 6.69358 AVERAGE DECODE STALL: 6.32194 AVERAGE EXECUTE STALL: 1.81725e+14
L2BTB BRANCH_OTHER ACCESS:          0 HIT:          0 MISS:          0 AVERAGE STALL: -nan AVERAGE FETCH STALL: -nan AVERAGE FETCH QUEUE STALL: -nan AVERAGE DECODE STALL: -nan AVERAGE EXECUTE STALL: -nan
L2BTB TOTAL ROB OCCUPANCY AT BTB MISS: 117.428

L2C TOTAL     ACCESS:    4507203  HIT:    3987103  MISS:     520100  HIT %:    88.4607  MISS %:    11.5393   MPKI: 10.402
L2C LOAD INSTRUCTION	ACCESS:    2775184  HIT:    2495301  MISS:     279883  HIT %:    89.9148  MISS %:    10.0852  MPKI: 5.59766
L2C LOAD TRANSLATION INSTRUCTION	ACCESS:        508  HIT:        180  MISS:        328  HIT %:    35.4331  MISS %:    64.5669  MPKI: 0.00656
L2C LOAD DATA	ACCESS:     729321  HIT:     647403  MISS:      81918  HIT %:    88.7679  MISS %:    11.2321  MPKI: 1.63836
L2C RFO DATA	ACCESS:     285539  HIT:     225496  MISS:      60043  HIT %:     78.972  MISS %:     21.028  MPKI: 1.20086
L2C PREFETCH DATA	ACCESS:     192163  HIT:     115391  MISS:      76772  HIT %:    60.0485  MISS %:    39.9515  MPKI: 1.53544
L2C WRITEBACK DATA	ACCESS:     522584  HIT:     502733  MISS:      19851  HIT %:    96.2014  MISS %:    3.79862  MPKI: 0.39702
L2C LOAD TRANSLATION DATA	ACCESS:       1860  HIT:        572  MISS:       1288  HIT %:    30.7527  MISS %:    69.2473  MPKI: 0.02576
L2C TRANSLATION FROM L1D PREFETCHER DATA	ACCESS:         44  HIT:         27  MISS:         17  HIT %:    61.3636  MISS %:    38.6364  MPKI: 0.00034

L2C PREFETCH  REQUESTED:      99156  ISSUED:      99156  USEFUL:       9178  USELESS:      68235
L2C USEFUL LOAD PREFETCHES:       9178 PREFETCH ISSUED TO LOWER LEVEL:      77371  ACCURACY: 11.8623
 TIMELY PREFETCHES:       9178 LATE PREFETCHES: 599 DROPPED PREFETCHES: 0
L2C AVERAGE MISS LATENCY: 36.8842 cycles
L2C RQ	ACCESS:    3792512	FORWARD:          0	MERGED:          0	TO_CACHE:    3792456
L2C WQ	ACCESS:     522584	FORWARD:         56	MERGED:          0	TO_CACHE:     522584
L2C PQ	ACCESS:     199456	FORWARD:          0	MERGED:       3490	TO_CACHE:     195966

L2C Dense regions hint from L2: 0
PSCL5 TOTAL     ACCESS:       4602  HIT:       2301  MISS:       2301  HIT %:         50  MISS %:         50   MPKI: 0.04602
PSCL5 LOAD TRANSLATION INSTRUCTION	ACCESS:       4514  HIT:       2257  MISS:       2257  HIT %:         50  MISS %:         50  MPKI: 0.04514
PSCL5 TRANSLATION FROM L1D PREFETCHER INSTRUCTION	ACCESS:         88  HIT:         44  MISS:         44  HIT %:         50  MISS %:         50  MPKI: 0.00088


PSCL4 TOTAL     ACCESS:       4173  HIT:       2083  MISS:       2090  HIT %:    49.9161  MISS %:    50.0839   MPKI: 0.0418
PSCL4 LOAD TRANSLATION INSTRUCTION	ACCESS:       3590  HIT:       2047  MISS:       1543  HIT %:    57.0195  MISS %:    42.9805  MPKI: 0.03086
PSCL4 TRANSLATION FROM L1D PREFETCHER INSTRUCTION	ACCESS:         65  HIT:         36  MISS:         29  HIT %:    55.3846  MISS %:    44.6154  MPKI: 0.00058
PSCL4 LOAD TRANSLATION DATA	ACCESS:        511  HIT:          0  MISS:        511  HIT %:          0  MISS %:        100  MPKI: 0.01022
PSCL4 TRANSLATION FROM L1D PREFETCHER DATA	ACCESS:          7  HIT:          0  MISS:          7  HIT %:          0  MISS %:        100  MPKI: 0.00014


PSCL3 TOTAL     ACCESS:       4199  HIT:       2091  MISS:       2108  HIT %:    49.7976  MISS %:    50.2024   MPKI: 0.04216
PSCL3 LOAD TRANSLATION INSTRUCTION	ACCESS:       3087  HIT:       2055  MISS:       1032  HIT %:    66.5695  MISS %:    33.4305  MPKI: 0.02064
PSCL3 TRANSLATION FROM L1D PREFETCHER INSTRUCTION	ACCESS:         49  HIT:         36  MISS:         13  HIT %:    73.4694  MISS %:    26.5306  MPKI: 0.00026
PSCL3 LOAD TRANSLATION DATA	ACCESS:       1040  HIT:          0  MISS:       1040  HIT %:          0  MISS %:        100  MPKI: 0.0208
PSCL3 TRANSLATION FROM L1D PREFETCHER DATA	ACCESS:         23  HIT:          0  MISS:         23  HIT %:          0  MISS %:        100  MPKI: 0.00046


PSCL2 TOTAL     ACCESS:       4514  HIT:       2213  MISS:       2301  HIT %:    49.0253  MISS %:    50.9747   MPKI: 0.04602
PSCL2 LOAD TRANSLATION INSTRUCTION	ACCESS:       2640  HIT:       2169  MISS:        471  HIT %:    82.1591  MISS %:    17.8409  MPKI: 0.00942
PSCL2 TRANSLATION FROM L1D PREFETCHER INSTRUCTION	ACCESS:         44  HIT:         44  MISS:          0  HIT %:        100  MISS %:          0  MPKI: 0
PSCL2 LOAD TRANSLATION DATA	ACCESS:       1786  HIT:          0  MISS:       1786  HIT %:          0  MISS %:        100  MPKI: 0.03572
PSCL2 TRANSLATION FROM L1D PREFETCHER DATA	ACCESS:         44  HIT:          0  MISS:         44  HIT %:          0  MISS %:        100  MPKI: 0.00088


LLC TOTAL     ACCESS:     588433  HIT:     561526  MISS:      26907  HIT %:    95.4273  MISS %:    4.57265   MPKI: 0.53814
LLC LOAD INSTRUCTION	ACCESS:     279883  HIT:     279239  MISS:        644  HIT %:    99.7699  MISS %:   0.230096  MPKI: 0.01288
LLC LOAD TRANSLATION INSTRUCTION	ACCESS:        328  HIT:        310  MISS:         18  HIT %:    94.5122  MISS %:     5.4878  MPKI: 0.00036
LLC LOAD DATA	ACCESS:      81396  HIT:      78126  MISS:       3270  HIT %:    95.9826  MISS %:     4.0174  MPKI: 0.0654
LLC RFO DATA	ACCESS:      59954  HIT:      47076  MISS:      12878  HIT %:    78.5202  MISS %:    21.4798  MPKI: 0.25756
LLC PREFETCH DATA	ACCESS:      77370  HIT:      67648  MISS:       9722  HIT %:    87.4344  MISS %:    12.5656  MPKI: 0.19444
LLC WRITEBACK DATA	ACCESS:      88197  HIT:      87893  MISS:        304  HIT %:    99.6553  MISS %:   0.344683  MPKI: 0.00608
LLC LOAD TRANSLATION DATA	ACCESS:       1288  HIT:       1218  MISS:         70  HIT %:    94.5652  MISS %:    5.43478  MPKI: 0.0014
LLC TRANSLATION FROM L1D PREFETCHER DATA	ACCESS:         17  HIT:         16  MISS:          1  HIT %:    94.1176  MISS %:    5.88235  MPKI: 2e-05

LLC AVERAGE MISS LATENCY: 154.007 cycles
LLC RQ	ACCESS:     422878	FORWARD:          0	MERGED:          0	TO_CACHE:     422866
LLC WQ	ACCESS:      88197	FORWARD:         13	MERGED:          0	TO_CACHE:      88197
LLC PQ	ACCESS:      77371	FORWARD:          0	MERGED:          0	TO_CACHE:      77370

LLC Dense regions hint to LLC: 0

RAW hits: 1807084
Loads Generated: 12636139
Loads sent to L1D: 10829055
Stores Generated: 6956688
Stores sent to L1D: 6956692
Major fault: 0 Minor fault: 2586
Allocated PAGES: 2586

stream: 
stream:times selected: 1179650
stream:pref_filled: 120560
stream:pref_useful: 23424
stream:pref_late: 6382
stream:misses: 6691
stream:misses_by_poll: 0

CS: 
CS:times selected: 178464
CS:pref_filled: 57815
CS:pref_useful: 35255
CS:pref_late: 7050
CS:misses: 16314
CS:misses_by_poll: 4

CPLX: 
CPLX:times selected: 1000109
CPLX:pref_filled: 20132
CPLX:pref_useful: 4895
CPLX:pref_late: 2981
CPLX:misses: 91993
CPLX:misses_by_poll: 0

NL_L1: 
NL:times selected: 19815
NL:pref_filled: 655
NL:pref_useful: 242
NL:pref_late: 185
NL:misses: 1015
NL:misses_by_poll: 0

total selections: 2378038
total_filled: 92266
total_useful: 32710
total_late: 17865
total_polluted: 4
total_misses_after_warmup: 769872
conflicts: 5614307

test: 115471

DRAM Statistics
 CHANNEL 0
 RQ ROW_BUFFER_HIT:       9875  ROW_BUFFER_MISS:      16713
 DBUS_CONGESTED:         11
 WQ ROW_BUFFER_HIT:       1190  ROW_BUFFER_MISS:      11812  FULL:          0

 AVG_CONGESTED_CYCLE: 5

CPU 0 Branch Prediction Accuracy: 99.8222% MPKI: 0.32532 Average ROB Occupancy at Mispredict: 145.225
Branch types
NOT_BRANCH: 40848685 81.6974%
BRANCH_DIRECT_JUMP: 547715 1.09543%
BRANCH_INDIRECT: 182663 0.365326%
BRANCH_CONDITIONAL: 6177195 12.3544%
BRANCH_DIRECT_CALL: 949515 1.89903%
BRANCH_INDIRECT_CALL: 172209 0.344418%
BRANCH_RETURN: 1121722 2.24344%
BRANCH_OTHER: 0 0%

DRAM PAGES: 1048576
Allocated PAGES: 2586
Average_ROB_Occupancy: 142.428
Average_Decode_Occupancy: 17.2012
Average_FTQ_Occupancy: 7.70858
Indirect max targets: 14 Average targets: 1.15541
Branch_type:  BRANCH_DIRECT_JUMP:  Count Percentage: 3.81 6.01418 3.70827 3.27461 7.49856 5.44858 6.51573 63.7301 
Branch_type:  BRANCH_INDIRECT:  Count Percentage: 11.7602 3.41528 2.53817 0 13.0346 2.80977 16.5673 49.8747 
Branch_type:  BRANCH_CONDITIONAL:  Count Percentage: 21.2468 3.00288 2.12477 2.96119 3.44817 4.56297 3.26866 59.3846 
Branch_type:  BRANCH_DIRECT_CALL:  Count Percentage: 0.889788 1.27293 0.737451 2.27172 4.11495 2.8381 0.887195 86.9879 
Branch_type:  BRANCH_INDIRECT_CALL:  Count Percentage: 9.56314 0 2.99793 0.00378785 0 2.32253 0 85.1126 
Branch_type:  BRANCH_RETURN:  Count Percentage: 5.04148 1.42504 2.14382 2.46586 4.19637 5.27515 3.53703 75.9152 
Branch_type:  BRANCH_DIRECT_JUMP:  Total Count: 41758 65916 40643 35890 82185 59717 71413 698488 
Branch_type:  BRANCH_INDIRECT:  Total Count: 43039 12499 9289 0 47703 10283 60632 182528 
Branch_type:  BRANCH_CONDITIONAL:  Total Count: 2624329 370906 262444 365756 425906 563602 403734 7334979 
Branch_type:  BRANCH_DIRECT_CALL:  Total Count: 16816 24057 13937 42933 77768 53637 16767 1643973 
Branch_type:  BRANCH_INDIRECT_CALL:  Total Count: 32821 0 10289 13 0 7971 0 292109 
Branch_type:  BRANCH_RETURN:  Total Count: 112622 31834 47891 55085 93743 117842 79014 1695875 
Number of unique branch instructions: 10076
Upper 32 bits: 
aaaa
ffff
ffff0000
Unique upper 32 bits: 3
Unique upper 36 bits: 3
Unique upper 40 bits: 5
Unique upper 44 bits: 32
Unique upper 48 bits: 155
Offset_3 4161
Offset_4 247
Offset_5 461
Offset_6 511
Offset_7 599
Offset_8 510
Offset_9 465
Offset_10 386
Offset_11 319
Offset_12 283
Offset_13 218
Offset_14 237
Offset_15 190
Offset_16 224
Offset_17 157
Offset_18 122
Offset_19 249
Offset_20 139
Offset_21 235
Offset_22 405
Offset_23 241
Offset_24 331
Offset_25 92
Offset_47 82
Offset_64 2
decode_dispatch_called: 20668911 48.725
Dispatch_width: 0 10486231 50.7343 24.7203
Dispatch_width: 1 571520 2.76512 1.3473
Dispatch_width: 2 657654 3.18185 1.55036
Dispatch_width: 3 439568 2.12671 1.03624
Dispatch_width: 4 2001875 9.68544 4.71923
Dispatch_width: 5 285558 1.38158 0.673176
Dispatch_width: 6 6226505 30.125 14.6784
Empty_decode_cycles: 21750604 51.275
ROB_full_cycles: 2985197 7.03732
Starvation_cycles_per_kilo_instr: 332.078
Starvation_cycles_per_kilo_instr_3: 309.204
Starvation_cycles_per_kilo_instr_0: 292.516
Branch_type_1  (3,1)  (4,9)  (5,37)  (6,71)  (7,118)  (8,129)  (9,122)  (10,99)  (11,69)  (12,43)  (13,8)  (14,2)  (15,3)  (16,4)  (18,1)  (19,4)  (20,2)  (21,1)  (22,3)  (23,2)  (24,10)  (25,12) 
Branch_type_2  (3,1)  (4,1)  (5,1)  (8,3)  (9,3)  (12,1)  (13,1)  (14,1)  (16,3)  (17,2)  (20,2)  (21,2)  (23,5)  (24,1)  (47,37) 
Branch_type_3  (3,4159)  (4,237)  (5,419)  (6,425)  (7,452)  (8,317)  (9,251)  (10,156)  (11,124)  (12,50)  (13,7)  (20,1)  (64,1) 
Branch_type_4  (6,3)  (7,8)  (8,25)  (9,52)  (10,62)  (11,63)  (12,104)  (13,93)  (14,107)  (15,90)  (16,100)  (17,72)  (18,55)  (19,124)  (20,71)  (21,124)  (22,216)  (23,136)  (24,191)  (25,76)  (64,1) 
Branch_type_5  (8,2)  (9,1)  (10,4)  (11,6)  (12,3)  (13,14)  (14,16)  (15,11)  (16,20)  (17,11)  (18,16)  (19,12)  (20,11)  (21,13)  (22,42)  (23,26)  (24,37) 
Branch_type_6  (5,4)  (6,12)  (7,21)  (8,34)  (9,36)  (10,65)  (11,57)  (12,82)  (13,95)  (14,111)  (15,86)  (16,97)  (17,72)  (18,50)  (19,109)  (20,52)  (21,95)  (22,144)  (23,72)  (24,92)  (25,4)  (47,45) 
aaaaab1fc620: 2ac9e77e 2aca717c 2aca8eff 2acaf6bc 2acaf9aa 2acaf9f1 2acb1abc 2acb1b7f 2acd4e22 2acdb712 2acf5f9e 2ad0ef44 2ad3f15c 2ad414e6 2ad60e42 2ad8609c 2ad99830 2ada35cc 2ada4676 2ada6612 2adf183e 2adf30e5 2adf5602 2adf785c 2ae11572 2aeb2dcf 2aee101b 2aee1ae1 2b156a8c 2b156b61 2b156bea 2b167f35 2b177656 2b17feec 2b1a3e5a 
aaaaac68f310: 2ac9ec8c 2ac9fb44 2ac9fbd2 2aca59ab 2acac04c 2acaf6e0 2acaf6ec 2acaf6f9 2acaf700 2acaf708 2acf2d90 2ad3cfbd 2ad3cfc4 2ad3d000 2ad3f35f 2ad4955d 2ad49571 2ad4f3f2 2ad4f400 2ad5f240 2ad5f37c 2ad5f86a 2ad5f86f 2ad5f880 2ad5fc0d 2ad5fc14 2ad5fc21 2ad5fe1b 2ad873bb 2ad873e3 2ad8a6b2 2ad9086e 2ad93096 2ad9bbb2 2ada152c 2ada1554 2ada3332 2ada5522 2adf3130 2adf313c 2adf3a3f 2adf3bd9 2adf5788 2adf7a8d 2ae07f6b 2ae0857a 2ae0857e 2ae08630 2ae08634 2ae08637 2ae08642 2ae0866f 2ae086e4 2ae086ec 2ae08717 2ae0871b 2aee0170 2aee1d38 2aee75f4 2aee7662 2aee85ca 2aee85e4 2aee8eef 2af70b84 2af74e8f 2b17d843 
aaaaac690ef0: 2aca598b 2acb111b 2acb175f 2acb1772 2acbfaf4 2acbfb00 2acf374f 2acf6d43 2acfa5c8 2ad3baf1 2ad3d4ac 2ad3d4b8 2ad3f1cf 2ad486b2 2ad5a59b 2ad5fc64 2ad5fcf9 2ad6121c 2ad906e9 2ad907bf 2ad9bada 2ada16ce 2ada1ad5 2ada43df 2ada64c0 2ada72ee 2adeb71a 2adf3bcb 2adf7a38 2adf7c6a 2adf8872 2adf8880 2adf9959 2adf9abe 2ae07f78 2ae08503 2ae08754 2ae12e80 2aea3bea 2aecb509 2aee00b0 2aee2bdd 2aee5467 2aee5601 2aee8f20 2af703fd 2af7048b 2af74e74 
Unique trigger count: 
1 9603
2 514
3 86
4 34
5 7
6 8
7 8
9 3
10 2
11 1
12 1
13 4
16 2
18 2
19 3
35 1
48 1
66 1
BTB PER SET UNIQUE ADDR: 3 4 3 3 1 0 3 2 4 0 2 0 5 3 1 3 3 2 3 5 3 4 2 3 4 5 1 4 3 2 6 6 4 3 5 2 1 5 5 2 4 4 3 6 6 3 4 3 6 3 3 2 3 2 0 3 4 3 3 3 1 4 2 3 1 4 5 2 3 5 5 1 1 4 2 3 3 6 1 3 2 2 1 4 3 4 2 5 3 3 6 5 3 5 2 0 3 4 2 3 4 3 3 3 2 2 1 2 3 2 2 1 3 6 2 6 2 4 4 1 4 4 2 0 1 2 2 1 5 4 5 2 4 1 5 3 2 1 3 3 4 3 3 2 3 4 2 5 4 3 2 8 3 5 2 0 3 3 3 2 4 5 3 4 5 3 2 2 9 1 3 2 4 2 1 1 3 4 4 1 2 3 6 3 5 5 4 1 2 3 5 2 3 4 4 4 2 3 3 5 3 2 4 1 3 3 2 5 3 1 2 4 5 4 3 2 2 4 4 0 1 2 2 3 3 2 3 3 0 4 8 3 3 1 3 3 3 2 1 3 1 0 6 4 9 7 1 1 3 3 2 2 1 3 2 6 3 5 4 3 4 4 4 2 3 7 3 1 4 2 3 2 2 3 4 2 1 1 3 3 4 2 6 2 5 5 3 3 1 1 0 3 1 5 1 1 5 3 2 2 3 3 1 2 3 2 4 2 7 5 3 1 3 2 5 1 7 6 2 2 3 7 3 4 2 2 1 5 1 1 4 0 2 5 5 2 3 3 5 0 3 0 1 4 3 3 1 2 4 3 2 6 5 3 5 3 2 0 4 1 2 5 2 4 7 4 1 1 2 1 3 2 2 4 4 4 3 3 3 4 5 3 1 4 3 2 5 2 4 1 5 4 4 2 3 1 5 0 1 3 4 2 3 2 2 4 3 2 1 1 1 2 4 4 2 2 5 3 1 3 1 1 3 4 4 5 2 0 2 4 1 2 8 4 5 5 4 3 3 0 3 4 5 3 5 6 2 3 3 2 4 3 2 2 5 0 1 3 7 3 3 3 4 6 1 3 5 2 2 3 0 4 5 2 2 1 3 5 3 1 2 1 2 2 0 4 3 0 6 1 5 2 3 4 0 5 4 3 2 1 5 1 1 1 1 2 3 2 3 3 3 2 4 7 2 2 2 6 4 5 3 5 4 3 6 6 0 7 6 3 5 3 3 6 3 4 1 1 4 1 2 5 6 3 5 2 8 3 6 9 4 6 3 6 1 3 3 1 3 4 8 3 5 2 2 1 4 3 3 7 4 2 3 8 3 2 3 3 1 5 5 2 2 0 1 0 0 9 4 2 5 6 2 1 2 3 4 2 3 1 4 2 4 7 1 4 4 4 2 2 5 2 2 2 2 3 2 0 3 1 5 4 7 2 2 3 2 5 2 3 5 4 3 3 5 3 2 3 2 3 8 1 4 4 0 0 3 4 3 4 3 2 5 2 3 0 5 3 2 3 6 2 5 4 5 4 5 3 1 4 5 4 4 3 5 6 3 3 3 3 3 2 5 2 5 3 5 3 4 3 1 5 2 2 2 3 6 4 5 5 0 6 0 3 3 2 3 1 3 1 3 3 3 1 2 1 7 2 0 3 2 0 1 1 1 1 1 4 2 4 5 4 2 1 2 4 5 3 2 2 1 3 2 4 2 1 4 2 3 2 0 2 1 3 2 2 2 6 4 1 3 3 1 5 4 4 8 2 2 2 4 3 0 3 3 4 5 2 1 3 4 4 0 3 8 6 3 4 0 3 2 4 2 1 4 7 7 2 2 2 5 3 4 3 4 3 3 5 2 3 1 3 4 0 4 3 1 2 0 4 4 2 4 2 2 1 2 2 4 4 3 1 3 2 5 2 2 1 5 2 2 1 3 3 1 4 7 4 5 2 6 2 5 4 4 5 3 2 4 4 2 6 2 1 9 3 3 4 5 3 1 3 3 6 4 0 2 3 5 4 3 5 4 4 6 3 2 2 3 4 4 2 3 4 3 1 6 3 1 1 5 2 1 3 4 5 3 5 3 4 5 4 0 3 1 5 0 1 5 2 6 5 5 3 4 1 3 2 5 7 4 4 9 7 5 4 6 4 1 5 4 2 0 4 4 5 5 5 3 2 6 0 5 4 2 4 6 5 4 2 3 2 4 5 2 6 9 4 6 3 3 3 0 5 6 1 7 5 1 3 7 5 3 4 2 1 2 3 3 2 5 4 2 7 4 5 4 5 3 5 1 3 4 2 2 5 4 3 3 3 5 3 4 3 5 2 5 3 2 4 5 2 10 5 3 3 3 2 2 3 4 7 6 2 3 2 3 2 3 1 3 2 4 4 2 4 5 5 4 6 0 3 3 4 4 4 2 1 3 2 3 1 2 1 4 1 3 3 3 5 2 8 5 3 2 1 10 1 2 4 1 2 6 5 3 7 3 5 5 5 2 5 2 2 1 1 5 0 4 4 3 7 4 1 7 4 6 2 3 4 5 3 5 7 4 4 6 1 4 4 7 4 3 3 4 3 6 6 3 6 5 6 4 3 5 3 1 2 4 5 1 3 2 1 3 4 2 2 5 2 2 5 4 1 5 1 7 3 3 2 3 1 3 5 3 4 3 4 2 6 2 3 6 3 3 3 3 6 2 8 3 5 3 8 6 1 6 1 5 2 1 2 4 4 3 1 3 4 2 1 2 2 4 3 3 3 3 4 2 5 2 5 4 5 0 5 3 2 2 6 9 0 7 0 1 4 5 2 5 1 3 3 4 1 1 2 4 5 3 4 1 4 4 6 5 1 5 4 3 6 10 4 2 6 6 5 1 1 3 5 6 3 2 2 4 3 4 4 5 3 1 4 2 2 6 8 5 3 3 6 1 2 5 2 4 1 3 2 6 8 3 3 3 3 4 4 2 5 6 6 4 2 1 5 3 2 4 3 4 4 4 4 7 3 5 4 4 5 5 3 1 7 4 4 3 3 3 2 3 3 2 2 5 4 3 2 5 1 1 3 3 8 5 2 3 4 2 4 3 3 4 3 2 1 3 2 4 2 5 3 4 4 2 1 2 6 2 4 2 5 2 5 5 1 1 4 4 3 3 3 5 2 3 4 4 5 4 4 4 3 3 2 2 3 5 3 4 1 3 0 8 4 3 6 4 4 5 7 3 2 3 3 1 2 4 1 4 2 4 2 0 5 1 5 2 2 3 3 3 2 4 2 3 2 3 1 5 2 0 3 4 1 1 3 2 4 2 3 7 3 1 2 3 3 2 2 7 2 3 6 3 3 3 3 2 2 3 0 2 2 2 3 2 1 2 0 3 0 4 2 3 3 2 3 2 2 2 4 4 2 6 1 3 4 2 2 4 5 2 2 5 0 1 3 3 1 1 2 3 3 5 3 1 1 6 2 1 4 1 6 1 4 2 3 6 2 2 2 1 3 3 1 0 3 4 2 3 3 1 2 0 5 1 3 3 0 3 2 5 3 4 3 3 4 2 3 2 2 2 3 4 0 2 3 2 3 3 1 3 3 2 9 6 2 2 2 4 1 1 3 5 2 3 0 3 2 3 2 3 4 5 5 7 0 4 1 6 4 4 5 3 8 2 5 8 3 0 6 3 3 3 4 3 3 2 1 2 4 3 2 3 3 2 3 5 3 5 5 6 2 1 5 5 3 3 4 5 3 6 2 5 5 2 6 3 3 3 1 3 6 5 3 2 3 3 3 3 4 2 3 3 2 3 1 3 7 0 2 2 3 3 3 5 4 4 2 5 1 2 2 5 2 4 5 6 1 1 7 2 4 2 3 4 6 2 3 2 3 6 3 5 3 5 3 4 10 4 4 3 5 2 5 4 3 2 3 0 2 2 3 4 3 2 3 3 5 4 2 4 10 0 3 2 4 4 4 3 4 2 6 2 4 1 5 2 3 4 3 3 0 2 5 0 7 2 5 5 1 4 3 2 0 4 2 3 5 3 6 2 3 2 1 4 4 6 1 3 3 0 3 2 5 5 3 2 3 5 2 3 2 6 3 4 1 5 3 0 2 4 1 1 8 2 0 4 2 4 3 2 3 6 3 3 6 1 5 3 5 2 5 4 2 3 2 7 1 4 0 3 3 4 4 3 3 2 1 2 3 0 3 0 3 4 6 2 2 5 2 3 3 3 1 2 2 4 2 4 2 5 3 2 3 1 2 3 3 3 2 3 4 2 1 1 2 2 5 1 4 1 5 4 2 3 1 4 1 2 3 5 2 3 4 4 5 3 3 3 4 4 2 1 3 2 0 2 2 2 2 4 2 5 2 3 3 4 1 2 4 3 2 3 7 3 2 7 6 3 2 4 1 2 5 3 4 4 2 4 1 1 2 4 3 2 4 3 2 5 4 4 8 4 2 0 4 1 0 2 3 0 4 4 6 1 3 4 6 4 0 2 2 4 2 5 1 3 2 8 3 1 2 3 6 2 7 3 4 6 0 1 3 1 4 2 1 0 2 3 4 5 4 1 0 3 4 5 1 1 1 3 5 2 1 5 4 3 3 5 4 0 6 2 6 2 1 2 2 1 2 4 1 3 1 3 2 3 1 5 2 5 2 4 2 1 3 5 4 4 0 
BTB PER SET COUNT: 3 4 3 3 1 0 3 2 4 0 2 0 2444 3 1 4 3 2 3 1477 3 4 2 3 4 16 1 4 1472 2 2928 29 4 3 9 2 2940 748 750 2 4 4 3 2205 5407 3 4 3 1578 3 3 2 3 2 0 3 4 3 4 3 1 4 2 3 1 363 452 2 3 1012 749 1 1 4 2 3 492 758 1 3 2 2 1 4 3 5 2 12 3 3 2520 501 3 3928 3 0 3 4 2 4 4 3 3 3 2 3 1 2 3 2 2 1 3 1964 2 1874 2 4 4 1 4 4 2 0 1 2 2 1 1956 6 1959 3 4 1 979 3 2 1 3 3 4 5 3 2 3 4 2 4414 4 3 2 6802 3 2443 2 0 3 3 3 2 5 996 3 4 10 1965 2 2 8333 1 3 2 4 2 1 1 3 4 984 1 2 3 6854 3 8 8 4 1 2 4 41 2 3 4 4 6 2 3 4 8 4 2 4 1 5 3 2 1479 3 1 3 5 16 4 3 2 2 5 4 0 1 2 2 3 3 2 3 31 0 4 5843 3 3 1 3 3 3 2 1 3 1 0 2445 4 9307 1955 1 1 3 3 2 2 1 3 2 1954 3 8 4 3 4 4 4 2 1472 1490 3 1 4 2 3 2 2 3 4 3 1 1 3 3 5 2 1963 2 749 2445 3 3 1 1 0 5 1 16 1 1 16 3 2 2 3 4 1 2 3 2 8 2 1963 995 3 1 3 2 995 1 2445 1255 2 5 3 2218 4 4 2 2 1 21 1 1 981 0 2 15 1534 2 981 3 24 0 3 0 2 981 980 3 1 2 4 6 2 122 7 3 52 4 2 0 4 1 2 9 2 4 2709 5 1 1 2 1 3 2 2 4 5 4 3 3 3 4 24 3 1 5 4 2 12 2 4 1 20 4 4 2 3 1 3457 0 1 3 4 2 3 2 2 4 1472 2 1 981 1 2 6 4 982 2 143 3 1 89 1 1 3 4 4 11 6 0 2 6 139 2 2703 5 991 2436 4 3 3 0 3 4 1244 3 10 1007 2 3 3 2 4 3 4 2 1952 0 1 3 1487 3 3 3 4 1963 1 3 7 2 2 4 0 4 33 490 2 1 3 998 3 1 2 1 2 490 0 5 3 0 26 1 6 2 3 4 0 25 5 3 2 1 1951 13 1 2 1 2 4 2 3 4 3 2 4 35 3 2 2 2444 4 502 3 1479 4 3 21 1470 0 1957 4921 3 7 3 3 20 3 495 1 1 5 1 2 1468 164 5 16 2 97 4 994 9293 4 1479 5 2928 1 3 8 1 3 4 6861 3 1955 2 2 1 4 3 3 2980 4 3 3 5408 3 2 3 4 1 24 9 39 2 0 1 0 0 3910 4 2 1957 2933 2 1 982 3 4 2 3 1 4 4 4 1493 1 4 4 4 2 2 2445 2 2 2 2 3 994 0 3 1 13 492 3419 2 2 3 2 18 3 3 1957 1473 3 5 981 3 2 3 2 3 2943 1 4 4 0 0 4 4 4 5 3 2 9 2 3 0 8 3 2 3 7841 2 23 4 1957 5 2961 980 1 4 751 4 5 4 1468 3008 3 3 3 3 3 2 6 979 1469 3 23 1472 4 3 2 985 2 2 2 3 1961 5 19 38 0 2448 0 3 3 979 3 1 4 1 3 4 5 1 979 1 2470 2 0 3 2 0 1 1 1 1 1 4 2 4 1468 4 983 1 2 4 9 4 2 2 1 3 2 4 2 1 494 2 3 977 0 2 1 3 2 2 2 2933 4 1 3 3 1 21 4 4 5892 2 3 2 4 3 0 110 3 7 2949 3 1 3 4 4 0 3 3042 4907 4 5 0 3 2 58 2 1 5 2155 1949 2 2 2 11 3 4 5 1957 4 3 20 2 6 1 3 4 0 6 5 1 2 0 4 4 2 4 2 3 1 2 2 5 68 3 1 3 2 1958 4 3 2 1468 2 2 1 3 1476 1 10 1982 4 9 3 2444 2 1953 6 4 13 4 2 4 4 2 4896 2 1 6396 983 3 6 1468 5 1 3 3 2491 5 0 3 3 24 4 3 4903 5 4 106 3 2 2 3 4 5 2 3 4 4 3 766 3 1 1 1778 2 1 72 8 2470 3 995 3 4 46 4 0 3 1 1466 0 1 981 2 54 10 1466 3 7 1 3 2 1951 149 4 495 5393 3923 1470 4 2069 7 1 24 5 2 0 984 4 2439 53 1468 3 2 775 0 348 5 2 4 1388 1956 4 2 3 493 4 4908 5 24 1137 5 1961 3 3 3 0 366 26 1 7351 18 1 3 1969 20 492 4 2 3 2 3 3 2 1657 4 2 3422 5 10 4 1947 3 27 1 3 4 2 2 20 4 4 3 4 1968 3 2454 362 1724 3 24 4 2 4 1781 2 5147 23 3 3 3 2 2 3 4 2937 1959 2 3 2 4 2 3 3 3 2 4 4 2 4 12 1955 4 1476 0 3 3 4 1474 365 2 2 4 4 3 1 7 1 6 1 4 3 3 12 2 3910 1467 3 2 1 11273 1 2 4 1 2 1959 112 3 5399 3 24 8 2445 2 28 2 2 1 1 26 0 5 4 3 1970 4 1 2033 4 2449 2 493 4 12 3 2439 1824 4 4 2447 1 6 5 4903 4 3 4 4 3 1472 1951 3 2443 1465 2136 4 3 13 4 1 3 4 1956 1 3 2 1 3 4 2 2 507 3 2 26 7 1 12 1 5670 3 3 2 3 1 3 6 3 4 3 4 2 26 2 3 1693 3 3 3 3 1956 2 5855 3 1470 3 2563 7350 1 5389 1 18 2 1 2 494 4 3 1 3 109 2 1 2 490 4 3 3 3 3 5 2 1471 2 7 4 19 0 1951 3 2 2 47 7371 0 38 0 1 4 9 4 25 1 3 978 5 1 1 2 7 20 3 4 1 4 4 7347 16 1 7 4 3 2946 10284 1978 2 7351 26 1957 1 1 4 1952 2443 4 2 2 4 3 4 4 16 3 1 4 2 2 3445 7942 3928 3 3 347 1 2 23 2 4 1 3 2 2932 6619 983 5 3 3 4 4 2 1952 1964 2444 4 2 1 23 3 2 7 3 4 5 4 4 1976 3 1957 4 492 1951 2443 8 1 2996 4 4 3 4 3 2 3 3 2 2 15 4 4 2 982 1 1 3 3 2936 15 2 3 4 2 4 3 3 4 3 4 1 3 2 5 2 18 4 7 4 2 1 2 1005 2 4 2 6 2 5 341 1 1 4 4 983 3 3 2448 3 3 44 4 17 5 4 4 3 3 2 3 3 1955 3 4 1 3 0 5860 4 3 2925 4 4 2438 6869 4 2 4 3 1 2 4 1 4 4 4 2 0 3910 1 13 2 2 4 4 5 2 1473 2 3 1342 4 1 524 2 0 3 4 1 1 1343 2 4 2 3 1959 3 1 2 3 3 2 2 2928 3 3 93 5 3 3 3 2 2 4 0 4 2 2 985 2 1 2 0 4 0 4 2 3 3 2 3 977 2 8 4 28 2 2444 1 3 4 2 3 5 13 144 2 21563 0 1 3 3 1 1 2 3 3 2019 367 1 1 1360 2 1 4 1 2446 1 4 2 3 1940 2 2 2 1 3 3 1 0 3 4 2 3 3 1 2 0 3928 1 3 5 0 3 449 1965 3 4 3 3 4 2 4 2 2 2 3 4 0 2 3 2 3 11 1 3 3 2 3674 2935 2 2 2 4 1 1 3 1728 2 3 0 3 2 3 2 3 5 2438 17 5884 0 4 1 2202 4 4 27 3 3423 2 10 8447 3 0 2934 1472 3 4 4 3 3 2 1 2 984 3 2 3 3 2 3 1693 4 1957 6 999 2926 1 1195 6857 3 5 6 8 3 3448 2 1553 1956 2 1963 3 280 362 1 1472 1482 13 186 6 3 3 3 4 4 2 3 3 2 4 1 3 2596 0 2 2 3 3 3 510 4 4 2 3924 1 2 3 1465 2 1470 1468 2930 1 1 6384 2 982 2 4 4 1959 493 3 2 3 2928 4 495 3 4548 3 4 8833 4 4 14703 2934 2 1952 1473 6 2 3 0 2 2 3 4 3 2 3 3 8 4 2 170 3423 0 1473 2 1473 78 4 3 4 2 2311 2 796 1 2443 2 3 4 3 3 0 2 3033 0 5394 2 1194 2446 1 5 4 2 0 4 2 4 2274 3 4902 2 3 2 1 4 5 7347 1 3 541 0 3 2 6 1953 984 2 4 1962 2 3 2 2206 3 5 1 26 3 0 2 5 1470 1 3869 2 0 4 2 4 3 4 3 2405 3 408 2445 1 2443 3 1957 213 1952 52 2 3 2 4113 1 243 0 5 1474 4 4 3 3 2 1 2 498 0 3 0 3 4 3202 2 2 758 390 3 7 983 1 2 2 4 2 4 2 102 3 2 3 1 2 239 3 3 2 3 4 2 1 1 2 2 1433 1 4 1 3928 4 2 3 3 4 1 2 3 14 2 3 979 4 981 3 3 3 4 4 2 1 3 2 0 2 2 2 2 4 14 2443 2 3 3 5 1 2 4 3 2 3 3185 6 2 3180 2440 139 2 4 1 2 23 3 5 5 2 5 1 1 2 4 978 2 4 3 2 8 4 4 2522 4 2 0 4 1 0 2 3 0 5 1474 1001 1 3 4 2423 4 0 2 2 5 2 8 1 5 2 3865 3 1 2 3 2453 6 3422 3 4 5149 0 1 3 1 4 2 1 0 2 3 5 19 4 2 0 3 4 1471 1 1 1 3 2445 2 1 23 4 3 5 1952 4 0 2448 2 1956 5 1 3 2 1 2 8 1 3 1 5 2 4 1 17 2 248 2 5 2 2 3 1493 4 4 0 
