
*** ChampSim Multicore Out-of-Order Simulator ***

Warmup Instructions: 50000000
Simulation Instructions: 50000000
Number of CPUs: 1
LLC sets: 2048
LLC ways: 16
Off-chip DRAM Size: 4096 MB Channels: 1 Width: 64-bit Data Rate: 6400 MT/s
CPU 0 runs ./micro_traces/srv567.trace.gz
.gz
ITLB has LRU replacement policy
DTLB has LRU replacement policy
STLB has LRU replacement policy
L1I has LRU replacement policy
L1D has LRU replacement policy
Initialize SRRIP state for L2C
Initialize DRRIP state for LLC
Heartbeat_Variant_0 : 1328 0.324219 per_variant_size: 0 1328 0 0 0 0 0 0 0 
Heartbeat_Variant_1 : 1208 0.294922 per_variant_size: 0 596 612 0 0 0 0 0 0 
Heartbeat_Variant_2 : 1302 0.317871 per_variant_size: 0 543 348 213 198 0 0 0 0 
Heartbeat_Variant_3 : 0 0 per_variant_size: 0 0 0 0 0 0 0 0 0 
Heartbeat_Variant_0_evicts 0 : 5852 1 : 276 2 : 282 3 : 0 
Heartbeat_Variant_1_evicts 0 : 276 1 : 0 2 : 471 3 : 0 
Heartbeat_Variant_2_evicts 0 : 253 1 : 480 2 : 0 3 : 0 
Heartbeat_Variant_3_evicts 0 : 0 1 : 0 2 : 0 3 : 0 
Heartbeat CPU 0 instructions: 10000000 cycles: 2798356 heartbeat IPC: 3.57353 cumulative IPC: 3.57353 (Simulation time: 0 hr 1 min 22 sec) 
Heartbeat_Variant_0 : 1348 0.329102 per_variant_size: 0 1348 0 0 0 0 0 0 0 
Heartbeat_Variant_1 : 1235 0.301514 per_variant_size: 0 591 644 0 0 0 0 0 0 
Heartbeat_Variant_2 : 1334 0.325684 per_variant_size: 0 540 364 222 208 0 0 0 0 
Heartbeat_Variant_3 : 0 0 per_variant_size: 0 0 0 0 0 0 0 0 0 
Heartbeat_Variant_0_evicts 0 : 5659 1 : 76 2 : 108 3 : 0 
Heartbeat_Variant_1_evicts 0 : 84 1 : 0 2 : 295 3 : 0 
Heartbeat_Variant_2_evicts 0 : 103 1 : 296 2 : 0 3 : 0 
Heartbeat_Variant_3_evicts 0 : 0 1 : 0 2 : 0 3 : 0 
Heartbeat CPU 0 instructions: 20000002 cycles: 5593609 heartbeat IPC: 3.57749 cumulative IPC: 3.57551 (Simulation time: 0 hr 2 min 41 sec) 
Heartbeat_Variant_0 : 1348 0.329102 per_variant_size: 0 1348 0 0 0 0 0 0 0 
Heartbeat_Variant_1 : 1238 0.302246 per_variant_size: 0 589 649 0 0 0 0 0 0 
Heartbeat_Variant_2 : 1332 0.325195 per_variant_size: 0 540 360 229 203 0 0 0 0 
Heartbeat_Variant_3 : 0 0 per_variant_size: 0 0 0 0 0 0 0 0 0 
Heartbeat_Variant_0_evicts 0 : 5727 1 : 3 2 : 2 3 : 0 
Heartbeat_Variant_1_evicts 0 : 3 1 : 0 2 : 201 3 : 0 
Heartbeat_Variant_2_evicts 0 : 2 1 : 199 2 : 0 3 : 0 
Heartbeat_Variant_3_evicts 0 : 0 1 : 0 2 : 0 3 : 0 
Heartbeat CPU 0 instructions: 30000003 cycles: 8389931 heartbeat IPC: 3.57613 cumulative IPC: 3.57572 (Simulation time: 0 hr 3 min 56 sec) 
Heartbeat_Variant_0 : 1367 0.33374 per_variant_size: 0 1367 0 0 0 0 0 0 0 
Heartbeat_Variant_1 : 1248 0.304688 per_variant_size: 0 580 668 0 0 0 0 0 0 
Heartbeat_Variant_2 : 1362 0.33252 per_variant_size: 0 572 351 234 205 0 0 0 0 
Heartbeat_Variant_3 : 0 0 per_variant_size: 0 0 0 0 0 0 0 0 0 
Heartbeat_Variant_0_evicts 0 : 5788 1 : 158 2 : 179 3 : 0 
Heartbeat_Variant_1_evicts 0 : 156 1 : 0 2 : 362 3 : 0 
Heartbeat_Variant_2_evicts 0 : 172 1 : 368 2 : 0 3 : 0 
Heartbeat_Variant_3_evicts 0 : 0 1 : 0 2 : 0 3 : 0 
Heartbeat CPU 0 instructions: 40000003 cycles: 11186515 heartbeat IPC: 3.57579 cumulative IPC: 3.57573 (Simulation time: 0 hr 5 min 14 sec) 
Heartbeat_Variant_0 : 1365 0.333252 per_variant_size: 0 1365 0 0 0 0 0 0 0 
Heartbeat_Variant_1 : 1249 0.304932 per_variant_size: 0 578 671 0 0 0 0 0 0 
Heartbeat_Variant_2 : 1365 0.333252 per_variant_size: 0 576 348 233 208 0 0 0 0 
Heartbeat_Variant_3 : 0 0 per_variant_size: 0 0 0 0 0 0 0 0 0 
Heartbeat_Variant_0_evicts 0 : 5568 1 : 12 2 : 28 3 : 0 
Heartbeat_Variant_1_evicts 0 : 13 1 : 0 2 : 202 3 : 0 
Heartbeat_Variant_2_evicts 0 : 29 1 : 202 2 : 0 3 : 0 
Heartbeat_Variant_3_evicts 0 : 0 1 : 0 2 : 0 3 : 0 
Heartbeat CPU 0 instructions: 50000001 cycles: 13983159 heartbeat IPC: 3.57571 cumulative IPC: 3.57573 (Simulation time: 0 hr 6 min 32 sec) 

Warmup complete CPU 0 instructions: 50000001 cycles: 13983159 (Simulation time: 0 hr 6 min 32 sec) 

Cycle: 20000000 FTQ IN: 55287156 FTQ occupancy: 15.9136 DECODE IN: 55287138 DECODE occupancy: 9.50708 ROB IN: 55287138 ROB occupancy: 260.209 ROB OUT: 55287119
Heartbeat_Variant_0 : 1372 0.334961 per_variant_size: 0 1372 0 0 0 0 0 0 0 
Heartbeat_Variant_1 : 1254 0.306152 per_variant_size: 0 584 670 0 0 0 0 0 0 
Heartbeat_Variant_2 : 1370 0.334473 per_variant_size: 0 569 360 234 207 0 0 0 0 
Heartbeat_Variant_3 : 0 0 per_variant_size: 0 0 0 0 0 0 0 0 0 
Heartbeat_Variant_0_evicts 0 : 5639 1 : 44 2 : 54 3 : 0 
Heartbeat_Variant_1_evicts 0 : 45 1 : 0 2 : 240 3 : 0 
Heartbeat_Variant_2_evicts 0 : 49 1 : 243 2 : 0 3 : 0 
Heartbeat_Variant_3_evicts 0 : 0 1 : 0 2 : 0 3 : 0 
Heartbeat CPU 0 instructions: 60000003 cycles: 25291539 heartbeat IPC: 0.8843 cumulative IPC: 0.8843 (Simulation time: 0 hr 7 min 39 sec) 
Cycle: 30000000 FTQ IN: 8943259 FTQ occupancy: 14.9229 DECODE IN: 8943266 DECODE occupancy: 4.91109 ROB IN: 8943259 ROB occupancy: 52.5049 ROB OUT: 8943165
Heartbeat_Variant_0 : 1377 0.336182 per_variant_size: 0 1377 0 0 0 0 0 0 0 
Heartbeat_Variant_1 : 1256 0.306641 per_variant_size: 0 583 673 0 0 0 0 0 0 
Heartbeat_Variant_2 : 1368 0.333984 per_variant_size: 0 561 372 222 213 0 0 0 0 
Heartbeat_Variant_3 : 0 0 per_variant_size: 0 0 0 0 0 0 0 0 0 
Heartbeat_Variant_0_evicts 0 : 5619 1 : 21 2 : 34 3 : 0 
Heartbeat_Variant_1_evicts 0 : 20 1 : 0 2 : 216 3 : 0 
Heartbeat_Variant_2_evicts 0 : 32 1 : 213 2 : 0 3 : 0 
Heartbeat_Variant_3_evicts 0 : 0 1 : 0 2 : 0 3 : 0 
Heartbeat CPU 0 instructions: 70000002 cycles: 36421644 heartbeat IPC: 0.898464 cumulative IPC: 0.891326 (Simulation time: 0 hr 8 min 52 sec) 
Cycle: 40000000 FTQ IN: 8985824 FTQ occupancy: 14.9389 DECODE IN: 8985817 DECODE occupancy: 4.93061 ROB IN: 8985824 ROB occupancy: 52.0622 ROB OUT: 8985898
Heartbeat_Variant_0 : 1378 0.336426 per_variant_size: 0 1378 0 0 0 0 0 0 0 
Heartbeat_Variant_1 : 1259 0.307373 per_variant_size: 0 588 671 0 0 0 0 0 0 
Heartbeat_Variant_2 : 1367 0.33374 per_variant_size: 0 555 374 229 209 0 0 0 0 
Heartbeat_Variant_3 : 0 0 per_variant_size: 0 0 0 0 0 0 0 0 0 
Heartbeat_Variant_0_evicts 0 : 5637 1 : 17 2 : 22 3 : 0 
Heartbeat_Variant_1_evicts 0 : 14 1 : 0 2 : 221 3 : 0 
Heartbeat_Variant_2_evicts 0 : 24 1 : 216 2 : 0 3 : 0 
Heartbeat_Variant_3_evicts 0 : 0 1 : 0 2 : 0 3 : 0 
Heartbeat CPU 0 instructions: 80000002 cycles: 47667073 heartbeat IPC: 0.88925 cumulative IPC: 0.890633 (Simulation time: 0 hr 10 min 3 sec) 
Cycle: 50000000 FTQ IN: 8851955 FTQ occupancy: 14.9712 DECODE IN: 8851958 DECODE occupancy: 4.92555 ROB IN: 8851958 ROB occupancy: 54.7816 ROB OUT: 8851911
Heartbeat_Variant_0 : 1379 0.33667 per_variant_size: 0 1379 0 0 0 0 0 0 0 
Heartbeat_Variant_1 : 1262 0.308105 per_variant_size: 0 579 683 0 0 0 0 0 0 
Heartbeat_Variant_2 : 1367 0.33374 per_variant_size: 0 552 372 231 212 0 0 0 0 
Heartbeat_Variant_3 : 0 0 per_variant_size: 0 0 0 0 0 0 0 0 0 
Heartbeat_Variant_0_evicts 0 : 5515 1 : 58 2 : 30 3 : 0 
Heartbeat_Variant_1_evicts 0 : 53 1 : 0 2 : 232 3 : 0 
Heartbeat_Variant_2_evicts 0 : 34 1 : 226 2 : 0 3 : 0 
Heartbeat_Variant_3_evicts 0 : 0 1 : 0 2 : 0 3 : 0 
Heartbeat CPU 0 instructions: 90000000 cycles: 58869642 heartbeat IPC: 0.892652 cumulative IPC: 0.891137 (Simulation time: 0 hr 11 min 15 sec) 
Cycle: 60000000 FTQ IN: 8949736 FTQ occupancy: 14.9513 DECODE IN: 8949733 DECODE occupancy: 4.92769 ROB IN: 8949733 ROB occupancy: 52.7103 ROB OUT: 8949819
Cycle: 70000000 FTQ IN: 8860135 FTQ occupancy: 14.9885 DECODE IN: 8860138 DECODE occupancy: 4.92971 ROB IN: 8860126 ROB occupancy: 54.3653 ROB OUT: 8860014
Heartbeat_Variant_0 : 1377 0.336182 per_variant_size: 0 1377 0 0 0 0 0 0 0 
Heartbeat_Variant_1 : 1265 0.308838 per_variant_size: 0 587 678 0 0 0 0 0 0 
Heartbeat_Variant_2 : 1369 0.334229 per_variant_size: 0 555 374 228 212 0 0 0 0 
Heartbeat_Variant_3 : 0 0 per_variant_size: 0 0 0 0 0 0 0 0 0 
Heartbeat_Variant_0_evicts 0 : 5684 1 : 28 2 : 29 3 : 0 
Heartbeat_Variant_1_evicts 0 : 32 1 : 0 2 : 220 3 : 0 
Heartbeat_Variant_2_evicts 0 : 27 1 : 223 2 : 0 3 : 0 
Heartbeat_Variant_3_evicts 0 : 0 1 : 0 2 : 0 3 : 0 
Heartbeat CPU 0 instructions: 100000002 cycles: 70135864 heartbeat IPC: 0.887609 cumulative IPC: 0.890429 (Simulation time: 0 hr 12 min 24 sec) 
Finished CPU 0 instructions: 50000001 cycles: 56152705 cumulative IPC: 0.890429 (Simulation time: 0 hr 12 min 24 sec) 

ChampSim completed all CPUs

Region of Interest Statistics

CPU 0 cumulative IPC: 0.890429 instructions: 50000001 cycles: 56152705
 Fetch stage stalled: 27.0479  Sim cycles: 56152705 fetch stall cycle: 15188151
 Empty decode stage: 68.8072  Sim cycles: 56152705 fetch stall cycle: 38637088
ITLB TOTAL     ACCESS:    7354688  HIT:    6860521  MISS:     494167  HIT %:    93.2809  MISS %:    6.71907   MPKI: 9.88334
ITLB LOAD TRANSLATION INSTRUCTION	ACCESS:    7354688  HIT:    6860521  MISS:     494167  HIT %:    93.2809  MISS %:    6.71907  MPKI: 9.88334

ITLB AVERAGE MISS LATENCY: 9.04631 cycles
ITLB RQ	ACCESS:    8478381	FORWARD:          0	MERGED:     925991	TO_CACHE:    7552390

DTLB TOTAL     ACCESS:   10323441  HIT:    9850475  MISS:     472966  HIT %:    95.4185  MISS %:    4.58148   MPKI: 9.45932
DTLB LOAD TRANSLATION DATA	ACCESS:   10323441  HIT:    9850475  MISS:     472966  HIT %:    95.4185  MISS %:    4.58148  MPKI: 9.45932

DTLB AVERAGE MISS LATENCY: 9.30532 cycles
DTLB RQ	ACCESS:   14435292	FORWARD:          0	MERGED:    4081553	TO_CACHE:   10353739

STLB TOTAL     ACCESS:    1227114  HIT:    1225025  MISS:       2089  HIT %:    99.8298  MISS %:   0.170237   MPKI: 0.04178
STLB LOAD TRANSLATION INSTRUCTION	ACCESS:     494167  HIT:     493884  MISS:        283  HIT %:    99.9427  MISS %:  0.0572681  MPKI: 0.00566
STLB LOAD TRANSLATION DATA	ACCESS:     472964  HIT:     471189  MISS:       1775  HIT %:    99.6247  MISS %:   0.375293  MPKI: 0.0355
STLB TRANSLATION FROM L1D PREFETCHER DATA	ACCESS:     259983  HIT:     259952  MISS:         31  HIT %:    99.9881  MISS %:  0.0119239  MPKI: 0.00062

STLB AVERAGE MISS LATENCY: 69.8506 cycles
STLB RQ	ACCESS:    1344575	FORWARD:          0	MERGED:     117417	TO_CACHE:    1227158

STLB Hit, L1D data hit: 0
STLB Hit, L2C data hit: 0
STLB Hit, LLC data hit: 0
STLB Hit, LLC data miss: 0
STLB STLB hints to L2: 0
L1D TOTAL     ACCESS:   14228343  HIT:   13110971  MISS:    1117372  HIT %:    92.1469  MISS %:    7.85314   MPKI: 22.3474
L1D LOAD DATA	ACCESS:    7574909  HIT:    6843204  MISS:     731705  HIT %:    90.3404  MISS %:    9.65959  MPKI: 14.6341
L1D RFO DATA	ACCESS:    6316606  HIT:    6026754  MISS:     289852  HIT %:    95.4113  MISS %:    4.58873  MPKI: 5.79704
L1D PREFETCH DATA	ACCESS:     336828  HIT:     241013  MISS:      95815  HIT %:    71.5537  MISS %:    28.4463  MPKI: 1.9163

L1D PREFETCH  REQUESTED:     754968  ISSUED:     754968  USEFUL:      36078  USELESS:      68018
L1D USEFUL LOAD PREFETCHES:      36078 PREFETCH ISSUED TO LOWER LEVEL:     104161  ACCURACY: 34.6368
 TIMELY PREFETCHES:      36078 LATE PREFETCHES: 8270 DROPPED PREFETCHES: 8
L1D AVERAGE MISS LATENCY: 315580 cycles
L1D RQ	ACCESS:   11417566	FORWARD:          0	MERGED:    3653514	TO_CACHE:    7606695
L1D WQ	ACCESS:    6947799	FORWARD:     157443	MERGED:     119202	TO_CACHE:    6828597
L1D PQ	ACCESS:     377527	FORWARD:          0	MERGED:          0	TO_CACHE:     377441

L1D UNIQUE REGIONS ACCESSED: 0
L1D REGIONS CONFLICTS: 0
L1D Cross Page Prefetch Requests: 6803
L1D Same Page Prefetch Requests: 756204
L1D ROI Sum of L1D PQ occupancy: 4798752
L1D PREFETCHES PUSHED FROM L2C: 0
L1I TOTAL     ACCESS:    7935310  HIT:    5173754  MISS:    2761556  HIT %:    65.1991  MISS %:    34.8009   MPKI: 55.2311
L1I LOAD INSTRUCTION	ACCESS:    7935310  HIT:    5173754  MISS:    2761556  HIT %:    65.1991  MISS %:    34.8009  MPKI: 55.2311

L1I AVERAGE MISS LATENCY: 17.461 cycles
L1I RQ	ACCESS:   15517625	FORWARD:          0	MERGED:    7039244	TO_CACHE:    8478381

L1BTB TOTAL     ACCESS:    5667953  HIT:    2041946  MISS:    3626007  HIT %:    36.0262  MISS %:    63.9738   MPKI: 72.5201
L1BTB BRANCH_DIRECT_JUMP	ACCESS:     548039  HIT:     144583  MISS:     403456	AVERAGE STALL: 20.982
L1BTB BRANCH_INDIRECT	ACCESS:     182828  HIT:      66074  MISS:     116754	AVERAGE STALL: 49.7307
L1BTB BRANCH_CONDITIONAL	ACCESS:    2704897  HIT:    1412941  MISS:    1291956	AVERAGE STALL: 26.2583
L1BTB BRANCH_DIRECT_CALL	ACCESS:     944384  HIT:     106144  MISS:     838240	AVERAGE STALL: 34.7557
L1BTB BRANCH_INDIRECT_CALL	ACCESS:     171711  HIT:      21414  MISS:     150297	AVERAGE STALL: 65.8684
L1BTB BRANCH_RETURN	ACCESS:    1116094  HIT:     290790  MISS:     825304	AVERAGE STALL: 32.4082
L1BTB BRANCH_OTHER ACCESS:          0  HIT:          0  MISS:          0	AVERAGE STALL: -nan
L1BTB TOTAL ROB OCCUPANCY AT BTB MISS: 0.572466

L2BTB TOTAL     ACCESS:    3600666  HIT:    3538099  MISS:      62567  HIT %:    98.2623  MISS %:    1.73765   MPKI: 1.25134
L2BTB BRANCH_DIRECT_JUMP	ACCESS:     399300  HIT:     395767  MISS:       3533	AVERAGE STALL: 20.982
L2BTB BRANCH_INDIRECT	ACCESS:     106491  HIT:     103887  MISS:       2604	AVERAGE STALL: 49.7307
L2BTB BRANCH_CONDITIONAL	ACCESS:    1291956  HIT:    1288921  MISS:       3035	AVERAGE STALL: 26.2583
L2BTB BRANCH_DIRECT_CALL	ACCESS:     838240  HIT:     837396  MISS:        844	AVERAGE STALL: 34.7557
L2BTB BRANCH_INDIRECT_CALL	ACCESS:     140768  HIT:     130658  MISS:      10110	AVERAGE STALL: 65.8684
L2BTB BRANCH_RETURN	ACCESS:     823911  HIT:     781470  MISS:      42441	AVERAGE STALL: 32.4082
L2BTB BRANCH_OTHER ACCESS:          0  HIT:          0  MISS:          0	AVERAGE STALL: -nan
L2BTB TOTAL ROB OCCUPANCY AT BTB MISS: 33.1767

L2C TOTAL     ACCESS:    4487963  HIT:    3965896  MISS:     522067  HIT %:    88.3674  MISS %:    11.6326   MPKI: 10.4413
L2C LOAD INSTRUCTION	ACCESS:    2761556  HIT:    2458698  MISS:     302858  HIT %:    89.0331  MISS %:    10.9669  MPKI: 6.05716
L2C LOAD TRANSLATION INSTRUCTION	ACCESS:        319  HIT:         90  MISS:        229  HIT %:    28.2132  MISS %:    71.7868  MPKI: 0.00458
L2C LOAD DATA	ACCESS:     723422  HIT:     651395  MISS:      72027  HIT %:    90.0436  MISS %:    9.95643  MPKI: 1.44054
L2C RFO DATA	ACCESS:     289767  HIT:     231724  MISS:      58043  HIT %:    79.9691  MISS %:    20.0309  MPKI: 1.16086
L2C PREFETCH DATA	ACCESS:     188722  HIT:     117729  MISS:      70993  HIT %:    62.3822  MISS %:    37.6178  MPKI: 1.41986
L2C WRITEBACK DATA	ACCESS:     522278  HIT:     505608  MISS:      16670  HIT %:    96.8082  MISS %:    3.19179  MPKI: 0.3334
L2C LOAD TRANSLATION DATA	ACCESS:       1846  HIT:        616  MISS:       1230  HIT %:    33.3694  MISS %:    66.6306  MPKI: 0.0246
L2C TRANSLATION FROM L1D PREFETCHER DATA	ACCESS:         53  HIT:         36  MISS:         17  HIT %:    67.9245  MISS %:    32.0755  MPKI: 0.00034

L2C PREFETCH  REQUESTED:      92004  ISSUED:      92004  USEFUL:       8266  USELESS:      63494
L2C USEFUL LOAD PREFETCHES:       8266 PREFETCH ISSUED TO LOWER LEVEL:      71542  ACCURACY: 11.5541
 TIMELY PREFETCHES:       8266 LATE PREFETCHES: 549 DROPPED PREFETCHES: 0
L2C AVERAGE MISS LATENCY: 38.0651 cycles
L2C RQ	ACCESS:    3776985	FORWARD:          0	MERGED:          0	TO_CACHE:    3776963
L2C WQ	ACCESS:     522278	FORWARD:         22	MERGED:          0	TO_CACHE:     522278
L2C PQ	ACCESS:     196165	FORWARD:          0	MERGED:       3579	TO_CACHE:     192586

L2C Dense regions hint from L2: 0
PSCL5 TOTAL     ACCESS:       4198  HIT:       2099  MISS:       2099  HIT %:         50  MISS %:         50   MPKI: 0.04198
PSCL5 LOAD TRANSLATION INSTRUCTION	ACCESS:       4092  HIT:       2046  MISS:       2046  HIT %:         50  MISS %:         50  MPKI: 0.04092
PSCL5 TRANSLATION FROM L1D PREFETCHER INSTRUCTION	ACCESS:        106  HIT:         53  MISS:         53  HIT %:         50  MISS %:         50  MPKI: 0.00106


PSCL4 TOTAL     ACCESS:       3976  HIT:       1984  MISS:       1992  HIT %:    49.8994  MISS %:    50.1006   MPKI: 0.03984
PSCL4 LOAD TRANSLATION INSTRUCTION	ACCESS:       3013  HIT:       1931  MISS:       1082  HIT %:    64.0889  MISS %:    35.9111  MPKI: 0.02164
PSCL4 TRANSLATION FROM L1D PREFETCHER INSTRUCTION	ACCESS:         85  HIT:         53  MISS:         32  HIT %:    62.3529  MISS %:    37.6471  MPKI: 0.00064
PSCL4 LOAD TRANSLATION DATA	ACCESS:        857  HIT:          0  MISS:        857  HIT %:          0  MISS %:        100  MPKI: 0.01714
PSCL4 TRANSLATION FROM L1D PREFETCHER DATA	ACCESS:         21  HIT:          0  MISS:         21  HIT %:          0  MISS %:        100  MPKI: 0.00042


PSCL3 TOTAL     ACCESS:       4028  HIT:       2010  MISS:       2018  HIT %:    49.9007  MISS %:    50.0993   MPKI: 0.04036
PSCL3 LOAD TRANSLATION INSTRUCTION	ACCESS:       3039  HIT:       1957  MISS:       1082  HIT %:    64.3962  MISS %:    35.6038  MPKI: 0.02164
PSCL3 TRANSLATION FROM L1D PREFETCHER INSTRUCTION	ACCESS:         85  HIT:         53  MISS:         32  HIT %:    62.3529  MISS %:    37.6471  MPKI: 0.00064
PSCL3 LOAD TRANSLATION DATA	ACCESS:        883  HIT:          0  MISS:        883  HIT %:          0  MISS %:        100  MPKI: 0.01766
PSCL3 TRANSLATION FROM L1D PREFETCHER DATA	ACCESS:         21  HIT:          0  MISS:         21  HIT %:          0  MISS %:        100  MPKI: 0.00042


PSCL2 TOTAL     ACCESS:       4094  HIT:       1995  MISS:       2099  HIT %:    48.7298  MISS %:    51.2702   MPKI: 0.04198
PSCL2 LOAD TRANSLATION INSTRUCTION	ACCESS:       2225  HIT:       1942  MISS:        283  HIT %:    87.2809  MISS %:    12.7191  MPKI: 0.00566
PSCL2 TRANSLATION FROM L1D PREFETCHER INSTRUCTION	ACCESS:         53  HIT:         53  MISS:          0  HIT %:        100  MISS %:          0  MPKI: 0
PSCL2 LOAD TRANSLATION DATA	ACCESS:       1763  HIT:          0  MISS:       1763  HIT %:          0  MISS %:        100  MPKI: 0.03526
PSCL2 TRANSLATION FROM L1D PREFETCHER DATA	ACCESS:         53  HIT:          0  MISS:         53  HIT %:          0  MISS %:        100  MPKI: 0.00106


LLC TOTAL     ACCESS:     586055  HIT:     556369  MISS:      29686  HIT %:    94.9346  MISS %:    5.06539   MPKI: 0.59372
LLC LOAD INSTRUCTION	ACCESS:     302858  HIT:     301994  MISS:        864  HIT %:    99.7147  MISS %:   0.285282  MPKI: 0.01728
LLC LOAD TRANSLATION INSTRUCTION	ACCESS:        229  HIT:        200  MISS:         29  HIT %:    87.3362  MISS %:    12.6638  MPKI: 0.00058
LLC LOAD DATA	ACCESS:      71483  HIT:      68026  MISS:       3457  HIT %:    95.1639  MISS %:    4.83611  MPKI: 0.06914
LLC RFO DATA	ACCESS:      58035  HIT:      42797  MISS:      15238  HIT %:    73.7434  MISS %:    26.2566  MPKI: 0.30476
LLC PREFETCH DATA	ACCESS:      71542  HIT:      61846  MISS:       9696  HIT %:    86.4471  MISS %:    13.5529  MPKI: 0.19392
LLC WRITEBACK DATA	ACCESS:      80661  HIT:      80338  MISS:        323  HIT %:    99.5996  MISS %:   0.400441  MPKI: 0.00646
LLC LOAD TRANSLATION DATA	ACCESS:       1230  HIT:       1152  MISS:         78  HIT %:    93.6585  MISS %:    6.34146  MPKI: 0.00156
LLC TRANSLATION FROM L1D PREFETCHER DATA	ACCESS:         17  HIT:         16  MISS:          1  HIT %:    94.1176  MISS %:    5.88235  MPKI: 2e-05

LLC AVERAGE MISS LATENCY: 157.149 cycles
LLC RQ	ACCESS:     433855	FORWARD:          0	MERGED:          0	TO_CACHE:     433852
LLC WQ	ACCESS:      80661	FORWARD:          3	MERGED:          0	TO_CACHE:      80661
LLC PQ	ACCESS:      71542	FORWARD:          0	MERGED:          0	TO_CACHE:      71542

LLC Dense regions hint to LLC: 0

RAW hits: 1220696
Loads Generated: 12638262
Loads sent to L1D: 11417566
Stores Generated: 6947792
Stores sent to L1D: 6947799
Major fault: 0 Minor fault: 2539
Allocated PAGES: 2539

stream: 
stream:times selected: 1192377
stream:pref_filled: 120270
stream:pref_useful: 24709
stream:pref_late: 6179
stream:misses: 7672
stream:misses_by_poll: 0

CS: 
CS:times selected: 181862
CS:pref_filled: 59955
CS:pref_useful: 36907
CS:pref_late: 7251
CS:misses: 17257
CS:misses_by_poll: 6

CPLX: 
CPLX:times selected: 1009356
CPLX:pref_filled: 21867
CPLX:pref_useful: 5003
CPLX:pref_late: 2850
CPLX:misses: 90913
CPLX:misses_by_poll: 1

NL_L1: 
NL:times selected: 20145
NL:pref_filled: 667
NL:pref_useful: 342
NL:pref_late: 335
NL:misses: 1550
NL:misses_by_poll: 0

total selections: 2403740
total_filled: 95815
total_useful: 36078
total_late: 17847
total_polluted: 7
total_misses_after_warmup: 763495
conflicts: 5977640

test: 118955

DRAM Statistics
 CHANNEL 0
 RQ ROW_BUFFER_HIT:      11107  ROW_BUFFER_MISS:      18249
 DBUS_CONGESTED:          6
 WQ ROW_BUFFER_HIT:       1383  ROW_BUFFER_MISS:      12787  FULL:          0

 AVG_CONGESTED_CYCLE: 7

CPU 0 Branch Prediction Accuracy: 99.8221% MPKI: 0.32538 Average ROB Occupancy at Mispredict: 75.76
Branch types
NOT_BRANCH: 40855852 81.7117%
BRANCH_DIRECT_JUMP: 548039 1.09608%
BRANCH_INDIRECT: 182828 0.365656%
BRANCH_CONDITIONAL: 6180747 12.3615%
BRANCH_DIRECT_CALL: 944384 1.88877%
BRANCH_INDIRECT_CALL: 171711 0.343422%
BRANCH_RETURN: 1116094 2.23219%
BRANCH_OTHER: 0 0%

DRAM PAGES: 1048576
Allocated PAGES: 2539
Average_ROB_Occupancy: 54.416
Average_Decode_Occupancy: 4.92338
Average_FTQ_Occupancy: 14.9485
Indirect max targets: 14 Average targets: 1.14527
Branch_type:  BRANCH_DIRECT_JUMP:  Count Percentage: 4.03058 4.76381 4.93336 3.0079 3.0643 6.01234 7.27986 66.9079 
Branch_type:  BRANCH_INDIRECT:  Count Percentage: 13.7446 0.811107 2.56882 0 0 17.7485 17.4903 47.6368 
Branch_type:  BRANCH_CONDITIONAL:  Count Percentage: 26.2716 1.94536 1.5405 6.25449 1.55418 5.1155 5.62218 51.6962 
Branch_type:  BRANCH_DIRECT_CALL:  Count Percentage: 0.8852 1.47926 1.16308 2.38365 2.50939 3.5207 6.16601 81.8927 
Branch_type:  BRANCH_INDIRECT_CALL:  Count Percentage: 9.52117 0 2.98393 6.41719 0 2.47631 5.1158 73.4856 
Branch_type:  BRANCH_RETURN:  Count Percentage: 10.4596 1.45935 1.49155 6.79355 1.66171 6.99995 6.53458 64.5997 
Branch_type:  BRANCH_DIRECT_JUMP:  Total Count: 44169 52204 54062 32962 33580 65886 79776 733207 
Branch_type:  BRANCH_INDIRECT:  Total Count: 50311 2969 9403 0 0 64967 64022 174371 
Branch_type:  BRANCH_CONDITIONAL:  Total Count: 3246774 240417 190382 772960 192073 632198 694816 6388865 
Branch_type:  BRANCH_DIRECT_CALL:  Total Count: 16692 27894 21932 44948 47319 66389 116271 1544231 
Branch_type:  BRANCH_INDIRECT_CALL:  Total Count: 32674 0 10240 22022 0 8498 17556 252182 
Branch_type:  BRANCH_RETURN:  Total Count: 233211 32538 33256 151471 37050 156073 145697 1440334 
Number of unique branch instructions: 9804
Upper 32 bits: 
aaaa
ffff
ffff0000
Unique upper 32 bits: 3
Unique upper 36 bits: 3
Unique upper 40 bits: 5
Unique upper 44 bits: 32
Unique upper 48 bits: 154
Variant_0 : 1377 0.336182
Variant_1 : 1265 0.308838
Variant_2 : 1369 0.334229
Variant_3 : 0 0
Offset_3 4030
Offset_4 244
Offset_5 449
Offset_6 498
Offset_7 571
Offset_8 508
Offset_9 463
Offset_10 374
Offset_11 301
Offset_12 269
Offset_13 203
Offset_14 227
Offset_15 184
Offset_16 220
Offset_17 145
Offset_18 118
Offset_19 234
Offset_20 136
Offset_21 235
Offset_22 392
Offset_23 241
Offset_24 331
Offset_25 88
Offset_47 82
Offset_64 1
decode_dispatch_called: 30350055 54.0491
Dispatch_width: 0 18239377 60.0967 32.4817
Dispatch_width: 1 2317643 7.63637 4.12739
Dispatch_width: 2 1120997 3.69356 1.99634
Dispatch_width: 3 1083675 3.57059 1.92987
Dispatch_width: 4 1035765 3.41273 1.84455
Dispatch_width: 5 1269658 4.18338 2.26108
Dispatch_width: 6 5282940 17.4067 9.40817
Empty_decode_cycles: 25802650 45.9509
ROB_full_cycles: 534896 0.952574
Starvation_cycles_per_kilo_instr: 503.349
Starvation_cycles_per_kilo_instr_3: 480.294
Starvation_cycles_per_kilo_instr_0: 435.071
Branch_type_1  (3,1)  (4,9)  (5,37)  (6,68)  (7,113)  (8,128)  (9,122)  (10,97)  (11,67)  (12,43)  (13,5)  (14,2)  (15,3)  (16,4)  (18,1)  (19,4)  (20,2)  (21,1)  (22,3)  (23,2)  (24,10)  (25,12) 
Branch_type_2  (3,1)  (5,1)  (8,3)  (9,3)  (12,1)  (13,1)  (14,1)  (16,3)  (17,2)  (20,2)  (21,2)  (23,5)  (24,1)  (47,38) 
Branch_type_3  (3,4028)  (4,235)  (5,407)  (6,415)  (7,429)  (8,316)  (9,255)  (10,151)  (11,120)  (12,50)  (13,4)  (64,1) 
Branch_type_4  (6,3)  (7,8)  (8,25)  (9,51)  (10,60)  (11,58)  (12,96)  (13,88)  (14,100)  (15,86)  (16,98)  (17,64)  (18,53)  (19,115)  (20,71)  (21,124)  (22,209)  (23,136)  (24,192)  (25,72) 
Branch_type_5  (8,2)  (9,1)  (10,3)  (11,5)  (12,3)  (13,14)  (14,16)  (15,11)  (16,20)  (17,11)  (18,16)  (19,12)  (20,10)  (21,13)  (22,42)  (23,26)  (24,37) 
Branch_type_6  (5,4)  (6,12)  (7,21)  (8,34)  (9,31)  (10,63)  (11,51)  (12,76)  (13,91)  (14,108)  (15,84)  (16,95)  (17,68)  (18,48)  (19,103)  (20,51)  (21,95)  (22,138)  (23,72)  (24,91)  (25,4)  (47,44) 
Unique trigger count: 
Variant_0_evicts_0 : 0
Variant_0_evicts_1 : 0
Variant_0_evicts_2 : 0
Variant_0_evicts_3 : 0
Variant_1_evicts_0 : 0
Variant_1_evicts_1 : 0
Variant_1_evicts_2 : 0
Variant_1_evicts_3 : 0
Variant_2_evicts_0 : 0
Variant_2_evicts_1 : 0
Variant_2_evicts_2 : 0
Variant_2_evicts_3 : 0
Variant_3_evicts_0 : 0
Variant_3_evicts_1 : 0
Variant_3_evicts_2 : 0
Variant_3_evicts_3 : 0
BTB PER SET UNIQUE ADDR: 9 11 8 9 12 10 6 9 9 7 6 12 8 9 13 8 12 11 8 14 11 10 10 11 6 14 12 13 9 7 14 14 12 10 7 9 8 9 9 10 10 7 11 14 7 11 10 7 7 11 10 9 10 11 11 6 8 10 9 10 8 14 13 12 8 7 9 11 8 10 9 10 11 8 8 8 10 11 8 14 11 5 13 13 13 14 12 5 6 15 9 6 13 8 8 15 7 11 9 8 17 12 14 10 8 10 9 12 5 8 9 16 12 6 7 6 7 10 7 10 13 7 9 7 11 12 6 12 16 12 10 12 7 9 9 16 8 14 12 12 9 10 11 8 12 13 14 7 7 12 14 13 8 11 9 14 11 12 10 12 13 10 18 13 9 12 11 10 11 7 15 14 11 12 10 10 9 11 10 12 8 8 10 8 12 14 6 8 10 9 12 13 10 9 13 13 9 14 9 16 11 14 9 7 9 11 10 12 11 8 8 11 11 13 12 10 12 5 12 16 9 18 7 6 10 8 16 9 7 19 8 3 5 15 9 11 12 10 8 10 10 11 13 8 6 13 7 9 9 11 12 9 12 11 10 8 10 11 7 8 12 5 4 11 10 7 8 8 8 10 9 11 7 5 7 7 11 13 9 7 8 10 9 8 8 6 10 10 10 12 9 11 12 14 5 18 9 9 10 16 9 7 12 13 13 14 9 7 9 8 10 12 6 14 10 6 20 8 9 16 7 11 7 9 12 10 13 9 9 8 10 13 6 9 8 11 9 11 5 18 12 10 7 11 8 8 9 10 11 8 6 11 13 11 11 16 6 9 11 8 10 15 11 11 11 7 7 14 12 11 5 8 13 8 9 11 12 9 13 14 11 7 8 7 7 13 13 12 14 9 16 7 7 13 7 7 11 4 11 11 8 8 10 12 16 12 6 10 7 13 9 7 8 13 9 12 12 15 10 13 7 11 11 8 11 10 10 8 5 6 13 11 10 11 9 15 15 6 7 11 11 11 7 9 18 9 7 8 11 14 10 10 12 11 10 15 16 11 6 15 7 9 10 13 12 6 9 9 13 15 13 10 11 10 9 11 10 17 6 11 17 12 11 12 7 13 15 15 15 8 9 8 7 11 9 10 11 15 7 13 8 10 9 15 7 8 8 14 12 11 13 14 13 8 8 10 9 14 7 8 8 12 9 9 12 17 11 6 8 10 14 10 14 9 7 9 7 13 12 13 11 9 13 13 16 14 11 10 12 10 13 13 16 9 8 13 11 15 20 12 12 11 10 11 9 9 11 15 10 15 12 8 13 13 11 13 7 15 11 9 9 11 10 10 13 8 10 6 15 11 8 14 8 9 12 5 6 15 11 10 10 6 6 6 11 10 11 11 11 8 7 13 7 11 3 16 8 10 10 9 16 8 7 7 13 11 7 14 8 12 12 13 10 6 8 12 11 11 8 13 6 11 14 12 10 11 10 10 11 8 8 13 10 12 12 10 10 12 10 14 8 6 14 10 9 11 6 10 10 7 17 7 13 12 16 4 11 17 7 11 7 12 9 7 13 11 7 16 11 8 11 12 11 8 9 9 9 10 6 16 9 10 11 12 5 10 11 12 7 6 10 13 8 6 10 7 15 10 8 10 11 8 10 9 13 7 13 10 6 8 9 11 13 6 12 12 13 11 15 9 10 8 10 9 12 14 10 10 9 3 7 7 8 13 10 12 11 6 8 5 5 5 9 13 7 7 7 11 8 9 10 11 10 6 12 6 9 12 14 10 7 14 12 9 14 9 8 6 8 7 9 7 13 11 15 13 11 10 16 10 12 9 15 12 14 13 10 11 7 10 11 19 11 13 11 11 16 10 6 13 11 16 8 14 12 8 5 9 9 7 10 9 13 8 11 11 9 11 11 8 14 12 11 9 9 15 8 15 10 9 9 10 10 9 14 14 11 10 15 14 12 11 9 8 12 6 13 7 16 9 9 14 15 11 13 4 9 9 8 12 9 8 8 15 7 11 17 8 11 12 15 10 10 10 7 11 18 12 12 7 13 10 12 10 6 14 9 10 11 13 9 12 10 16 12 12 10 10 9 8 12 11 9 9 8 9 8 13 12 6 14 16 16 11 9 9 10 10 15 13 10 16 11 9 13 12 13 12 8 11 11 13 12 6 12 10 7 8 13 12 8 8 10 10 11 9 12 10 7 11 11 12 11 7 12 11 11 16 9 11 8 10 16 11 7 18 13 11 12 8 8 11 7 12 11 9 5 7 12 14 16 15 11 10 12 13 8 9 7 12 5 13 12 7 10 7 6 11 4 11 6 14 9 5 
BTB PER SET COUNT: 1000 14 1473 11 13 17 6 10 1473 7 6 15 8 1474 16 8 816 2140 9 17 13 10 772 66 14 16 20 523 9 8 17 1434 15 17 9 9 8 10 10 625 10 9 12 1406 9 14 17 10 11 498 14 13 13 18 14 7 9 14 338 15 9 25 18 16 13 7 11 15 8 10 13 995 11 9 11 13 16 15 11 20 15 5 525 17 16 1530 18 5 7 24 10 6 19 77 9 15 771 979 9 8 24 535 17 502 1953 15 18 13 13 2911 14 20 276 7 10 8 7 14 1336 345 54 7 10 9 13 67 6 289 18 974 19 13 8 15 9 26 13 18 14 14 12 15 22 9 14 13 235 8 12 240 29 166 8 14 10 18 21 13 11 2448 26 459 26 23 11 985 13 12 11 362 23 15 15 14 13 672 10 13 321 834 1007 8 997 10 178 16 6 8 11 391 13 14 10 10 16 107 12 700 9 17 11 19 970 7 12 12 13 464 14 30 8 11 16 18 18 638 15 5 14 23 15 26 9 8 14 24 23 11 13 23 11 3 5 16 326 17 14 19 8 13 682 15 15 12 6 16 7 11 9 15 12 14 12 15 10 10 10 21 8 11 160 6 4 17 13 10 8 9 1103 11 11 472 8 5 8 7 18 16 9 8 8 15 980 15 8 10 12 12 14 15 9 17 15 20 6 25 10 12 12 1003 9 9 490 17 20 19 12 11 12 12 10 19 6 17 1476 49 25 14 18 25 8 6344 9 14 1262 165 272 12 12 8 10 15 12 18 9 12 12 803 5 327 16 337 8 16 16 11 9 13 14 130 6 469 13 15 12 16 7 13 118 8 11 23 11 15 11 8 7 19 13 13 6 35 15 9 830 18 19 15 23 1483 288 7 8 7 9 17 1651 17 18 454 25 7 8 867 8 9 12 4 29 1466 10 12 11 14 21 15 8 13 9 26 10 9 11 21 9 17 24 9037 11 21 13 29 17 10 14 10 13 8 5 10 16 18 11 17 19 21 18 6 7 12 14 13 38 11 22 12 7 8 15 22 153 11 14 11 510 32 23 12 6 32 8 12 12 15 14 6 15552 10 27 20 18 17 13 11 16 54 11 25 6 17 22 158 12 14 856 17 91 25 16 12 18 8 8010 14 11 12 14 18 8 18 8 11 9 26 12 9 10 27 14 22 20 511 16 999 13 16 9 26 13 545 8 17 9 480 15 30 11 11 13 372 21 11 262 9 11 13 7 257 19 153 11 13 15 13 31 19 14 14 13 184 18 18 918 18 12 15 13 16 35 17 15 59 12 18 10 11 122 19 10 234 1260 8 17 18 2438 18 7 839 14 9 13 17 19 15 21 10 46 7 26 12 10 127 10 11 18 7 6 373 14 10 10 6 7 6 19 12 15 1010 13 11 10 23 10 12 4 16 370 11 673 9 23 9 10 997 13 18 7 18 10 16 13 14 76 6 11 18 16 939 8 14 7 11 19 12 12 22 83 11 25 8 8 14 16 14 14 508 15 16 10 722 16 6 19 16 11474 12 7 977 1472 15 24 7 30 19 88 4 14 24 10 17 7 14 669 7 15 23 7 28 14 13 11 13 14 10 154 12 10 567 7 18 972 19 1264 15 5 47 14 19 8 8 362 342 1012 6 12 7 272 14 11 432 11 36 12 23 962 7 16 15 7 12 19 16 19 7 12 13 1006 14 44 11 15 9 12 9 73 21 506 13 12 3 1470 9 222 1090 1150 17 13 6 9 6 6 6 10 18 2973 7 7 2902 9 9 62 13 11 8 18 6 12 536 15 10 658 17 131 11 15 9 12 6 9 7 12 10 17 20 827 23 106 17 20 271 62 12 62 256 18 13 16 12 9 50 13 24 19 19 15 867 932 1508 8 1339 15 780 10 27 20 32 7 11 12 9 12 14 18 10 150 1803 9 17 151 8 25 16 14 12 10 22 15 18 14 14 13 623 18 11 1481 23 17 14 20 20 926 13 983 8 17 7 14 7 23 12 9 21 21 12 14 4 9 9 8 15 14 10 158 16 8 509 17 10 11 20 21 1000 11 22 7 15 21 15 21 11 19 12 14 311 7 15 9 14 23 20 12 327 11 24 15 21 916 12 12 12 17 1001 10 9 9 9 8 16 19 6 25 20 200 15 11 13 11 15 90 21 10 1315 14 12 19 12 58 14 14 19 17 545 1478 1012 13 14 7 11 15 18 9 8 25 13 18 11 24 16 11 14 13 1002 16 14 12 19 15 21 13 281 470 679 1725 988 8 993 13 124 19 975 10 647 11 19 12 10 5 1471 34 18 25 1487 11 12 15 18 10 14 14 15 5 467 12 9 11 9 8 339 5 13 6 21 13 5 
To predecode: 0
Predecoding something: 0
Predecode request dropped: 0
sizeofblock_0 0
sizeofblock_1 41623
sizeofblock_2 35666
sizeofblock_3 39624
sizeofblock_4 16863
sizeofblock_5 0
sizeofblock_6 0
sizeofblock_7 0
sizeofblock_8 0
Variant_0 Correct: 1610368 Incorrect: 0 Accuracy: 1
Variant_1 Correct: 2087787 Incorrect: 0 Accuracy: 1
Variant_2 Correct: 3636845 Incorrect: 0 Accuracy: 1
Variant_3 Correct: 0 Incorrect: 0 Accuracy: -nan
