
*** ChampSim Multicore Out-of-Order Simulator ***

Warmup Instructions: 50000000
Simulation Instructions: 50000000
Number of CPUs: 1
LLC sets: 2048
LLC ways: 16
Off-chip DRAM Size: 4096 MB Channels: 1 Width: 64-bit Data Rate: 6400 MT/s
CPU 0 runs ./micro_traces/srv518.trace.gz
.gz
ITLB has LRU replacement policy
DTLB has LRU replacement policy
STLB has LRU replacement policy
SN4L + DIS + BTB Prefetcher for L1I CPU 0
srv518.cond
L1I has LRU replacement policy
L1D has LRU replacement policy
Initialize SRRIP state for L2C
Initialize DRRIP state for LLC
Heartbeat CPU 0 instructions: 10000002 cycles: 2800943 heartbeat IPC: 3.57023 cumulative IPC: 3.57023 (Simulation time: 0 hr 1 min 43 sec) 
Heartbeat CPU 0 instructions: 20000001 cycles: 5599988 heartbeat IPC: 3.57265 cumulative IPC: 3.57144 (Simulation time: 0 hr 3 min 23 sec) 
Heartbeat CPU 0 instructions: 30000000 cycles: 8397283 heartbeat IPC: 3.57488 cumulative IPC: 3.57258 (Simulation time: 0 hr 5 min 5 sec) 
Heartbeat CPU 0 instructions: 40000001 cycles: 11195097 heartbeat IPC: 3.57422 cumulative IPC: 3.57299 (Simulation time: 0 hr 6 min 49 sec) 
Heartbeat CPU 0 instructions: 50000000 cycles: 13992999 heartbeat IPC: 3.57411 cumulative IPC: 3.57322 (Simulation time: 0 hr 8 min 33 sec) 

Warmup complete CPU 0 instructions: 50000004 cycles: 13993000 (Simulation time: 0 hr 8 min 33 sec) 

Cycle: 20000000 FTQ IN: 57171892 FTQ occupancy: 18.3561 DECODE IN: 57171889 DECODE occupancy: 47.1354 ROB IN: 57171889 ROB occupancy: 287.6 ROB OUT: 57171809
Heartbeat CPU 0 instructions: 60000002 cycles: 22468629 heartbeat IPC: 1.17985 cumulative IPC: 1.17985 (Simulation time: 0 hr 10 min 8 sec) 
Cycle: 30000000 FTQ IN: 11796540 FTQ occupancy: 7.7377 DECODE IN: 11796521 DECODE occupancy: 17.5435 ROB IN: 11796521 ROB occupancy: 146.885 ROB OUT: 11796522
Heartbeat CPU 0 instructions: 70000000 cycles: 30863096 heartbeat IPC: 1.19126 cumulative IPC: 1.18553 (Simulation time: 0 hr 11 min 42 sec) 
Heartbeat CPU 0 instructions: 80000002 cycles: 39297500 heartbeat IPC: 1.18562 cumulative IPC: 1.18556 (Simulation time: 0 hr 13 min 14 sec) 
Cycle: 40000000 FTQ IN: 11844689 FTQ occupancy: 7.79173 DECODE IN: 11844711 DECODE occupancy: 17.739 ROB IN: 11844711 ROB occupancy: 151.037 ROB OUT: 11844772
Heartbeat CPU 0 instructions: 90000002 cycles: 47693425 heartbeat IPC: 1.19105 cumulative IPC: 1.18693 (Simulation time: 0 hr 14 min 43 sec) 
Cycle: 50000000 FTQ IN: 11982873 FTQ occupancy: 7.66315 DECODE IN: 11982848 DECODE occupancy: 17.5013 ROB IN: 11982797 ROB occupancy: 149.693 ROB OUT: 11982716
Heartbeat CPU 0 instructions: 100000001 cycles: 56030285 heartbeat IPC: 1.19949 cumulative IPC: 1.18942 (Simulation time: 0 hr 16 min 19 sec) 
Finished CPU 0 instructions: 50000001 cycles: 42037286 cumulative IPC: 1.18942 (Simulation time: 0 hr 16 min 19 sec) 

ChampSim completed all CPUs

Region of Interest Statistics

CPU 0 cumulative IPC: 1.18942 instructions: 50000001 cycles: 42037286
 Fetch stage stalled: 67.7018  Sim cycles: 42037286 fetch stall cycle: 28460007
 Empty decode stage: 56.3978  Sim cycles: 42037286 fetch stall cycle: 23708122
ITLB TOTAL     ACCESS:    8109933  HIT:    7561847  MISS:     548086  HIT %:    93.2418  MISS %:    6.75821   MPKI: 10.9617
ITLB LOAD TRANSLATION INSTRUCTION	ACCESS:    5524248  HIT:    5051133  MISS:     473115  HIT %:    91.4357  MISS %:    8.56433  MPKI: 9.4623
ITLB TRANSLATION FROM L1D PREFETCHER INSTRUCTION	ACCESS:    2585685  HIT:    2510714  MISS:      74971  HIT %:    97.1005  MISS %:    2.89946  MPKI: 1.49942

ITLB AVERAGE MISS LATENCY: 520218 cycles
ITLB RQ	ACCESS:   11225742	FORWARD:          0	MERGED:    2622296	TO_CACHE:    8603446

DTLB TOTAL     ACCESS:    9203778  HIT:    8733868  MISS:     469910  HIT %:    94.8944  MISS %:    5.10562   MPKI: 9.3982
DTLB LOAD TRANSLATION DATA	ACCESS:    9203778  HIT:    8733868  MISS:     469910  HIT %:    94.8944  MISS %:    5.10562  MPKI: 9.3982

DTLB AVERAGE MISS LATENCY: 9.3165 cycles
DTLB RQ	ACCESS:   13513715	FORWARD:          0	MERGED:    4275788	TO_CACHE:    9237927

STLB TOTAL     ACCESS:    1268998  HIT:    1267094  MISS:       1904  HIT %:      99.85  MISS %:    0.15004   MPKI: 0.03808
STLB LOAD TRANSLATION INSTRUCTION	ACCESS:     464987  HIT:     464805  MISS:        182  HIT %:    99.9609  MISS %:  0.0391409  MPKI: 0.00364
STLB TRANSLATION FROM L1D PREFETCHER INSTRUCTION	ACCESS:      83099  HIT:      83086  MISS:         13  HIT %:    99.9844  MISS %:   0.015644  MPKI: 0.00026
STLB LOAD TRANSLATION DATA	ACCESS:     469751  HIT:     468052  MISS:       1699  HIT %:    99.6383  MISS %:   0.361681  MPKI: 0.03398
STLB TRANSLATION FROM L1D PREFETCHER DATA	ACCESS:     251161  HIT:     251151  MISS:         10  HIT %:     99.996  MISS %: 0.00398151  MPKI: 0.0002

STLB AVERAGE MISS LATENCY: 73.2337 cycles
STLB RQ	ACCESS:    1402198	FORWARD:          0	MERGED:     118871	TO_CACHE:    1283327

STLB Hit, L1D data hit: 0
STLB Hit, L2C data hit: 0
STLB Hit, LLC data hit: 0
STLB Hit, LLC data miss: 0
STLB STLB hints to L2: 0
L1D TOTAL     ACCESS:   13259205  HIT:   12152307  MISS:    1106898  HIT %:    91.6519  MISS %:    8.34815   MPKI: 22.138
L1D LOAD DATA	ACCESS:    6716715  HIT:    5987820  MISS:     728895  HIT %:     89.148  MISS %:     10.852  MPKI: 14.5779
L1D RFO DATA	ACCESS:    6212965  HIT:    5927999  MISS:     284966  HIT %:    95.4134  MISS %:    4.58663  MPKI: 5.69932
L1D PREFETCH DATA	ACCESS:     329525  HIT:     236488  MISS:      93037  HIT %:    71.7663  MISS %:    28.2337  MPKI: 1.86074

L1D PREFETCH  REQUESTED:     740172  ISSUED:     740172  USEFUL:      33222  USELESS:      68003
L1D USEFUL LOAD PREFETCHES:      33222 PREFETCH ISSUED TO LOWER LEVEL:     101266  ACCURACY: 32.8067
 TIMELY PREFETCHES:      33222 LATE PREFETCHES: 8190 DROPPED PREFETCHES: 4
L1D AVERAGE MISS LATENCY: 256133 cycles
L1D RQ	ACCESS:   10827566	FORWARD:          0	MERGED:    3911887	TO_CACHE:    6753630
L1D WQ	ACCESS:    6939555	FORWARD:     162401	MERGED:     179470	TO_CACHE:    6760085
L1D PQ	ACCESS:     370262	FORWARD:          0	MERGED:          0	TO_CACHE:     369910

L1D UNIQUE REGIONS ACCESSED: 0
L1D REGIONS CONFLICTS: 0
L1D Cross Page Prefetch Requests: 5499
L1D Same Page Prefetch Requests: 753828
L1D ROI Sum of L1D PQ occupancy: 4706730
L1D PREFETCHES PUSHED FROM L2C: 0
L1I TOTAL     ACCESS:   10662447  HIT:    7079741  MISS:    3582706  HIT %:    66.3988  MISS %:    33.6012   MPKI: 71.6541
L1I LOAD INSTRUCTION	ACCESS:    6474543  HIT:    4141633  MISS:    2332910  HIT %:     63.968  MISS %:     36.032  MPKI: 46.6582
L1I PREFETCH INSTRUCTION	ACCESS:    4187904  HIT:    2938108  MISS:    1249796  HIT %:     70.157  MISS %:     29.843  MPKI: 24.9959

L1I PREFETCH  REQUESTED:    4831430  ISSUED:    4831430  USEFUL:     595935  USELESS:     744496
L1I USEFUL LOAD PREFETCHES:     595935 PREFETCH ISSUED TO LOWER LEVEL:    1340347  ACCURACY: 44.4612
 TIMELY PREFETCHES:     595935 LATE PREFETCHES: 90551 DROPPED PREFETCHES: 32884
L1I AVERAGE MISS LATENCY: 885368 cycles
L1I RQ	ACCESS:    9469088	FORWARD:          0	MERGED:    2819944	TO_CACHE:    6649144
L1I PQ	ACCESS:    4831430	FORWARD:          0	MERGED:     254832	TO_CACHE:    4576598

L1BTB TOTAL     ACCESS:    5672198  HIT:    2054088  MISS:    3618110  HIT %:    36.2133  MISS %:    63.7867   MPKI: 72.3622
L1BTB BRANCH_DIRECT_JUMP	ACCESS:     550040  HIT:     145861  MISS:     404179	AVERAGE STALL: 35.6392
L1BTB BRANCH_INDIRECT	ACCESS:     183638  HIT:      66484  MISS:     117154	AVERAGE STALL: 90.9102
L1BTB BRANCH_CONDITIONAL	ACCESS:    2717454  HIT:    1426663  MISS:    1290791	AVERAGE STALL: 38.0011
L1BTB BRANCH_DIRECT_CALL	ACCESS:     939770  HIT:     105163  MISS:     834607	AVERAGE STALL: 41.7444
L1BTB BRANCH_INDIRECT_CALL	ACCESS:     170781  HIT:      20761  MISS:     150020	AVERAGE STALL: 116.662
L1BTB BRANCH_RETURN	ACCESS:    1110515  HIT:     289156  MISS:     821359	AVERAGE STALL: 38.3944
L1BTB BRANCH_OTHER ACCESS:          0  HIT:          0  MISS:          0	AVERAGE STALL: -nan
L1BTB TOTAL ROB OCCUPANCY AT BTB MISS: 14.6357

L2BTB TOTAL     ACCESS:    3592585  HIT:    3166572  MISS:     426013  HIT %:    88.1419  MISS %:    11.8581   MPKI: 8.52026
L2BTB BRANCH_DIRECT_JUMP	ACCESS:     399944  HIT:     353739  MISS:      46205	AVERAGE STALL: 35.6392
L2BTB BRANCH_INDIRECT	ACCESS:     106898  HIT:     101592  MISS:       5306	AVERAGE STALL: 90.9102
L2BTB BRANCH_CONDITIONAL	ACCESS:    1290791  HIT:    1151247  MISS:     139544	AVERAGE STALL: 38.0011
L2BTB BRANCH_DIRECT_CALL	ACCESS:     834607  HIT:     721863  MISS:     112744	AVERAGE STALL: 41.7444
L2BTB BRANCH_INDIRECT_CALL	ACCESS:     140390  HIT:     118757  MISS:      21633	AVERAGE STALL: 116.662
L2BTB BRANCH_RETURN	ACCESS:     819955  HIT:     719374  MISS:     100581	AVERAGE STALL: 38.3944
L2BTB BRANCH_OTHER ACCESS:          0  HIT:          0  MISS:          0	AVERAGE STALL: -nan
L2BTB TOTAL ROB OCCUPANCY AT BTB MISS: 124.3

L2C TOTAL     ACCESS:    6083850  HIT:    5084638  MISS:     999212  HIT %:     83.576  MISS %:     16.424   MPKI: 19.9842
L2C LOAD INSTRUCTION	ACCESS:    2242359  HIT:    1926624  MISS:     315735  HIT %:    85.9195  MISS %:    14.0805  MPKI: 6.3147
L2C PREFETCH INSTRUCTION	ACCESS:    1340347  HIT:    1125411  MISS:     214936  HIT %:    83.9642  MISS %:    16.0358  MPKI: 4.29872
L2C LOAD TRANSLATION INSTRUCTION	ACCESS:        200  HIT:         62  MISS:        138  HIT %:         31  MISS %:         69  MPKI: 0.00276
L2C TRANSLATION FROM L1D PREFETCHER INSTRUCTION	ACCESS:      20873  HIT:      19573  MISS:       1300  HIT %:    93.7719  MISS %:    6.22814  MPKI: 0.026
L2C LOAD DATA	ACCESS:     720686  HIT:     593756  MISS:     126930  HIT %:    82.3876  MISS %:    17.6124  MPKI: 2.5386
L2C RFO DATA	ACCESS:     284908  HIT:     202962  MISS:      81946  HIT %:    71.2377  MISS %:    28.7623  MPKI: 1.63892
L2C PREFETCH DATA	ACCESS:     955436  HIT:     731806  MISS:     223630  HIT %:    76.5939  MISS %:    23.4061  MPKI: 4.4726
L2C WRITEBACK DATA	ACCESS:     517287  HIT:     484102  MISS:      33185  HIT %:    93.5848  MISS %:     6.4152  MPKI: 0.6637
L2C LOAD TRANSLATION DATA	ACCESS:       1732  HIT:        327  MISS:       1405  HIT %:    18.8799  MISS %:    81.1201  MPKI: 0.0281
L2C TRANSLATION FROM L1D PREFETCHER DATA	ACCESS:         22  HIT:         15  MISS:          7  HIT %:    68.1818  MISS %:    31.8182  MPKI: 0.00014

L2C PREFETCH  REQUESTED:    1389860  ISSUED:    1389860  USEFUL:      33132  USELESS:     408909
L2C USEFUL LOAD PREFETCHES:      33132 PREFETCH ISSUED TO LOWER LEVEL:     440393  ACCURACY: 7.52328
 TIMELY PREFETCHES:      33132 LATE PREFETCHES: 1827 DROPPED PREFETCHES: 0
L2C AVERAGE MISS LATENCY: 33.5751 cycles
L2C RQ	ACCESS:    3270818	FORWARD:          0	MERGED:          0	TO_CACHE:    3270780
L2C WQ	ACCESS:     517287	FORWARD:         38	MERGED:          0	TO_CACHE:     517287
L2C PQ	ACCESS:    2831473	FORWARD:          0	MERGED:     516192	TO_CACHE:    2315281

L2C Dense regions hint from L2: 0
PSCL5 TOTAL     ACCESS:      32404  HIT:      16202  MISS:      16202  HIT %:         50  MISS %:         50   MPKI: 0.32404
PSCL5 LOAD TRANSLATION INSTRUCTION	ACCESS:       3750  HIT:       1875  MISS:       1875  HIT %:         50  MISS %:         50  MPKI: 0.0375
PSCL5 TRANSLATION FROM L1D PREFETCHER INSTRUCTION	ACCESS:      28654  HIT:      14327  MISS:      14327  HIT %:         50  MISS %:         50  MPKI: 0.28654


PSCL4 TOTAL     ACCESS:      32373  HIT:      16186  MISS:      16187  HIT %:    49.9985  MISS %:    50.0015   MPKI: 0.32374
PSCL4 LOAD TRANSLATION INSTRUCTION	ACCESS:       1859  HIT:       1859  MISS:          0  HIT %:        100  MISS %:          0  MPKI: 0
PSCL4 TRANSLATION FROM L1D PREFETCHER INSTRUCTION	ACCESS:      14327  HIT:      14327  MISS:          0  HIT %:        100  MISS %:          0  MPKI: 0
PSCL4 LOAD TRANSLATION DATA	ACCESS:       1860  HIT:          0  MISS:       1860  HIT %:          0  MISS %:        100  MPKI: 0.0372
PSCL4 TRANSLATION FROM L1D PREFETCHER DATA	ACCESS:      14327  HIT:          0  MISS:      14327  HIT %:          0  MISS %:        100  MPKI: 0.28654


PSCL3 TOTAL     ACCESS:      32375  HIT:      16187  MISS:      16188  HIT %:    49.9985  MISS %:    50.0015   MPKI: 0.32376
PSCL3 LOAD TRANSLATION INSTRUCTION	ACCESS:       1860  HIT:       1860  MISS:          0  HIT %:        100  MISS %:          0  MPKI: 0
PSCL3 TRANSLATION FROM L1D PREFETCHER INSTRUCTION	ACCESS:      14327  HIT:      14327  MISS:          0  HIT %:        100  MISS %:          0  MPKI: 0
PSCL3 LOAD TRANSLATION DATA	ACCESS:       1861  HIT:          0  MISS:       1861  HIT %:          0  MISS %:        100  MPKI: 0.03722
PSCL3 TRANSLATION FROM L1D PREFETCHER DATA	ACCESS:      14327  HIT:          0  MISS:      14327  HIT %:          0  MISS %:        100  MPKI: 0.28654


PSCL2 TOTAL     ACCESS:      19213  HIT:       9579  MISS:       9634  HIT %:    49.8569  MISS %:    50.1431   MPKI: 0.19268
PSCL2 LOAD TRANSLATION INSTRUCTION	ACCESS:       2003  HIT:       1820  MISS:        183  HIT %:    90.8637  MISS %:     9.1363  MPKI: 0.00366
PSCL2 TRANSLATION FROM L1D PREFETCHER INSTRUCTION	ACCESS:      15496  HIT:       7759  MISS:       7737  HIT %:     50.071  MISS %:     49.929  MPKI: 0.15474
PSCL2 LOAD TRANSLATION DATA	ACCESS:       1692  HIT:          0  MISS:       1692  HIT %:          0  MISS %:        100  MPKI: 0.03384
PSCL2 TRANSLATION FROM L1D PREFETCHER DATA	ACCESS:         22  HIT:          0  MISS:         22  HIT %:          0  MISS %:        100  MPKI: 0.00044


LLC TOTAL     ACCESS:    1088813  HIT:    1060323  MISS:      28490  HIT %:    97.3834  MISS %:    2.61661   MPKI: 0.5698
LLC LOAD INSTRUCTION	ACCESS:     314893  HIT:     314422  MISS:        471  HIT %:    99.8504  MISS %:   0.149575  MPKI: 0.00942
LLC PREFETCH INSTRUCTION	ACCESS:     206256  HIT:     205968  MISS:        288  HIT %:    99.8604  MISS %:   0.139632  MPKI: 0.00576
LLC LOAD TRANSLATION INSTRUCTION	ACCESS:        138  HIT:        108  MISS:         30  HIT %:    78.2609  MISS %:    21.7391  MPKI: 0.0006
LLC TRANSLATION FROM L1D PREFETCHER INSTRUCTION	ACCESS:       1300  HIT:       1294  MISS:          6  HIT %:    99.5385  MISS %:   0.461538  MPKI: 0.00012
LLC LOAD DATA	ACCESS:     125993  HIT:     122506  MISS:       3487  HIT %:    97.2324  MISS %:    2.76761  MPKI: 0.06974
LLC RFO DATA	ACCESS:      81887  HIT:      68457  MISS:      13430  HIT %:    83.5994  MISS %:    16.4006  MPKI: 0.2686
LLC PREFETCH DATA	ACCESS:     234137  HIT:     223689  MISS:      10448  HIT %:    95.5377  MISS %:    4.46234  MPKI: 0.20896
LLC WRITEBACK DATA	ACCESS:     122797  HIT:     122547  MISS:        250  HIT %:    99.7964  MISS %:   0.203588  MPKI: 0.005
LLC LOAD TRANSLATION DATA	ACCESS:       1405  HIT:       1325  MISS:         80  HIT %:     94.306  MISS %:    5.69395  MPKI: 0.0016
LLC TRANSLATION FROM L1D PREFETCHER DATA	ACCESS:          7  HIT:          7  MISS:          0  HIT %:        100  MISS %:          0  MPKI: 0

LLC AVERAGE MISS LATENCY: 159.208 cycles
LLC RQ	ACCESS:     525634	FORWARD:          0	MERGED:          0	TO_CACHE:     525623
LLC WQ	ACCESS:     122797	FORWARD:         11	MERGED:          0	TO_CACHE:     122797
LLC PQ	ACCESS:     440393	FORWARD:          0	MERGED:          0	TO_CACHE:     440393

LLC Dense regions hint to LLC: 0

RAW hits: 1807258
Loads Generated: 12634824
Loads sent to L1D: 10827566
Stores Generated: 6939544
Stores sent to L1D: 6939555
Major fault: 0 Minor fault: 2500
Allocated PAGES: 2500
CPU 0 L1I prefetcher final stats
USEFUL PREFETCHES 1280809
USELESS PREFETCHES 1640324
MISSES TRACKED 2245256
MISSES OMITTED 2443478
2245256 2272435 4656821BRANCHES PENDING
22889861/32583834
To predecode: 9262248 predecoding_something: 306330063

stream: 
stream:times selected: 1200038
stream:pref_filled: 119562
stream:pref_useful: 22498
stream:pref_late: 8322
stream:misses: 8257
stream:misses_by_poll: 0

CS: 
CS:times selected: 180382
CS:pref_filled: 53903
CS:pref_useful: 30824
CS:pref_late: 11328
CS:misses: 20434
CS:misses_by_poll: 1

CPLX: 
CPLX:times selected: 1018396
CPLX:pref_filled: 18943
CPLX:pref_useful: 3870
CPLX:pref_late: 3613
CPLX:misses: 93900
CPLX:misses_by_poll: 1

NL_L1: 
NL:times selected: 14767
NL:pref_filled: 427
NL:pref_useful: 152
NL:pref_late: 367
NL:misses: 1124
NL:misses_by_poll: 0

total selections: 2413583
total_filled: 93037
total_useful: 33222
total_late: 25009
total_polluted: 2
total_misses_after_warmup: 765811
conflicts: 5586888

test: 117508

DRAM Statistics
 CHANNEL 0
 RQ ROW_BUFFER_HIT:      10030  ROW_BUFFER_MISS:      18203
 DBUS_CONGESTED:          9
 WQ ROW_BUFFER_HIT:       1463  ROW_BUFFER_MISS:      12869  FULL:          0

 AVG_CONGESTED_CYCLE: 6

CPU 0 Branch Prediction Accuracy: 99.8245% MPKI: 0.321 Average ROB Occupancy at Mispredict: 155.944
Branch types
NOT_BRANCH: 40856446 81.7129%
BRANCH_DIRECT_JUMP: 550040 1.10008%
BRANCH_INDIRECT: 183638 0.367276%
BRANCH_CONDITIONAL: 6188335 12.3767%
BRANCH_DIRECT_CALL: 939770 1.87954%
BRANCH_INDIRECT_CALL: 170781 0.341562%
BRANCH_RETURN: 1110515 2.22103%
BRANCH_OTHER: 0 0%

DRAM PAGES: 1048576
Allocated PAGES: 2500
Average_ROB_Occupancy: 149.566
Average_Decode_Occupancy: 17.5187
Average_FTQ_Occupancy: 7.70084
Indirect max targets: 14 Average targets: 1.14527
Branch_type:  BRANCH_DIRECT_JUMP:  Count Percentage: 3.83254 5.22747 4.46891 7.21447 2.9599 6.01204 1.52967 68.755 
Branch_type:  BRANCH_INDIRECT:  Count Percentage: 6.15595 3.45596 8.18332 9.69391 3.33391 2.79888 3.05958 63.3185 
Branch_type:  BRANCH_CONDITIONAL:  Count Percentage: 26.3254 2.09831 1.5393 3.86457 2.04745 3.99283 1.24759 58.8845 
Branch_type:  BRANCH_DIRECT_CALL:  Count Percentage: 0.391287 1.2672 0.768944 2.87009 3.03196 2.63375 1.24132 87.7955 
Branch_type:  BRANCH_INDIRECT_CALL:  Count Percentage: 9.55481 0 2.99431 0 0 1.71091 3.28859 82.4514 
Branch_type:  BRANCH_RETURN:  Count Percentage: 7.91486 1.39208 1.04642 4.08364 3.64945 4.32702 1.57551 76.011 
Branch_type:  BRANCH_DIRECT_JUMP:  Total Count: 42127 57460 49122 79301 32535 66084 16814 755751 
Branch_type:  BRANCH_INDIRECT:  Total Count: 22597 12686 30039 35584 12238 10274 11231 232427 
Branch_type:  BRANCH_CONDITIONAL:  Total Count: 3256597 259572 190420 478068 253281 493935 154334 7284329 
Branch_type:  BRANCH_DIRECT_CALL:  Total Count: 7349 23800 14442 53905 56945 49466 23314 1648940 
Branch_type:  BRANCH_INDIRECT_CALL:  Total Count: 32631 0 10226 0 0 5843 11231 281583 
Branch_type:  BRANCH_RETURN:  Total Count: 175743 30910 23235 90674 81033 96078 34983 1687763 
Number of unique branch instructions: 9803
Upper 32 bits: 
aaaa
ffff
ffff0000
Unique upper 32 bits: 3
Unique upper 36 bits: 3
Unique upper 40 bits: 5
Unique upper 44 bits: 32
Unique upper 48 bits: 154
Offset_3 4033
Offset_4 245
Offset_5 448
Offset_6 499
Offset_7 572
Offset_8 504
Offset_9 464
Offset_10 376
Offset_11 300
Offset_12 269
Offset_13 203
Offset_14 225
Offset_15 184
Offset_16 220
Offset_17 143
Offset_18 118
Offset_19 234
Offset_20 137
Offset_21 235
Offset_22 389
Offset_23 241
Offset_24 331
Offset_25 88
Offset_47 82
decode_dispatch_called: 20747957 49.3561
Dispatch_width: 0 10460854 50.4187 24.8847
Dispatch_width: 1 591138 2.84914 1.40622
Dispatch_width: 2 693618 3.34307 1.65001
Dispatch_width: 3 438704 2.11444 1.04361
Dispatch_width: 4 2187648 10.5439 5.20407
Dispatch_width: 5 301381 1.45258 0.716937
Dispatch_width: 6 6074614 29.2781 14.4505
Empty_decode_cycles: 21289329 50.6439
ROB_full_cycles: 3303567 7.85866
Starvation_cycles_per_kilo_instr: 326.591
Starvation_cycles_per_kilo_instr_3: 301.701
Starvation_cycles_per_kilo_instr_0: 284.466
Branch_type_1  (3,1)  (4,9)  (5,37)  (6,68)  (7,113)  (8,128)  (9,123)  (10,97)  (11,67)  (12,43)  (13,5)  (14,2)  (15,3)  (16,4)  (18,1)  (19,4)  (20,2)  (21,1)  (22,3)  (23,2)  (24,10)  (25,12) 
Branch_type_2  (3,1)  (5,1)  (8,3)  (9,3)  (12,1)  (13,1)  (14,1)  (16,3)  (17,2)  (20,2)  (21,2)  (23,5)  (24,1)  (47,38) 
Branch_type_3  (3,4031)  (4,236)  (5,406)  (6,416)  (7,430)  (8,314)  (9,255)  (10,152)  (11,120)  (12,50)  (13,4) 
Branch_type_4  (6,3)  (7,8)  (8,24)  (9,52)  (10,60)  (11,57)  (12,96)  (13,88)  (14,99)  (15,86)  (16,98)  (17,64)  (18,53)  (19,114)  (20,72)  (21,124)  (22,206)  (23,136)  (24,192)  (25,72) 
Branch_type_5  (8,2)  (9,1)  (10,3)  (11,5)  (12,3)  (13,14)  (14,16)  (15,11)  (16,20)  (17,11)  (18,16)  (19,12)  (20,10)  (21,13)  (22,42)  (23,26)  (24,37) 
Branch_type_6  (5,4)  (6,12)  (7,21)  (8,33)  (9,30)  (10,64)  (11,51)  (12,76)  (13,91)  (14,107)  (15,84)  (16,95)  (17,66)  (18,48)  (19,104)  (20,51)  (21,95)  (22,138)  (23,72)  (24,91)  (25,4)  (47,44) 
Unique trigger count: 
BTB PER SET UNIQUE ADDR: 2 4 3 2 1 0 3 2 4 0 2 0 5 3 1 3 3 2 3 4 3 4 2 3 4 5 1 4 3 2 6 6 4 2 4 2 1 5 5 2 3 4 3 6 6 2 4 3 6 3 3 2 3 1 0 3 4 3 3 3 1 4 2 3 1 4 5 2 3 5 5 1 1 4 2 3 3 6 1 3 2 2 1 4 3 3 2 5 3 3 6 4 3 5 2 0 3 3 1 3 4 2 3 3 2 2 1 2 3 2 2 1 3 6 2 6 2 4 4 1 4 4 2 0 1 2 2 1 6 4 5 2 4 1 5 3 2 1 3 3 5 3 3 2 1 4 2 5 4 3 3 8 3 5 3 0 3 3 3 2 4 5 4 4 4 3 2 2 8 1 2 2 4 2 1 1 3 4 5 1 3 3 6 3 4 5 3 1 2 3 5 3 3 4 4 4 2 3 3 5 3 2 4 1 3 3 2 4 2 1 2 4 5 4 3 2 3 5 4 0 1 1 2 3 3 2 3 3 0 3 8 3 3 2 3 3 3 2 1 2 1 0 5 3 9 7 1 1 3 3 2 2 1 3 2 6 3 4 4 3 4 4 4 2 3 6 3 1 4 2 3 2 2 3 4 2 1 1 3 3 4 2 6 2 5 5 3 3 1 1 0 3 1 5 1 1 5 3 1 2 3 3 1 2 3 2 4 2 6 5 3 1 3 2 5 1 5 6 2 2 3 6 3 4 2 2 1 6 1 1 4 0 2 5 5 1 2 2 5 0 3 0 1 4 4 2 1 2 3 3 3 5 4 3 5 3 2 0 4 1 2 4 2 4 6 5 1 1 2 1 2 2 2 4 4 4 3 3 3 4 5 3 1 5 3 2 5 2 4 1 5 4 4 2 3 1 5 0 1 3 4 2 4 2 2 4 4 3 1 1 1 3 5 3 2 2 5 3 1 3 1 1 3 4 3 3 2 0 2 4 2 2 9 3 5 5 3 3 3 0 2 4 5 4 4 6 2 4 3 2 4 3 1 1 5 1 1 4 7 2 3 3 4 6 1 3 4 2 3 3 0 4 4 2 2 1 4 5 1 1 2 1 2 2 0 4 3 0 5 1 4 2 3 4 0 6 3 3 3 1 5 1 1 1 1 2 2 2 2 3 3 2 2 6 2 1 2 5 4 5 3 4 4 2 6 5 0 5 6 3 4 3 3 6 3 4 1 1 4 1 2 5 6 2 5 2 7 3 6 9 3 6 3 6 1 3 3 1 2 3 7 2 5 2 2 1 4 2 2 7 3 2 3 7 2 2 3 3 1 5 4 2 1 0 1 0 0 9 5 3 5 7 1 1 2 3 4 2 2 1 3 2 4 6 2 4 3 4 3 2 5 2 3 2 2 2 2 0 3 1 5 3 6 2 2 3 2 5 2 3 5 4 3 2 5 2 2 3 2 2 7 1 4 3 0 0 3 3 3 3 3 2 5 2 3 0 4 3 2 3 5 2 5 4 6 4 5 2 1 4 5 3 4 3 5 6 3 3 3 3 3 2 4 2 5 3 5 3 4 3 1 4 2 2 2 3 6 4 5 3 0 6 0 3 3 2 3 1 3 1 3 3 3 1 2 1 7 2 0 3 2 0 1 1 1 1 1 4 2 4 5 4 2 1 2 4 4 3 2 2 1 3 2 4 2 1 3 2 2 2 0 2 1 3 2 2 2 6 4 1 3 3 1 5 4 4 8 2 2 2 3 3 0 3 3 3 5 2 1 3 3 4 0 3 8 6 3 3 0 2 2 4 1 1 4 6 7 2 2 2 5 3 5 3 4 3 3 5 1 2 1 3 4 0 4 3 1 2 0 4 4 2 4 2 2 1 2 2 4 4 3 1 3 2 5 2 2 1 5 2 2 1 3 3 1 4 6 4 4 2 6 2 5 4 4 5 3 2 4 4 2 6 2 1 9 3 2 4 5 3 1 3 3 6 4 0 2 2 5 4 3 5 3 4 5 3 2 2 2 4 4 2 3 3 3 1 6 3 1 1 5 2 1 3 4 5 3 5 3 4 5 4 0 3 1 5 0 0 5 2 5 4 5 3 4 1 3 2 5 6 4 4 8 7 5 4 6 4 1 5 4 2 0 4 4 5 5 5 3 2 6 0 5 4 2 3 6 5 4 2 2 2 4 5 2 5 9 4 6 3 2 3 0 4 5 1 6 5 1 3 6 5 3 4 2 1 2 2 3 2 5 4 2 7 4 3 4 5 3 5 1 2 4 2 2 5 4 3 2 3 5 2 4 3 5 2 5 2 2 3 5 2 9 5 2 3 3 2 2 3 4 7 6 2 3 2 3 2 3 1 3 2 4 4 1 4 5 5 4 6 0 3 3 3 3 4 2 1 2 2 3 1 1 1 4 1 3 3 3 5 2 8 5 3 2 1 10 1 2 4 1 2 5 5 3 6 3 5 5 5 2 5 2 2 1 1 5 0 4 4 3 7 4 1 7 4 6 2 3 4 5 3 5 7 4 4 6 1 4 4 7 4 3 3 4 3 6 6 2 6 5 6 4 3 5 3 1 2 4 5 1 3 2 1 3 4 2 2 5 2 2 5 4 1 5 1 7 3 3 2 3 1 3 4 3 4 3 4 2 6 1 3 6 3 3 3 3 5 2 8 3 5 3 8 6 1 6 1 5 2 1 2 4 4 2 1 3 4 2 1 2 1 4 3 3 3 2 3 2 5 2 4 4 5 0 5 3 2 2 6 8 0 6 0 1 4 5 2 5 1 4 3 4 1 1 2 4 5 3 4 1 4 4 6 5 1 4 3 3 6 10 4 2 6 6 5 1 1 3 5 6 3 2 2 4 3 4 4 5 3 1 4 2 2 6 8 5 3 3 6 1 2 5 2 4 1 3 2 6 8 3 3 3 3 4 4 2 5 6 5 4 2 1 5 3 2 4 3 4 4 4 4 7 3 5 4 3 5 5 3 1 7 4 4 3 3 3 2 3 3 2 2 5 4 3 2 5 1 1 3 3 8 5 1 3 4 2 3 3 3 4 3 2 1 3 2 4 2 5 3 4 4 2 1 2 6 1 4 2 4 2 4 5 1 1 4 4 3 3 3 5 2 3 4 4 5 4 4 4 3 3 2 2 3 5 2 4 1 3 0 8 3 2 6 4 4 5 7 3 2 3 3 1 2 4 1 4 2 4 2 0 5 1 5 2 2 3 3 3 2 4 2 4 2 3 1 5 1 0 3 4 1 1 3 1 4 2 3 6 3 1 2 2 3 2 2 6 2 3 5 3 3 3 3 2 2 3 0 2 2 2 3 2 1 2 0 4 0 4 2 4 3 3 3 2 1 2 4 4 2 7 1 3 3 2 2 4 5 2 2 5 0 1 2 3 1 1 2 3 3 5 3 1 1 5 3 1 4 1 6 1 4 2 3 6 2 2 2 1 3 3 1 1 3 4 1 3 3 1 2 0 5 1 3 3 0 3 2 5 3 4 3 3 4 1 3 1 2 1 3 3 0 2 3 2 3 3 1 3 3 2 9 6 2 2 2 4 1 1 3 5 2 3 0 3 2 3 2 3 4 5 5 7 0 4 1 6 4 4 5 3 7 2 4 8 3 0 6 3 3 3 4 3 3 2 1 2 4 2 2 2 3 2 3 5 3 5 3 6 1 1 5 5 3 3 4 4 3 6 2 5 5 2 6 3 3 3 1 3 7 5 3 2 3 3 3 3 4 2 2 3 1 3 1 3 7 0 2 2 3 3 3 5 3 4 2 6 1 2 2 5 2 4 5 6 1 1 7 2 4 2 3 4 6 2 3 2 3 6 3 3 3 5 3 4 9 4 4 3 5 2 5 4 3 2 3 0 2 2 3 4 3 2 3 3 4 4 2 3 7 0 3 2 4 4 4 3 4 3 6 2 4 1 5 2 3 4 2 3 0 2 5 0 7 2 5 5 1 4 3 2 0 4 2 3 5 3 6 2 2 2 1 3 4 6 1 3 3 0 3 2 4 5 3 1 3 5 2 3 2 6 3 4 1 5 3 0 2 4 1 1 8 2 0 4 1 4 3 2 3 6 3 3 6 1 5 3 5 2 5 4 2 3 2 7 1 4 0 3 3 4 4 3 3 2 1 2 3 0 3 0 3 4 6 2 2 5 2 3 3 3 1 2 2 4 2 4 2 5 3 2 3 1 2 3 3 3 2 3 4 2 1 1 2 2 5 1 4 1 5 4 2 3 1 4 1 2 3 5 2 3 4 4 5 3 3 3 4 3 2 0 3 2 0 2 1 2 2 4 2 5 2 2 3 4 1 2 4 3 2 3 7 3 2 7 6 4 2 3 1 2 5 3 4 5 2 4 0 1 2 4 3 2 4 3 2 5 3 4 7 4 2 0 4 1 0 2 3 0 4 4 6 1 3 4 6 4 0 2 2 4 1 4 1 3 2 8 3 1 2 3 6 2 7 3 4 7 0 1 3 1 4 2 1 0 2 3 4 5 4 1 0 3 4 5 1 1 1 3 5 2 1 5 4 3 3 5 4 1 6 2 6 2 1 2 2 2 2 5 1 3 1 3 2 3 1 5 2 5 3 4 2 1 3 5 4 4 0 
BTB PER SET COUNT: 2 4 3 1478 1 0 1116 2 4 0 2 0 4011 3924 1 3 3 21 1521 4047 3 497 3 3 12 6797 1 4 1462 2 3874 2490 4 2 5370 435 2920 3154 4223 2 3 5812 5 2249 6368 2 4 3 1678 3 1761 3465 3 1 0 3 4 3 4 841 1 6 957 495 1 390 644 2 3 925 1958 2927 1 9120 3 1011 1463 694 2 5 2 2 2 4 3 3 2 12 3 3 3081 2362 3 3768 2 0 959 5 1 3 529 1708 3873 3 2 2 1 3004 6 2 2 1 162 2626 2233 2274 857 1484 4 1 4 4 10 0 1 2 13 1 3559 5 19397 3 3959 1 1015 3 1816 1 22 3 5651 4 3 2 1 8 2 8106 4 303 3 7171 3 10335 21 0 3 3 1063 9401 4963 1381 4 1464 4 1913 21 2 14407 254 2 2 788 30 1 5325 3 5 972 41 490 57 7522 376 4157 1634 1439 1 2 3 45 3 3 3035 1518 3073 21 3 1124 965 4407 3 2261 1 4 3 2 1463 2636 1 921 18 16 8 3 1870 4 900 7989 0 1 805 2 3 4734 2 73 53 0 3 13917 3 3 14 962 3 4 89 1 2 2 0 2528 3 9212 6285 756 1 3 3 6766 2 1 1417 2 4213 3 4 4 3 1616 672 1534 3093 1593 1962 3 13699 4379 2 3 2 2 3 1450 6664 1 1 3 49 77974 2 2024 14840 1717 10713 3 3 1 1 0 1853 1 39 1 3637 965 2674 1 2 3 3 1 2 3 2 17 2 2024 912 2429 8786 3 2 1799 2 2528 1150 2 2 4 2204 3 6 2 2 1 708 1 4 3653 0 2 16 1506 1 1013 2 2488 0 3 0 1 1014 1014 1464 1 2 3900 738 3 414 4127 13549 1014 2983 2 0 4 1 2 4472 1464 4 2464 2200 937 18 504 1 3430 2 2 4 4 2989 1028 2978 1400 4 20 409 1 86554 74 2 1510 2 4 1 3108 541 2938 458 3 1 7935 0 1 3 4 2 8 2 2 4012 2491 3 1 955 1 1251 12 3 956 1463 1040 1080 1 94 1 1 3 48 1542 3 5 0 2 5 3003 2856 8786 3 4386 5677 3 3 4288 0 4 510 3863 413 10 2286 3051 2334 2885 1914 959 3 1 1 2022 1 1 4 17278 2 3 3 4 3066 1 1596 2999 2 3 6144 0 9 42 506 2 1 213 912 1 1 2694 2 2 4877 0 3732 20 0 28 1 5 2 1894 971 0 22 3 2315 3 1 3745 10 1 4 1 2 3 539 329 3 3 2 2 533 4 2283 2531 5459 24 513 3 1466 932 12 983 4380 0 2024 4790 3 4 4810 31 1341 1462 509 1 106 4 1 2 1518 176 724 2027 16 85 3 1030 13689 4390 2100 9058 3031 1 3 9 1 1462 1306 17358 2 2024 2 2 1 5 2203 2 4004 144 3 3 6389 2 2 731 3768 1 20 1679 57 1 0 1 0 0 5095 6317 4 2051 4294 1 1 956 688 5 2 1670 1 906 717 2983 4274 2 4 3 1466 3 2 2647 2 3 2 1000 2 5165 0 2386 189 13 508 3537 4347 6 3 2 15 2 1085 4996 6369 3 6 3321 2 2 1830 2 2 3549 1 4 5 0 0 3 8 8 4 3 2 763 498 5 0 4 485 853 3 17326 1008 23 4 2025 7 4800 1013 1 4 6535 3 6463 4 1518 3103 388 3 6 20 4873 1894 4 1012 6221 4 3732 1462 4 1480 24 3261 2 3 2529 3 5943 9 4877 32 0 4621 0 1780 3 1012 3 1 1490 1 3 3 5 1 1012 1 2488 1002 0 4 2 0 1 1 1 1 1 1779 1431 4 5647 524 956 1 3 501 4 5 2 2272 1 3 4230 6366 2 2 508 2 2 2022 0 2 1 5 2 2 2 8001 2365 2 3 2073 1 29 577 4 8929 2 4 1122 3 726 0 122 4 3 2814 3 1 4641 3 5 0 1467 4699 4796 3 1931 0 2 2 1617 1 1 5 1533 3529 3016 2 2 8446 2236 331 1380 2280 3 3 18 1 832 1 1397 6 0 20 5 4 2 0 4 4 4251 1919 2 1993 1453 2 3 1534 3316 48611 1 1902 2 3821 4 2 1 1583 6028 2 1 3 20856 1 11 2054 2106 4 2 5504 3172 3355 7 3209 14 6 2 9 4 2 6083 2 1 6252 957 2 4 4376 1017 1 971 1472 3647 16 0 2 1460 20 4 248 6237 5 8231 1162 4 2 316 1462 4 4 3 3 5 3 2 3444 3 1 970 1737 3 1 1599 27972 2249 3 4294 4 4 3104 4 0 3 1 5291 0 0 1516 2409 48 4 1518 42 9 1461 7 2 4254 3277 4 509 5614 4672 9107 2949 2177 164 2 20 5 622 0 958 4 6405 1402 1518 190 2 732 0 2298 240 4637 3 8354 2042 13 2 958 507 509 4779 6 4825 2588 3844 8325 1466 3433 3 0 954 9164 1 7247 3631 1 51 6522 1019 509 5 2 2 2 3 4 5918 2383 6070 2 3835 443 3 5 5106 3 1279 1 2 4 3763 2 4862 4 3 2 1613 3482 2778 5818 1344 1693 3 973 5 2 3 2909 2058 5169 1479 2 344 3 2 2 3 6 5180 2027 2 989 703 3 2 4 2 3 2 576 1846 1 4 905 2028 7807 6584 0 3 3 3 1463 393 1013 1 2 2 346 1 2 1 4 1 3 3 3 9 1582 4546 3163 12639 4022 3 15330 1 2 6 1011 2442 3886 1073 937 5283 2045 20 8 6401 2 23 2 2 1 1 4850 0 3328 4 3 11695 4 1 3639 2920 7400 340 509 4 159 3 2531 2969 101 3770 2529 480 5 5324 10671 5 3 957 4 3 6231 2530 2905 4549 17161 3882 4 3 373 4 1 2 4 13275 1393 3 2 1 3 5 579 2 517 3 2058 18 4 4849 1977 1 5356 3 768 299 3 1 22 3656 3 18197 4 5 3 27 1 3 1837 4538 3 7520 3 9217 3 6108 3 2420 3 4549 14724 1 5283 7913 2493 3122 1131 2 509 1516 2 1280 2253 3095 2 1 2 506 3129 6471 3 958 3778 36 2510 1518 2058 2880 4 3973 0 3279 3 2 5 40 16444 0 2523 0 1 4 22 3 19 1 1002 1021 12 1 2 2 1911 2538 4 1422 502 1264 18 14990 11585 1 4351 716 3 3096 10848 1926 4674 8496 4632 3327 1 1 234 2419 2528 2985 2 2 2155 3 8 3169 6936 3 6 4 22239 2 3384 30211 5950 3 10 724 1 2 40 2 4 1 3 741 6057 8362 957 2869 3 3 1016 304 2 4674 2027 4068 964 710 1 3879 3805 2 2735 4310 6 5 1608 1205 8139 2019 2021 2924 508 3810 2529 10 1767 33191 4 2891 3 3 3 3 3 897 2 2 16 2099 3 123 1421 1 1 4288 1002 5568 7047 1 444 4 2 3 4 1332 5 3 3 1 3 6180 5513 2 5152 7022 805 4 2 4948 126 7078 1 8718 2 4 2 4 1739 1 1 4 4 957 3 1674 2530 2 1410 1959 4 8212 5 4 4 4 3 7114 3 2956 4471 3 4 2 2092 0 12811 1487 2 3031 1035 4 2594 9286 1399 2 3 1050 1 3 3332 2 2926 1431 1465 4 0 19402 2 12 2 2 2856 170 3 2 4813 3730 4 1344 1081 1 473 1 0 3 245 1 4 1345 1 15180 2 3 6250 652 1 2 2 3079 3 2 3036 2 3 1913 4 3 2084 1002 2 4248 2653 0 3 1498 2 1944 2 1 2 0 6 0 2993 2 2977 787 3 4025 1012 505 14 4 5585 2 15507 1 3 3 2 512 6 277 4465 2 23858 0 1 2 19 1 1 2 18747 3 2078 371 1 1 1556 3 519 4 1 7056 1 3212 2 327 2008 11 5361 135 1 209 6 1 2 31 1465 1 3 3 1 2 0 6183 1 3 3 0 5400 2139 2686 3 5292 3 3 2021 1 46 1 1447 1 3 3 0 2 3 2 3 9226 1 1185 958 2 4734 3036 7109 2 1463 1014 1 1 3 1639 2 1019 0 2888 2 3 2 2151 2502 2527 15 5787 0 544 1 2978 4 472 7509 1514 7864 2 687 8258 494 0 6016 6143 3 3 4489 1451 244 5 1 2 959 3170 1498 2 981 2 246 3317 3 2021 522 8764 3024 1 1322 37409 3 6 5845 4 2086 6196 2 2855 2021 2503 2530 3265 251 390 1 1936 3019 12 4528 19 12604 1839 3 4 8 2 2 3 1 4474 1 3 2573 0 2 2 2316 2248 3 3157 11 1410 4387 6672 1 2 2 6829 2 3422 3481 3288 1 1 9830 2 1034 2 3 1014 2027 507 3 3137 3325 3030 5 508 3 5316 3 4 9665 252 4 14613 3030 2776 2024 1464 3 2 1202 0 3 2 202 8117 1463 2 1390 3 4 1428 8907 159 3538 0 1463 2 1463 3356 4 3 4 3176 3415 78 2799 1 2527 2 5 4 2 3 0 507 4506 0 5284 425 1326 2529 749 2528 3 3 0 2646 2 3 8316 3 8482 2 7 3 3 3 3289 7301 1 36 11066 0 3 2 3022 3443 958 1 3 1967 2 3 2 6653 4 4 68 10728 934 0 2 508 1460 1 6590 2 0 8298 522 5 3 2 1960 3483 3 427 6084 1 4345 6382 4937 233 2023 1616 2 3 2 10645 4241 6799 0 3 1462 744 5 4 3152 1868 3 2 452 0 4990 0 3 2952 3410 3 2 716 1180 1767 5 957 1 15649 2 4 745 4 1717 125 3 6291 3 126 2 1858 3 6 2879 3 4 2 1 1 90 2 1558 1 4 2707 10970 506 2 1156 6 4 1 1996 4177 750 2575 508 1042 1489 8170 5 17828 3 5 3 2 0 3 3 0 2 1 243 494 4 6 2527 2 2 3 4 1 2 1128 3 10 1438 3386 6 237 3763 5161 1183 7 3 1 2 557 3 4 513 2 2294 0 2218 2 2557 1013 2 4 3 26153 6 3 959 3378 4 2 0 4 2402 0 3072 1777 0 4 1465 1026 1 3 4 2501 8 0 2081 2 5 2 461 1478 41 759 6862 2172 574 2 1915 2534 4 31481 2870 4 15208 0 1 26 1 4 13700 354 0 620 2914 4 1545 4 2 0 563 5631 3555 1 1 1 3 6028 2 1 7890 4 4163 11 3547 1870 1 2533 2 6451 2 16431 1001 2 2 439 501 1 3 7 1587 990 3 2470 21 14 827 3 26586 9 1 3 1879 57 5 0 
