
*** ChampSim Multicore Out-of-Order Simulator ***

Warmup Instructions: 50000000
Simulation Instructions: 50000000
Number of CPUs: 1
LLC sets: 2048
LLC ways: 16
Off-chip DRAM Size: 4096 MB Channels: 1 Width: 64-bit Data Rate: 6400 MT/s
CPU 0 runs ./micro_traces/srv563.trace.gz
.gz
ITLB has LRU replacement policy
DTLB has LRU replacement policy
STLB has LRU replacement policy
FDIP Prefetcher at L1I
L1I has LRU replacement policy
L1D has LRU replacement policy
Initialize SRRIP state for L2C
Initialize DRRIP state for LLC
Heartbeat_Variant_0 : 1057 0.344076 per_variant_size: 0 1057 0 0 0 0 0 0 0 
Heartbeat_Variant_1 : 963 0.313477 per_variant_size: 0 414 549 0 0 0 0 0 0 
Heartbeat_Variant_2 : 1042 0.339193 per_variant_size: 0 354 278 209 201 0 0 0 0 
Heartbeat_Variant_3 : 0 0 per_variant_size: 0 0 0 0 0 0 0 0 0 
Heartbeat_Variant_0_evicts 0 : 15602 1 : 9238 2 : 9262 3 : 0 
Heartbeat_Variant_1_evicts 0 : 9211 1 : 0 2 : 8365 3 : 0 
Heartbeat_Variant_2_evicts 0 : 9238 1 : 8354 2 : 0 3 : 0 
Heartbeat_Variant_3_evicts 0 : 0 1 : 0 2 : 0 3 : 0 
Heartbeat CPU 0 instructions: 10000000 cycles: 2797787 heartbeat IPC: 3.57425 cumulative IPC: 3.57425 (Simulation time: 0 hr 2 min 9 sec) 
Heartbeat_Variant_0 : 1067 0.347331 per_variant_size: 0 1067 0 0 0 0 0 0 0 
Heartbeat_Variant_1 : 963 0.313477 per_variant_size: 0 402 561 0 0 0 0 0 0 
Heartbeat_Variant_2 : 1035 0.336914 per_variant_size: 0 349 309 172 205 0 0 0 0 
Heartbeat_Variant_3 : 0 0 per_variant_size: 0 0 0 0 0 0 0 0 0 
Heartbeat_Variant_0_evicts 0 : 15965 1 : 9087 2 : 9155 3 : 0 
Heartbeat_Variant_1_evicts 0 : 9016 1 : 0 2 : 8296 3 : 0 
Heartbeat_Variant_2_evicts 0 : 9216 1 : 8226 2 : 0 3 : 0 
Heartbeat_Variant_3_evicts 0 : 0 1 : 0 2 : 0 3 : 0 
Heartbeat CPU 0 instructions: 20000000 cycles: 5594596 heartbeat IPC: 3.5755 cumulative IPC: 3.57488 (Simulation time: 0 hr 4 min 13 sec) 
Heartbeat_Variant_0 : 1063 0.346029 per_variant_size: 0 1063 0 0 0 0 0 0 0 
Heartbeat_Variant_1 : 961 0.312826 per_variant_size: 0 402 559 0 0 0 0 0 0 
Heartbeat_Variant_2 : 1042 0.339193 per_variant_size: 0 345 296 205 196 0 0 0 0 
Heartbeat_Variant_3 : 0 0 per_variant_size: 0 0 0 0 0 0 0 0 0 
Heartbeat_Variant_0_evicts 0 : 15309 1 : 9279 2 : 9208 3 : 0 
Heartbeat_Variant_1_evicts 0 : 9292 1 : 0 2 : 8545 3 : 0 
Heartbeat_Variant_2_evicts 0 : 9199 1 : 8561 2 : 0 3 : 0 
Heartbeat_Variant_3_evicts 0 : 0 1 : 0 2 : 0 3 : 0 
Heartbeat CPU 0 instructions: 30000002 cycles: 8391320 heartbeat IPC: 3.57561 cumulative IPC: 3.57512 (Simulation time: 0 hr 6 min 15 sec) 
Heartbeat_Variant_0 : 1071 0.348633 per_variant_size: 0 1071 0 0 0 0 0 0 0 
Heartbeat_Variant_1 : 971 0.316081 per_variant_size: 0 391 580 0 0 0 0 0 0 
Heartbeat_Variant_2 : 1025 0.333659 per_variant_size: 0 347 266 205 207 0 0 0 0 
Heartbeat_Variant_3 : 0 0 per_variant_size: 0 0 0 0 0 0 0 0 0 
Heartbeat_Variant_0_evicts 0 : 15114 1 : 9153 2 : 8871 3 : 0 
Heartbeat_Variant_1_evicts 0 : 9029 1 : 0 2 : 8213 3 : 0 
Heartbeat_Variant_2_evicts 0 : 8987 1 : 8079 2 : 0 3 : 0 
Heartbeat_Variant_3_evicts 0 : 0 1 : 0 2 : 0 3 : 0 
Heartbeat CPU 0 instructions: 40000000 cycles: 11187411 heartbeat IPC: 3.57642 cumulative IPC: 3.57545 (Simulation time: 0 hr 8 min 20 sec) 
Heartbeat_Variant_0 : 1074 0.349609 per_variant_size: 0 1074 0 0 0 0 0 0 0 
Heartbeat_Variant_1 : 978 0.318359 per_variant_size: 0 415 563 0 0 0 0 0 0 
Heartbeat_Variant_2 : 1016 0.330729 per_variant_size: 0 340 260 216 200 0 0 0 0 
Heartbeat_Variant_3 : 0 0 per_variant_size: 0 0 0 0 0 0 0 0 0 
Heartbeat_Variant_0_evicts 0 : 15368 1 : 9250 2 : 9286 3 : 0 
Heartbeat_Variant_1_evicts 0 : 9298 1 : 0 2 : 8327 3 : 0 
Heartbeat_Variant_2_evicts 0 : 9235 1 : 8368 2 : 0 3 : 0 
Heartbeat_Variant_3_evicts 0 : 0 1 : 0 2 : 0 3 : 0 
Heartbeat CPU 0 instructions: 50000003 cycles: 13983433 heartbeat IPC: 3.57651 cumulative IPC: 3.57566 (Simulation time: 0 hr 10 min 26 sec) 

Warmup complete CPU 0 instructions: 50000003 cycles: 13983433 (Simulation time: 0 hr 10 min 26 sec) 

Cycle: 20000000 FTQ IN: 56637146 FTQ occupancy: 17.9315 DECODE IN: 56637117 DECODE occupancy: 45.8957 ROB IN: 56637117 ROB occupancy: 277.314 ROB OUT: 56636831
Heartbeat_Variant_0 : 1055 0.343424 per_variant_size: 0 1055 0 0 0 0 0 0 0 
Heartbeat_Variant_1 : 978 0.318359 per_variant_size: 0 415 563 0 0 0 0 0 0 
Heartbeat_Variant_2 : 1035 0.336914 per_variant_size: 0 354 276 218 187 0 0 0 0 
Heartbeat_Variant_3 : 0 0 per_variant_size: 0 0 0 0 0 0 0 0 0 
Heartbeat_Variant_0_evicts 0 : 15370 1 : 9020 2 : 9046 3 : 0 
Heartbeat_Variant_1_evicts 0 : 9034 1 : 0 2 : 8343 3 : 0 
Heartbeat_Variant_2_evicts 0 : 9051 1 : 8357 2 : 0 3 : 0 
Heartbeat_Variant_3_evicts 0 : 0 1 : 0 2 : 0 3 : 0 
Heartbeat CPU 0 instructions: 60000000 cycles: 23212198 heartbeat IPC: 1.08357 cumulative IPC: 1.08357 (Simulation time: 0 hr 12 min 11 sec) 
Cycle: 30000000 FTQ IN: 10766458 FTQ occupancy: 6.18417 DECODE IN: 10766401 DECODE occupancy: 12.9975 ROB IN: 10766401 ROB occupancy: 110.314 ROB OUT: 10766647
Heartbeat_Variant_0 : 1040 0.338542 per_variant_size: 0 1040 0 0 0 0 0 0 0 
Heartbeat_Variant_1 : 975 0.317383 per_variant_size: 0 409 566 0 0 0 0 0 0 
Heartbeat_Variant_2 : 1053 0.342773 per_variant_size: 0 377 265 217 194 0 0 0 0 
Heartbeat_Variant_3 : 0 0 per_variant_size: 0 0 0 0 0 0 0 0 0 
Heartbeat_Variant_0_evicts 0 : 15437 1 : 9142 2 : 9284 3 : 0 
Heartbeat_Variant_1_evicts 0 : 9172 1 : 0 2 : 8465 3 : 0 
Heartbeat_Variant_2_evicts 0 : 9269 1 : 8498 2 : 0 3 : 0 
Heartbeat_Variant_3_evicts 0 : 0 1 : 0 2 : 0 3 : 0 
Heartbeat CPU 0 instructions: 70000003 cycles: 32371986 heartbeat IPC: 1.09173 cumulative IPC: 1.08763 (Simulation time: 0 hr 14 min 10 sec) 
Cycle: 40000000 FTQ IN: 10954083 FTQ occupancy: 6.11764 DECODE IN: 10954098 DECODE occupancy: 12.9303 ROB IN: 10954082 ROB occupancy: 112.198 ROB OUT: 10954006
Heartbeat_Variant_0 : 1083 0.352539 per_variant_size: 0 1083 0 0 0 0 0 0 0 
Heartbeat_Variant_1 : 974 0.317057 per_variant_size: 0 400 574 0 0 0 0 0 0 
Heartbeat_Variant_2 : 1012 0.329427 per_variant_size: 0 325 275 189 223 0 0 0 0 
Heartbeat_Variant_3 : 0 0 per_variant_size: 0 0 0 0 0 0 0 0 0 
Heartbeat_Variant_0_evicts 0 : 15258 1 : 9217 2 : 9348 3 : 0 
Heartbeat_Variant_1_evicts 0 : 9250 1 : 0 2 : 8424 3 : 0 
Heartbeat_Variant_2_evicts 0 : 9272 1 : 8458 2 : 0 3 : 0 
Heartbeat_Variant_3_evicts 0 : 0 1 : 0 2 : 0 3 : 0 
Heartbeat CPU 0 instructions: 80000003 cycles: 41655701 heartbeat IPC: 1.07715 cumulative IPC: 1.08412 (Simulation time: 0 hr 16 min 0 sec) 
Cycle: 50000000 FTQ IN: 10781831 FTQ occupancy: 6.21252 DECODE IN: 10781873 DECODE occupancy: 13.0636 ROB IN: 10781889 ROB occupancy: 111.397 ROB OUT: 10781946
Heartbeat_Variant_0 : 1056 0.34375 per_variant_size: 0 1056 0 0 0 0 0 0 0 
Heartbeat_Variant_1 : 979 0.318685 per_variant_size: 0 427 552 0 0 0 0 0 0 
Heartbeat_Variant_2 : 1034 0.336589 per_variant_size: 0 338 291 214 191 0 0 0 0 
Heartbeat_Variant_3 : 0 0 per_variant_size: 0 0 0 0 0 0 0 0 0 
Heartbeat_Variant_0_evicts 0 : 15425 1 : 9172 2 : 9036 3 : 0 
Heartbeat_Variant_1_evicts 0 : 9095 1 : 0 2 : 8396 3 : 0 
Heartbeat_Variant_2_evicts 0 : 9140 1 : 8314 2 : 0 3 : 0 
Heartbeat_Variant_3_evicts 0 : 0 1 : 0 2 : 0 3 : 0 
Heartbeat CPU 0 instructions: 90000000 cycles: 50777687 heartbeat IPC: 1.09625 cumulative IPC: 1.08713 (Simulation time: 0 hr 17 min 50 sec) 
Heartbeat_Variant_0 : 1056 0.34375 per_variant_size: 0 1056 0 0 0 0 0 0 0 
Heartbeat_Variant_1 : 972 0.316406 per_variant_size: 0 403 569 0 0 0 0 0 0 
Heartbeat_Variant_2 : 1041 0.338867 per_variant_size: 0 324 309 195 213 0 0 0 0 
Heartbeat_Variant_3 : 0 0 per_variant_size: 0 0 0 0 0 0 0 0 0 
Heartbeat_Variant_0_evicts 0 : 15619 1 : 9346 2 : 9191 3 : 0 
Heartbeat_Variant_1_evicts 0 : 9299 1 : 0 2 : 8335 3 : 0 
Heartbeat_Variant_2_evicts 0 : 9238 1 : 8295 2 : 0 3 : 0 
Heartbeat_Variant_3_evicts 0 : 0 1 : 0 2 : 0 3 : 0 
Heartbeat CPU 0 instructions: 100000000 cycles: 59962869 heartbeat IPC: 1.08871 cumulative IPC: 1.08744 (Simulation time: 0 hr 19 min 31 sec) 
Finished CPU 0 instructions: 50000001 cycles: 45979437 cumulative IPC: 1.08744 (Simulation time: 0 hr 19 min 31 sec) 

ChampSim completed all CPUs

Region of Interest Statistics

CPU 0 cumulative IPC: 1.08744 instructions: 50000001 cycles: 45979437
 Fetch stage stalled: 72.4667  Sim cycles: 45979437 fetch stall cycle: 33319791
 Empty decode stage: 64.5723  Sim cycles: 45979437 fetch stall cycle: 29689994
ITLB TOTAL     ACCESS:    5734574  HIT:    5240566  MISS:     494008  HIT %:    91.3854  MISS %:    8.61455   MPKI: 9.88016
ITLB LOAD TRANSLATION INSTRUCTION	ACCESS:    5631986  HIT:    5137978  MISS:     494008  HIT %:    91.2285  MISS %:    8.77147  MPKI: 9.88016
ITLB TRANSLATION FROM L1D PREFETCHER INSTRUCTION	ACCESS:     102588  HIT:     102588  MISS:          0  HIT %:        100  MISS %:          0  MPKI: 0

ITLB AVERAGE MISS LATENCY: 9.04144 cycles
ITLB RQ	ACCESS:    7530983	FORWARD:          0	MERGED:    1359650	TO_CACHE:    6171333

DTLB TOTAL     ACCESS:    9402140  HIT:    8928528  MISS:     473612  HIT %:    94.9627  MISS %:    5.03728   MPKI: 9.47224
DTLB LOAD TRANSLATION DATA	ACCESS:    9402140  HIT:    8928528  MISS:     473612  HIT %:    94.9627  MISS %:    5.03728  MPKI: 9.47224

DTLB AVERAGE MISS LATENCY: 9.31248 cycles
DTLB RQ	ACCESS:   13674000	FORWARD:          0	MERGED:    4237966	TO_CACHE:    9436034

STLB TOTAL     ACCESS:    1218184  HIT:    1216142  MISS:       2042  HIT %:    99.8324  MISS %:   0.167627   MPKI: 0.04084
STLB LOAD TRANSLATION INSTRUCTION	ACCESS:     494008  HIT:     493757  MISS:        251  HIT %:    99.9492  MISS %:  0.0508089  MPKI: 0.00502
STLB LOAD TRANSLATION DATA	ACCESS:     473543  HIT:     471789  MISS:       1754  HIT %:    99.6296  MISS %:   0.370399  MPKI: 0.03508
STLB TRANSLATION FROM L1D PREFETCHER DATA	ACCESS:     250633  HIT:     250596  MISS:         37  HIT %:    99.9852  MISS %:  0.0147626  MPKI: 0.00074

STLB AVERAGE MISS LATENCY: 70.7576 cycles
STLB RQ	ACCESS:    1340045	FORWARD:          0	MERGED:     121824	TO_CACHE:    1218221

STLB Hit, L1D data hit: 0
STLB Hit, L2C data hit: 0
STLB Hit, LLC data hit: 0
STLB Hit, LLC data miss: 0
STLB STLB hints to L2: 0
L1D TOTAL     ACCESS:   13439111  HIT:   12319957  MISS:    1119154  HIT %:    91.6724  MISS %:    8.32759   MPKI: 22.3831
L1D LOAD DATA	ACCESS:    6862860  HIT:    6128311  MISS:     734549  HIT %:    89.2968  MISS %:    10.7032  MPKI: 14.691
L1D RFO DATA	ACCESS:    6245712  HIT:    5957444  MISS:     288268  HIT %:    95.3845  MISS %:    4.61545  MPKI: 5.76536
L1D PREFETCH DATA	ACCESS:     330539  HIT:     234202  MISS:      96337  HIT %:    70.8546  MISS %:    29.1454  MPKI: 1.92674

L1D PREFETCH  REQUESTED:     745126  ISSUED:     745126  USEFUL:      35759  USELESS:      69121
L1D USEFUL LOAD PREFETCHES:      35759 PREFETCH ISSUED TO LOWER LEVEL:     104913  ACCURACY: 34.0844
 TIMELY PREFETCHES:      35759 LATE PREFETCHES: 8497 DROPPED PREFETCHES: 8
L1D AVERAGE MISS LATENCY: 286183 cycles
L1D RQ	ACCESS:   10940949	FORWARD:          0	MERGED:    3882845	TO_CACHE:    6893939
L1D WQ	ACCESS:    6950443	FORWARD:     164441	MERGED:     170382	TO_CACHE:    6780061
L1D PQ	ACCESS:     372701	FORWARD:          0	MERGED:          0	TO_CACHE:     372425

L1D UNIQUE REGIONS ACCESSED: 0
L1D REGIONS CONFLICTS: 0
L1D Cross Page Prefetch Requests: 6947
L1D Same Page Prefetch Requests: 752259
L1D ROI Sum of L1D PQ occupancy: 4728558
L1D PREFETCHES PUSHED FROM L2C: 0
L1I TOTAL     ACCESS:    7023752  HIT:    4259571  MISS:    2764181  HIT %:    60.6452  MISS %:    39.3548   MPKI: 55.2836
L1I LOAD INSTRUCTION	ACCESS:    6541143  HIT:    3776962  MISS:    2764181  HIT %:    57.7416  MISS %:    42.2584  MPKI: 55.2836
L1I PREFETCH INSTRUCTION	ACCESS:     482609  HIT:     482609  MISS:          0  HIT %:        100  MISS %:          0  MPKI: 0

L1I PREFETCH  REQUESTED:    1059394  ISSUED:    1059394  USEFUL:          0  USELESS:          0
L1I USEFUL LOAD PREFETCHES:          0 PREFETCH ISSUED TO LOWER LEVEL:          0  ACCURACY: -nan
 TIMELY PREFETCHES:          0 LATE PREFETCHES: 0 DROPPED PREFETCHES: 0
L1I AVERAGE MISS LATENCY: 16.9596 cycles
L1I RQ	ACCESS:    9436642	FORWARD:          0	MERGED:    2658792	TO_CACHE:    6777850
L1I PQ	ACCESS:    1059394	FORWARD:          0	MERGED:     306261	TO_CACHE:     753133

L1BTB TOTAL     ACCESS:    5669576  HIT:    2040558  MISS:    3629018  HIT %:    35.9914  MISS %:    64.0086   MPKI: 72.5804
L1BTB BRANCH_DIRECT_JUMP	ACCESS:     548588  HIT:     144271  MISS:     404317	AVERAGE STALL: 33.4366
L1BTB BRANCH_INDIRECT	ACCESS:     182965  HIT:      66050  MISS:     116915	AVERAGE STALL: 81.2676
L1BTB BRANCH_CONDITIONAL	ACCESS:    2710079  HIT:    1416736  MISS:    1293343	AVERAGE STALL: 34.4023
L1BTB BRANCH_DIRECT_CALL	ACCESS:     942631  HIT:     104142  MISS:     838489	AVERAGE STALL: 35.9586
L1BTB BRANCH_INDIRECT_CALL	ACCESS:     171337  HIT:      20856  MISS:     150481	AVERAGE STALL: 107.462
L1BTB BRANCH_RETURN	ACCESS:    1113976  HIT:     288503  MISS:     825473	AVERAGE STALL: 35.979
L1BTB BRANCH_OTHER ACCESS:          0  HIT:          0  MISS:          0	AVERAGE STALL: -nan
L1BTB TOTAL ROB OCCUPANCY AT BTB MISS: 12.8968

L2BTB TOTAL     ACCESS:    3603565  HIT:    3085282  MISS:     518283  HIT %:    85.6175  MISS %:    14.3825   MPKI: 10.3657
L2BTB BRANCH_DIRECT_JUMP	ACCESS:     400141  HIT:     344393  MISS:      55748	AVERAGE STALL: 33.4366
L2BTB BRANCH_INDIRECT	ACCESS:     106616  HIT:      97770  MISS:       8846	AVERAGE STALL: 81.2676
L2BTB BRANCH_CONDITIONAL	ACCESS:    1293343  HIT:    1134868  MISS:     158475	AVERAGE STALL: 34.4023
L2BTB BRANCH_DIRECT_CALL	ACCESS:     838489  HIT:     684413  MISS:     154076	AVERAGE STALL: 35.9586
L2BTB BRANCH_INDIRECT_CALL	ACCESS:     140919  HIT:     108613  MISS:      32306	AVERAGE STALL: 107.462
L2BTB BRANCH_RETURN	ACCESS:     824057  HIT:     715225  MISS:     108832	AVERAGE STALL: 35.979
L2BTB BRANCH_OTHER ACCESS:          0  HIT:          0  MISS:          0	AVERAGE STALL: -nan
L2BTB TOTAL ROB OCCUPANCY AT BTB MISS: 90.3035

L2C TOTAL     ACCESS:    4489566  HIT:    4029099  MISS:     460467  HIT %:    89.7436  MISS %:    10.2564   MPKI: 9.20934
L2C LOAD INSTRUCTION	ACCESS:    2764181  HIT:    2523882  MISS:     240299  HIT %:    91.3067  MISS %:    8.69332  MPKI: 4.80598
L2C LOAD TRANSLATION INSTRUCTION	ACCESS:        283  HIT:         64  MISS:        219  HIT %:    22.6148  MISS %:    77.3852  MPKI: 0.00438
L2C LOAD DATA	ACCESS:     726026  HIT:     654170  MISS:      71856  HIT %:    90.1028  MISS %:    9.89717  MPKI: 1.43712
L2C RFO DATA	ACCESS:     288173  HIT:     230223  MISS:      57950  HIT %:    79.8906  MISS %:    20.1094  MPKI: 1.159
L2C PREFETCH DATA	ACCESS:     186525  HIT:     113758  MISS:      72767  HIT %:    60.9881  MISS %:    39.0119  MPKI: 1.45534
L2C WRITEBACK DATA	ACCESS:     522500  HIT:     506491  MISS:      16009  HIT %:    96.9361  MISS %:    3.06392  MPKI: 0.32018
L2C LOAD TRANSLATION DATA	ACCESS:       1815  HIT:        467  MISS:       1348  HIT %:      25.73  MISS %:      74.27  MPKI: 0.02696
L2C TRANSLATION FROM L1D PREFETCHER DATA	ACCESS:         63  HIT:         44  MISS:         19  HIT %:    69.8413  MISS %:    30.1587  MPKI: 0.00038

L2C PREFETCH  REQUESTED:      89221  ISSUED:      89221  USEFUL:       8923  USELESS:      63952
L2C USEFUL LOAD PREFETCHES:       8923 PREFETCH ISSUED TO LOWER LEVEL:      73274  ACCURACY: 12.1776
 TIMELY PREFETCHES:       8923 LATE PREFETCHES: 507 DROPPED PREFETCHES: 0
L2C AVERAGE MISS LATENCY: 39.318 cycles
L2C RQ	ACCESS:    3780583	FORWARD:          0	MERGED:          0	TO_CACHE:    3780542
L2C WQ	ACCESS:     522500	FORWARD:         41	MERGED:          0	TO_CACHE:     522500
L2C PQ	ACCESS:     194134	FORWARD:          0	MERGED:       3890	TO_CACHE:     190244

L2C Dense regions hint from L2: 0
PSCL5 TOTAL     ACCESS:       4112  HIT:       2056  MISS:       2056  HIT %:         50  MISS %:         50   MPKI: 0.04112
PSCL5 LOAD TRANSLATION INSTRUCTION	ACCESS:       3986  HIT:       1993  MISS:       1993  HIT %:         50  MISS %:         50  MPKI: 0.03986
PSCL5 TRANSLATION FROM L1D PREFETCHER INSTRUCTION	ACCESS:        126  HIT:         63  MISS:         63  HIT %:         50  MISS %:         50  MPKI: 0.00126


PSCL4 TOTAL     ACCESS:       3828  HIT:       1911  MISS:       1917  HIT %:    49.9216  MISS %:    50.0784   MPKI: 0.03834
PSCL4 LOAD TRANSLATION INSTRUCTION	ACCESS:       2305  HIT:       1864  MISS:        441  HIT %:    80.8677  MISS %:    19.1323  MPKI: 0.00882
PSCL4 TRANSLATION FROM L1D PREFETCHER INSTRUCTION	ACCESS:         53  HIT:         47  MISS:          6  HIT %:    88.6792  MISS %:    11.3208  MPKI: 0.00012
PSCL4 LOAD TRANSLATION DATA	ACCESS:       1429  HIT:          0  MISS:       1429  HIT %:          0  MISS %:        100  MPKI: 0.02858
PSCL4 TRANSLATION FROM L1D PREFETCHER DATA	ACCESS:         41  HIT:          0  MISS:         41  HIT %:          0  MISS %:        100  MPKI: 0.00082


PSCL3 TOTAL     ACCESS:       3896  HIT:       1945  MISS:       1951  HIT %:     49.923  MISS %:     50.077   MPKI: 0.03902
PSCL3 LOAD TRANSLATION INSTRUCTION	ACCESS:       2339  HIT:       1898  MISS:        441  HIT %:    81.1458  MISS %:    18.8542  MPKI: 0.00882
PSCL3 TRANSLATION FROM L1D PREFETCHER INSTRUCTION	ACCESS:         53  HIT:         47  MISS:          6  HIT %:    88.6792  MISS %:    11.3208  MPKI: 0.00012
PSCL3 LOAD TRANSLATION DATA	ACCESS:       1463  HIT:          0  MISS:       1463  HIT %:          0  MISS %:        100  MPKI: 0.02926
PSCL3 TRANSLATION FROM L1D PREFETCHER DATA	ACCESS:         41  HIT:          0  MISS:         41  HIT %:          0  MISS %:        100  MPKI: 0.00082


PSCL2 TOTAL     ACCESS:       4018  HIT:       1962  MISS:       2056  HIT %:    48.8303  MISS %:    51.1697   MPKI: 0.04112
PSCL2 LOAD TRANSLATION INSTRUCTION	ACCESS:       2150  HIT:       1899  MISS:        251  HIT %:    88.3256  MISS %:    11.6744  MPKI: 0.00502
PSCL2 TRANSLATION FROM L1D PREFETCHER INSTRUCTION	ACCESS:         63  HIT:         63  MISS:          0  HIT %:        100  MISS %:          0  MPKI: 0
PSCL2 LOAD TRANSLATION DATA	ACCESS:       1742  HIT:          0  MISS:       1742  HIT %:          0  MISS %:        100  MPKI: 0.03484
PSCL2 TRANSLATION FROM L1D PREFETCHER DATA	ACCESS:         63  HIT:          0  MISS:         63  HIT %:          0  MISS %:        100  MPKI: 0.00126


LLC TOTAL     ACCESS:     524758  HIT:     494799  MISS:      29959  HIT %:    94.2909  MISS %:    5.70911   MPKI: 0.59918
LLC LOAD INSTRUCTION	ACCESS:     240299  HIT:     239530  MISS:        769  HIT %:      99.68  MISS %:   0.320018  MPKI: 0.01538
LLC LOAD TRANSLATION INSTRUCTION	ACCESS:        219  HIT:        190  MISS:         29  HIT %:     86.758  MISS %:     13.242  MPKI: 0.00058
LLC LOAD DATA	ACCESS:      71459  HIT:      67963  MISS:       3496  HIT %:    95.1077  MISS %:    4.89232  MPKI: 0.06992
LLC RFO DATA	ACCESS:      57828  HIT:      42338  MISS:      15490  HIT %:    73.2137  MISS %:    26.7863  MPKI: 0.3098
LLC PREFETCH DATA	ACCESS:      73273  HIT:      63514  MISS:       9759  HIT %:    86.6813  MISS %:    13.3187  MPKI: 0.19518
LLC WRITEBACK DATA	ACCESS:      80313  HIT:      79958  MISS:        355  HIT %:     99.558  MISS %:   0.442021  MPKI: 0.0071
LLC LOAD TRANSLATION DATA	ACCESS:       1348  HIT:       1287  MISS:         61  HIT %:    95.4748  MISS %:    4.52522  MPKI: 0.00122
LLC TRANSLATION FROM L1D PREFETCHER DATA	ACCESS:         19  HIT:         19  MISS:          0  HIT %:        100  MISS %:          0  MPKI: 0

LLC AVERAGE MISS LATENCY: 157.679 cycles
LLC RQ	ACCESS:     371184	FORWARD:          0	MERGED:          0	TO_CACHE:     371172
LLC WQ	ACCESS:      80313	FORWARD:         13	MERGED:          0	TO_CACHE:      80313
LLC PQ	ACCESS:      73274	FORWARD:          0	MERGED:          0	TO_CACHE:      73273

LLC Dense regions hint to LLC: 0

RAW hits: 1699600
Loads Generated: 12640547
Loads sent to L1D: 10940949
Stores Generated: 6950437
Stores sent to L1D: 6950443
Major fault: 0 Minor fault: 2546
Allocated PAGES: 2546

stream: 
stream:times selected: 1188835
stream:pref_filled: 122490
stream:pref_useful: 24696
stream:pref_late: 6995
stream:misses: 8010
stream:misses_by_poll: 0

CS: 
CS:times selected: 179805
CS:pref_filled: 60085
CS:pref_useful: 36445
CS:pref_late: 7527
CS:misses: 17286
CS:misses_by_poll: 7

CPLX: 
CPLX:times selected: 1007962
CPLX:pref_filled: 20079
CPLX:pref_useful: 4501
CPLX:pref_late: 3179
CPLX:misses: 92840
CPLX:misses_by_poll: 0

NL_L1: 
NL:times selected: 21212
NL:pref_filled: 745
NL:pref_useful: 349
NL:pref_late: 305
NL:misses: 1867
NL:misses_by_poll: 0

total selections: 2397814
total_filled: 96337
total_useful: 35759
total_late: 19412
total_polluted: 7
total_misses_after_warmup: 765630
conflicts: 5665278

test: 118409

DRAM Statistics
 CHANNEL 0
 RQ ROW_BUFFER_HIT:      11161  ROW_BUFFER_MISS:      18419
 DBUS_CONGESTED:         15
 WQ ROW_BUFFER_HIT:       1510  ROW_BUFFER_MISS:      12821  FULL:          0

 AVG_CONGESTED_CYCLE: 5

CPU 0 Branch Prediction Accuracy: 99.8245% MPKI: 0.32086 Average ROB Occupancy at Mispredict: 123.197
Branch types
NOT_BRANCH: 40858291 81.7166%
BRANCH_DIRECT_JUMP: 548588 1.09718%
BRANCH_INDIRECT: 182965 0.36593%
BRANCH_CONDITIONAL: 6181812 12.3636%
BRANCH_DIRECT_CALL: 942631 1.88526%
BRANCH_INDIRECT_CALL: 171337 0.342674%
BRANCH_RETURN: 1113976 2.22795%
BRANCH_OTHER: 0 0%

DRAM PAGES: 1048576
Allocated PAGES: 2546
Average_ROB_Occupancy: 112.497
Average_Decode_Occupancy: 13.0509
Average_FTQ_Occupancy: 6.18842
Indirect max targets: 14 Average targets: 1.14966
Branch_type:  BRANCH_DIRECT_JUMP:  Count Percentage: 2.90188 6.71545 4.01451 9.10763 1.69594 5.97479 1.21898 68.3708 
Branch_type:  BRANCH_INDIRECT:  Count Percentage: 11.769 3.45274 2.54579 0 1.33799 9.66651 5.88967 65.3383 
Branch_type:  BRANCH_CONDITIONAL:  Count Percentage: 21.0906 3.22782 1.77466 5.4371 1.17557 12.8984 1.2358 53.1601 
Branch_type:  BRANCH_DIRECT_CALL:  Count Percentage: 0.259583 1.77361 1.43084 4.70999 2.16542 2.99894 0.705795 85.9558 
Branch_type:  BRANCH_INDIRECT_CALL:  Count Percentage: 9.55558 0 2.99514 8.70266 0 2.6605 1.28405 74.8021 
Branch_type:  BRANCH_RETURN:  Count Percentage: 3.90657 1.38011 1.41195 6.33894 2.79834 12.8647 1.89923 69.4001 
Branch_type:  BRANCH_DIRECT_JUMP:  Total Count: 31814 73623 44012 99849 18593 65503 13364 749565 
Branch_type:  BRANCH_INDIRECT:  Total Count: 43030 12624 9308 0 4892 35343 21534 238892 
Branch_type:  BRANCH_CONDITIONAL:  Total Count: 2606333 398887 219309 671906 145275 1593953 152718 6569418 
Branch_type:  BRANCH_DIRECT_CALL:  Total Count: 4896 33452 26987 88835 40842 56563 13312 1621212 
Branch_type:  BRANCH_INDIRECT_CALL:  Total Count: 32781 0 10275 29855 0 9127 4405 256613 
Branch_type:  BRANCH_RETURN:  Total Count: 87115 30776 31486 141356 62402 286879 42352 1547596 
Number of unique branch instructions: 9917
Upper 32 bits: 
aaaa
ffff
ffff0000
Unique upper 32 bits: 3
Unique upper 36 bits: 3
Unique upper 40 bits: 5
Unique upper 44 bits: 32
Unique upper 48 bits: 154
Variant_0 : 1056 0.34375
Variant_1 : 972 0.316406
Variant_2 : 1041 0.338867
Variant_3 : 0 0
Offset_3 4073
Offset_4 249
Offset_5 451
Offset_6 503
Offset_7 585
Offset_8 509
Offset_9 468
Offset_10 385
Offset_11 315
Offset_12 288
Offset_13 201
Offset_14 230
Offset_15 189
Offset_16 223
Offset_17 143
Offset_18 126
Offset_19 240
Offset_20 142
Offset_21 235
Offset_22 392
Offset_23 241
Offset_24 327
Offset_25 88
Offset_47 80
decode_dispatch_called: 20366775 44.2954
Dispatch_width: 0 10267048 50.4108 22.3297
Dispatch_width: 1 559737 2.74828 1.21736
Dispatch_width: 2 710409 3.48808 1.54506
Dispatch_width: 3 478631 2.35006 1.04097
Dispatch_width: 4 1580724 7.76129 3.43789
Dispatch_width: 5 360947 1.77223 0.785018
Dispatch_width: 6 6409279 31.4693 13.9394
Empty_decode_cycles: 25612662 55.7046
ROB_full_cycles: 2039030 4.43466
Starvation_cycles_per_kilo_instr: 375.311
Starvation_cycles_per_kilo_instr_3: 355.895
Starvation_cycles_per_kilo_instr_0: 338.407
Branch_type_1  (3,1)  (4,9)  (5,37)  (6,69)  (7,114)  (8,127)  (9,123)  (10,98)  (11,70)  (12,51)  (13,5)  (14,2)  (15,3)  (16,4)  (18,1)  (19,4)  (20,2)  (21,1)  (22,3)  (23,2)  (24,10)  (25,12) 
Branch_type_2  (3,1)  (5,1)  (8,3)  (9,3)  (12,1)  (13,1)  (14,1)  (16,3)  (17,2)  (20,2)  (21,2)  (23,5)  (24,1)  (47,36) 
Branch_type_3  (3,4071)  (4,240)  (5,409)  (6,418)  (7,439)  (8,317)  (9,256)  (10,156)  (11,130)  (12,58)  (13,4) 
Branch_type_4  (6,4)  (7,8)  (8,26)  (9,54)  (10,62)  (11,59)  (12,99)  (13,87)  (14,102)  (15,89)  (16,100)  (17,64)  (18,57)  (19,116)  (20,74)  (21,124)  (22,209)  (23,136)  (24,188)  (25,72) 
Branch_type_5  (8,2)  (9,1)  (10,3)  (11,5)  (12,3)  (13,14)  (14,16)  (15,11)  (16,20)  (17,11)  (18,16)  (19,12)  (20,10)  (21,13)  (22,42)  (23,26)  (24,37) 
Branch_type_6  (5,4)  (6,12)  (7,24)  (8,34)  (9,31)  (10,66)  (11,51)  (12,76)  (13,90)  (14,109)  (15,86)  (16,96)  (17,66)  (18,52)  (19,108)  (20,54)  (21,95)  (22,138)  (23,72)  (24,91)  (25,4)  (47,44) 
Unique trigger count: 
Variant_0_evicts_0 : 0
Variant_0_evicts_1 : 0
Variant_0_evicts_2 : 0
Variant_0_evicts_3 : 0
Variant_1_evicts_0 : 0
Variant_1_evicts_1 : 0
Variant_1_evicts_2 : 0
Variant_1_evicts_3 : 0
Variant_2_evicts_0 : 0
Variant_2_evicts_1 : 0
Variant_2_evicts_2 : 0
Variant_2_evicts_3 : 0
Variant_3_evicts_0 : 0
Variant_3_evicts_1 : 0
Variant_3_evicts_2 : 0
Variant_3_evicts_3 : 0
BTB PER SET UNIQUE ADDR: 45 50 43 54 45 39 36 41 41 47 43 54 41 43 42 39 42 43 41 51 45 31 37 37 45 50 47 56 43 39 47 44 61 38 49 49 54 44 37 38 43 39 45 60 45 42 42 41 61 51 42 43 44 56 38 36 45 37 38 49 45 57 47 48 46 48 41 44 52 45 47 39 54 39 38 38 36 51 40 65 46 41 44 46 44 37 54 47 45 66 44 39 47 43 29 49 46 38 52 47 64 50 41 50 47 38 45 37 31 39 38 53 49 31 42 40 51 49 52 45 48 36 45 32 42 43 30 49 61 43 38 44 43 50 42 54 29 53 40 57 41 60 38 43 43 47 50 44 48 44 45 49 41 44 31 53 47 47 40 51 43 39 54 57 46 43 44 48 47 40 45 51 40 49 48 39 42 41 42 53 40 48 42 47 47 51 34 50 51 41 49 40 41 54 47 45 48 40 48 45 47 52 43 46 42 42 49 41 54 52 48 59 41 47 48 45 44 55 52 52 38 50 43 46 45 43 51 43 38 50 49 33 50 56 38 50 55 46 37 48 41 45 56 48 42 36 35 43 33 36 38 41 42 45 47 41 18 16 18 22 24 18 9 21 19 15 20 17 17 21 19 24 17 14 16 15 23 26 20 22 17 23 14 17 25 17 18 33 31 26 25 19 24 26 16 28 23 25 23 23 19 21 18 36 23 29 25 20 31 21 22 27 19 31 23 14 27 19 20 29 18 28 16 23 29 28 24 17 21 15 21 28 17 20 19 23 18 18 18 36 22 23 16 26 28 26 18 22 20 24 24 21 26 23 22 28 23 26 18 17 18 29 20 30 22 25 12 23 26 23 24 16 23 26 19 30 24 27 20 25 22 22 17 15 19 22 27 26 27 23 30 13 23 28 17 17 19 19 30 22 20 24 22 21 28 25 26 26 22 23 24 17 19 28 22 22 22 30 37 28 18 27 23 23 24 18 26 19 24 19 28 19 19 21 28 26 24 19 20 23 25 20 18 27 30 19 16 24 29 25 27 36 26 18 27 31 25 27 19 30 15 22 19 28 33 19 22 23 26 27 23 26 26 23 23 33 23 31 16 24 35 27 20 26 16 26 34 28 25 22 19 25 18 18 18 19 24 25 22 24 20 28 19 32 18 20 20 31 29 24 24 30 21 23 19 25 21 31 18 18 15 22 22 17 24 33 35 15 15 31 28 25 27 22 25 31 20 24 27 24 26 19 26 24 27 31 18 25 17 23 24 31 23 22 18 22 22 22 29 24 18 31 22 19 23 28 22 27 23 28 28 25 27 33 22 28 26 28 21 23 27 24 14 24 26 25 20 24 33 25 18 21 24 16 27 17 14 21 21 22 23 21 22 14 22 24 32 21 21 25 32 25 20 18 10 31 14 28 20 24 29 23 18 18 20 32 20 29 18 22 17 29 28 24 23 21 25 27 21 27 22 25 26 30 28 27 17 24 33 19 16 24 19 18 28 23 22 22 25 21 21 14 26 31 21 26 18 19 20 20 24 19 18 25 33 20 25 27 26 30 20 28 21 24 25 21 20 21 27 27 22 23 21 16 16 21 18 27 20 23 14 26 26 31 12 28 22 17 15 14 22 24 16 21 18 20 32 25 18 26 26 23 19 21 21 21 25 22 20 19 24 22 23 18 22 22 24 31 35 20 21 19 19 24 32 31 20 23 21 18 24 22 23 22 17 21 32 22 19 18 24 15 13 23 23 25 16 22 
BTB PER SET COUNT: 2008 2271 3500 2624 2478 1787 1729 1616 2068 2180 1503 2991 21004 3209 2223 1486 2089 2184 1906 2187 2107 1226 1793 1938 1693 2376 2461 2946 2160 2026 2299 2784 2903 1728 2151 2713 2660 1942 1538 2517 1549 1666 1618 3651 2245 1859 2376 2550 3137 2924 2153 2635 2048 2932 1588 1665 2336 1668 1544 2022 2136 3402 2339 2443 2429 2357 1513 2921 2473 1931 2511 2230 2547 1793 1611 1749 1938 2470 1546 2580 2208 3133 2392 2417 1659 2631 2508 2429 2703 3330 2167 1913 2629 2180 1303 2088 2337 1607 2157 4233 3599 2454 1698 2387 3478 1520 2031 1490 1475 2010 2455 2844 2903 1331 2089 1895 2334 2724 3310 2415 2322 1755 2322 1702 2351 2536 1287 2509 3397 2013 2037 3325 2013 2198 1995 2858 1618 2237 1629 2871 1873 2641 1836 1618 1833 2161 2660 2127 2590 2417 1772 2260 1887 2264 863 2681 2228 2498 1305 2815 1738 1848 2598 2726 2639 2317 1644 3037 2098 1907 2744 2409 1541 3150 2390 1582 1900 1694 2333 2803 1647 2198 2563 3271 2340 4206 984 2405 2557 1959 2185 1853 2025 2694 2192 2065 2224 1733 2371 2118 2147 2389 2139 2768 1938 2103 3116 2050 2606 2285 2787 3298 1803 3299 2171 3556 1886 3057 3393 2702 1738 2151 2218 2962 2004 1989 2321 2176 1744 2622 1968 1665 2322 3546 1855 2896 2243 2334 2059 2142 2311 2505 3230 2737 2116 1903 1773 2040 1281 1660 1423 1581 1525 2442 2264 2158 603 728 565 853 1193 549 147 1001 621 358 792 593 1269 715 659 753 445 293 638 338 878 1071 711 989 285 1040 954 798 735 632 281 1565 1200 855 915 429 606 1424 481 1072 1629 1117 689 1148 555 611 283 1555 532 1210 943 648 1436 1372 1115 987 593 1252 2455 545 1023 850 707 1345 479 1942 378 674 979 1518 1201 531 587 435 907 1152 490 504 619 1079 370 1432 327 1599 793 1721 418 1052 1103 727 508 868 541 841 1001 464 845 645 567 727 640 1070 573 637 695 1161 523 1086 659 1782 250 843 866 698 728 639 925 1309 862 1118 802 976 637 1107 892 689 666 374 590 606 2822 1161 706 1203 1144 285 771 1501 481 689 509 756 1234 1096 578 717 879 594 1156 901 986 817 724 1070 1042 358 516 1315 639 810 669 1624 1653 1031 647 922 759 793 715 561 1538 598 797 937 1188 742 578 683 1376 1221 876 982 559 778 1592 709 566 1098 1939 669 816 963 1138 1118 1601 2249 919 525 1108 2062 928 1051 583 1230 514 592 593 1316 1356 803 4727 720 844 1024 964 1096 687 855 748 1505 732 1571 568 1134 1497 1314 539 895 1016 1191 1581 1212 1964 763 807 815 4744 535 451 742 1320 2143 850 623 581 1236 695 1363 778 470 587 1560 966 755 774 2244 1590 1388 667 1274 592 1218 530 675 323 789 748 595 877 1441 1738 1185 629 1879 1513 945 849 696 1222 1178 870 1587 961 918 1091 707 999 1039 978 1339 232 765 563 1322 881 1318 1428 1119 538 517 884 683 1324 928 434 1411 802 782 1282 1095 824 1082 952 1199 1694 887 926 1082 2297 918 1094 1238 875 815 1005 1060 408 3022 810 1214 1070 799 1741 1008 941 602 901 389 939 517 1064 1327 835 436 414 907 725 326 1074 798 1180 2861 443 751 1336 1595 1234 321 215 958 311 936 988 1147 1245 746 372 751 620 1069 597 1159 1896 632 346 1531 1094 719 776 963 969 1582 547 1473 801 956 1097 817 1340 959 1030 1050 1482 372 357 867 309 586 1973 903 747 691 1078 1602 654 255 1365 1130 1894 884 591 1398 1701 812 779 673 764 855 1653 812 862 903 1050 1256 832 914 933 658 1477 711 554 759 1255 995 553 748 725 415 2950 664 673 2370 785 706 1428 1129 1537 1075 270 946 643 591 320 380 744 1005 780 603 786 629 1500 881 652 1229 972 1032 644 1257 2096 686 643 887 854 959 1050 8872 754 521 645 1025 1160 1076 1314 475 912 392 757 903 1190 1040 1628 527 879 751 1897 603 1080 2581 1484 734 1285 973 564 563 919 424 320 844 2032 1294 369 1056 
To predecode: 0
Predecoding something: 0
Predecode request dropped: 0
sizeofblock_0 0
sizeofblock_1 376547
sizeofblock_2 243846
sizeofblock_3 88528
sizeofblock_4 48883
sizeofblock_5 0
sizeofblock_6 0
sizeofblock_7 0
sizeofblock_8 0
Variant_0 Correct: 1330608 Incorrect: 0 Accuracy: 1
Variant_1 Correct: 1800243 Incorrect: 0 Accuracy: 1
Variant_2 Correct: 3295390 Incorrect: 0 Accuracy: 1
Variant_3 Correct: 0 Incorrect: 0 Accuracy: -nan
