
*** ChampSim Multicore Out-of-Order Simulator ***

Warmup Instructions: 50000000
Simulation Instructions: 50000000
Number of CPUs: 1
LLC sets: 2048
LLC ways: 16
Off-chip DRAM Size: 4096 MB Channels: 1 Width: 64-bit Data Rate: 6400 MT/s
CPU 0 runs ./micro_traces/srv518.trace.gz
.gz
ITLB has LRU replacement policy
DTLB has LRU replacement policy
STLB has LRU replacement policy
FDIP Prefetcher at L1I
L1I has LRU replacement policy
L1D has LRU replacement policy
Initialize SRRIP state for L2C
Initialize DRRIP state for LLC
Heartbeat CPU 0 instructions: 10000002 cycles: 2798455 heartbeat IPC: 3.5734 cumulative IPC: 3.5734 (Simulation time: 0 hr 1 min 40 sec) 
Heartbeat CPU 0 instructions: 20000001 cycles: 5596673 heartbeat IPC: 3.5737 cumulative IPC: 3.57355 (Simulation time: 0 hr 3 min 20 sec) 
Heartbeat CPU 0 instructions: 30000000 cycles: 8393044 heartbeat IPC: 3.57606 cumulative IPC: 3.57439 (Simulation time: 0 hr 4 min 47 sec) 
Heartbeat CPU 0 instructions: 40000001 cycles: 11189983 heartbeat IPC: 3.57534 cumulative IPC: 3.57463 (Simulation time: 0 hr 6 min 31 sec) 
Heartbeat CPU 0 instructions: 50000000 cycles: 13987105 heartbeat IPC: 3.5751 cumulative IPC: 3.57472 (Simulation time: 0 hr 7 min 59 sec) 

Warmup complete CPU 0 instructions: 50000004 cycles: 13987106 (Simulation time: 0 hr 7 min 59 sec) 

Cycle: 20000000 FTQ IN: 55019405 FTQ occupancy: 15.4376 DECODE IN: 55019387 DECODE occupancy: 9.36857 ROB IN: 55019387 ROB occupancy: 258.034 ROB OUT: 55019253
Heartbeat CPU 0 instructions: 60000002 cycles: 26092679 heartbeat IPC: 0.826066 cumulative IPC: 0.826066 (Simulation time: 0 hr 9 min 44 sec) 
Cycle: 30000000 FTQ IN: 8223377 FTQ occupancy: 13.428 DECODE IN: 8223377 DECODE occupancy: 4.4238 ROB IN: 8223368 ROB occupancy: 49.8469 ROB OUT: 8223186
Heartbeat CPU 0 instructions: 70000000 cycles: 38110167 heartbeat IPC: 0.83212 cumulative IPC: 0.829082 (Simulation time: 0 hr 11 min 34 sec) 
Cycle: 40000000 FTQ IN: 8333799 FTQ occupancy: 13.4267 DECODE IN: 8333799 DECODE occupancy: 4.43369 ROB IN: 8333808 ROB occupancy: 48.4584 ROB OUT: 8334106
Cycle: 50000000 FTQ IN: 8310782 FTQ occupancy: 13.4817 DECODE IN: 8310782 DECODE occupancy: 4.43671 ROB IN: 8310782 ROB occupancy: 47.959 ROB OUT: 8310781
Heartbeat CPU 0 instructions: 80000002 cycles: 50185596 heartbeat IPC: 0.828128 cumulative IPC: 0.828764 (Simulation time: 0 hr 13 min 19 sec) 
Cycle: 60000000 FTQ IN: 8217696 FTQ occupancy: 13.4613 DECODE IN: 8217712 DECODE occupancy: 4.43705 ROB IN: 8217712 ROB occupancy: 50.3796 ROB OUT: 8217731
Heartbeat CPU 0 instructions: 90000003 cycles: 62262588 heartbeat IPC: 0.828021 cumulative IPC: 0.828578 (Simulation time: 0 hr 14 min 58 sec) 
Cycle: 70000000 FTQ IN: 8380926 FTQ occupancy: 13.5003 DECODE IN: 8380910 DECODE occupancy: 4.46953 ROB IN: 8380906 ROB occupancy: 48.7101 ROB OUT: 8380898
Heartbeat CPU 0 instructions: 100000001 cycles: 74228691 heartbeat IPC: 0.835694 cumulative IPC: 0.829991 (Simulation time: 0 hr 16 min 56 sec) 
Finished CPU 0 instructions: 50000003 cycles: 60241588 cumulative IPC: 0.829991 (Simulation time: 0 hr 16 min 56 sec) 

ChampSim completed all CPUs

Region of Interest Statistics

CPU 0 cumulative IPC: 0.829991 instructions: 50000003 cycles: 60241588
 Fetch stage stalled: 36.0874  Sim cycles: 60241588 fetch stall cycle: 21739614
 Empty decode stage: 67.9781  Sim cycles: 60241588 fetch stall cycle: 40951078
ITLB TOTAL     ACCESS:    7192601  HIT:    6700410  MISS:     492191  HIT %:     93.157  MISS %:    6.84302   MPKI: 9.84382
ITLB LOAD TRANSLATION INSTRUCTION	ACCESS:    7192601  HIT:    6700410  MISS:     492191  HIT %:     93.157  MISS %:    6.84302  MPKI: 9.84382

ITLB AVERAGE MISS LATENCY: 9.03344 cycles
ITLB RQ	ACCESS:    8269022	FORWARD:          0	MERGED:     872120	TO_CACHE:    7396902

DTLB TOTAL     ACCESS:   10405051  HIT:    9932444  MISS:     472607  HIT %:    95.4579  MISS %:    4.54209   MPKI: 9.45214
DTLB LOAD TRANSLATION DATA	ACCESS:   10405051  HIT:    9932444  MISS:     472607  HIT %:    95.4579  MISS %:    4.54209  MPKI: 9.45214

DTLB AVERAGE MISS LATENCY: 9.27364 cycles
DTLB RQ	ACCESS:   14485829	FORWARD:          0	MERGED:    4053246	TO_CACHE:   10432583

STLB TOTAL     ACCESS:    1226536  HIT:    1224639  MISS:       1897  HIT %:    99.8453  MISS %:   0.154663   MPKI: 0.03794
STLB LOAD TRANSLATION INSTRUCTION	ACCESS:     492191  HIT:     491996  MISS:        195  HIT %:    99.9604  MISS %:  0.0396188  MPKI: 0.0039
STLB LOAD TRANSLATION DATA	ACCESS:     472590  HIT:     470906  MISS:       1684  HIT %:    99.6437  MISS %:   0.356334  MPKI: 0.03368
STLB TRANSLATION FROM L1D PREFETCHER DATA	ACCESS:     261755  HIT:     261737  MISS:         18  HIT %:    99.9931  MISS %: 0.00687666  MPKI: 0.00036

STLB AVERAGE MISS LATENCY: 67.991 cycles
STLB RQ	ACCESS:    1344939	FORWARD:          0	MERGED:     118364	TO_CACHE:    1226575

STLB Hit, L1D data hit: 0
STLB Hit, L2C data hit: 0
STLB Hit, LLC data hit: 0
STLB Hit, LLC data miss: 0
STLB STLB hints to L2: 0
L1D TOTAL     ACCESS:   14289203  HIT:   13181370  MISS:    1107833  HIT %:    92.2471  MISS %:    7.75294   MPKI: 22.1567
L1D LOAD DATA	ACCESS:    7636820  HIT:    6909724  MISS:     727096  HIT %:    90.4791  MISS %:    9.52093  MPKI: 14.5419
L1D RFO DATA	ACCESS:    6312077  HIT:    6025577  MISS:     286500  HIT %:    95.4611  MISS %:    4.53892  MPKI: 5.73
L1D PREFETCH DATA	ACCESS:     340306  HIT:     246069  MISS:      94237  HIT %:    72.3082  MISS %:    27.6918  MPKI: 1.88474

L1D PREFETCH  REQUESTED:     760368  ISSUED:     760368  USEFUL:      34521  USELESS:      68441
L1D USEFUL LOAD PREFETCHES:      34521 PREFETCH ISSUED TO LOWER LEVEL:     103049  ACCURACY: 33.4996
 TIMELY PREFETCHES:      34521 LATE PREFETCHES: 8732 DROPPED PREFETCHES: 4
L1D AVERAGE MISS LATENCY: 346051 cycles
L1D RQ	ACCESS:   11465870	FORWARD:          0	MERGED:    3642617	TO_CACHE:    7665103
L1D WQ	ACCESS:    6939555	FORWARD:     158236	MERGED:     118829	TO_CACHE:    6820726
L1D PQ	ACCESS:     380227	FORWARD:          0	MERGED:          0	TO_CACHE:     380141

L1D UNIQUE REGIONS ACCESSED: 0
L1D REGIONS CONFLICTS: 0
L1D Cross Page Prefetch Requests: 6832
L1D Same Page Prefetch Requests: 761994
L1D ROI Sum of L1D PQ occupancy: 4828878
L1D PREFETCHES PUSHED FROM L2C: 0
L1I TOTAL     ACCESS:    7867519  HIT:    5112830  MISS:    2754689  HIT %:    64.9866  MISS %:    35.0134   MPKI: 55.0938
L1I LOAD INSTRUCTION	ACCESS:    7867519  HIT:    5112830  MISS:    2754689  HIT %:    64.9866  MISS %:    35.0134  MPKI: 55.0938

L1I AVERAGE MISS LATENCY: 16.8212 cycles
L1I RQ	ACCESS:   15472615	FORWARD:          0	MERGED:    7203593	TO_CACHE:    8269022

L1BTB TOTAL     ACCESS:    5672143  HIT:    2054115  MISS:    3618028  HIT %:    36.2141  MISS %:    63.7859   MPKI: 72.3606
L1BTB BRANCH_DIRECT_JUMP	ACCESS:     550042 HIT:     145875 MISS:     404167 AVERAGE STALL: 25.6382 AVERAGE FETCH STALL: 16.8503 AVERAGE FETCH QUEUE STALL: 2.96747 AVERAGE DECODE STALL: 4.82048 AVERAGE EXECUTE STALL: 3.44496e+14
L1BTB BRANCH_INDIRECT	ACCESS:     183640 HIT:      66536 MISS:     117104 AVERAGE STALL: 54.1695 AVERAGE FETCH STALL: 12.6231 AVERAGE FETCH QUEUE STALL: 3.67967 AVERAGE DECODE STALL: 4.12241 AVERAGE EXECUTE STALL: 32.7443
L1BTB BRANCH_CONDITIONAL	ACCESS:    2717387 HIT:    1426619 MISS:    1290768 AVERAGE STALL: 26.1681 AVERAGE FETCH STALL: 17.7428 AVERAGE FETCH QUEUE STALL: 3.08534 AVERAGE DECODE STALL: 4.33721 AVERAGE EXECUTE STALL: 1.27728e+14
L1BTB BRANCH_DIRECT_CALL	ACCESS:     939775 HIT:     105163 MISS:     834612 AVERAGE STALL: 28.5968 AVERAGE FETCH STALL: 19.0705 AVERAGE FETCH QUEUE STALL: 3.74775 AVERAGE DECODE STALL: 4.7785 AVERAGE EXECUTE STALL: 1.581e+14
L1BTB BRANCH_INDIRECT_CALL	ACCESS:     170781 HIT:      20755 MISS:     150026 AVERAGE STALL: 69.5825 AVERAGE FETCH STALL: 12.8827 AVERAGE FETCH QUEUE STALL: 3.9251 AVERAGE DECODE STALL: 4.74907 AVERAGE EXECUTE STALL: 47.0257
L1BTB BRANCH_RETURN	ACCESS:    1110518 HIT:     289167 MISS:     821351 AVERAGE STALL: 28.7818 AVERAGE FETCH STALL: 15.6819 AVERAGE FETCH QUEUE STALL: 3.32547 AVERAGE DECODE STALL: 4.49406 AVERAGE EXECUTE STALL: 1.81503e+14
L1BTB BRANCH_OTHER ACCESS:          0 HIT:          0 MISS:          0 AVERAGE STALL: -nan AVERAGE FETCH STALL: -nan AVERAGE FETCH QUEUE STALL: -nan AVERAGE DECODE STALL: -nan AVERAGE EXECUTE STALL: -nan
L1BTB TOTAL ROB OCCUPANCY AT BTB MISS: 4.68333

L2BTB TOTAL     ACCESS:    3592487  HIT:    3154126  MISS:     438361  HIT %:    87.7978  MISS %:    12.2022   MPKI: 8.76722
L2BTB BRANCH_DIRECT_JUMP	ACCESS:     399931 HIT:     350612 MISS:      49319 AVERAGE STALL: 25.6382 AVERAGE FETCH STALL: 16.8503 AVERAGE FETCH QUEUE STALL: 2.96747 AVERAGE DECODE STALL: 4.82048 AVERAGE EXECUTE STALL: 3.44496e+14
L2BTB BRANCH_INDIRECT	ACCESS:     106839 HIT:     101542 MISS:       5297 AVERAGE STALL: 54.1695 AVERAGE FETCH STALL: 12.6231 AVERAGE FETCH QUEUE STALL: 3.67967 AVERAGE DECODE STALL: 4.12241 AVERAGE EXECUTE STALL: 32.7443
L2BTB BRANCH_CONDITIONAL	ACCESS:    1290768 HIT:    1145591 MISS:     145177 AVERAGE STALL: 26.1681 AVERAGE FETCH STALL: 17.7428 AVERAGE FETCH QUEUE STALL: 3.08534 AVERAGE DECODE STALL: 4.33721 AVERAGE EXECUTE STALL: 1.27728e+14
L2BTB BRANCH_DIRECT_CALL	ACCESS:     834612 HIT:     717915 MISS:     116697 AVERAGE STALL: 28.5968 AVERAGE FETCH STALL: 19.0705 AVERAGE FETCH QUEUE STALL: 3.74775 AVERAGE DECODE STALL: 4.7785 AVERAGE EXECUTE STALL: 1.581e+14
L2BTB BRANCH_INDIRECT_CALL	ACCESS:     140390 HIT:     118758 MISS:      21632 AVERAGE STALL: 69.5825 AVERAGE FETCH STALL: 12.8827 AVERAGE FETCH QUEUE STALL: 3.9251 AVERAGE DECODE STALL: 4.74907 AVERAGE EXECUTE STALL: 47.0257
L2BTB BRANCH_RETURN	ACCESS:     819947 HIT:     719708 MISS:     100239 AVERAGE STALL: 28.7818 AVERAGE FETCH STALL: 15.6819 AVERAGE FETCH QUEUE STALL: 3.32547 AVERAGE DECODE STALL: 4.49406 AVERAGE EXECUTE STALL: 1.81503e+14
L2BTB BRANCH_OTHER ACCESS:          0 HIT:          0 MISS:          0 AVERAGE STALL: -nan AVERAGE FETCH STALL: -nan AVERAGE FETCH QUEUE STALL: -nan AVERAGE DECODE STALL: -nan AVERAGE EXECUTE STALL: -nan
L2BTB TOTAL ROB OCCUPANCY AT BTB MISS: 38.654

L2C TOTAL     ACCESS:    4464367  HIT:    4022948  MISS:     441419  HIT %:    90.1124  MISS %:    9.88761   MPKI: 8.82838
L2C LOAD INSTRUCTION	ACCESS:    2754688  HIT:    2512405  MISS:     242283  HIT %:    91.2047  MISS %:     8.7953  MPKI: 4.84566
L2C LOAD TRANSLATION INSTRUCTION	ACCESS:        214  HIT:         70  MISS:        144  HIT %:    32.7103  MISS %:    67.2897  MPKI: 0.00288
L2C LOAD DATA	ACCESS:     718346  HIT:     646912  MISS:      71434  HIT %:    90.0558  MISS %:    9.94423  MPKI: 1.42868
L2C RFO DATA	ACCESS:     286416  HIT:     242282  MISS:      44134  HIT %:    84.5909  MISS %:    15.4091  MPKI: 0.88268
L2C PREFETCH DATA	ACCESS:     185454  HIT:     116187  MISS:      69267  HIT %:      62.65  MISS %:      37.35  MPKI: 1.38534
L2C WRITEBACK DATA	ACCESS:     517496  HIT:     504620  MISS:      12876  HIT %:    97.5119  MISS %:    2.48814  MPKI: 0.25752
L2C LOAD TRANSLATION DATA	ACCESS:       1717  HIT:        450  MISS:       1267  HIT %:    26.2085  MISS %:    73.7915  MPKI: 0.02534
L2C TRANSLATION FROM L1D PREFETCHER DATA	ACCESS:         36  HIT:         22  MISS:         14  HIT %:    61.1111  MISS %:    38.8889  MPKI: 0.00028

L2C PREFETCH  REQUESTED:      89348  ISSUED:      89348  USEFUL:       7579  USELESS:      62213
L2C USEFUL LOAD PREFETCHES:       7579 PREFETCH ISSUED TO LOWER LEVEL:      69815  ACCURACY: 10.8558
 TIMELY PREFETCHES:       7579 LATE PREFETCHES: 548 DROPPED PREFETCHES: 0
L2C AVERAGE MISS LATENCY: 38.7765 cycles
L2C RQ	ACCESS:    3761439	FORWARD:          0	MERGED:          0	TO_CACHE:    3761417
L2C WQ	ACCESS:     517496	FORWARD:         22	MERGED:          0	TO_CACHE:     517496
L2C PQ	ACCESS:     192397	FORWARD:          0	MERGED:       3676	TO_CACHE:     188721

L2C Dense regions hint from L2: 0
PSCL5 TOTAL     ACCESS:       3810  HIT:       1905  MISS:       1905  HIT %:         50  MISS %:         50   MPKI: 0.0381
PSCL5 LOAD TRANSLATION INSTRUCTION	ACCESS:       3738  HIT:       1869  MISS:       1869  HIT %:         50  MISS %:         50  MPKI: 0.03738
PSCL5 TRANSLATION FROM L1D PREFETCHER INSTRUCTION	ACCESS:         72  HIT:         36  MISS:         36  HIT %:         50  MISS %:         50  MPKI: 0.00072


PSCL4 TOTAL     ACCESS:       3785  HIT:       1892  MISS:       1893  HIT %:    49.9868  MISS %:    50.0132   MPKI: 0.03786
PSCL4 LOAD TRANSLATION INSTRUCTION	ACCESS:       1856  HIT:       1856  MISS:          0  HIT %:        100  MISS %:          0  MPKI: 0
PSCL4 TRANSLATION FROM L1D PREFETCHER INSTRUCTION	ACCESS:         36  HIT:         36  MISS:          0  HIT %:        100  MISS %:          0  MPKI: 0
PSCL4 LOAD TRANSLATION DATA	ACCESS:       1857  HIT:          0  MISS:       1857  HIT %:          0  MISS %:        100  MPKI: 0.03714
PSCL4 TRANSLATION FROM L1D PREFETCHER DATA	ACCESS:         36  HIT:          0  MISS:         36  HIT %:          0  MISS %:        100  MPKI: 0.00072


PSCL3 TOTAL     ACCESS:       3787  HIT:       1893  MISS:       1894  HIT %:    49.9868  MISS %:    50.0132   MPKI: 0.03788
PSCL3 LOAD TRANSLATION INSTRUCTION	ACCESS:       1857  HIT:       1857  MISS:          0  HIT %:        100  MISS %:          0  MPKI: 0
PSCL3 TRANSLATION FROM L1D PREFETCHER INSTRUCTION	ACCESS:         36  HIT:         36  MISS:          0  HIT %:        100  MISS %:          0  MPKI: 0
PSCL3 LOAD TRANSLATION DATA	ACCESS:       1858  HIT:          0  MISS:       1858  HIT %:          0  MISS %:        100  MPKI: 0.03716
PSCL3 TRANSLATION FROM L1D PREFETCHER DATA	ACCESS:         36  HIT:          0  MISS:         36  HIT %:          0  MISS %:        100  MPKI: 0.00072


PSCL2 TOTAL     ACCESS:       3750  HIT:       1845  MISS:       1905  HIT %:       49.2  MISS %:       50.8   MPKI: 0.0381
PSCL2 LOAD TRANSLATION INSTRUCTION	ACCESS:       2004  HIT:       1809  MISS:        195  HIT %:    90.2695  MISS %:    9.73054  MPKI: 0.0039
PSCL2 TRANSLATION FROM L1D PREFETCHER INSTRUCTION	ACCESS:         36  HIT:         36  MISS:          0  HIT %:        100  MISS %:          0  MPKI: 0
PSCL2 LOAD TRANSLATION DATA	ACCESS:       1674  HIT:          0  MISS:       1674  HIT %:          0  MISS %:        100  MPKI: 0.03348
PSCL2 TRANSLATION FROM L1D PREFETCHER DATA	ACCESS:         36  HIT:          0  MISS:         36  HIT %:          0  MISS %:        100  MPKI: 0.00072


LLC TOTAL     ACCESS:     492820  HIT:     465512  MISS:      27308  HIT %:    94.4588  MISS %:    5.54117   MPKI: 0.54616
LLC LOAD INSTRUCTION	ACCESS:     242283  HIT:     241570  MISS:        713  HIT %:    99.7057  MISS %:   0.294284  MPKI: 0.01426
LLC LOAD TRANSLATION INSTRUCTION	ACCESS:        144  HIT:        112  MISS:         32  HIT %:    77.7778  MISS %:    22.2222  MPKI: 0.00064
LLC LOAD DATA	ACCESS:      70890  HIT:      67628  MISS:       3262  HIT %:    95.3985  MISS %:     4.6015  MPKI: 0.06524
LLC RFO DATA	ACCESS:      44113  HIT:      30751  MISS:      13362  HIT %:    69.7096  MISS %:    30.2904  MPKI: 0.26724
LLC PREFETCH DATA	ACCESS:      69812  HIT:      60279  MISS:       9533  HIT %:    86.3448  MISS %:    13.6552  MPKI: 0.19066
LLC WRITEBACK DATA	ACCESS:      64297  HIT:      63955  MISS:        342  HIT %:    99.4681  MISS %:   0.531907  MPKI: 0.00684
LLC LOAD TRANSLATION DATA	ACCESS:       1267  HIT:       1203  MISS:         64  HIT %:    94.9487  MISS %:     5.0513  MPKI: 0.00128
LLC TRANSLATION FROM L1D PREFETCHER DATA	ACCESS:         14  HIT:         14  MISS:          0  HIT %:        100  MISS %:          0  MPKI: 0

LLC AVERAGE MISS LATENCY: 154.746 cycles
LLC RQ	ACCESS:     358728	FORWARD:          0	MERGED:          0	TO_CACHE:     358711
LLC WQ	ACCESS:      64297	FORWARD:         20	MERGED:          0	TO_CACHE:      64297
LLC PQ	ACCESS:      69815	FORWARD:          0	MERGED:          0	TO_CACHE:      69812

LLC Dense regions hint to LLC: 0

RAW hits: 1168953
Loads Generated: 12634824
Loads sent to L1D: 11465870
Stores Generated: 6939544
Stores sent to L1D: 6939555
Major fault: 0 Minor fault: 2500
Allocated PAGES: 2500

stream: 
stream:times selected: 1199642
stream:pref_filled: 120480
stream:pref_useful: 24570
stream:pref_late: 6516
stream:misses: 7224
stream:misses_by_poll: 0

CS: 
CS:times selected: 179933
CS:pref_filled: 58131
CS:pref_useful: 34871
CS:pref_late: 7142
CS:misses: 16166
CS:misses_by_poll: 0

CPLX: 
CPLX:times selected: 1018598
CPLX:pref_filled: 22536
CPLX:pref_useful: 5410
CPLX:pref_late: 2909
CPLX:misses: 91531
CPLX:misses_by_poll: 3

NL_L1: 
NL:times selected: 20513
NL:pref_filled: 673
NL:pref_useful: 289
NL:pref_late: 345
NL:misses: 1495
NL:misses_by_poll: 0

total selections: 2418686
total_filled: 94237
total_useful: 34521
total_late: 18298
total_polluted: 3
total_misses_after_warmup: 755379
conflicts: 6002828

test: 119344

DRAM Statistics
 CHANNEL 0
 RQ ROW_BUFFER_HIT:       9820  ROW_BUFFER_MISS:      17139
 DBUS_CONGESTED:          5
 WQ ROW_BUFFER_HIT:       1321  ROW_BUFFER_MISS:      12400  FULL:          0

 AVG_CONGESTED_CYCLE: 3

CPU 0 Branch Prediction Accuracy: 99.8245% MPKI: 0.321 Average ROB Occupancy at Mispredict: 74.5721
Branch types
NOT_BRANCH: 40856536 81.7131%
BRANCH_DIRECT_JUMP: 550042 1.10008%
BRANCH_INDIRECT: 183640 0.36728%
BRANCH_CONDITIONAL: 6188345 12.3767%
BRANCH_DIRECT_CALL: 939775 1.87955%
BRANCH_INDIRECT_CALL: 170781 0.341562%
BRANCH_RETURN: 1110518 2.22104%
BRANCH_OTHER: 0 0%

DRAM PAGES: 1048576
Allocated PAGES: 2500
Average_ROB_Occupancy: 49.795
Average_Decode_Occupancy: 4.43579
Average_FTQ_Occupancy: 13.4411
Indirect max targets: 14 Average targets: 1.14527
Branch_type:  BRANCH_DIRECT_JUMP:  Count Percentage: 3.83254 5.22747 4.46891 7.21447 2.9599 6.01204 1.52967 68.755 
Branch_type:  BRANCH_INDIRECT:  Count Percentage: 6.15595 3.45596 8.18332 9.69391 3.33391 2.79888 3.05958 63.3185 
Branch_type:  BRANCH_CONDITIONAL:  Count Percentage: 26.3254 2.09831 1.5393 3.86457 2.04745 3.99283 1.24759 58.8845 
Branch_type:  BRANCH_DIRECT_CALL:  Count Percentage: 0.391287 1.2672 0.768944 2.87009 3.03196 2.63375 1.24132 87.7955 
Branch_type:  BRANCH_INDIRECT_CALL:  Count Percentage: 9.55481 0 2.99431 0 0 1.71091 3.28859 82.4514 
Branch_type:  BRANCH_RETURN:  Count Percentage: 7.91486 1.39208 1.04643 4.08365 3.64945 4.32703 1.57551 76.011 
Branch_type:  BRANCH_DIRECT_JUMP:  Total Count: 42127 57460 49122 79301 32535 66084 16814 755751 
Branch_type:  BRANCH_INDIRECT:  Total Count: 22597 12686 30039 35584 12238 10274 11231 232427 
Branch_type:  BRANCH_CONDITIONAL:  Total Count: 3256597 259572 190420 478068 253281 493935 154334 7284327 
Branch_type:  BRANCH_DIRECT_CALL:  Total Count: 7349 23800 14442 53905 56945 49466 23314 1648940 
Branch_type:  BRANCH_INDIRECT_CALL:  Total Count: 32631 0 10226 0 0 5843 11231 281583 
Branch_type:  BRANCH_RETURN:  Total Count: 175743 30910 23235 90674 81033 96078 34983 1687761 
Number of unique branch instructions: 9803
Upper 32 bits: 
aaaa
ffff
ffff0000
Unique upper 32 bits: 3
Unique upper 36 bits: 3
Unique upper 40 bits: 5
Unique upper 44 bits: 32
Unique upper 48 bits: 154
Offset_3 4033
Offset_4 245
Offset_5 448
Offset_6 499
Offset_7 572
Offset_8 504
Offset_9 464
Offset_10 376
Offset_11 300
Offset_12 269
Offset_13 203
Offset_14 225
Offset_15 184
Offset_16 220
Offset_17 143
Offset_18 118
Offset_19 234
Offset_20 137
Offset_21 235
Offset_22 389
Offset_23 241
Offset_24 331
Offset_25 88
Offset_47 82
decode_dispatch_called: 29646172 49.2121
Dispatch_width: 0 17545366 59.1826 29.125
Dispatch_width: 1 2123317 7.1622 3.52467
Dispatch_width: 2 1267902 4.27678 2.1047
Dispatch_width: 3 1139319 3.84306 1.89125
Dispatch_width: 4 1162423 3.92099 1.9296
Dispatch_width: 5 1174173 3.96062 1.94911
Dispatch_width: 6 5233672 17.6538 8.68781
Empty_decode_cycles: 30595416 50.7879
ROB_full_cycles: 437311 0.725929
Starvation_cycles_per_kilo_instr: 545.706
Starvation_cycles_per_kilo_instr_3: 522.34
Starvation_cycles_per_kilo_instr_0: 477.035
Branch_type_1  (3,1)  (4,9)  (5,37)  (6,68)  (7,113)  (8,128)  (9,123)  (10,97)  (11,67)  (12,43)  (13,5)  (14,2)  (15,3)  (16,4)  (18,1)  (19,4)  (20,2)  (21,1)  (22,3)  (23,2)  (24,10)  (25,12) 
Branch_type_2  (3,1)  (5,1)  (8,3)  (9,3)  (12,1)  (13,1)  (14,1)  (16,3)  (17,2)  (20,2)  (21,2)  (23,5)  (24,1)  (47,38) 
Branch_type_3  (3,4031)  (4,236)  (5,406)  (6,416)  (7,430)  (8,314)  (9,255)  (10,152)  (11,120)  (12,50)  (13,4) 
Branch_type_4  (6,3)  (7,8)  (8,24)  (9,52)  (10,60)  (11,57)  (12,96)  (13,88)  (14,99)  (15,86)  (16,98)  (17,64)  (18,53)  (19,114)  (20,72)  (21,124)  (22,206)  (23,136)  (24,192)  (25,72) 
Branch_type_5  (8,2)  (9,1)  (10,3)  (11,5)  (12,3)  (13,14)  (14,16)  (15,11)  (16,20)  (17,11)  (18,16)  (19,12)  (20,10)  (21,13)  (22,42)  (23,26)  (24,37) 
Branch_type_6  (5,4)  (6,12)  (7,21)  (8,33)  (9,30)  (10,64)  (11,51)  (12,76)  (13,91)  (14,107)  (15,84)  (16,95)  (17,66)  (18,48)  (19,104)  (20,51)  (21,95)  (22,138)  (23,72)  (24,91)  (25,4)  (47,44) 
aaaaab1fc620: 2ac9e77e 2aca717c 2aca8eff 2acaf6bc 2acaf9aa 2acaf9f1 2acb1abc 2acb1b7f 2acd4e22 2acdb712 2acf5f9e 2ad0ef44 2ad3f15c 2ad414e6 2ad60e42 2ad8609c 2ad99830 2ada35cc 2ada4676 2ada6612 2adf183e 2adf30e5 2adf5602 2adf785c 2ae11572 2aeb2dcf 2aee101b 2aee1ae1 2aee9456 2b156a8c 2b156b61 2b156bea 2b167f35 2b177656 2b17feec 2b1a3e5a 
aaaaab1fc740: 2aca1fb0 2aca45b3 2aca5aa1 2aca5c69 2aca66f9 2aca9426 2acaeecb 2acf3d2d 2acf3d64 2acf6089 2ad017ea 2ad5e7ef 2ad61064 2ad87373 2ad9bf84 2ad9c093 2ae9b606 2aea9ffa 2aee99f5 2aee9a2c 2aeece4b 
aaaaac68f310: 2ac9ec8c 2ac9fb44 2ac9fbd2 2aca59ab 2acac04c 2acaf6e0 2acaf6ec 2acaf6f9 2acaf700 2acaf708 2acf2d90 2ad3cfbd 2ad3cfc4 2ad3d000 2ad3f35f 2ad4955d 2ad49571 2ad4f3f2 2ad4f400 2ad5f240 2ad5f37c 2ad5f86a 2ad5f86f 2ad5f880 2ad5fc0d 2ad5fc14 2ad5fc21 2ad5fe1b 2ad873bb 2ad873e3 2ad8a6b2 2ad9086e 2ad93096 2ad9bbb2 2ada152c 2ada1554 2ada3332 2ada5522 2adf3130 2adf313c 2adf3a3f 2adf3bd9 2adf5788 2adf7a8d 2ae07f6b 2ae0857a 2ae0857e 2ae08630 2ae08634 2ae08637 2ae08642 2ae0866f 2ae086e4 2ae086ec 2ae08717 2ae0871b 2aee0170 2aee1d38 2aee75f4 2aee7662 2aee85ca 2aee85e4 2aee8eef 2aee9a0a 2af70b84 2af74e8f 2b17d843 
aaaaac690ef0: 2aca598b 2acb111b 2acb175f 2acb1772 2acbfaf4 2acbfb00 2acf374f 2acf6d43 2acfa5c8 2ad3baf1 2ad3d4ac 2ad3d4b8 2ad3f1cf 2ad486b2 2ad5a59b 2ad5fc64 2ad5fcf9 2ad6121c 2ad906e9 2ad907bf 2ad9bada 2ada16ce 2ada1ad5 2ada43df 2ada64c0 2ada72ee 2adeb71a 2adf3bcb 2adf7a38 2adf7c6a 2adf8872 2adf8880 2adf9959 2adf9abe 2ae07f78 2ae08503 2ae08754 2ae12e80 2aea3bea 2aecb509 2aee00b0 2aee2bdd 2aee5467 2aee5601 2aee8f20 2af703fd 2af7048b 2af74e74 2dfba627 
Unique trigger count: 
1 9362
2 479
3 82
4 31
5 8
6 7
7 6
8 1
9 3
10 1
11 2
12 1
13 3
16 2
18 2
19 2
21 1
36 1
49 1
67 1
BTB PER SET UNIQUE ADDR: 2 4 3 2 1 0 3 2 4 0 2 0 5 3 1 3 3 2 3 4 3 4 2 3 4 5 1 4 3 2 6 6 4 2 4 2 1 5 5 2 3 4 3 6 6 2 4 3 6 3 3 2 3 1 0 3 4 3 3 3 1 4 2 3 1 4 5 2 3 5 5 1 1 4 2 3 3 6 1 3 2 2 1 4 3 3 2 5 3 3 6 4 3 5 2 0 3 3 1 3 4 2 3 3 2 2 1 2 3 2 2 1 3 6 2 6 2 4 4 1 4 4 2 0 1 2 2 1 6 4 5 2 4 1 5 3 2 1 3 3 5 3 3 2 1 4 2 5 4 3 3 8 3 5 3 0 3 3 3 2 4 5 4 4 4 3 2 2 8 1 2 2 4 2 1 1 3 4 5 1 3 3 6 3 4 5 3 1 2 3 5 3 3 4 4 4 2 3 3 5 3 2 4 1 3 3 2 4 2 1 2 4 5 4 3 2 3 5 4 0 1 1 2 3 3 2 3 3 0 3 8 3 3 2 3 3 3 2 1 2 1 0 5 3 9 7 1 1 3 3 2 2 1 3 2 6 3 4 4 3 4 4 4 2 3 6 3 1 4 2 3 2 2 3 4 2 1 1 3 3 4 2 6 2 5 5 3 3 1 1 0 3 1 5 1 1 5 3 1 2 3 3 1 2 3 2 4 2 6 5 3 1 3 2 5 1 5 6 2 2 3 6 3 4 2 2 1 6 1 1 4 0 2 5 5 1 2 2 5 0 3 0 1 4 4 2 1 2 3 3 3 5 4 3 5 3 2 0 4 1 2 4 2 4 6 5 1 1 2 1 2 2 2 4 4 4 3 3 3 4 5 3 1 5 3 2 5 2 4 1 5 4 4 2 3 1 5 0 1 3 4 2 4 2 2 4 4 3 1 1 1 3 5 3 2 2 5 3 1 3 1 1 3 4 3 3 2 0 2 4 2 2 9 3 5 5 3 3 3 0 2 4 5 4 4 6 2 4 3 2 4 3 1 1 5 1 1 4 7 2 3 3 4 6 1 3 4 2 3 3 0 4 4 2 2 1 4 5 1 1 2 1 2 2 0 4 3 0 5 1 4 2 3 4 0 6 3 3 3 1 5 1 1 1 1 2 2 2 2 3 3 2 2 6 2 1 2 5 4 5 3 4 4 2 6 5 0 5 6 3 4 3 3 6 3 4 1 1 4 1 2 5 6 2 5 2 7 3 6 9 3 6 3 6 1 3 3 1 2 3 7 2 5 2 2 1 4 2 2 7 3 2 3 7 2 2 3 3 1 5 4 2 1 0 1 0 0 9 5 3 5 7 1 1 2 3 4 2 2 1 3 2 4 6 2 4 3 4 3 2 5 2 3 2 2 2 2 0 3 1 5 3 6 2 2 3 2 5 2 3 5 4 3 2 5 2 2 3 2 2 7 1 4 3 0 0 3 3 3 3 3 2 5 2 3 0 4 3 2 3 5 2 5 4 6 4 5 2 1 4 5 3 4 3 5 6 3 3 3 3 3 2 4 2 5 3 5 3 4 3 1 4 2 2 2 3 6 4 5 3 0 6 0 3 3 2 3 1 3 1 3 3 3 1 2 1 7 2 0 3 2 0 1 1 1 1 1 4 2 4 5 4 2 1 2 4 4 3 2 2 1 3 2 4 2 1 3 2 2 2 0 2 1 3 2 2 2 6 4 1 3 3 1 5 4 4 8 2 2 2 3 3 0 3 3 3 5 2 1 3 3 4 0 3 8 6 3 3 0 2 2 4 1 1 4 6 7 2 2 2 5 3 5 3 4 3 3 5 1 2 1 3 4 0 4 3 1 2 0 4 4 2 4 2 2 1 2 2 4 4 3 1 3 2 5 2 2 1 5 2 2 1 3 3 1 4 6 4 4 2 6 2 5 4 4 5 3 2 4 4 2 6 2 1 9 3 2 4 5 3 1 3 3 6 4 0 2 2 5 4 3 5 3 4 5 3 2 2 2 4 4 2 3 3 3 1 6 3 1 1 5 2 1 3 4 5 3 5 3 4 5 4 0 3 1 5 0 0 5 2 5 4 5 3 4 1 3 2 5 6 4 4 8 7 5 4 6 4 1 5 4 2 0 4 4 5 5 5 3 2 6 0 5 4 2 3 6 5 4 2 2 2 4 5 2 5 9 4 6 3 2 3 0 4 5 1 6 5 1 3 6 5 3 4 2 1 2 2 3 2 5 4 2 7 4 3 4 5 3 5 1 2 4 2 2 5 4 3 2 3 5 2 4 3 5 2 5 2 2 3 5 2 9 5 2 3 3 2 2 3 4 7 6 2 3 2 3 2 3 1 3 2 4 4 1 4 5 5 4 6 0 3 3 3 3 4 2 1 2 2 3 1 1 1 4 1 3 3 3 5 2 8 5 3 2 1 10 1 2 4 1 2 5 5 3 6 3 5 5 5 2 5 2 2 1 1 5 0 4 4 3 7 4 1 7 4 6 2 3 4 5 3 5 7 4 4 6 1 4 4 7 4 3 3 4 3 6 6 2 6 5 6 4 3 5 3 1 2 4 5 1 3 2 1 3 4 2 2 5 2 2 5 4 1 5 1 7 3 3 2 3 1 3 4 3 4 3 4 2 6 1 3 6 3 3 3 3 5 2 8 3 5 3 8 6 1 6 1 5 2 1 2 4 4 2 1 3 4 2 1 2 1 4 3 3 3 2 3 2 5 2 4 4 5 0 5 3 2 2 6 8 0 6 0 1 4 5 2 5 1 4 3 4 1 1 2 4 5 3 4 1 4 4 6 5 1 4 3 3 6 10 4 2 6 6 5 1 1 3 5 6 3 2 2 4 3 4 4 5 3 1 4 2 2 6 8 5 3 3 6 1 2 5 2 4 1 3 2 6 8 3 3 3 3 4 4 2 5 6 5 4 2 1 5 3 2 4 3 4 4 4 4 7 3 5 4 3 5 5 3 1 7 4 4 3 3 3 2 3 3 2 2 5 4 3 2 5 1 1 3 3 8 5 1 3 4 2 3 3 3 4 3 2 1 3 2 4 2 5 3 4 4 2 1 2 6 1 4 2 4 2 4 5 1 1 4 4 3 3 3 5 2 3 4 4 5 4 4 4 3 3 2 2 3 5 2 4 1 3 0 8 3 2 6 4 4 5 7 3 2 3 3 1 2 4 1 4 2 4 2 0 5 1 5 2 2 3 3 3 2 4 2 4 2 3 1 5 1 0 3 4 1 1 3 1 4 2 3 6 3 1 2 2 3 2 2 6 2 3 5 3 3 3 3 2 2 3 0 2 2 2 3 2 1 2 0 4 0 4 2 4 3 3 3 2 1 2 4 4 2 7 1 3 3 2 2 4 5 2 2 5 0 1 2 3 1 1 2 3 3 5 3 1 1 5 3 1 4 1 6 1 4 2 3 6 2 2 2 1 3 3 1 1 3 4 1 3 3 1 2 0 5 1 3 3 0 3 2 5 3 4 3 3 4 1 3 1 2 1 3 3 0 2 3 2 3 3 1 3 3 2 9 6 2 2 2 4 1 1 3 5 2 3 0 3 2 3 2 3 4 5 5 7 0 4 1 6 4 4 5 3 7 2 4 8 3 0 6 3 3 3 4 3 3 2 1 2 4 2 2 2 3 2 3 5 3 5 3 6 1 1 5 5 3 3 4 4 3 6 2 5 5 2 6 3 3 3 1 3 7 5 3 2 3 3 3 3 4 2 2 3 1 3 1 3 7 0 2 2 3 3 3 5 3 4 2 6 1 2 2 5 2 4 5 6 1 1 7 2 4 2 3 4 6 2 3 2 3 6 3 3 3 5 3 4 9 4 4 3 5 2 5 4 3 2 3 0 2 2 3 4 3 2 3 3 4 4 2 3 7 0 3 2 4 4 4 3 4 3 6 2 4 1 5 2 3 4 2 3 0 2 5 0 7 2 5 5 1 4 3 2 0 4 2 3 5 3 6 2 2 2 1 3 4 6 1 3 3 0 3 2 4 5 3 1 3 5 2 3 2 6 3 4 1 5 3 0 2 4 1 1 8 2 0 4 1 4 3 2 3 6 3 3 6 1 5 3 5 2 5 4 2 3 2 7 1 4 0 3 3 4 4 3 3 2 1 2 3 0 3 0 3 4 6 2 2 5 2 3 3 3 1 2 2 4 2 4 2 5 3 2 3 1 2 3 3 3 2 3 4 2 1 1 2 2 5 1 4 1 5 4 2 3 1 4 1 2 3 5 2 3 4 4 5 3 3 3 4 3 2 0 3 2 0 2 1 2 2 4 2 5 2 2 3 4 1 2 4 3 2 3 7 3 2 7 6 4 2 3 1 2 5 3 4 5 2 4 0 1 2 4 3 2 4 3 2 5 3 4 7 4 2 0 4 1 0 2 3 0 4 4 6 1 3 4 6 4 0 2 2 4 1 4 1 3 2 8 3 1 2 3 6 2 7 3 4 7 0 1 3 1 4 2 1 0 2 3 4 5 4 1 0 3 4 5 1 1 1 3 5 2 1 5 4 3 3 5 4 1 6 2 6 2 1 2 2 2 2 5 1 3 1 3 2 3 1 5 2 5 3 4 2 1 3 5 4 4 0 
BTB PER SET COUNT: 2 4 3 2 1 0 3 2 4 0 2 0 2527 3 1 3 3 2 3 1463 3 4 3 3 4 15 1 4 1462 2 3032 27 4 2 4 2 2920 685 686 2 3 4 5 2249 5233 2 4 3 1678 3 3 2 3 1 0 3 4 3 4 3 1 4 2 3 1 390 644 2 3 925 685 1 1 4 3 3 508 694 2 3 2 2 2 4 3 3 2 12 3 3 2576 452 3 3768 2 0 3 5 1 3 5 2 3 3 2 2 1 2 3 2 2 1 4 1972 2 1719 2 4 4 1 4 4 2 0 1 2 2 1 3559 5 2022 3 4 1 1015 3 2 1 3 3 1978 4 3 2 1 8 2 4271 4 3 3 6685 3 2528 3 0 3 3 3 2 6 911 4 4 4 1913 3 2 8201 1 2 2 4 2 1 1 3 5 972 1 3 3 6852 3 4 8 3 1 2 3 45 3 3 4 4 10 2 3 4 6 3 2 4 1 4 3 2 1463 2 1 2 6 16 4 3 2 4 900 4 0 1 1 2 3 4 2 3 29 0 3 5789 3 3 4 3 3 4 2 1 2 2 0 2528 3 9211 2251 1 1 3 3 2 2 1 3 2 2476 3 4 4 3 4 4 4 2 1462 1355 3 1 4 2 3 2 2 3 4 3 1 1 3 3 4 2 2024 2 685 2528 3 3 1 1 0 3 1 16 1 1 10 3 1 2 3 3 1 2 3 2 4 2 2024 912 3 1 3 2 912 2 2528 1150 2 2 3 2198 3 4 2 2 1 697 1 1 1013 0 2 16 1506 1 1012 2 20 0 3 0 1 1014 1014 2 1 2 4 4 3 112 4 3 56 3 2 0 4 1 2 4 2 4 2464 2200 1 1 2 1 2 2 2 4 4 4 3 4 3 4 20 3 1 2238 4 2 11 2 4 1 19 4 4 2 3 1 3225 0 1 3 4 2 4 2 2 5 1463 3 1 955 1 3 9 3 956 2 138 3 1 94 1 1 3 4 3 3 5 0 2 5 120 2 2767 3 903 2526 3 3 3 0 4 5 1138 4 5 922 2 4 3 2 4 3 1 1 2022 1 1 4 1540 2 3 3 4 2031 1 3 5 2 3 3 0 5 42 506 2 1 4 912 1 1 2 2 2 506 0 4 3 0 24 1 5 2 3 4 0 22 3 3 3 1 2022 10 1 1 1 2 3 2 2 3 3 2 2 28 4 1 2 2528 4 513 3 1463 4 2 18 1518 0 2024 4780 3 4 3 3 19 3 509 1 1 4 1 2 1518 176 5 15 3 72 3 1030 9318 3 1530 5 3031 1 3 8 1 2 3 6798 2 2024 2 2 1 5 2 2 3066 3 3 3 5290 2 2 3 3 1 20 4 57 1 0 1 0 0 4047 6 4 2022 3034 1 1 956 3 5 2 2 1 5 2 5 1366 2 4 3 4 3 2 2528 2 3 2 2 2 900 0 4 1 13 508 3537 2 2 3 2 15 2 3 2023 1463 3 2 1013 2 2 3 2 2 3043 1 4 3 0 0 3 4 3 4 3 2 9 2 4 0 4 3 2 3 7927 3 20 4 2025 7 2937 1013 1 4 685 3 4 4 1518 3103 3 3 6 3 3 2 4 1012 1518 4 15 1462 4 3 3 1016 2 3 2 3 2029 4 19 32 0 2531 0 3 3 1012 3 1 3 1 3 3 5 1 1012 1 2488 2 0 4 2 0 1 1 1 1 1 6 2 4 1518 4 956 1 3 4 4 4 2 2 1 3 3 4 2 2 508 2 2 1012 0 2 1 3 2 2 2 3033 4 2 3 3 1 18 4 4 5799 2 4 2 3 4 0 118 4 3 2814 3 1 3 3 5 0 3 3240 4782 3 3 0 2 2 40 1 1 5 1527 2070 3 2 2 10 4 6 4 2024 3 3 18 1 4 1 3 4 0 5 5 3 2 0 4 4 2 4 2 2 1 2 2 4 92 3 1 3 2 2024 4 2 1 1519 2 2 1 3 1468 1 11 2025 4 4 2 2528 2 2026 5 4 12 3 2 4 4 2 4832 2 1 6190 957 2 4 1518 3 1 3 3 2265 4 0 2 2 20 4 3 4776 5 4 66 4 2 2 2 4 4 3 3 3 3 2 688 3 1 1 1737 3 1 64 5 2249 3 912 4 4 51 4 0 3 1 1519 0 0 1013 2 47 4 1518 3 7 1 3 2 2023 109 4 509 5332 3813 1518 4 2152 4 2 20 5 2 0 958 4 2527 38 1518 3 2 716 0 404 4 2 3 1415 2023 5 2 2 507 4 4779 6 16 1118 4 2028 3 2 3 0 390 20 1 7247 17 1 3 2030 18 509 4 2 2 2 3 4 2 1762 4 2 3538 4 3 5 2022 3 20 1 2 4 2 2 21 4 3 2 3 2035 2 2419 389 1693 3 18 5 2 3 1737 2 5103 19 2 3 3 2 2 3 6 3035 2027 2 3 2 3 2 4 2 3 2 4 4 1 4 11 2024 4 1527 0 3 3 3 1463 393 2 1 2 2 4 1 2 1 4 1 3 3 3 9 2 4041 1518 3 2 3 11181 1 2 4 1 2 2022 117 3 5283 3 20 8 2528 2 23 2 2 1 1 22 0 5 4 3 2035 4 1 2113 4 2530 2 509 4 12 3 2528 1917 4 4 2529 1 5 6 4824 5 3 3 4 3 1523 2014 2 2529 1518 2368 4 3 12 4 1 2 4 2022 1 3 2 1 3 5 2 2 517 3 2 17 4 1 12 1 5356 3 3 2 3 1 3 4 3 4 4 5 2 27 1 3 1837 3 3 3 3 2023 2 5866 3 1517 3 2693 7249 1 5283 1 16 2 1 2 509 4 2 1 3 97 2 1 2 506 4 3 3 4 2 3 2 1518 2 4 4 16 0 2023 3 2 2 40 7260 0 33 0 1 4 8 3 19 1 4 1013 4 1 2 2 4 18 4 4 1 4 4 7301 12 1 4 3 3 2936 10280 1922 2 7249 25 2021 1 1 3 2023 2528 3 2 2 5 3 4 4 18 3 1 4 2 2 3384 7895 3768 3 3 486 1 2 22 2 4 1 3 2 3032 6574 957 3 3 3 5 4 2 2022 2027 2525 4 2 1 21 3 2 6 3 4 5 5 4 2030 3 2021 4 508 2023 2526 8 1 3133 4 4 3 3 3 3 3 3 2 2 16 4 3 2 909 1 1 3 3 3042 9 1 3 4 2 3 3 3 5 3 3 1 3 2 4 2 7 3 7 4 2 1 2 920 1 4 2 4 2 4 360 1 1 4 4 957 3 3 2530 2 3 49 4 13 5 4 4 4 3 2 2 4 2023 3 4 2 3 0 5671 3 2 3031 4 4 2525 6748 3 2 3 3 1 3 5 2 4 4 5 4 0 3800 2 12 2 2 3 3 3 2 1463 2 4 1344 3 1 473 1 0 3 4 1 4 1345 1 4 2 3 2026 4 1 2 2 3 3 2 3034 2 3 68 4 3 3 3 2 2 3 0 3 2 2 958 2 1 2 0 6 0 4 2 4 3 3 3 1012 1 14 4 29 2 2533 1 3 3 2 2 6 11 129 2 21461 0 1 2 3 1 1 2 4 3 2078 371 1 1 1419 3 1 4 1 2533 1 4 2 3 2008 2 2 2 1 3 3 1 1 3 4 1 3 3 1 2 0 3767 1 3 3 0 4 441 2014 3 4 3 3 4 1 3 1 2 1 3 3 0 2 3 2 3 6 1 3 3 2 3775 3032 2 2 2 4 1 1 3 1639 2 3 0 3 2 3 2 3 5 2527 15 5787 0 4 1 2249 4 5 22 3 3537 2 4 8258 3 0 3032 1462 3 3 4 3 3 2 1 2 959 2 2 2 3 2 3 1780 3 2021 3 1030 3030 1 1322 6797 3 6 6 4 3 3259 2 1709 2021 2 2026 3 251 390 1 1462 1530 12 212 9 3 3 3 4 4 2 2 3 1 3 1 3 2573 0 2 2 3 3 3 525 3 4 2 3823 1 2 2 1518 2 1518 1518 3031 1 1 6185 2 1014 2 3 4 2027 507 3 2 3 3030 3 508 3 4404 3 4 8715 4 4 14613 3030 2 2024 1463 3 2 3 0 3 2 3 4 3 2 3 3 4 4 2 159 3538 0 1463 2 1463 184 4 3 4 3 2410 2 741 1 2527 2 5 4 2 3 0 2 3046 0 5284 2 1326 2529 1 4 3 3 0 4 2 3 2199 3 4834 2 2 3 1 3 4 7301 1 3 506 0 3 2 5 2022 958 1 3 1967 2 3 2 2249 4 4 1 21 3 0 2 4 1460 1 3989 2 0 4 1 5 3 2 3 2473 3 427 2527 1 2525 3 2023 233 2023 101 2 3 2 4021 1 213 0 3 1462 4 5 4 3 2 3 2 452 0 3 0 3 4 3088 2 2 692 388 3 5 957 1 2 2 4 2 4 2 125 3 2 3 1 2 211 3 3 2 3 4 2 1 1 2 2 1558 1 4 1 3768 4 2 3 6 4 1 2 3 12 2 3 1014 4 1013 3 3 3 5 3 2 0 3 3 0 2 1 2 2 4 6 2527 2 2 3 4 1 2 4 3 2 3 3139 4 2 3258 2530 131 3 3 1 2 20 3 4 9 2 4 0 1 2 4 1013 2 4 3 2 6 3 4 2636 4 2 0 4 1 0 2 3 0 4 1465 1026 1 3 4 2501 4 0 2 2 5 2 4 1 3 2 3989 3 1 2 3 2534 4 3538 3 4 5059 0 1 3 1 4 2 1 0 2 3 4 16 4 2 0 3 4 1518 1 1 1 3 2528 2 1 19 4 3 5 2022 4 1 2531 2 2026 2 1 2 2 2 2 5 1 3 1 3 2 3 1 21 3 228 3 4 2 1 3 1487 4 5 0 
