
*** ChampSim Multicore Out-of-Order Simulator ***

Warmup Instructions: 50000000
Simulation Instructions: 50000000
Number of CPUs: 1
LLC sets: 2048
LLC ways: 16
Off-chip DRAM Size: 4096 MB Channels: 1 Width: 64-bit Data Rate: 6400 MT/s
CPU 0 runs ./micro_traces/srv563.trace.gz
.gz
ITLB has LRU replacement policy
DTLB has LRU replacement policy
STLB has LRU replacement policy
FDIP Prefetcher at L1I
L1I has LRU replacement policy
L1D has LRU replacement policy
Initialize SRRIP state for L2C
Initialize DRRIP state for LLC
Heartbeat CPU 0 instructions: 10000000 cycles: 2797804 heartbeat IPC: 3.57423 cumulative IPC: 3.57423 (Simulation time: 0 hr 1 min 35 sec) 
Heartbeat CPU 0 instructions: 20000000 cycles: 5594622 heartbeat IPC: 3.57549 cumulative IPC: 3.57486 (Simulation time: 0 hr 3 min 10 sec) 
Heartbeat CPU 0 instructions: 30000002 cycles: 8391384 heartbeat IPC: 3.57556 cumulative IPC: 3.5751 (Simulation time: 0 hr 4 min 43 sec) 
Heartbeat CPU 0 instructions: 40000000 cycles: 11187559 heartbeat IPC: 3.57631 cumulative IPC: 3.5754 (Simulation time: 0 hr 6 min 20 sec) 
Heartbeat CPU 0 instructions: 50000003 cycles: 13983538 heartbeat IPC: 3.57657 cumulative IPC: 3.57563 (Simulation time: 0 hr 7 min 56 sec) 

Warmup complete CPU 0 instructions: 50000003 cycles: 13983538 (Simulation time: 0 hr 7 min 56 sec) 

Cycle: 20000000 FTQ IN: 58289599 FTQ occupancy: 20.1849 DECODE IN: 58289552 DECODE occupancy: 52.6789 ROB IN: 58289545 ROB occupancy: 315.751 ROB OUT: 58289317
Heartbeat CPU 0 instructions: 60000000 cycles: 21226262 heartbeat IPC: 1.3807 cumulative IPC: 1.3807 (Simulation time: 0 hr 9 min 46 sec) 
Heartbeat CPU 0 instructions: 70000003 cycles: 28410767 heartbeat IPC: 1.39188 cumulative IPC: 1.38627 (Simulation time: 0 hr 11 min 35 sec) 
Cycle: 30000000 FTQ IN: 13920838 FTQ occupancy: 13.5061 DECODE IN: 13920885 DECODE occupancy: 35.4099 ROB IN: 13920892 ROB occupancy: 238.947 ROB OUT: 13921023
Heartbeat CPU 0 instructions: 80000003 cycles: 35666125 heartbeat IPC: 1.37829 cumulative IPC: 1.3836 (Simulation time: 0 hr 13 min 34 sec) 
Cycle: 40000000 FTQ IN: 13840855 FTQ occupancy: 13.6273 DECODE IN: 13840829 DECODE occupancy: 35.5593 ROB IN: 13840792 ROB occupancy: 240.282 ROB OUT: 13840537
Heartbeat CPU 0 instructions: 90000000 cycles: 42830893 heartbeat IPC: 1.39572 cumulative IPC: 1.38661 (Simulation time: 0 hr 15 min 26 sec) 
Cycle: 50000000 FTQ IN: 13926553 FTQ occupancy: 13.5812 DECODE IN: 13926441 DECODE occupancy: 35.6304 ROB IN: 13926418 ROB occupancy: 239.594 ROB OUT: 13926418
Heartbeat CPU 0 instructions: 100000000 cycles: 50043197 heartbeat IPC: 1.38652 cumulative IPC: 1.38659 (Simulation time: 0 hr 17 min 30 sec) 
Finished CPU 0 instructions: 50000001 cycles: 36059673 cumulative IPC: 1.38659 (Simulation time: 0 hr 17 min 30 sec) 

ChampSim completed all CPUs

Region of Interest Statistics

CPU 0 cumulative IPC: 1.38659 instructions: 50000001 cycles: 36059673
 Fetch stage stalled: 52.331  Sim cycles: 36059673 fetch stall cycle: 18870378
 Empty decode stage: 32.069  Sim cycles: 36059673 fetch stall cycle: 11563958
ITLB TOTAL     ACCESS:    5880190  HIT:    5386231  MISS:     493959  HIT %:    91.5996  MISS %:    8.40039   MPKI: 9.87918
ITLB LOAD TRANSLATION INSTRUCTION	ACCESS:    5756901  HIT:    5262942  MISS:     493959  HIT %:    91.4197  MISS %:    8.58029  MPKI: 9.87918
ITLB TRANSLATION FROM L1D PREFETCHER INSTRUCTION	ACCESS:     123289  HIT:     123289  MISS:          0  HIT %:        100  MISS %:          0  MPKI: 0

ITLB AVERAGE MISS LATENCY: 9.05097 cycles
ITLB RQ	ACCESS:    8026470	FORWARD:          0	MERGED:    1704171	TO_CACHE:    6322299

DTLB TOTAL     ACCESS:    8976583  HIT:    8504509  MISS:     472074  HIT %:    94.7411  MISS %:    5.25895   MPKI: 9.44148
DTLB LOAD TRANSLATION DATA	ACCESS:    8976583  HIT:    8504509  MISS:     472074  HIT %:    94.7411  MISS %:    5.25895  MPKI: 9.44148

DTLB AVERAGE MISS LATENCY: 9.32846 cycles
DTLB RQ	ACCESS:   13347640	FORWARD:          0	MERGED:    4333996	TO_CACHE:    9013644

STLB TOTAL     ACCESS:    1214916  HIT:    1212876  MISS:       2040  HIT %:    99.8321  MISS %:   0.167913   MPKI: 0.0408
STLB LOAD TRANSLATION INSTRUCTION	ACCESS:     493959  HIT:     493709  MISS:        250  HIT %:    99.9494  MISS %:  0.0506115  MPKI: 0.005
STLB LOAD TRANSLATION DATA	ACCESS:     472074  HIT:     470310  MISS:       1764  HIT %:    99.6263  MISS %:    0.37367  MPKI: 0.03528
STLB TRANSLATION FROM L1D PREFETCHER DATA	ACCESS:     248883  HIT:     248857  MISS:         26  HIT %:    99.9896  MISS %:  0.0104467  MPKI: 0.00052

STLB AVERAGE MISS LATENCY: 72.9873 cycles
STLB RQ	ACCESS:    1336286	FORWARD:          0	MERGED:     121334	TO_CACHE:    1214952

STLB Hit, L1D data hit: 0
STLB Hit, L2C data hit: 0
STLB Hit, LLC data hit: 0
STLB Hit, LLC data miss: 0
STLB STLB hints to L2: 0
L1D TOTAL     ACCESS:   13094041  HIT:   11974586  MISS:    1119455  HIT %:    91.4507  MISS %:    8.54935   MPKI: 22.3891
L1D LOAD DATA	ACCESS:    6558452  HIT:    5822026  MISS:     736426  HIT %:    88.7713  MISS %:    11.2287  MPKI: 14.7285
L1D RFO DATA	ACCESS:    6207011  HIT:    5919690  MISS:     287321  HIT %:     95.371  MISS %:    4.62898  MPKI: 5.74642
L1D PREFETCH DATA	ACCESS:     328578  HIT:     232870  MISS:      95708  HIT %:    70.8721  MISS %:    29.1279  MPKI: 1.91416

L1D PREFETCH  REQUESTED:     740893  ISSUED:     740893  USEFUL:      35294  USELESS:      69306
L1D USEFUL LOAD PREFETCHES:      35294 PREFETCH ISSUED TO LOWER LEVEL:     104610  ACCURACY: 33.7386
 TIMELY PREFETCHES:      35294 LATE PREFETCHES: 8845 DROPPED PREFETCHES: 7
L1D AVERAGE MISS LATENCY: 256061 cycles
L1D RQ	ACCESS:   10700646	FORWARD:          0	MERGED:    3942692	TO_CACHE:    6592902
L1D WQ	ACCESS:    6950443	FORWARD:     165441	MERGED:     195705	TO_CACHE:    6754738
L1D PQ	ACCESS:     370641	FORWARD:          0	MERGED:          0	TO_CACHE:     370252

L1D UNIQUE REGIONS ACCESSED: 0
L1D REGIONS CONFLICTS: 0
L1D Cross Page Prefetch Requests: 6218
L1D Same Page Prefetch Requests: 750639
L1D ROI Sum of L1D PQ occupancy: 4706272
L1D PREFETCHES PUSHED FROM L2C: 0
L1I TOTAL     ACCESS:    7184183  HIT:    4420288  MISS:    2763895  HIT %:    61.5281  MISS %:    38.4719   MPKI: 55.2779
L1I LOAD INSTRUCTION	ACCESS:    6510767  HIT:    3746872  MISS:    2763895  HIT %:    57.5489  MISS %:    42.4511  MPKI: 55.2779
L1I PREFETCH INSTRUCTION	ACCESS:     673416  HIT:     673416  MISS:          0  HIT %:        100  MISS %:          0  MPKI: 0

L1I PREFETCH  REQUESTED:    1627427  ISSUED:    1627427  USEFUL:          0  USELESS:          0
L1I USEFUL LOAD PREFETCHES:          0 PREFETCH ISSUED TO LOWER LEVEL:          0  ACCURACY: -nan
 TIMELY PREFETCHES:          0 LATE PREFETCHES: 0 DROPPED PREFETCHES: 0
L1I AVERAGE MISS LATENCY: 17.2264 cycles
L1I RQ	ACCESS:    9511024	FORWARD:          0	MERGED:    2678913	TO_CACHE:    6832111
L1I PQ	ACCESS:    1627427	FORWARD:          0	MERGED:     433068	TO_CACHE:    1194359

L1BTB TOTAL     ACCESS:    5669596  HIT:    2040595  MISS:    3629001  HIT %:    35.9919  MISS %:    64.0081   MPKI: 72.58
L1BTB BRANCH_DIRECT_JUMP	ACCESS:     548589  HIT:     144271  MISS:     404318	AVERAGE STALL: 46.6592
L1BTB BRANCH_INDIRECT	ACCESS:     182965  HIT:      66046  MISS:     116919	AVERAGE STALL: 107.359
L1BTB BRANCH_CONDITIONAL	ACCESS:    2710093  HIT:    1416770  MISS:    1293323	AVERAGE STALL: 103.989
L1BTB BRANCH_DIRECT_CALL	ACCESS:     942635  HIT:     104144  MISS:     838491	AVERAGE STALL: 110.756
L1BTB BRANCH_INDIRECT_CALL	ACCESS:     171337  HIT:      20857  MISS:     150480	AVERAGE STALL: 135.248
L1BTB BRANCH_RETURN	ACCESS:    1113977  HIT:     288507  MISS:     825470	AVERAGE STALL: 46.4662
L1BTB BRANCH_OTHER ACCESS:          0  HIT:          0  MISS:          0	AVERAGE STALL: -nan
L1BTB TOTAL ROB OCCUPANCY AT BTB MISS: 1.9386

L2BTB TOTAL     ACCESS:    3603554  HIT:    3548577  MISS:      54977  HIT %:    98.4744  MISS %:    1.52563   MPKI: 1.09954
L2BTB BRANCH_DIRECT_JUMP	ACCESS:     400141  HIT:     397405  MISS:       2736	AVERAGE STALL: 46.6592
L2BTB BRANCH_INDIRECT	ACCESS:     106626  HIT:     103942  MISS:       2684	AVERAGE STALL: 107.359
L2BTB BRANCH_CONDITIONAL	ACCESS:    1293323  HIT:    1293190  MISS:        133	AVERAGE STALL: 103.989
L2BTB BRANCH_DIRECT_CALL	ACCESS:     838491  HIT:     838395  MISS:         96	AVERAGE STALL: 110.756
L2BTB BRANCH_INDIRECT_CALL	ACCESS:     140919  HIT:     130848  MISS:      10071	AVERAGE STALL: 135.248
L2BTB BRANCH_RETURN	ACCESS:     824054  HIT:     784797  MISS:      39257	AVERAGE STALL: 46.4662
L2BTB BRANCH_OTHER ACCESS:          0  HIT:          0  MISS:          0	AVERAGE STALL: -nan
L2BTB TOTAL ROB OCCUPANCY AT BTB MISS: 127.966

L2C TOTAL     ACCESS:    4486609  HIT:    4012317  MISS:     474292  HIT %:    89.4287  MISS %:    10.5713   MPKI: 9.48584
L2C LOAD INSTRUCTION	ACCESS:    2763895  HIT:    2500948  MISS:     262947  HIT %:    90.4864  MISS %:    9.51364  MPKI: 5.25894
L2C LOAD TRANSLATION INSTRUCTION	ACCESS:        282  HIT:         73  MISS:        209  HIT %:    25.8865  MISS %:    74.1135  MPKI: 0.00418
L2C LOAD DATA	ACCESS:     727550  HIT:     659426  MISS:      68124  HIT %:    90.6365  MISS %:    9.36348  MPKI: 1.36248
L2C RFO DATA	ACCESS:     287225  HIT:     232397  MISS:      54828  HIT %:    80.9111  MISS %:    19.0889  MPKI: 1.09656
L2C PREFETCH DATA	ACCESS:     183133  HIT:     112853  MISS:      70280  HIT %:    61.6235  MISS %:    38.3765  MPKI: 1.4056
L2C WRITEBACK DATA	ACCESS:     522650  HIT:     506062  MISS:      16588  HIT %:    96.8262  MISS %:    3.17383  MPKI: 0.33176
L2C LOAD TRANSLATION DATA	ACCESS:       1828  HIT:        526  MISS:       1302  HIT %:    28.7746  MISS %:    71.2254  MPKI: 0.02604
L2C TRANSLATION FROM L1D PREFETCHER DATA	ACCESS:         46  HIT:         32  MISS:         14  HIT %:    69.5652  MISS %:    30.4348  MPKI: 0.00028

L2C PREFETCH  REQUESTED:      85701  ISSUED:      85701  USEFUL:       7630  USELESS:      62655
L2C USEFUL LOAD PREFETCHES:       7630 PREFETCH ISSUED TO LOWER LEVEL:      70715  ACCURACY: 10.7898
 TIMELY PREFETCHES:       7630 LATE PREFETCHES: 435 DROPPED PREFETCHES: 0
L2C AVERAGE MISS LATENCY: 39.0405 cycles
L2C RQ	ACCESS:    3780902	FORWARD:          0	MERGED:          0	TO_CACHE:    3780832
L2C WQ	ACCESS:     522650	FORWARD:         71	MERGED:          0	TO_CACHE:     522650
L2C PQ	ACCESS:     190311	FORWARD:          0	MERGED:       3701	TO_CACHE:     186609

L2C Dense regions hint from L2: 0
PSCL5 TOTAL     ACCESS:       4104  HIT:       2052  MISS:       2052  HIT %:         50  MISS %:         50   MPKI: 0.04104
PSCL5 LOAD TRANSLATION INSTRUCTION	ACCESS:       4012  HIT:       2006  MISS:       2006  HIT %:         50  MISS %:         50  MPKI: 0.04012
PSCL5 TRANSLATION FROM L1D PREFETCHER INSTRUCTION	ACCESS:         92  HIT:         46  MISS:         46  HIT %:         50  MISS %:         50  MPKI: 0.00092


PSCL4 TOTAL     ACCESS:       3818  HIT:       1906  MISS:       1912  HIT %:    49.9214  MISS %:    50.0786   MPKI: 0.03824
PSCL4 LOAD TRANSLATION INSTRUCTION	ACCESS:       2313  HIT:       1872  MISS:        441  HIT %:    80.9339  MISS %:    19.0661  MPKI: 0.00882
PSCL4 TRANSLATION FROM L1D PREFETCHER INSTRUCTION	ACCESS:         39  HIT:         34  MISS:          5  HIT %:    87.1795  MISS %:    12.8205  MPKI: 0.0001
PSCL4 LOAD TRANSLATION DATA	ACCESS:       1437  HIT:          0  MISS:       1437  HIT %:          0  MISS %:        100  MPKI: 0.02874
PSCL4 TRANSLATION FROM L1D PREFETCHER DATA	ACCESS:         29  HIT:          0  MISS:         29  HIT %:          0  MISS %:        100  MPKI: 0.00058


PSCL3 TOTAL     ACCESS:       3886  HIT:       1940  MISS:       1946  HIT %:    49.9228  MISS %:    50.0772   MPKI: 0.03892
PSCL3 LOAD TRANSLATION INSTRUCTION	ACCESS:       2347  HIT:       1906  MISS:        441  HIT %:    81.2101  MISS %:    18.7899  MPKI: 0.00882
PSCL3 TRANSLATION FROM L1D PREFETCHER INSTRUCTION	ACCESS:         39  HIT:         34  MISS:          5  HIT %:    87.1795  MISS %:    12.8205  MPKI: 0.0001
PSCL3 LOAD TRANSLATION DATA	ACCESS:       1471  HIT:          0  MISS:       1471  HIT %:          0  MISS %:        100  MPKI: 0.02942
PSCL3 TRANSLATION FROM L1D PREFETCHER DATA	ACCESS:         29  HIT:          0  MISS:         29  HIT %:          0  MISS %:        100  MPKI: 0.00058


PSCL2 TOTAL     ACCESS:       4008  HIT:       1957  MISS:       2051  HIT %:    48.8273  MISS %:    51.1727   MPKI: 0.04102
PSCL2 LOAD TRANSLATION INSTRUCTION	ACCESS:       2161  HIT:       1911  MISS:        250  HIT %:    88.4313  MISS %:    11.5687  MPKI: 0.005
PSCL2 TRANSLATION FROM L1D PREFETCHER INSTRUCTION	ACCESS:         46  HIT:         46  MISS:          0  HIT %:        100  MISS %:          0  MPKI: 0
PSCL2 LOAD TRANSLATION DATA	ACCESS:       1755  HIT:          0  MISS:       1755  HIT %:          0  MISS %:        100  MPKI: 0.0351
PSCL2 TRANSLATION FROM L1D PREFETCHER DATA	ACCESS:         46  HIT:          0  MISS:         46  HIT %:          0  MISS %:        100  MPKI: 0.00092


LLC TOTAL     ACCESS:     534492  HIT:     504542  MISS:      29950  HIT %:    94.3965  MISS %:    5.60345   MPKI: 0.599
LLC LOAD INSTRUCTION	ACCESS:     262947  HIT:     262153  MISS:        794  HIT %:     99.698  MISS %:   0.301962  MPKI: 0.01588
LLC LOAD TRANSLATION INSTRUCTION	ACCESS:        209  HIT:        189  MISS:         20  HIT %:    90.4306  MISS %:    9.56938  MPKI: 0.0004
LLC LOAD DATA	ACCESS:      67743  HIT:      64257  MISS:       3486  HIT %:    94.8541  MISS %:    5.14592  MPKI: 0.06972
LLC RFO DATA	ACCESS:      54771  HIT:      39339  MISS:      15432  HIT %:    71.8245  MISS %:    28.1755  MPKI: 0.30864
LLC PREFETCH DATA	ACCESS:      70715  HIT:      60975  MISS:       9740  HIT %:    86.2264  MISS %:    13.7736  MPKI: 0.1948
LLC WRITEBACK DATA	ACCESS:      76791  HIT:      76385  MISS:        406  HIT %:    99.4713  MISS %:   0.528708  MPKI: 0.00812
LLC LOAD TRANSLATION DATA	ACCESS:       1302  HIT:       1230  MISS:         72  HIT %:      94.47  MISS %:    5.52995  MPKI: 0.00144
LLC TRANSLATION FROM L1D PREFETCHER DATA	ACCESS:         14  HIT:         14  MISS:          0  HIT %:        100  MISS %:          0  MPKI: 0

LLC AVERAGE MISS LATENCY: 158.37 cycles
LLC RQ	ACCESS:     386991	FORWARD:          0	MERGED:          0	TO_CACHE:     386988
LLC WQ	ACCESS:      76791	FORWARD:          3	MERGED:          0	TO_CACHE:      76791
LLC PQ	ACCESS:      70715	FORWARD:          0	MERGED:          0	TO_CACHE:      70715

LLC Dense regions hint to LLC: 0

RAW hits: 1939903
Loads Generated: 12640547
Loads sent to L1D: 10700646
Stores Generated: 6950437
Stores sent to L1D: 6950443
Major fault: 0 Minor fault: 2546
Allocated PAGES: 2546

stream: 
stream:times selected: 1188562
stream:pref_filled: 123347
stream:pref_useful: 24759
stream:pref_late: 6880
stream:misses: 8117
stream:misses_by_poll: 0

CS: 
CS:times selected: 180453
CS:pref_filled: 59264
CS:pref_useful: 35792
CS:pref_late: 7837
CS:misses: 17641
CS:misses_by_poll: 5

CPLX: 
CPLX:times selected: 1006985
CPLX:pref_filled: 19811
CPLX:pref_useful: 4529
CPLX:pref_late: 3034
CPLX:misses: 93435
CPLX:misses_by_poll: 1

NL_L1: 
NL:times selected: 18505
NL:pref_filled: 598
NL:pref_useful: 228
NL:pref_late: 367
NL:misses: 1550
NL:misses_by_poll: 0

total selections: 2394505
total_filled: 95708
total_useful: 35294
total_late: 19532
total_polluted: 6
total_misses_after_warmup: 770878
conflicts: 5523128

test: 117985

DRAM Statistics
 CHANNEL 0
 RQ ROW_BUFFER_HIT:      11283  ROW_BUFFER_MISS:      18242
 DBUS_CONGESTED:         15
 WQ ROW_BUFFER_HIT:       1587  ROW_BUFFER_MISS:      12536  FULL:          0

 AVG_CONGESTED_CYCLE: 5

CPU 0 Branch Prediction Accuracy: 99.8245% MPKI: 0.32086 Average ROB Occupancy at Mispredict: 187.847
Branch types
NOT_BRANCH: 40858387 81.7168%
BRANCH_DIRECT_JUMP: 548589 1.09718%
BRANCH_INDIRECT: 182965 0.36593%
BRANCH_CONDITIONAL: 6181825 12.3636%
BRANCH_DIRECT_CALL: 942635 1.88527%
BRANCH_INDIRECT_CALL: 171337 0.342674%
BRANCH_RETURN: 1113977 2.22795%
BRANCH_OTHER: 0 0%

DRAM PAGES: 1048576
Allocated PAGES: 2546
Average_ROB_Occupancy: 240.837
Average_Decode_Occupancy: 35.5298
Average_FTQ_Occupancy: 13.5851
Indirect max targets: 14 Average targets: 1.14966
Branch_type:  BRANCH_DIRECT_JUMP:  Count Percentage: 2.90188 6.71544 4.01451 9.10762 1.69594 5.97478 1.21898 68.3708 
Branch_type:  BRANCH_INDIRECT:  Count Percentage: 11.769 3.45274 2.54579 0 1.33799 9.66651 5.88967 65.3383 
Branch_type:  BRANCH_CONDITIONAL:  Count Percentage: 20.9955 3.22781 1.77466 5.4371 1.17557 12.8983 1.14078 53.3502 
Branch_type:  BRANCH_DIRECT_CALL:  Count Percentage: 0.259583 1.7736 1.43083 4.70998 2.16542 2.99893 0.705794 85.9559 
Branch_type:  BRANCH_INDIRECT_CALL:  Count Percentage: 9.55558 0 2.99514 8.70266 0 2.6605 1.28405 74.8021 
Branch_type:  BRANCH_RETURN:  Count Percentage: 3.90657 1.38011 1.41195 6.33894 2.79834 12.8647 1.63595 69.6634 
Branch_type:  BRANCH_DIRECT_JUMP:  Total Count: 31814 73623 44012 99849 18593 65503 13364 749566 
Branch_type:  BRANCH_INDIRECT:  Total Count: 43030 12624 9308 0 4892 35343 21534 238892 
Branch_type:  BRANCH_CONDITIONAL:  Total Count: 2594590 398887 219309 671906 145275 1593953 140976 6592916 
Branch_type:  BRANCH_DIRECT_CALL:  Total Count: 4896 33452 26987 88835 40842 56563 13312 1621216 
Branch_type:  BRANCH_INDIRECT_CALL:  Total Count: 32781 0 10275 29855 0 9127 4405 256613 
Branch_type:  BRANCH_RETURN:  Total Count: 87115 30776 31486 141356 62402 286879 36481 1553468 
Number of unique branch instructions: 9917
Upper 32 bits: 
aaaa
ffff
ffff0000
Unique upper 32 bits: 3
Unique upper 36 bits: 3
Unique upper 40 bits: 5
Unique upper 44 bits: 32
Unique upper 48 bits: 154
Offset_3 4073
Offset_4 249
Offset_5 451
Offset_6 503
Offset_7 585
Offset_8 509
Offset_9 468
Offset_10 385
Offset_11 315
Offset_12 288
Offset_13 201
Offset_14 230
Offset_15 189
Offset_16 223
Offset_17 143
Offset_18 126
Offset_19 240
Offset_20 142
Offset_21 235
Offset_22 392
Offset_23 241
Offset_24 327
Offset_25 88
Offset_47 80
decode_dispatch_called: 25844632 71.6718
Dispatch_width: 0 13938880 53.9334 38.655
Dispatch_width: 1 978300 3.78531 2.713
Dispatch_width: 2 821684 3.17932 2.27868
Dispatch_width: 3 487270 1.88538 1.35129
Dispatch_width: 4 5829200 22.5548 16.1654
Dispatch_width: 5 136323 0.527471 0.378048
Dispatch_width: 6 3652975 14.1344 10.1304
Empty_decode_cycles: 10215041 28.3282
ROB_full_cycles: 9205054 25.5273
Starvation_cycles_per_kilo_instr: 232.016
Starvation_cycles_per_kilo_instr_3: 172.361
Starvation_cycles_per_kilo_instr_0: 149.489
Branch_type_1  (3,1)  (4,9)  (5,37)  (6,69)  (7,114)  (8,127)  (9,123)  (10,98)  (11,70)  (12,51)  (13,5)  (14,2)  (15,3)  (16,4)  (18,1)  (19,4)  (20,2)  (21,1)  (22,3)  (23,2)  (24,10)  (25,12) 
Branch_type_2  (3,1)  (5,1)  (8,3)  (9,3)  (12,1)  (13,1)  (14,1)  (16,3)  (17,2)  (20,2)  (21,2)  (23,5)  (24,1)  (47,36) 
Branch_type_3  (3,4071)  (4,240)  (5,409)  (6,418)  (7,439)  (8,317)  (9,256)  (10,156)  (11,130)  (12,58)  (13,4) 
Branch_type_4  (6,4)  (7,8)  (8,26)  (9,54)  (10,62)  (11,59)  (12,99)  (13,87)  (14,102)  (15,89)  (16,100)  (17,64)  (18,57)  (19,116)  (20,74)  (21,124)  (22,209)  (23,136)  (24,188)  (25,72) 
Branch_type_5  (8,2)  (9,1)  (10,3)  (11,5)  (12,3)  (13,14)  (14,16)  (15,11)  (16,20)  (17,11)  (18,16)  (19,12)  (20,10)  (21,13)  (22,42)  (23,26)  (24,37) 
Branch_type_6  (5,4)  (6,12)  (7,24)  (8,34)  (9,31)  (10,66)  (11,51)  (12,76)  (13,90)  (14,109)  (15,86)  (16,96)  (17,66)  (18,52)  (19,108)  (20,54)  (21,95)  (22,138)  (23,72)  (24,91)  (25,4)  (47,44) 
Unique trigger count: 
BTB PER SET UNIQUE ADDR: 4 2 4 6 2 2 2 2 2 3 5 4 5 4 3 3 2 4 3 4 3 3 5 4 4 5 4 4 2 4 3 2 3 4 4 3 3 2 5 3 4 3 3 3 2 2 3 4 4 3 3 3 4 3 1 3 3 4 5 3 4 4 3 3 5 3 3 3 5 4 3 5 6 3 3 3 4 2 4 5 6 4 3 4 4 3 3 4 3 3 3 3 4 3 3 1 3 4 3 2 2 4 5 2 3 5 2 4 4 3 3 4 4 3 4 2 3 4 4 3 2 4 2 3 4 3 3 3 4 4 4 3 3 4 4 4 4 2 3 5 3 3 3 4 3 3 2 3 5 4 4 2 3 3 3 4 4 3 4 4 3 3 2 3 3 3 2 3 3 3 3 3 4 3 4 4 3 4 3 2 4 4 2 2 2 3 2 5 3 3 4 4 4 3 2 2 4 3 4 2 4 3 4 4 1 3 2 3 3 3 5 3 3 3 4 4 4 4 4 4 4 4 4 3 4 3 3 4 5 4 1 4 3 2 3 4 4 3 3 2 4 3 4 3 3 2 2 3 2 4 2 3 4 3 3 5 4 5 3 3 4 2 3 4 3 3 3 4 2 4 2 3 4 3 4 3 4 2 5 6 2 4 3 5 3 4 4 4 3 4 5 4 3 3 3 3 3 3 3 2 4 2 2 3 3 4 4 3 4 4 4 2 5 2 3 3 5 3 2 4 3 4 2 3 4 4 2 3 3 3 3 4 4 5 2 3 5 4 5 3 4 3 3 2 4 2 1 3 4 4 4 3 3 3 5 4 4 3 3 2 4 4 4 3 3 6 4 4 3 2 5 4 3 3 1 3 5 4 3 3 5 4 2 4 3 4 3 5 3 4 2 3 3 3 4 3 3 2 2 3 4 4 5 3 3 4 3 4 4 4 4 1 1 5 4 2 4 4 4 2 3 2 2 5 4 2 3 2 1 5 3 2 3 3 3 2 3 2 2 4 4 3 3 3 3 2 3 3 4 6 3 1 4 3 3 3 3 3 5 2 3 3 4 5 2 2 4 4 4 4 4 3 4 5 4 4 2 1 4 5 3 4 2 3 3 5 3 3 4 5 5 3 3 3 2 4 4 3 2 3 3 3 2 4 3 3 3 2 4 4 2 3 4 4 4 3 4 4 4 4 4 3 3 3 3 2 2 5 2 3 2 5 5 3 3 3 1 4 3 3 4 4 4 7 3 3 2 6 3 2 4 4 3 3 3 4 4 0 3 2 3 5 3 3 2 4 4 3 2 3 3 4 1 4 3 4 4 5 2 4 2 3 3 3 3 4 2 1 3 4 2 2 3 3 3 3 2 4 3 2 2 4 4 3 2 3 3 2 3 3 2 3 3 4 2 4 5 3 5 4 3 1 4 3 4 4 3 3 2 5 1 4 3 4 4 3 3 4 3 3 4 4 2 2 3 5 2 3 2 3 4 4 4 3 2 4 3 4 3 3 5 3 3 4 3 3 3 2 5 5 2 3 3 3 3 2 4 4 4 3 2 3 2 4 3 3 3 4 3 3 4 3 3 3 4 3 4 3 3 4 3 4 2 2 4 5 2 3 4 3 5 3 3 4 5 3 4 2 2 4 3 3 2 2 4 3 4 2 2 3 3 2 5 5 3 3 4 4 3 5 3 4 4 3 4 4 3 2 3 3 4 4 4 3 3 3 2 1 2 2 6 3 4 5 3 3 4 4 4 6 4 3 2 4 3 5 4 4 2 4 3 4 3 4 3 2 2 4 3 3 4 4 3 4 4 5 4 3 3 4 4 3 4 2 3 3 5 5 3 4 3 2 0 3 3 3 3 3 4 4 3 4 5 4 3 4 4 2 4 3 4 3 3 4 4 3 6 5 3 4 5 3 4 3 4 4 2 4 2 3 3 3 4 4 4 3 4 3 2 3 2 4 3 4 4 3 3 2 4 5 4 3 3 3 2 5 3 3 4 3 3 4 4 4 4 3 4 4 3 2 4 2 3 3 2 4 4 2 3 3 5 2 3 2 4 4 2 4 3 3 3 3 4 4 3 3 3 3 5 2 2 3 3 3 4 4 3 5 4 4 2 4 4 5 3 3 4 3 2 2 3 3 3 5 3 3 3 3 3 4 5 4 3 3 3 3 3 4 2 2 3 3 4 3 4 3 4 4 3 4 2 1 2 3 4 4 2 2 2 3 3 5 4 3 4 3 6 3 3 3 3 3 3 4 4 4 2 4 3 4 4 3 3 3 4 4 3 3 3 4 4 3 3 4 3 2 3 3 3 3 2 5 2 3 4 4 3 4 5 2 4 4 3 2 3 4 4 4 4 3 5 3 4 4 3 3 6 3 3 4 4 3 4 5 4 2 4 4 4 2 3 3 3 2 3 2 3 5 4 3 5 3 4 2 5 4 3 3 4 4 3 3 4 1 3 2 4 2 3 4 3 4 4 5 3 3 6 4 3 2 4 3 5 3 3 5 3 4 3 2 4 7 4 3 4 4 4 4 3 4 4 3 2 3 5 5 4 4 2 3 2 5 4 4 4 3 4 3 3 1 5 4 2 4 3 3 2 3 4 4 4 3 3 5 3 2 4 3 3 3 4 3 3 2 3 3 3 8 3 3 3 2 4 3 2 2 3 2 2 3 3 2 3 4 4 4 4 2 2 4 4 3 2 3 3 4 3 4 3 2 3 3 2 3 5 5 4 2 4 2 4 4 3 6 2 4 3 3 4 4 4 2 3 4 3 4 4 4 4 3 4 3 2 2 2 4 3 4 4 2 4 4 4 3 3 3 4 3 3 4 3 5 2 4 3 3 3 3 2 4 4 5 3 3 4 3 4 3 4 4 4 3 2 2 4 4 3 5 4 2 4 3 3 3 4 4 3 4 3 5 3 3 5 2 3 4 5 3 4 4 4 3 4 3 4 3 4 2 4 3 2 3 4 3 4 4 4 3 3 4 5 3 4 3 4 3 2 3 6 2 2 3 5 5 3 3 3 2 3 3 1 3 4 4 4 4 2 4 6 4 3 3 4 4 3 4 2 2 4 4 3 4 2 2 4 4 2 4 4 3 3 4 1 3 4 3 3 3 4 3 3 3 3 3 3 3 3 2 2 3 5 4 3 3 1 5 4 3 3 2 4 4 3 2 2 5 4 2 3 3 2 3 5 4 2 3 3 5 2 4 3 2 3 3 4 3 4 3 5 4 4 3 2 3 4 3 3 3 3 3 4 5 3 3 3 3 5 3 4 5 4 2 3 2 4 3 3 2 3 4 3 2 3 4 6 2 5 4 4 6 4 2 5 3 4 4 4 2 4 4 2 3 3 4 4 4 4 6 3 4 3 2 5 3 4 4 4 4 2 4 2 5 4 3 3 3 3 2 3 3 4 4 5 3 2 4 6 3 2 4 3 2 3 6 3 3 3 4 5 4 3 2 4 2 4 2 3 4 2 4 4 3 3 3 3 3 3 3 3 2 3 4 4 3 2 2 3 3 4 2 5 4 2 2 2 3 3 4 4 5 4 3 3 3 2 3 4 2 3 4 3 2 3 3 4 4 6 3 3 2 3 4 5 2 3 3 2 3 3 2 4 3 3 2 3 3 4 3 3 4 3 4 4 4 4 3 4 4 3 5 3 5 4 2 3 4 4 3 2 3 4 2 3 4 3 3 4 3 5 5 2 2 3 4 4 4 4 2 4 3 4 3 4 2 3 1 3 3 3 4 3 2 3 4 4 5 2 5 3 2 3 3 1 2 3 4 3 3 4 4 4 3 2 4 2 3 4 3 2 5 2 3 2 3 2 3 3 4 4 4 2 3 2 4 3 4 4 3 5 4 3 3 4 3 3 4 3 2 4 4 4 3 4 3 3 4 4 4 2 2 3 3 5 2 3 3 3 5 3 4 4 5 7 5 3 4 5 3 4 4 4 3 4 2 3 3 2 2 2 3 2 3 4 3 2 2 4 3 2 5 5 4 4 4 2 3 3 3 3 4 3 3 3 4 3 4 4 2 2 3 2 3 1 3 4 3 4 4 4 4 3 2 4 3 3 2 4 3 3 3 3 3 5 3 3 3 2 4 4 4 3 3 3 5 4 3 3 4 3 3 2 4 4 2 4 2 4 3 3 3 4 2 4 2 4 4 1 4 2 4 3 4 4 3 3 3 4 3 5 4 2 4 4 3 2 2 3 5 4 3 2 2 4 4 3 3 3 5 2 4 2 3 3 2 3 5 3 2 4 2 3 3 3 5 2 3 2 4 4 2 3 4 3 2 3 5 2 2 3 3 3 3 3 4 2 3 3 3 3 2 4 3 2 3 3 5 2 2 5 4 3 1 4 4 2 3 5 4 3 3 5 3 3 3 4 4 4 2 3 2 3 4 2 3 3 3 5 2 2 4 4 3 4 3 4 4 5 4 3 2 3 4 3 2 4 4 4 4 2 4 2 4 4 2 4 4 4 4 3 2 2 2 5 3 3 3 4 3 3 3 4 5 4 3 4 3 4 2 3 3 1 4 4 5 3 2 2 3 4 3 4 5 3 3 4 3 4 4 3 3 3 4 4 2 4 4 3 3 4 3 2 4 3 3 3 2 3 4 
BTB PER SET COUNT: 4 3 1471 6 2 2 2 2 2 492 38 4 5 4 3 3 2 4 3 4 3 3 5 4 4 5 4 4 2 4 3 2 3 5 493 3 3 2 5 3 4 3 3 3 2 2 3 4 4 3 3 3 4 3 1 3 3 984 5 3 982 5 6 4 5 3 5 3 6 4 4 10 8 4 3 172 4 3 4 494 6 4 3 4 4 3 3 4 3 982 3 3 639 3 3 1 3 4 3 2 2 5 6 2 3 8 3 4 4 3 3 4 250 3 7 2 3 4 4 4 2 4 484 3 4 3 3 3 469 4 4 3 3 4 4 4 4 2 3 5 3 3 3 4 4 3 2 3 6 7 4 2 3 3 4 984 4 982 4 4 3 3 2 3 3 5 2 3 3 3 3 3 77 3 4 4 3 4 3 2 9 4 2 2 2 4 2 6 3 3 4 4 4 4 3 2 4 982 1471 2 4 1471 6 4 1 3 2 3 30 3 8 6 3 3 5 4 4 7 4 4 4 4 4 4 4 3 3 7 7 4 248 4 3 2 3 4 4 3 3 2 4 3 5 3 3 2 2 3 2 4 2 3 4 5 4 6 1471 6 4 3 4 2 3 4 3 3 3 4 2 5 2 3 4 3 4 3 4 2 5 10 2 4 3 9 3 4 5 4 3 4 5 4 3 5 497 7 3 3 3 2 4 2 1472 3 3 4 4 3 4 8 5 2 6 2 3 3 5 3 2 4 3 5 2 3 4 4 2 3 3 3 4 20 4 5 2 3 5 4 5 3 5 12 3 2 4 2 1 3 4 5 4 4 3 3 5 371 5 3 3 2 5 255 4 6 3 6 96 7 981 2 5 5 3 3 1 3 5 4 3 3 5 223 2 4 3 5 3 5 4 5 2 3 491 3 4 4 1349 2 2 5 4 10 6 3 3 4 3 16 4 4 5 1 1 6 4 2 4 493 4 3 3 2 2 5 4 236 3 2 1 5 3 2 3 5 3 2 3 4 2 4 4 3 3 3 383 3 1470 33 5 7 3 240 4 3 3 3 3 3 5 2 3 3 4 5 5 2 5 6 982 4 4 5 4 6 982 4 2 1 4 7 3 8 2 3 49 9 3 3 4 5 983 4 4 3 3 984 4 3 2 3 3 3 2 4 3 3 3 2 4 342 2 3 4 1961 4 3 4 493 4 4 6 3 3 3 3 2 2 5 2 3 2 5 5 6 3 3 1 4 5 3 6 4 5 8 3 3 2 8 3 2 4 4 982 4 3 4 492 0 5 2 982 7831 3 3 2 4 4 3 2 3 3 4 1 5 3 4 4 5 2 4 5 3 3 3 5 4 4 1 3 4 2 2 4 982 4 1470 2 4 3 2 2 4 5 4 2 3 980 2 3 3 2 3 981 4 3 4 5 3 5 4 3 1 4 4 4 4 3 3 2 7 1 5 3 4 4 4 5 6 3 3 4 6 2 2 3 5 2 3 2 3 5 988 4 3 2 4 3 5 3 3 5 3 4 4 4 3 3 2 5 6 2 3 3 2938 3 1469 4 4 5 3 2 3 2 4 3 3 3 4 3 5 4 3 3 4 4 3 4 3 3 4 3 4 2 2 4 5 3 3 4 3 5 4 3 4 5 492 981 2 2 6 491 5 2 2 4 3 8 2 2 3 3 2 5 5 3 4 4 4 3 5 3 5 5 3 4 4 3 2 3 4 4 6 4 3 3 3 2 1 2 2 8 3 4 6 3 3 4 4 4 7 4 3 2 4 3 5 4 4 2 4 4 4 3 5 491 2 2 4 144 3 6 4 3 4 4 985 4 4 3 4 4 3 4 2 3 3 5 6 2448 9 3 2 0 4 3 3 1961 3 4 4 3 4 5 5 3 4 4 2 4 12 5 4 3 983 5 3 6 985 4 6 24 3 4 4 4 4 2 4 2 3 3 4 4 6 1962 3 4 3 2 3 2 4 3 4 4 3 3 2 4 6 5 493 4 3 2 5 3 3 4 3 3 4 4 4 34 4 983 4 3 2 1471 2 3 3 2 5 371 4 3 3 6 2 3 979 4 4 2 4 41 3 3 3 4 4 3 3 3 3 5 2 1467 981 4 3 4 5 1470 5 4 5 3 8 4 6 3 3 5 3 2 4 3 3 3 6 3 3 3 3 3 5 5 5 3 3 1471 3 3 4 2 2 4 5 5 3 4 3 494 5 3 7 2 1 2 4 6 5 2 2 2 3 3 5 4 3 4 3 7 3 3 3 4 3 3 4 4 4 2 4 3 4 4 4 4 3 4 4 4 1971 1470 492 4 3 3 5 3 2 3 3 4 3 2 109 3 3 4 4 3 4 5 2 5 4 3 2 3 5 6 5 4 3 5 3 982 5 3 4 495 3 3 4 4 3 4 5 4 2 4 4 1471 2 3 3 3 2 3 2 3 5 4 3 5 442 4 2 5 4 9 3 4 4 3 3 4 1 3 2 5 2 3 8 3 6 5 6 3 3 23 4 3 2 4 4 5 3 370 222 30 4 5 2 371 8 6 3 5 5 123 120 4 4 5 3 2 4 5 5 4 4 2 3 2 5 4 4 4 3 4 3 5 1 7 20556 2 4 3 492 2 982 4 5 4 3 3 6 3 2 5 3 3 3 4 3 3 2 5 3 3 8 5 3 3 3 5 3 2 2 3 2 2 3 1470 4 3 4 4 4 5 2 2 4 4 3 2 3 4 492 3 4 3 2 4 3 3 4 5 5 31 2 4 2 4 4 3 1164 2 4 3 3 4 4 4 2 4 4 4 4 5 5 5 3 4 3 2 2 2 4 3 4 4 2 4 12 4 3 3 3 4 3 4 6 3 5 2 494 3 3 3 3 2 4 4 5 3 3 4 3 4 3 4 4 389 3 2 2 4 4 3 5 6 2 4 3 3 3 4 5 3 5 3 6 3 3 5 4 3 4 5 3 4 4 4 3 4 3 4 3 4 2 4 3 2 3 4 44 5 5 5 3 3 4 5 4 6 3 493 3 2 1470 6 2 2 4 5 5 3 3 1470 2 3 371 1 3 4 4 5 4 2 4 45 4 2938 3 4 4 3 5 2 2 5 4 3 5 2 2 5 4 2 6 5 3 3 4 1 3 4 3 3 3 4 492 3 3 3 3 3 4 4 2 2 3 6 6 3 3 1 5 4 4 3 2 982 4 3 2 2 7 4 2 3 3 2 4 6 1471 2 3 3 5 2 312 3 3 3 3 982 3 8 4 6 4 4 3 2 1962 4 3 3 3 3 4 4 5 4 3 3 3 6 3 4 5 4 77 3 2 4 3 4 2 3 4 4 2 3 4 6 2 5 4 4 6 4 2 6 3 4 4 4 2 10 4 2 4 3 4 5 4 5 6 3 4 4 2 5 3 4 4 5 4 2 5 2 985 4 3 3 3 3 2 3 3 6 4 6 3 2 4 8 3 2 4 3 2 3 6 3 3 3 4 984 4 3 2 4 2 4 2 3 4 2 4 4 4 4 3 3 3 3 3 3 2 4 4 4 5 2 2 3 3 4 3 7 492 2 2 3 3 3 5 4 5 4 3 3 3 2 4 5 2 3 1471 3 2 37 3 4 6 8 3 3 2 3 4 7 2 3 3 2 3 3 2 4 4 3 150 3 3 5 3 3 4 3 5 4 5 4 3 4 4 3 5 3 5 1471 2 3 4 100 3 3 3 4 2 3 4 3 3 4 3 184 5 2 2 3 7 4 4 4 2 4 3 4 3 4 2 5 1 3 3 3 6 3 2 3 7 4 5 2 7 3 2 3 3 1 2 3 4 4 3 4 4 4 3 2 4 2 3 4 3 2 5 2 3 2 3 2 3 3 4 5 4 2 3 2 4 3 5 188 3 5 4 4 3 4 3 3 4 3 2 4 38 5 3 5 3 3 5 4 4 2 2 3 3 315 2 3 3 3 7 3 6 4 7 7 6 3 4 6 3 4 4 4 3 4 2 3 3 2 2 2 4 2 3 4 3 2 2 5 3 2 5 6 4 4 5 2 3 3 3 3 4 3 3 3 197 3 4 139 2 3 3 2 3 1 3 5 3 4 5 4 4 3 2 5 3 3 2 4 3 3 3 3 3 15 5 4 3 2 91 5 983 3 3 3 983 4 3 1471 4 3 3 2 5 4 647 5 2 4 3 3 4 5 2 4 2 4 4 1 4 3 4 3 4 5 3 6 3 4 4 55 4 2 4 4 3 2 2 3 5 4 8 2 2 8 4 3 3 3 984 2 4 2 3 3 2 3 5 3 2 4 2 3 3 3 985 2 150 2 493 1471 2 14682 4 3 2 4 7 2 3 3 3 3 3 1471 4 2 3 7 3 3 2 5 3 2 3 3 5 2 2 5 4 7 1 4 982 3 3 6 379 4 3 5 3 3 25 5 4 5 2 3 2 3 4 2 3 3 3 5 2 2 4 4 3 4 492 4 4 6 4 4 981 3 24 3 2 3915 4 4 5 2 4 2 983 4 6 4 4 4 4 3 2 2 2 8 3 3 3 4 4 3 4 4 5 5 3 4 3 1350 3 3 492 1 4 4 6 3 2 2 3 4 1470 5 6 3 1959 4 4 983 4 3 3 3 4 985 2 4 4 3 3 5 3 2 5 3 3 3 2 3 749 
