
*** ChampSim Multicore Out-of-Order Simulator ***

Warmup Instructions: 50000000
Simulation Instructions: 50000000
Number of CPUs: 1
LLC sets: 2048
LLC ways: 16
Off-chip DRAM Size: 4096 MB Channels: 1 Width: 64-bit Data Rate: 6400 MT/s
CPU 0 runs ./micro_traces/srv559.trace.gz
.gz
ITLB has LRU replacement policy
DTLB has LRU replacement policy
STLB has LRU replacement policy
FDIP Prefetcher at L1I
L1I has LRU replacement policy
L1D has LRU replacement policy
Initialize SRRIP state for L2C
Initialize DRRIP state for LLC
Heartbeat CPU 0 instructions: 10000001 cycles: 2798601 heartbeat IPC: 3.57321 cumulative IPC: 3.57321 (Simulation time: 0 hr 1 min 55 sec) 
Heartbeat CPU 0 instructions: 20000003 cycles: 5596247 heartbeat IPC: 3.57443 cumulative IPC: 3.57382 (Simulation time: 0 hr 4 min 8 sec) 
Heartbeat CPU 0 instructions: 30000003 cycles: 8394023 heartbeat IPC: 3.57427 cumulative IPC: 3.57397 (Simulation time: 0 hr 6 min 17 sec) 
Heartbeat CPU 0 instructions: 40000002 cycles: 11191485 heartbeat IPC: 3.57467 cumulative IPC: 3.57415 (Simulation time: 0 hr 8 min 13 sec) 
Heartbeat CPU 0 instructions: 50000003 cycles: 13988821 heartbeat IPC: 3.57483 cumulative IPC: 3.57428 (Simulation time: 0 hr 10 min 9 sec) 

Warmup complete CPU 0 instructions: 50000003 cycles: 13988821 (Simulation time: 0 hr 10 min 9 sec) 

Cycle: 20000000 FTQ IN: 58214994 FTQ occupancy: 17.8179 DECODE IN: 58214994 DECODE occupancy: 47.8667 ROB IN: 58214994 ROB occupancy: 309.171 ROB OUT: 58214752
Heartbeat CPU 0 instructions: 60000001 cycles: 21286093 heartbeat IPC: 1.37037 cumulative IPC: 1.37037 (Simulation time: 0 hr 11 min 57 sec) 
Heartbeat CPU 0 instructions: 70000002 cycles: 28605861 heartbeat IPC: 1.36616 cumulative IPC: 1.36827 (Simulation time: 0 hr 13 min 45 sec) 
Cycle: 30000000 FTQ IN: 13715790 FTQ occupancy: 5.55582 DECODE IN: 13715771 DECODE occupancy: 18.9654 ROB IN: 13715760 ROB occupancy: 214.552 ROB OUT: 13715802
Heartbeat CPU 0 instructions: 80000000 cycles: 35806642 heartbeat IPC: 1.38874 cumulative IPC: 1.37502 (Simulation time: 0 hr 15 min 40 sec) 
Cycle: 40000000 FTQ IN: 13775877 FTQ occupancy: 5.67457 DECODE IN: 13775896 DECODE occupancy: 19.2238 ROB IN: 13775907 ROB occupancy: 216.212 ROB OUT: 13775899
Heartbeat CPU 0 instructions: 90000003 cycles: 43093366 heartbeat IPC: 1.37236 cumulative IPC: 1.37436 (Simulation time: 0 hr 17 min 25 sec) 
Cycle: 50000000 FTQ IN: 13909116 FTQ occupancy: 5.60739 DECODE IN: 13909095 DECODE occupancy: 19.1665 ROB IN: 13909080 ROB occupancy: 217.883 ROB OUT: 13909056
Heartbeat CPU 0 instructions: 100000002 cycles: 50275150 heartbeat IPC: 1.39241 cumulative IPC: 1.37793 (Simulation time: 0 hr 19 min 45 sec) 
Finished CPU 0 instructions: 50000003 cycles: 36286330 cumulative IPC: 1.37793 (Simulation time: 0 hr 19 min 45 sec) 

ChampSim completed all CPUs

Region of Interest Statistics

CPU 0 cumulative IPC: 1.37793 instructions: 50000003 cycles: 36286330
 Fetch stage stalled: 63.9844  Sim cycles: 36286330 fetch stall cycle: 23217598
 Empty decode stage: 48.6938  Sim cycles: 36286330 fetch stall cycle: 17669205
ITLB TOTAL     ACCESS:    5579678  HIT:    5087081  MISS:     492597  HIT %:    91.1716  MISS %:    8.82841   MPKI: 9.85194
ITLB LOAD TRANSLATION INSTRUCTION	ACCESS:    5463584  HIT:    4970987  MISS:     492597  HIT %:     90.984  MISS %:      9.016  MPKI: 9.85194
ITLB TRANSLATION FROM L1D PREFETCHER INSTRUCTION	ACCESS:     116094  HIT:     116094  MISS:          0  HIT %:        100  MISS %:          0  MPKI: 0

ITLB AVERAGE MISS LATENCY: 9.0546 cycles
ITLB RQ	ACCESS:    7423461	FORWARD:          0	MERGED:    1357293	TO_CACHE:    6066168

DTLB TOTAL     ACCESS:    8995391  HIT:    8522353  MISS:     473038  HIT %:    94.7413  MISS %:    5.25867   MPKI: 9.46076
DTLB LOAD TRANSLATION DATA	ACCESS:    8995391  HIT:    8522353  MISS:     473038  HIT %:    94.7413  MISS %:    5.25867  MPKI: 9.46076

DTLB AVERAGE MISS LATENCY: 9.36421 cycles
DTLB RQ	ACCESS:   13352088	FORWARD:          0	MERGED:    4320520	TO_CACHE:    9031568

STLB TOTAL     ACCESS:    1213712  HIT:    1211507  MISS:       2205  HIT %:    99.8183  MISS %:   0.181674   MPKI: 0.0441
STLB LOAD TRANSLATION INSTRUCTION	ACCESS:     492597  HIT:     492323  MISS:        274  HIT %:    99.9444  MISS %:  0.0556236  MPKI: 0.00548
STLB LOAD TRANSLATION DATA	ACCESS:     472938  HIT:     471030  MISS:       1908  HIT %:    99.5966  MISS %:   0.403436  MPKI: 0.03816
STLB TRANSLATION FROM L1D PREFETCHER DATA	ACCESS:     248177  HIT:     248154  MISS:         23  HIT %:    99.9907  MISS %: 0.00926758  MPKI: 0.00046

STLB AVERAGE MISS LATENCY: 78.083 cycles
STLB RQ	ACCESS:    1334957	FORWARD:          0	MERGED:     121203	TO_CACHE:    1213754

STLB Hit, L1D data hit: 0
STLB Hit, L2C data hit: 0
STLB Hit, LLC data hit: 0
STLB Hit, LLC data miss: 0
STLB STLB hints to L2: 0
L1D TOTAL     ACCESS:   13107664  HIT:   11994357  MISS:    1113307  HIT %:    91.5064  MISS %:    8.49356   MPKI: 22.2661
L1D LOAD DATA	ACCESS:    6568510  HIT:    5834400  MISS:     734110  HIT %:    88.8238  MISS %:    11.1762  MPKI: 14.6822
L1D RFO DATA	ACCESS:    6210379  HIT:    5925713  MISS:     284666  HIT %:    95.4163  MISS %:    4.58371  MPKI: 5.69332
L1D PREFETCH DATA	ACCESS:     328775  HIT:     234244  MISS:      94531  HIT %:    71.2475  MISS %:    28.7525  MPKI: 1.89062

L1D PREFETCH  REQUESTED:     739051  ISSUED:     739051  USEFUL:      34044  USELESS:      68457
L1D USEFUL LOAD PREFETCHES:      34044 PREFETCH ISSUED TO LOWER LEVEL:     102571  ACCURACY: 33.1907
 TIMELY PREFETCHES:      34044 LATE PREFETCHES: 7995 DROPPED PREFETCHES: 5
L1D AVERAGE MISS LATENCY: 228250 cycles
L1D RQ	ACCESS:   10710946	FORWARD:          0	MERGED:    3946785	TO_CACHE:    6600715
L1D WQ	ACCESS:    6943304	FORWARD:     163853	MERGED:     191931	TO_CACHE:    6751373
L1D PQ	ACCESS:     369729	FORWARD:          0	MERGED:          0	TO_CACHE:     369322

L1D UNIQUE REGIONS ACCESSED: 0
L1D REGIONS CONFLICTS: 0
L1D Cross Page Prefetch Requests: 6924
L1D Same Page Prefetch Requests: 751075
L1D ROI Sum of L1D PQ occupancy: 4695850
L1D PREFETCHES PUSHED FROM L2C: 0
L1I TOTAL     ACCESS:    6864660  HIT:    4108408  MISS:    2756252  HIT %:    59.8487  MISS %:    40.1513   MPKI: 55.125
L1I LOAD INSTRUCTION	ACCESS:    6354178  HIT:    3597926  MISS:    2756252  HIT %:     56.623  MISS %:     43.377  MPKI: 55.125
L1I PREFETCH INSTRUCTION	ACCESS:     510482  HIT:     510482  MISS:          0  HIT %:        100  MISS %:          0  MPKI: 0

L1I PREFETCH  REQUESTED:    1118096  ISSUED:    1118096  USEFUL:          0  USELESS:          0
L1I USEFUL LOAD PREFETCHES:          0 PREFETCH ISSUED TO LOWER LEVEL:          0  ACCURACY: -nan
 TIMELY PREFETCHES:          0 LATE PREFETCHES: 0 DROPPED PREFETCHES: 0
L1I AVERAGE MISS LATENCY: 17.0776 cycles
L1I RQ	ACCESS:    9439545	FORWARD:          0	MERGED:    2818389	TO_CACHE:    6621156
L1I PQ	ACCESS:    1118096	FORWARD:          0	MERGED:     315791	TO_CACHE:     802305

L1BTB TOTAL     ACCESS:    5671257  HIT:    2050035  MISS:    3621222  HIT %:    36.1478  MISS %:    63.8522   MPKI: 72.4244
L1BTB BRANCH_DIRECT_JUMP	ACCESS:     548608  HIT:     145720  MISS:     402888	AVERAGE STALL: 24.6592
L1BTB BRANCH_INDIRECT	ACCESS:     183227  HIT:      66270  MISS:     116957	AVERAGE STALL: 90.6129
L1BTB BRANCH_CONDITIONAL	ACCESS:    2707780  HIT:    1418610  MISS:    1289170	AVERAGE STALL: 22.6142
L1BTB BRANCH_DIRECT_CALL	ACCESS:     944369  HIT:     106669  MISS:     837700	AVERAGE STALL: 25.3533
L1BTB BRANCH_INDIRECT_CALL	ACCESS:     171449  HIT:      21397  MISS:     150052	AVERAGE STALL: 125.382
L1BTB BRANCH_RETURN	ACCESS:    1115824  HIT:     291369  MISS:     824455	AVERAGE STALL: 25.4771
L1BTB BRANCH_OTHER ACCESS:          0  HIT:          0  MISS:          0	AVERAGE STALL: -nan
L1BTB TOTAL ROB OCCUPANCY AT BTB MISS: 23.1884

L2BTB TOTAL     ACCESS:    3595830  HIT:    3160724  MISS:     435106  HIT %:    87.8997  MISS %:    12.1003   MPKI: 8.70212
L2BTB BRANCH_DIRECT_JUMP	ACCESS:     398716  HIT:     350016  MISS:      48700	AVERAGE STALL: 24.6592
L2BTB BRANCH_INDIRECT	ACCESS:     106666  HIT:     101534  MISS:       5132	AVERAGE STALL: 90.6129
L2BTB BRANCH_CONDITIONAL	ACCESS:    1289170  HIT:    1145789  MISS:     143381	AVERAGE STALL: 22.6142
L2BTB BRANCH_DIRECT_CALL	ACCESS:     837700  HIT:     721534  MISS:     116166	AVERAGE STALL: 25.3533
L2BTB BRANCH_INDIRECT_CALL	ACCESS:     140525  HIT:     118980  MISS:      21545	AVERAGE STALL: 125.382
L2BTB BRANCH_RETURN	ACCESS:     823053  HIT:     722871  MISS:     100182	AVERAGE STALL: 25.4771
L2BTB BRANCH_OTHER ACCESS:          0  HIT:          0  MISS:          0	AVERAGE STALL: -nan
L2BTB TOTAL ROB OCCUPANCY AT BTB MISS: 192.988

L2C TOTAL     ACCESS:    4472156  HIT:    4034718  MISS:     437438  HIT %:    90.2186  MISS %:    9.78137   MPKI: 8.74876
L2C LOAD INSTRUCTION	ACCESS:    2756252  HIT:    2516041  MISS:     240211  HIT %:    91.2849  MISS %:    8.71513  MPKI: 4.80422
L2C LOAD TRANSLATION INSTRUCTION	ACCESS:        319  HIT:         87  MISS:        232  HIT %:    27.2727  MISS %:    72.7273  MPKI: 0.00464
L2C LOAD DATA	ACCESS:     726090  HIT:     658308  MISS:      67782  HIT %:    90.6648  MISS %:    9.33521  MPKI: 1.35564
L2C RFO DATA	ACCESS:     284591  HIT:     235659  MISS:      48932  HIT %:    82.8062  MISS %:    17.1938  MPKI: 0.97864
L2C PREFETCH DATA	ACCESS:     182667  HIT:     115152  MISS:      67515  HIT %:    63.0393  MISS %:    36.9607  MPKI: 1.3503
L2C WRITEBACK DATA	ACCESS:     520212  HIT:     508917  MISS:      11295  HIT %:    97.8288  MISS %:    2.17123  MPKI: 0.2259
L2C LOAD TRANSLATION DATA	ACCESS:       1974  HIT:        526  MISS:       1448  HIT %:    26.6464  MISS %:    73.3536  MPKI: 0.02896
L2C TRANSLATION FROM L1D PREFETCHER DATA	ACCESS:         51  HIT:         28  MISS:         23  HIT %:     54.902  MISS %:     45.098  MPKI: 0.00046

L2C PREFETCH  REQUESTED:      87351  ISSUED:      87351  USEFUL:       7162  USELESS:      60943
L2C USEFUL LOAD PREFETCHES:       7162 PREFETCH ISSUED TO LOWER LEVEL:      67995  ACCURACY: 10.5331
 TIMELY PREFETCHES:       7162 LATE PREFETCHES: 480 DROPPED PREFETCHES: 0
L2C AVERAGE MISS LATENCY: 40.2834 cycles
L2C RQ	ACCESS:    3769331	FORWARD:          0	MERGED:          0	TO_CACHE:    3769277
L2C WQ	ACCESS:     520212	FORWARD:         54	MERGED:          0	TO_CACHE:     520212
L2C PQ	ACCESS:     189922	FORWARD:          0	MERGED:       3211	TO_CACHE:     186711

L2C Dense regions hint from L2: 0
PSCL5 TOTAL     ACCESS:       4430  HIT:       2215  MISS:       2215  HIT %:         50  MISS %:         50   MPKI: 0.0443
PSCL5 LOAD TRANSLATION INSTRUCTION	ACCESS:       4334  HIT:       2167  MISS:       2167  HIT %:         50  MISS %:         50  MPKI: 0.04334
PSCL5 TRANSLATION FROM L1D PREFETCHER INSTRUCTION	ACCESS:         96  HIT:         48  MISS:         48  HIT %:         50  MISS %:         50  MPKI: 0.00096


PSCL4 TOTAL     ACCESS:       4312  HIT:       2153  MISS:       2159  HIT %:    49.9304  MISS %:    50.0696   MPKI: 0.04318
PSCL4 LOAD TRANSLATION INSTRUCTION	ACCESS:       2131  HIT:       2106  MISS:         25  HIT %:    98.8268  MISS %:    1.17316  MPKI: 0.0005
PSCL4 TRANSLATION FROM L1D PREFETCHER INSTRUCTION	ACCESS:         47  HIT:         47  MISS:          0  HIT %:        100  MISS %:          0  MPKI: 0
PSCL4 LOAD TRANSLATION DATA	ACCESS:       2087  HIT:          0  MISS:       2087  HIT %:          0  MISS %:        100  MPKI: 0.04174
PSCL4 TRANSLATION FROM L1D PREFETCHER DATA	ACCESS:         47  HIT:          0  MISS:         47  HIT %:          0  MISS %:        100  MPKI: 0.00094


PSCL3 TOTAL     ACCESS:       4352  HIT:       2173  MISS:       2179  HIT %:    49.9311  MISS %:    50.0689   MPKI: 0.04358
PSCL3 LOAD TRANSLATION INSTRUCTION	ACCESS:       2151  HIT:       2126  MISS:         25  HIT %:    98.8377  MISS %:    1.16225  MPKI: 0.0005
PSCL3 TRANSLATION FROM L1D PREFETCHER INSTRUCTION	ACCESS:         47  HIT:         47  MISS:          0  HIT %:        100  MISS %:          0  MPKI: 0
PSCL3 LOAD TRANSLATION DATA	ACCESS:       2107  HIT:          0  MISS:       2107  HIT %:          0  MISS %:        100  MPKI: 0.04214
PSCL3 TRANSLATION FROM L1D PREFETCHER DATA	ACCESS:         47  HIT:          0  MISS:         47  HIT %:          0  MISS %:        100  MPKI: 0.00094


PSCL2 TOTAL     ACCESS:       4309  HIT:       2094  MISS:       2215  HIT %:     48.596  MISS %:     51.404   MPKI: 0.0443
PSCL2 LOAD TRANSLATION INSTRUCTION	ACCESS:       2328  HIT:       2047  MISS:        281  HIT %:    87.9296  MISS %:    12.0704  MPKI: 0.00562
PSCL2 TRANSLATION FROM L1D PREFETCHER INSTRUCTION	ACCESS:         47  HIT:         47  MISS:          0  HIT %:        100  MISS %:          0  MPKI: 0
PSCL2 LOAD TRANSLATION DATA	ACCESS:       1887  HIT:          0  MISS:       1887  HIT %:          0  MISS %:        100  MPKI: 0.03774
PSCL2 TRANSLATION FROM L1D PREFETCHER DATA	ACCESS:         47  HIT:          0  MISS:         47  HIT %:          0  MISS %:        100  MPKI: 0.00094


LLC TOTAL     ACCESS:     495311  HIT:     465014  MISS:      30297  HIT %:    93.8832  MISS %:    6.11676   MPKI: 0.60594
LLC LOAD INSTRUCTION	ACCESS:     240211  HIT:     238955  MISS:       1256  HIT %:    99.4771  MISS %:   0.522874  MPKI: 0.02512
LLC LOAD TRANSLATION INSTRUCTION	ACCESS:        232  HIT:        193  MISS:         39  HIT %:    83.1897  MISS %:    16.8103  MPKI: 0.00078
LLC LOAD DATA	ACCESS:      67312  HIT:      63531  MISS:       3781  HIT %:    94.3829  MISS %:    5.61713  MPKI: 0.07562
LLC RFO DATA	ACCESS:      48914  HIT:      34659  MISS:      14255  HIT %:     70.857  MISS %:     29.143  MPKI: 0.2851
LLC PREFETCH DATA	ACCESS:      67995  HIT:      57579  MISS:      10416  HIT %:    84.6812  MISS %:    15.3188  MPKI: 0.20832
LLC WRITEBACK DATA	ACCESS:      69176  HIT:      68736  MISS:        440  HIT %:    99.3639  MISS %:   0.636059  MPKI: 0.0088
LLC LOAD TRANSLATION DATA	ACCESS:       1448  HIT:       1340  MISS:        108  HIT %:    92.5414  MISS %:    7.45856  MPKI: 0.00216
LLC TRANSLATION FROM L1D PREFETCHER DATA	ACCESS:         23  HIT:         21  MISS:          2  HIT %:    91.3043  MISS %:    8.69565  MPKI: 4e-05

LLC AVERAGE MISS LATENCY: 158.261 cycles
LLC RQ	ACCESS:     358148	FORWARD:          0	MERGED:          0	TO_CACHE:     358140
LLC WQ	ACCESS:      69176	FORWARD:          8	MERGED:          0	TO_CACHE:      69176
LLC PQ	ACCESS:      67995	FORWARD:          0	MERGED:          0	TO_CACHE:      67995

LLC Dense regions hint to LLC: 0

RAW hits: 1922176
Loads Generated: 12633122
Loads sent to L1D: 10710946
Stores Generated: 6943287
Stores sent to L1D: 6943304
Major fault: 0 Minor fault: 2620
Allocated PAGES: 2620

stream: 
stream:times selected: 1188804
stream:pref_filled: 122331
stream:pref_useful: 24523
stream:pref_late: 6564
stream:misses: 8018
stream:misses_by_poll: 0

CS: 
CS:times selected: 177706
CS:pref_filled: 59299
CS:pref_useful: 35417
CS:pref_late: 7076
CS:misses: 16258
CS:misses_by_poll: 1

CPLX: 
CPLX:times selected: 1009901
CPLX:pref_filled: 19504
CPLX:pref_useful: 4567
CPLX:pref_late: 3010
CPLX:misses: 92584
CPLX:misses_by_poll: 2

NL_L1: 
NL:times selected: 20276
NL:pref_filled: 725
NL:pref_useful: 346
NL:pref_late: 272
NL:misses: 1697
NL:misses_by_poll: 0

total selections: 2396687
total_filled: 94531
total_useful: 34044
total_late: 18267
total_polluted: 3
total_misses_after_warmup: 766317
conflicts: 5527140

test: 118690

DRAM Statistics
 CHANNEL 0
 RQ ROW_BUFFER_HIT:      10938  ROW_BUFFER_MISS:      18908
 DBUS_CONGESTED:          9
 WQ ROW_BUFFER_HIT:       1370  ROW_BUFFER_MISS:      13046  FULL:          0

 AVG_CONGESTED_CYCLE: 5

CPU 0 Branch Prediction Accuracy: 99.809% MPKI: 0.34944 Average ROB Occupancy at Mispredict: 176.262
Branch types
NOT_BRANCH: 40853412 81.7068%
BRANCH_DIRECT_JUMP: 548608 1.09722%
BRANCH_INDIRECT: 183227 0.366454%
BRANCH_CONDITIONAL: 6182991 12.366%
BRANCH_DIRECT_CALL: 944369 1.88874%
BRANCH_INDIRECT_CALL: 171449 0.342898%
BRANCH_RETURN: 1115824 2.23165%
BRANCH_OTHER: 0 0%

DRAM PAGES: 1048576
Allocated PAGES: 2620
Average_ROB_Occupancy: 217.534
Average_Decode_Occupancy: 19.168
Average_FTQ_Occupancy: 5.6347
Indirect max targets: 14 Average targets: 1.17778
Branch_type:  BRANCH_DIRECT_JUMP:  Count Percentage: 3.39792 6.82409 4.04421 9.43577 1.69504 5.9665 1.01495 67.6215 
Branch_type:  BRANCH_INDIRECT:  Count Percentage: 11.7555 3.44574 2.56616 0 1.33234 9.70081 19.2401 51.9593 
Branch_type:  BRANCH_CONDITIONAL:  Count Percentage: 21.0564 3.09801 1.85263 9.04355 1.19631 4.79892 1.85577 57.0984 
Branch_type:  BRANCH_DIRECT_CALL:  Count Percentage: 0.754216 1.26775 1.46163 5.13768 2.44078 2.36341 0.649048 85.9255 
Branch_type:  BRANCH_INDIRECT_CALL:  Count Percentage: 9.54649 0.577008 2.99168 4.85096 0.999173 1.71233 1.28841 78.034 
Branch_type:  BRANCH_RETURN:  Count Percentage: 3.97085 0.69828 1.40967 9.54713 2.65258 6.20265 3.04355 72.4753 
Branch_type:  BRANCH_DIRECT_JUMP:  Total Count: 37292 74894 44385 103557 18603 65482 11139 742142 
Branch_type:  BRANCH_INDIRECT:  Total Count: 43075 12626 9403 0 4882 35546 70500 190391 
Branch_type:  BRANCH_CONDITIONAL:  Total Count: 2603090 382991 229031 1118006 147894 593265 229419 7058770 
Branch_type:  BRANCH_DIRECT_CALL:  Total Count: 14214 23892 27546 96825 45999 44541 12232 1619357 
Branch_type:  BRANCH_INDIRECT_CALL:  Total Count: 32676 1975 10240 16604 3420 5861 4410 267097 
Branch_type:  BRANCH_RETURN:  Total Count: 88461 15556 31404 212687 59093 138180 67803 1614575 
Number of unique branch instructions: 10784
Upper 32 bits: 
aaaa
ffff
ffff0000
Unique upper 32 bits: 3
Unique upper 36 bits: 3
Unique upper 40 bits: 5
Unique upper 44 bits: 32
Unique upper 48 bits: 158
Offset_3 4456
Offset_4 260
Offset_5 483
Offset_6 544
Offset_7 645
Offset_8 584
Offset_9 514
Offset_10 421
Offset_11 351
Offset_12 327
Offset_13 241
Offset_14 247
Offset_15 194
Offset_16 229
Offset_17 165
Offset_18 152
Offset_19 265
Offset_20 144
Offset_21 235
Offset_22 409
Offset_23 241
Offset_24 353
Offset_25 117
Offset_47 94
Offset_64 3
decode_dispatch_called: 22851721 62.9761
Dispatch_width: 0 11359239 49.7085 31.3045
Dispatch_width: 1 895865 3.92034 2.46888
Dispatch_width: 2 1032060 4.51633 2.84421
Dispatch_width: 3 686721 3.00512 1.89251
Dispatch_width: 4 3938260 17.234 10.8533
Dispatch_width: 5 410655 1.79704 1.13171
Dispatch_width: 6 4528921 19.8187 12.4811
Empty_decode_cycles: 13434609 37.0239
ROB_full_cycles: 5949061 16.3948
Starvation_cycles_per_kilo_instr: 258.083
Starvation_cycles_per_kilo_instr_3: 214.594
Starvation_cycles_per_kilo_instr_0: 188.448
Branch_type_1  (3,1)  (4,9)  (5,39)  (6,75)  (7,127)  (8,149)  (9,136)  (10,111)  (11,79)  (12,55)  (13,11)  (14,2)  (15,3)  (16,4)  (18,1)  (19,5)  (20,2)  (21,1)  (22,3)  (23,2)  (24,10)  (25,12) 
Branch_type_2  (3,1)  (4,1)  (5,1)  (8,4)  (9,4)  (10,1)  (12,1)  (13,1)  (14,1)  (16,3)  (17,2)  (20,2)  (21,2)  (23,5)  (24,1)  (47,43) 
Branch_type_3  (3,4454)  (4,250)  (5,439)  (6,452)  (7,486)  (8,363)  (9,279)  (10,169)  (11,138)  (12,63)  (13,10)  (64,1) 
Branch_type_4  (6,4)  (7,8)  (8,27)  (9,57)  (10,67)  (11,69)  (12,117)  (13,102)  (14,112)  (15,92)  (16,101)  (17,76)  (18,65)  (19,128)  (20,73)  (21,124)  (22,215)  (23,136)  (24,208)  (25,101)  (64,1) 
Branch_type_5  (8,3)  (9,1)  (10,4)  (11,5)  (12,3)  (13,14)  (14,16)  (15,11)  (16,22)  (17,11)  (18,23)  (19,14)  (20,11)  (21,13)  (22,43)  (23,26)  (24,38) 
Branch_type_6  (5,4)  (6,13)  (7,24)  (8,38)  (9,37)  (10,69)  (11,60)  (12,88)  (13,103)  (14,116)  (15,88)  (16,99)  (17,76)  (18,63)  (19,118)  (20,56)  (21,95)  (22,148)  (23,72)  (24,96)  (25,4)  (47,51)  (64,1) 
aaaaab1fc620: 2ac9e77e 2aca717c 2aca8eff 2acaf6bc 2acaf9aa 2acaf9f1 2acb1abc 2acb1b7f 2acd4e22 2acdb712 2acf5f9e 2ad0ef44 2ad3f15c 2ad414e6 2ad60e42 2ad8609c 2ad99830 2ada35cc 2ada4676 2ada6612 2adf183e 2adf30e5 2adf5602 2adf785c 2ae11572 2aeb2dcf 2aee101b 2aee1ae1 2aee9456 2b156a8c 2b156b61 2b156bea 2b167f35 2b177656 2b17feec 2b1a3e5a 
aaaaab1fc640: 2ac9ec07 2aca656e 2aca801d 2acaea11 2acaee73 2acb13ee 2acb1470 2acd462b 2ad0ef5d 2ad3f3fe 2ad86e9b 2ada1641 2ada4115 2ada6638 2adf30d4 2ae12e57 2aee1033 2b1693ab 2b16948c 2b169491 2b17d915 2b17fa85 2b17fccd 
aaaaab1fc740: 2aca1fb0 2aca45b3 2aca5aa1 2aca5c69 2aca66f9 2aca9426 2acaeecb 2acf3d2d 2acf3d64 2acf6089 2ad017ea 2ad5e7ef 2ad61064 2ad87373 2ad9bf84 2ad9c093 2ae9b606 2aea9ffa 2aee99f5 2aee9a2c 2aeece4b 
aaaaab1fcb00: 2acf2d72 2acf3734 2acf604c 2acfa5b7 2ad397b5 2ad3b800 2ae8af7d 2ae8aff0 2ae9aaba 2aea9fc6 2aeaa358 2aee910b 2aee91cf 2aee928e 2aee92e4 2aee99de 2af6fe87 2af70dfe 2b16850c 2b16c4a2 2b1765f4 2b178094 2b17d925 2b17db06 2b17ec8f 
aaaaab1fcb10: 2acf2d95 2acf3758 2acf6052 2acfa5f4 2ad397c3 2ad3b81c 2ae8af88 2ae8affe 2ae9aacf 2aeaa017 2aeaa36d 2aee9114 2aee91d8 2aee934d 2aee9353 2aee9a14 2af6fe8c 2af70e22 2b168526 2b16c542 2b176609 2b1780a3 2b17d95d 2b17db44 2b17ecac 
aaaaac68f310: 2ac9ec8c 2ac9fb44 2ac9fbd2 2aca59ab 2acac04c 2acaf6e0 2acaf6ec 2acaf6f9 2acaf700 2acaf708 2acf2d90 2ad3cfbd 2ad3cfc4 2ad3d000 2ad3f35f 2ad4955d 2ad49571 2ad4f3f2 2ad4f400 2ad5f240 2ad5f37c 2ad5f86a 2ad5f86f 2ad5f880 2ad5fc0d 2ad5fc14 2ad5fc21 2ad5fe1b 2ad873bb 2ad873e3 2ad8a6b2 2ad9086e 2ad93096 2ad9bbb2 2ada152c 2ada1554 2ada3332 2ada5522 2adf3130 2adf313c 2adf3a3f 2adf3bd9 2adf5788 2adf7a8d 2ae07f6b 2ae0857a 2ae0857e 2ae08630 2ae08634 2ae08637 2ae08642 2ae0866f 2ae086e4 2ae086ec 2ae08717 2ae0871b 2aee0170 2aee1d38 2aee75f4 2aee7662 2aee85ca 2aee85e4 2aee8eef 2aee9a0a 2af70b84 2af74e8f 2b17d843 
aaaaac690ef0: 2aca598b 2acb111b 2acb175f 2acb1772 2acbfaf4 2acbfb00 2acf374f 2acf6d43 2acfa5c8 2ad3baf1 2ad3d4ac 2ad3d4b8 2ad3f1cf 2ad486b2 2ad5a59b 2ad5fc64 2ad5fcf9 2ad6121c 2ad906e9 2ad907bf 2ad9bada 2ada16ce 2ada1ad5 2ada43df 2ada64c0 2ada72ee 2adeb71a 2adf3bcb 2adf7a38 2adf7c6a 2adf8872 2adf8880 2adf9959 2adf9abe 2ae07f78 2ae08503 2ae08754 2ae12e80 2aea3bea 2aecb509 2aee00b0 2aee2bdd 2aee5467 2aee5601 2aee8f20 2af703fd 2af7048b 2af74e74 2dfba627 
Unique trigger count: 
1 10266
2 563
3 96
4 29
5 14
6 12
7 7
8 1
9 3
10 3
11 1
12 1
13 1
14 2
15 1
16 2
19 1
21 1
23 1
25 2
36 1
49 1
67 1
BTB PER SET UNIQUE ADDR: 3 4 3 3 1 1 3 2 4 0 2 0 5 3 1 3 3 2 4 5 3 4 2 3 4 5 1 3 3 2 6 6 4 4 5 2 1 6 5 2 4 4 4 7 6 4 4 4 6 3 3 2 3 1 0 3 4 3 3 3 1 4 2 3 1 4 5 4 3 5 5 1 1 4 2 3 3 7 2 4 2 3 1 4 3 4 2 5 3 3 6 5 3 5 3 0 4 4 2 3 4 4 3 3 4 2 1 2 3 2 2 2 3 6 2 6 2 5 4 1 5 4 2 0 1 2 2 2 7 6 6 2 3 3 6 4 2 2 3 3 5 4 4 3 2 4 3 5 5 5 3 9 3 5 4 1 4 4 4 3 5 6 5 4 7 5 2 2 9 3 2 3 5 3 1 2 4 5 6 1 3 4 7 4 7 6 4 1 2 3 5 3 3 4 4 4 4 3 2 5 3 2 3 2 3 3 2 5 3 1 2 4 5 3 4 2 2 5 3 0 1 3 2 4 3 2 4 3 0 4 8 4 2 4 4 4 5 2 2 3 1 0 6 4 11 7 1 3 4 3 3 1 1 4 2 7 3 5 4 3 4 4 4 2 3 7 3 2 4 2 3 2 2 3 4 2 2 1 3 3 4 3 5 2 5 5 3 3 1 1 0 3 1 6 2 1 4 3 2 2 3 3 2 2 4 2 4 2 7 5 4 1 3 2 5 2 7 6 2 3 4 6 3 5 2 3 2 7 1 1 5 0 2 5 5 2 4 5 6 0 4 0 1 5 5 3 1 6 5 5 4 8 6 3 5 3 2 0 5 1 2 6 2 4 7 5 1 1 2 2 3 2 3 4 4 4 3 4 3 4 6 3 2 6 3 2 6 2 6 2 5 5 4 2 3 1 5 1 1 3 4 2 5 2 2 4 4 3 1 1 1 4 6 4 2 3 6 3 1 3 1 1 4 4 5 6 3 0 2 6 2 2 9 3 5 5 3 3 4 0 3 4 5 4 5 6 2 4 3 2 4 3 1 3 5 1 1 4 7 3 3 3 4 6 2 3 6 3 3 3 0 4 5 3 3 1 4 5 2 1 2 1 2 2 0 4 3 0 7 1 5 2 3 5 0 6 3 3 3 1 5 1 1 2 1 2 2 2 2 3 3 2 5 8 2 1 2 5 4 6 4 4 4 3 6 6 1 6 6 4 5 3 4 6 4 4 2 2 4 1 2 5 6 3 6 2 8 3 7 9 4 6 3 6 1 3 3 1 4 4 7 3 5 3 2 1 4 3 3 7 3 2 3 7 2 2 3 4 1 5 5 2 2 0 1 0 0 9 5 3 6 8 2 2 3 3 6 2 4 2 6 2 6 7 2 4 4 4 2 2 5 3 3 2 2 3 2 0 3 1 5 4 8 2 2 5 3 5 2 3 5 4 3 3 5 5 3 5 3 3 8 1 4 4 1 0 4 4 3 4 3 2 5 2 3 0 5 3 2 3 6 2 6 4 6 4 5 3 2 4 5 5 4 3 6 6 3 3 3 3 4 2 5 2 6 3 5 3 4 3 1 5 2 3 3 3 6 4 5 5 0 6 0 3 3 3 4 1 3 1 3 3 3 2 2 1 8 2 0 3 2 0 1 1 1 3 1 4 2 4 6 5 2 2 3 4 8 3 2 2 2 3 2 4 2 3 4 2 3 2 0 2 1 4 2 2 3 6 4 1 3 3 1 5 4 4 8 3 2 2 5 4 0 3 3 4 5 2 1 3 4 4 0 3 8 6 3 4 0 3 2 4 2 1 5 7 7 2 2 4 5 3 5 3 5 3 3 5 2 3 1 4 4 1 5 4 1 2 0 4 5 2 5 2 2 2 4 2 4 4 3 1 3 2 5 2 2 2 5 3 2 2 3 4 2 4 7 5 5 2 6 3 5 4 5 5 3 2 4 4 2 6 2 1 9 3 3 4 5 3 1 3 3 6 4 0 2 3 5 4 3 6 5 5 6 3 2 3 3 5 5 3 4 4 3 2 6 4 3 2 5 2 1 4 5 5 5 5 3 5 5 4 1 3 1 5 0 2 6 2 6 5 5 3 4 1 3 2 5 8 5 4 9 7 6 4 6 5 2 7 4 2 1 4 4 6 5 5 4 4 7 1 5 5 2 4 6 6 4 2 3 3 4 5 2 6 9 5 6 3 3 4 0 6 7 1 7 5 1 3 7 5 3 5 2 1 2 5 4 2 5 4 2 7 5 5 4 5 3 5 3 3 5 2 3 5 4 3 3 3 5 3 4 4 6 2 5 3 2 5 5 2 10 5 3 3 3 2 2 3 4 7 6 2 3 2 3 2 3 1 3 2 4 4 3 4 6 5 4 6 0 3 3 4 4 4 2 1 3 2 3 1 2 1 4 1 3 3 3 5 2 8 5 3 2 1 10 1 2 4 1 2 6 5 3 7 3 5 5 6 3 5 3 2 1 1 5 1 4 4 3 8 4 1 7 4 6 2 3 4 5 3 5 8 4 4 6 1 4 5 7 4 3 3 4 3 6 6 3 6 6 6 4 3 5 5 1 2 4 5 1 3 2 1 3 5 2 3 5 2 2 5 4 2 5 1 7 3 3 2 3 1 3 5 3 4 3 4 2 6 2 3 7 3 5 5 4 5 2 8 3 5 3 8 6 2 7 1 5 2 1 2 4 4 3 1 3 5 3 1 2 3 4 4 3 3 3 4 2 5 2 5 4 5 0 5 3 3 2 6 8 1 8 0 1 4 5 2 5 1 4 3 4 1 1 2 4 5 3 4 1 4 4 6 5 1 4 3 3 6 10 4 3 7 6 5 1 1 3 5 6 3 2 2 4 3 4 4 5 3 0 4 2 3 6 8 5 3 3 5 1 2 6 3 4 1 3 2 6 8 3 3 3 3 4 5 2 5 6 6 5 2 1 5 4 2 4 3 4 4 4 4 7 3 5 4 3 5 5 3 1 7 4 4 3 3 3 2 3 2 2 2 5 4 3 3 5 2 1 3 3 8 5 2 3 4 2 4 3 3 4 3 2 0 4 2 3 2 4 3 4 4 2 1 2 6 1 5 2 4 2 3 7 1 1 5 5 3 3 4 5 2 3 4 5 5 4 4 4 3 3 3 2 3 5 2 4 1 4 0 8 3 3 6 4 4 5 7 3 2 3 3 2 3 4 1 4 2 4 3 0 5 1 6 3 3 3 5 3 2 5 3 4 2 4 1 6 3 0 3 3 1 1 4 1 5 3 3 6 3 2 2 2 3 2 2 7 2 3 5 3 3 3 4 2 2 5 0 2 3 4 3 2 2 2 0 3 0 4 2 4 4 2 3 2 1 2 6 4 2 6 1 3 4 2 2 5 5 2 2 6 0 1 2 3 1 1 2 3 3 5 3 1 1 8 2 1 4 1 6 1 4 3 3 6 2 4 2 1 3 3 1 2 3 5 2 3 3 1 3 0 5 2 3 3 0 4 3 5 3 5 3 3 4 2 3 2 2 2 3 5 0 2 3 3 3 4 1 3 3 2 10 7 2 3 2 4 1 1 3 6 2 3 0 3 2 4 2 3 5 6 6 8 0 4 2 8 4 4 5 4 8 2 4 8 3 0 6 4 3 3 5 3 3 2 1 2 5 2 2 3 3 2 3 6 3 5 4 6 1 1 5 6 3 3 5 5 4 6 2 5 5 2 6 4 3 3 2 3 6 5 3 2 3 3 3 4 4 2 3 3 2 3 1 3 8 0 2 2 3 3 4 5 3 4 2 5 1 2 2 6 2 4 5 7 1 1 7 3 4 3 3 4 8 2 3 2 4 7 3 5 3 5 3 5 10 4 4 3 5 2 5 4 3 2 3 1 2 3 4 4 3 2 4 3 5 4 2 4 9 0 3 2 4 4 4 3 4 3 6 4 5 1 5 3 3 4 3 3 0 3 5 0 7 2 6 6 1 4 3 2 0 4 2 3 5 3 6 2 3 2 2 3 5 6 1 4 3 0 3 2 4 5 3 2 3 5 2 3 2 6 4 4 1 5 3 0 2 4 1 1 8 2 0 4 2 4 3 2 3 6 3 3 6 1 5 4 6 2 6 5 3 3 2 7 1 4 1 3 3 4 4 3 4 2 1 2 5 0 3 0 3 5 6 2 2 5 2 3 3 3 1 3 2 4 2 4 2 5 3 2 3 1 2 3 3 4 2 3 4 2 1 1 3 2 5 1 5 1 6 4 3 3 2 5 1 2 3 5 4 3 4 5 6 3 3 3 4 3 2 0 3 2 0 2 1 2 2 4 2 5 2 2 3 4 1 2 4 3 2 3 9 3 2 7 7 4 2 5 2 3 6 3 4 5 3 4 1 2 4 6 4 2 4 3 2 5 3 5 7 4 3 0 4 1 0 2 3 0 4 4 6 1 3 4 7 5 0 2 2 4 3 5 2 3 3 8 3 2 3 3 7 2 7 3 3 7 0 1 3 1 4 4 2 0 2 3 4 6 5 1 0 3 4 6 1 1 1 3 6 2 1 5 5 3 3 5 4 1 6 3 6 1 1 2 2 2 2 5 1 3 3 3 3 4 1 5 3 4 3 4 2 1 3 6 4 4 0 
BTB PER SET COUNT: 3 4 3 3 2 2 3 2 4 0 2 0 2473 3 1 3 3 3 4 1479 3 6 2 3 4 12 1 4 1465 3 2954 23 6 4 8 2 2926 798 801 2 5 5 9 2253 5296 4 4 4 1576 3 3 2 3 1 0 3 5 3 3 3 1 4 2 3 1 374 428 5 3 1076 795 1 1 4 2 3 496 804 4 4 2 4 2 4 4 6 2 9 3 3 2566 487 3 3823 3 0 4 8 2 3 5 4 4 3 4 2 1 3 3 2 2 2 3 2014 2 1948 2 8 4 1 6 5 2 0 2 2 2 3 2987 11 1986 2 3 5 986 4 2 2 3 3 1303 5 5 3 3 11 5 4309 8 7 3 6760 3 2466 10 1 4 4 4 5 6 1061 6 5 17 1946 2 2 8213 3 2 3 8 3 1 5 4 8 988 1 3 4 6803 4 12 9 5 1 2 4 29 3 3 4 4 6 4 3 3 6 3 3 3 2 4 3 2 1481 3 1 4 7 13 3 4 2 2 632 3 0 1 3 2 4 4 2 7 34 0 4 5806 5 2 5 4 4 8 2 2 3 1 0 2472 4 9201 2134 1 3 5 3 4 1 1 4 2 2307 5 11 4 4 7 4 4 2 1465 1497 3 2 4 3 3 2 3 3 4 2 2 1 3 3 6 3 1979 2 798 2474 3 4 1 1 0 3 1 15 3 1 8 3 3 2 3 3 2 2 4 2 5 2 1983 1062 5 1 3 2 1059 2 2476 1334 2 4 4 2285 3 7 2 3 2 539 1 1 1006 0 2 13 1514 4 994 6 25 0 4 0 1 995 993 3 1 7 6 8 4 99 10 3 36 5 2 0 6 1 3 38 2 4 2659 1460 1 2 2 2 4 2 3 4 6 4 5 4 3 5 28 4 2 1574 3 2 13 2 10 2 21 8 4 2 4 1 3278 1 1 3 4 2 6 2 2 4 1466 3 1 969 1 4 14 5 970 3 128 3 1 90 1 1 4 4 5 9 6 0 2 7 145 2 2748 3 1060 2446 3 3 5 0 3 4 1321 4 9 1070 2 4 3 2 4 3 1 4 1958 2 1 4 1497 3 4 3 4 1971 2 4 8 3 4 3 0 5 23 496 4 1 5 1064 2 1 2 1 2 495 0 4 3 0 36 1 7 2 4 8 0 25 8 4 3 1 1959 6 1 2 1 3 2 2 2 3 3 2 8 39 5 1 2 2470 4 504 5 1467 4 4 20 1489 1 1963 4818 4 6 3 4 20 4 509 2 2 7 1 2 1486 180 6 17 2 66 3 999 9240 4 1485 4 2957 1 3 5 1 4 5 6775 3 1959 4 2 1 4 3 3 2979 3 3 3 5321 2 2 4 4 2 25 9 35 3 0 1 0 0 3942 7 3 1980 2978 2 4 971 5 11 2 4 2 10 4 12 1589 2 5 4 4 4 2 2472 3 3 2 2 3 989 0 4 1 11 497 3459 3 4 5 3 15 2 4 1982 1466 3 5 996 6 3 6 3 3 2978 1 4 4 1 0 5 4 3 6 5 2 9 2 3 0 8 3 2 3 7864 4 24 6 1980 5 2942 991 2 4 816 6 5 6 1487 3025 3 3 5 3 4 4 5 989 1487 3 19 1465 4 3 2 996 4 3 3 3 1964 5 16 41 0 2475 0 3 3 991 4 1 3 2 3 4 4 2 989 1 2472 2 0 3 2 0 1 1 1 5 1 5 2 5 1490 9 970 2 3 4 15 3 2 2 2 3 2 4 2 3 509 3 3 979 0 2 1 5 2 2 3 2967 4 1 3 4 1 16 4 4 5807 3 3 2 8 4 0 150 4 5 2858 4 1 3 4 5 0 3 3070 4797 3 4 0 3 3 30 2 1 6 1991 1959 2 2 4 10 3 6 4 1981 4 5 22 2 5 1 4 4 1 6 5 4 3 0 4 7 3 7 2 2 2 5 2 4 106 3 1 3 2 1980 3 15 2 1491 3 3 2 3 1468 2 15 2006 6 9 3 2471 3 1961 5 8 9 3 2 4 4 2 4835 2 1 6316 971 5 4 1486 5 1 3 3 2409 4 0 4 4 22 4 3 4798 6 8 100 3 2 4 3 7 7 3 6 5 3 3 761 4 3 2 1701 2 1 46 9 2402 5 1058 3 8 43 4 1 3 1 1470 0 2 1000 2 46 43 1469 3 9 1 3 2 1959 150 8 500 5342 3830 1498 4 2111 11 4 37 4 2 1 972 6 2478 24 1495 5 4 822 1 384 7 2 4 1371 1982 4 2 3 508 4 4818 5 62 1096 8 1984 3 3 4 0 378 27 1 7291 20 1 3 2001 15 496 7 2 4 2 7 6 2 1678 5 2 3465 8 9 4 1955 3 25 4 5 6 2 3 16 5 10 3 4 1987 4 2435 373 1776 3 23 6 2 7 1702 6 5071 22 3 3 4 2 2 3 4 2964 1963 6 5 2 3 2 3 3 3 2 5 4 3 4 11 1979 4 1480 0 3 3 4 1467 376 2 1 6 3 3 1 5 1 4 1 3 3 3 11 2 3955 1486 3 2 2 11210 1 2 4 1 2 1985 99 3 5312 3 24 6 2474 4 26 3 2 2 1 30 1 5 4 3 1992 4 1 2047 4 2477 2 498 4 13 3 2448 1830 4 4 2477 2 5 6 4837 6 3 3 4 3 1491 1960 4 2465 1471 2220 4 3 9 7 1 4 4 1975 1 3 2 1 3 8 2 4 522 2 2 61 6 2 11 1 5568 4 3 2 3 1 4 8 3 5 4 4 3 23 2 3 1704 3 6 9 4 1952 2 5726 3 1489 3 2597 7267 2 5297 1 18 2 1 2 508 4 3 1 3 148 3 1 2 497 4 4 3 3 3 4 2 1495 2 5 4 16 0 1960 3 3 2 41 7312 1 37 0 1 4 6 3 24 1 4 980 7 1 1 2 4 15 3 4 1 4 5 7267 14 1 4 3 4 3018 10235 1956 5 7288 21 1982 1 1 3 1958 2469 3 2 2 4 4 5 4 12 3 0 4 2 3 3376 7860 3826 4 3 322 1 2 22 3 4 1 3 2 2967 6535 971 3 3 3 6 7 2 1957 1989 2476 7 2 1 19 4 2 7 3 4 4 4 4 1972 3 1982 4 496 1957 2471 11 1 3053 4 4 3 3 3 4 3 2 2 2 18 4 3 3 1048 2 1 3 3 2964 9 2 3 4 2 4 3 3 5 3 3 0 4 2 3 2 4 3 7 4 2 1 2 1066 1 6 2 4 2 3 364 1 1 9 9 971 3 5 2462 2 3 30 7 14 4 5 4 3 3 3 3 3 1980 3 4 1 5 0 5730 3 3 2938 4 4 2448 6821 3 2 3 3 2 4 4 1 6 3 6 5 0 3825 1 10 4 4 5 8 4 2 1469 3 4 1340 13 1 521 4 0 3 4 1 1 1342 1 7 3 3 1964 3 3 2 2 4 2 2 2931 2 3 84 3 3 3 4 2 2 9 0 4 5 4 972 2 2 2 0 4 0 4 2 4 5 2 3 979 1 12 10 38 2 2468 1 3 5 2 2 11 12 134 2 21482 0 1 2 3 1 1 2 3 3 2087 381 1 1 1357 2 1 4 1 2477 1 4 4 3 1963 2 13 2 1 3 3 1 3 3 6 3 3 4 1 3 0 3814 2 3 6 0 6 480 1980 4 8 3 3 4 2 5 2 2 2 3 8 0 2 3 3 3 10 1 3 3 2 3743 2969 2 7 2 4 1 1 3 1765 2 3 0 3 2 4 2 3 10 2448 20 5809 0 4 2 2225 4 4 21 4 3464 2 5 8405 3 0 2965 1466 3 5 8 3 3 2 1 2 975 4 2 3 3 2 3 1740 5 1982 4 1026 2964 1 1222 6770 5 4 13 12 5 3397 4 1591 1982 2 1986 5 266 373 2 1465 1499 14 186 6 3 3 3 5 5 2 3 3 3 4 1 3 2636 0 2 2 4 3 5 514 4 4 2 3841 2 2 6 1472 2 1488 1485 2962 1 1 6307 3 994 3 4 4 1987 507 3 2 4 2949 3 501 3 4412 3 7 8710 5 4 14634 2969 2 1961 1466 15 2 3 1 3 3 4 4 3 2 4 3 47 4 2 155 3472 0 1466 2 1466 111 5 3 4 3 2348 4 781 1 2473 7 4 5 4 3 0 3 3065 0 5304 2 1218 2477 1 4 3 2 0 4 2 6 2257 4 4839 2 4 3 3 3 10 7285 1 4 512 0 3 2 5 1958 971 2 3 1966 2 3 2 2243 4 4 1 25 3 0 2 4 1463 1 3893 2 0 4 4 5 5 4 3 2410 4 449 2468 1 2472 4 1987 216 1959 70 3 3 2 4000 2 197 1 3 1476 4 4 4 4 2 1 2 498 0 3 0 3 7 3107 2 2 806 421 3 8 971 1 3 2 6 2 4 2 150 3 2 3 1 2 193 3 4 2 3 4 2 1 1 4 2 1380 1 8 1 3818 4 3 3 9 7 1 2 3 9 4 3 981 8 1001 3 3 3 4 3 2 0 3 2 0 2 1 2 3 4 2 2470 2 3 3 4 1 2 4 4 2 3 3088 6 2 3232 2449 107 2 7 5 3 33 3 5 20 4 5 2 3 4 11 981 2 4 3 2 6 4 9 2598 4 4 0 4 1 0 2 4 0 4 1467 1015 1 3 4 2464 7 0 4 2 9 3 7 2 4 3 3866 3 3 4 3 2489 10 3457 3 3 5086 0 1 4 1 5 5 2 0 2 3 5 21 8 2 0 4 4 1510 1 1 1 3 2475 2 1 17 8 3 5 1960 4 1 2476 3 1961 1 1 2 2 2 2 5 1 3 3 3 4 4 2 17 3 216 3 4 2 1 3 1492 4 4 0 
