
*** ChampSim Multicore Out-of-Order Simulator ***

Warmup Instructions: 50000000
Simulation Instructions: 50000000
Number of CPUs: 1
LLC sets: 2048
LLC ways: 16
Off-chip DRAM Size: 4096 MB Channels: 1 Width: 64-bit Data Rate: 6400 MT/s
CPU 0 runs ./micro_traces/srv548.trace.gz
.gz
ITLB has LRU replacement policy
DTLB has LRU replacement policy
STLB has LRU replacement policy
L1I has LRU replacement policy
L1D has LRU replacement policy
Initialize SRRIP state for L2C
Initialize DRRIP state for LLC
Heartbeat_Variant_0 : 1321 0.32251 per_variant_size: 0 1321 0 0 0 0 0 0 0 
Heartbeat_Variant_1 : 1198 0.29248 per_variant_size: 0 573 625 0 0 0 0 0 0 
Heartbeat_Variant_2 : 1313 0.320557 per_variant_size: 0 544 366 217 186 0 0 0 0 
Heartbeat_Variant_3 : 0 0 per_variant_size: 0 0 0 0 0 0 0 0 0 
Heartbeat_Variant_0_evicts 0 : 5763 1 : 228 2 : 227 3 : 0 
Heartbeat_Variant_1_evicts 0 : 222 1 : 0 2 : 417 3 : 0 
Heartbeat_Variant_2_evicts 0 : 213 1 : 428 2 : 0 3 : 0 
Heartbeat_Variant_3_evicts 0 : 0 1 : 0 2 : 0 3 : 0 
Heartbeat CPU 0 instructions: 10000000 cycles: 2799045 heartbeat IPC: 3.57265 cumulative IPC: 3.57265 (Simulation time: 0 hr 1 min 13 sec) 
Heartbeat_Variant_0 : 1379 0.33667 per_variant_size: 0 1379 0 0 0 0 0 0 0 
Heartbeat_Variant_1 : 1281 0.312744 per_variant_size: 0 572 709 0 0 0 0 0 0 
Heartbeat_Variant_2 : 1338 0.32666 per_variant_size: 0 502 379 243 214 0 0 0 0 
Heartbeat_Variant_3 : 0 0 per_variant_size: 0 0 0 0 0 0 0 0 0 
Heartbeat_Variant_0_evicts 0 : 5951 1 : 259 2 : 292 3 : 0 
Heartbeat_Variant_1_evicts 0 : 273 1 : 0 2 : 466 3 : 0 
Heartbeat_Variant_2_evicts 0 : 268 1 : 454 2 : 0 3 : 0 
Heartbeat_Variant_3_evicts 0 : 0 1 : 0 2 : 0 3 : 0 
Heartbeat CPU 0 instructions: 20000002 cycles: 5596253 heartbeat IPC: 3.57499 cumulative IPC: 3.57382 (Simulation time: 0 hr 2 min 30 sec) 
Heartbeat_Variant_0 : 1396 0.34082 per_variant_size: 0 1396 0 0 0 0 0 0 0 
Heartbeat_Variant_1 : 1301 0.317627 per_variant_size: 0 558 743 0 0 0 0 0 0 
Heartbeat_Variant_2 : 1335 0.325928 per_variant_size: 0 470 385 257 223 0 0 0 0 
Heartbeat_Variant_3 : 0 0 per_variant_size: 0 0 0 0 0 0 0 0 0 
Heartbeat_Variant_0_evicts 0 : 5729 1 : 115 2 : 126 3 : 0 
Heartbeat_Variant_1_evicts 0 : 116 1 : 0 2 : 297 3 : 0 
Heartbeat_Variant_2_evicts 0 : 113 1 : 301 2 : 0 3 : 0 
Heartbeat_Variant_3_evicts 0 : 0 1 : 0 2 : 0 3 : 0 
Heartbeat CPU 0 instructions: 30000002 cycles: 8393216 heartbeat IPC: 3.57531 cumulative IPC: 3.57432 (Simulation time: 0 hr 3 min 51 sec) 
Heartbeat_Variant_0 : 1391 0.3396 per_variant_size: 0 1391 0 0 0 0 0 0 0 
Heartbeat_Variant_1 : 1315 0.321045 per_variant_size: 0 580 735 0 0 0 0 0 0 
Heartbeat_Variant_2 : 1336 0.326172 per_variant_size: 0 464 388 267 217 0 0 0 0 
Heartbeat_Variant_3 : 0 0 per_variant_size: 0 0 0 0 0 0 0 0 0 
Heartbeat_Variant_0_evicts 0 : 5685 1 : 97 2 : 86 3 : 0 
Heartbeat_Variant_1_evicts 0 : 104 1 : 0 2 : 298 3 : 0 
Heartbeat_Variant_2_evicts 0 : 84 1 : 298 2 : 0 3 : 0 
Heartbeat_Variant_3_evicts 0 : 0 1 : 0 2 : 0 3 : 0 
Heartbeat CPU 0 instructions: 40000001 cycles: 11189871 heartbeat IPC: 3.5757 cumulative IPC: 3.57466 (Simulation time: 0 hr 5 min 10 sec) 
Heartbeat_Variant_0 : 1401 0.342041 per_variant_size: 0 1401 0 0 0 0 0 0 0 
Heartbeat_Variant_1 : 1315 0.321045 per_variant_size: 0 568 747 0 0 0 0 0 0 
Heartbeat_Variant_2 : 1333 0.325439 per_variant_size: 0 446 390 273 224 0 0 0 0 
Heartbeat_Variant_3 : 0 0 per_variant_size: 0 0 0 0 0 0 0 0 0 
Heartbeat_Variant_0_evicts 0 : 5737 1 : 93 2 : 72 3 : 0 
Heartbeat_Variant_1_evicts 0 : 88 1 : 0 2 : 246 3 : 0 
Heartbeat_Variant_2_evicts 0 : 69 1 : 243 2 : 0 3 : 0 
Heartbeat_Variant_3_evicts 0 : 0 1 : 0 2 : 0 3 : 0 
Heartbeat CPU 0 instructions: 50000000 cycles: 13986357 heartbeat IPC: 3.57592 cumulative IPC: 3.57491 (Simulation time: 0 hr 6 min 23 sec) 

Warmup complete CPU 0 instructions: 50000004 cycles: 13986358 (Simulation time: 0 hr 6 min 23 sec) 

Cycle: 20000000 FTQ IN: 54954645 FTQ occupancy: 15.591 DECODE IN: 54954627 DECODE occupancy: 9.41031 ROB IN: 54954627 ROB occupancy: 258.547 ROB OUT: 54954615
Heartbeat_Variant_0 : 1399 0.341553 per_variant_size: 0 1399 0 0 0 0 0 0 0 
Heartbeat_Variant_1 : 1303 0.318115 per_variant_size: 0 569 734 0 0 0 0 0 0 
Heartbeat_Variant_2 : 1352 0.330078 per_variant_size: 0 472 394 264 222 0 0 0 0 
Heartbeat_Variant_3 : 0 0 per_variant_size: 0 0 0 0 0 0 0 0 0 
Heartbeat_Variant_0_evicts 0 : 5696 1 : 100 2 : 144 3 : 0 
Heartbeat_Variant_1_evicts 0 : 99 1 : 0 2 : 317 3 : 0 
Heartbeat_Variant_2_evicts 0 : 147 1 : 329 2 : 0 3 : 0 
Heartbeat_Variant_3_evicts 0 : 0 1 : 0 2 : 0 3 : 0 
Heartbeat CPU 0 instructions: 60000002 cycles: 25996149 heartbeat IPC: 0.832654 cumulative IPC: 0.832654 (Simulation time: 0 hr 7 min 30 sec) 
Cycle: 30000000 FTQ IN: 8413777 FTQ occupancy: 13.8798 DECODE IN: 8413777 DECODE occupancy: 4.63 ROB IN: 8413774 ROB occupancy: 47.2465 ROB OUT: 8413769
Heartbeat_Variant_0 : 1397 0.341064 per_variant_size: 0 1397 0 0 0 0 0 0 0 
Heartbeat_Variant_1 : 1305 0.318604 per_variant_size: 0 571 734 0 0 0 0 0 0 
Heartbeat_Variant_2 : 1352 0.330078 per_variant_size: 0 469 398 265 220 0 0 0 0 
Heartbeat_Variant_3 : 0 0 per_variant_size: 0 0 0 0 0 0 0 0 0 
Heartbeat_Variant_0_evicts 0 : 5530 1 : 7 2 : 6 3 : 0 
Heartbeat_Variant_1_evicts 0 : 7 1 : 0 2 : 207 3 : 0 
Heartbeat_Variant_2_evicts 0 : 8 1 : 205 2 : 0 3 : 0 
Heartbeat_Variant_3_evicts 0 : 0 1 : 0 2 : 0 3 : 0 
Heartbeat CPU 0 instructions: 70000000 cycles: 37872038 heartbeat IPC: 0.842042 cumulative IPC: 0.837322 (Simulation time: 0 hr 8 min 41 sec) 
Cycle: 40000000 FTQ IN: 8434087 FTQ occupancy: 13.8895 DECODE IN: 8434092 DECODE occupancy: 4.63301 ROB IN: 8434083 ROB occupancy: 47.1299 ROB OUT: 8433984
Heartbeat_Variant_0 : 1404 0.342773 per_variant_size: 0 1404 0 0 0 0 0 0 0 
Heartbeat_Variant_1 : 1301 0.317627 per_variant_size: 0 564 737 0 0 0 0 0 0 
Heartbeat_Variant_2 : 1358 0.331543 per_variant_size: 0 479 387 268 224 0 0 0 0 
Heartbeat_Variant_3 : 0 0 per_variant_size: 0 0 0 0 0 0 0 0 0 
Heartbeat_Variant_0_evicts 0 : 5789 1 : 193 2 : 165 3 : 0 
Heartbeat_Variant_1_evicts 0 : 189 1 : 0 2 : 353 3 : 0 
Heartbeat_Variant_2_evicts 0 : 163 1 : 355 2 : 0 3 : 0 
Heartbeat_Variant_3_evicts 0 : 0 1 : 0 2 : 0 3 : 0 
Heartbeat CPU 0 instructions: 80000002 cycles: 49960082 heartbeat IPC: 0.827264 cumulative IPC: 0.833942 (Simulation time: 0 hr 9 min 55 sec) 
Cycle: 50000000 FTQ IN: 8238751 FTQ occupancy: 13.8868 DECODE IN: 8238750 DECODE occupancy: 4.60524 ROB IN: 8238750 ROB occupancy: 48.6402 ROB OUT: 8238752
Cycle: 60000000 FTQ IN: 8449646 FTQ occupancy: 13.8955 DECODE IN: 8449646 DECODE occupancy: 4.63862 ROB IN: 8449658 ROB occupancy: 47.2299 ROB OUT: 8449615
Heartbeat_Variant_0 : 1404 0.342773 per_variant_size: 0 1404 0 0 0 0 0 0 0 
Heartbeat_Variant_1 : 1302 0.317871 per_variant_size: 0 561 741 0 0 0 0 0 0 
Heartbeat_Variant_2 : 1357 0.331299 per_variant_size: 0 477 387 269 224 0 0 0 0 
Heartbeat_Variant_3 : 0 0 per_variant_size: 0 0 0 0 0 0 0 0 0 
Heartbeat_Variant_0_evicts 0 : 5592 1 : 2 2 : 1 3 : 0 
Heartbeat_Variant_1_evicts 0 : 3 1 : 0 2 : 198 3 : 0 
Heartbeat_Variant_2_evicts 0 : 0 1 : 198 2 : 0 3 : 0 
Heartbeat_Variant_3_evicts 0 : 0 1 : 0 2 : 0 3 : 0 
Heartbeat CPU 0 instructions: 90000002 cycles: 61802151 heartbeat IPC: 0.844447 cumulative IPC: 0.836544 (Simulation time: 0 hr 11 min 9 sec) 
Cycle: 70000000 FTQ IN: 8306094 FTQ occupancy: 13.9318 DECODE IN: 8306097 DECODE occupancy: 4.63711 ROB IN: 8306094 ROB occupancy: 48.9222 ROB OUT: 8306217
Heartbeat_Variant_0 : 1404 0.342773 per_variant_size: 0 1404 0 0 0 0 0 0 0 
Heartbeat_Variant_1 : 1310 0.319824 per_variant_size: 0 572 738 0 0 0 0 0 0 
Heartbeat_Variant_2 : 1351 0.329834 per_variant_size: 0 462 392 279 218 0 0 0 0 
Heartbeat_Variant_3 : 0 0 per_variant_size: 0 0 0 0 0 0 0 0 0 
Heartbeat_Variant_0_evicts 0 : 5705 1 : 120 2 : 71 3 : 0 
Heartbeat_Variant_1_evicts 0 : 118 1 : 0 2 : 272 3 : 0 
Heartbeat_Variant_2_evicts 0 : 74 1 : 263 2 : 0 3 : 0 
Heartbeat_Variant_3_evicts 0 : 0 1 : 0 2 : 0 3 : 0 
Heartbeat CPU 0 instructions: 100000000 cycles: 73819297 heartbeat IPC: 0.832144 cumulative IPC: 0.83566 (Simulation time: 0 hr 12 min 25 sec) 
Finished CPU 0 instructions: 50000003 cycles: 59832950 cumulative IPC: 0.83566 (Simulation time: 0 hr 12 min 25 sec) 

ChampSim completed all CPUs

Region of Interest Statistics

CPU 0 cumulative IPC: 0.83566 instructions: 50000003 cycles: 59832950
 Fetch stage stalled: 37.2186  Sim cycles: 59832950 fetch stall cycle: 22268969
 Empty decode stage: 70.8737  Sim cycles: 59832950 fetch stall cycle: 42405847
ITLB TOTAL     ACCESS:    7265441  HIT:    6769877  MISS:     495564  HIT %:    93.1792  MISS %:    6.82084   MPKI: 9.91128
ITLB LOAD TRANSLATION INSTRUCTION	ACCESS:    7265441  HIT:    6769877  MISS:     495564  HIT %:    93.1792  MISS %:    6.82084  MPKI: 9.91128

ITLB AVERAGE MISS LATENCY: 9.04655 cycles
ITLB RQ	ACCESS:    8405243	FORWARD:          0	MERGED:     935965	TO_CACHE:    7469278

DTLB TOTAL     ACCESS:   10497995  HIT:   10023628  MISS:     474367  HIT %:    95.4814  MISS %:    4.51864   MPKI: 9.48734
DTLB LOAD TRANSLATION DATA	ACCESS:   10497995  HIT:   10023628  MISS:     474367  HIT %:    95.4814  MISS %:    4.51864  MPKI: 9.48734

DTLB AVERAGE MISS LATENCY: 9.3171 cycles
DTLB RQ	ACCESS:   14557391	FORWARD:          0	MERGED:    4030073	TO_CACHE:   10527318

STLB TOTAL     ACCESS:    1228459  HIT:    1226265  MISS:       2194  HIT %:    99.8214  MISS %:   0.178598   MPKI: 0.04388
STLB LOAD TRANSLATION INSTRUCTION	ACCESS:     495563  HIT:     495265  MISS:        298  HIT %:    99.9399  MISS %:  0.0601336  MPKI: 0.00596
STLB LOAD TRANSLATION DATA	ACCESS:     474365  HIT:     472498  MISS:       1867  HIT %:    99.6064  MISS %:   0.393579  MPKI: 0.03734
STLB TRANSLATION FROM L1D PREFETCHER DATA	ACCESS:     258531  HIT:     258502  MISS:         29  HIT %:    99.9888  MISS %:  0.0112172  MPKI: 0.00058

STLB AVERAGE MISS LATENCY: 68.8678 cycles
STLB RQ	ACCESS:    1345630	FORWARD:          0	MERGED:     117128	TO_CACHE:    1228502

STLB Hit, L1D data hit: 0
STLB Hit, L2C data hit: 0
STLB Hit, LLC data hit: 0
STLB Hit, LLC data miss: 0
STLB STLB hints to L2: 0
L1D TOTAL     ACCESS:   14351927  HIT:   13230140  MISS:    1121787  HIT %:    92.1837  MISS %:    7.81628   MPKI: 22.4357
L1D LOAD DATA	ACCESS:    7686483  HIT:    6949360  MISS:     737123  HIT %:    90.4101  MISS %:    9.58986  MPKI: 14.7425
L1D RFO DATA	ACCESS:    6331351  HIT:    6041714  MISS:     289637  HIT %:    95.4254  MISS %:    4.57465  MPKI: 5.79274
L1D PREFETCH DATA	ACCESS:     334093  HIT:     239066  MISS:      95027  HIT %:    71.5567  MISS %:    28.4433  MPKI: 1.90054

L1D PREFETCH  REQUESTED:     751607  ISSUED:     751607  USEFUL:      36624  USELESS:      66862
L1D USEFUL LOAD PREFETCHES:      36624 PREFETCH ISSUED TO LOWER LEVEL:     103523  ACCURACY: 35.3776
 TIMELY PREFETCHES:      36624 LATE PREFETCHES: 8450 DROPPED PREFETCHES: 8
L1D AVERAGE MISS LATENCY: 329573 cycles
L1D RQ	ACCESS:   11487361	FORWARD:          0	MERGED:    3615369	TO_CACHE:    7718962
L1D WQ	ACCESS:    6950873	FORWARD:     153237	MERGED:     112444	TO_CACHE:    6838429
L1D PQ	ACCESS:     375907	FORWARD:          0	MERGED:          0	TO_CACHE:     375700

L1D UNIQUE REGIONS ACCESSED: 0
L1D REGIONS CONFLICTS: 0
L1D Cross Page Prefetch Requests: 6895
L1D Same Page Prefetch Requests: 760198
L1D ROI Sum of L1D PQ occupancy: 4773446
L1D PREFETCHES PUSHED FROM L2C: 0
L1I TOTAL     ACCESS:    7908855  HIT:    5141257  MISS:    2767598  HIT %:    65.0063  MISS %:    34.9937   MPKI: 55.352
L1I LOAD INSTRUCTION	ACCESS:    7908855  HIT:    5141257  MISS:    2767598  HIT %:    65.0063  MISS %:    34.9937  MPKI: 55.352

L1I AVERAGE MISS LATENCY: 17.1319 cycles
L1I RQ	ACCESS:   15263323	FORWARD:          0	MERGED:    6858080	TO_CACHE:    8405243

L1BTB TOTAL     ACCESS:    5669094  HIT:    2035946  MISS:    3633148  HIT %:    35.9131  MISS %:    64.0869   MPKI: 72.663
L1BTB BRANCH_DIRECT_JUMP	ACCESS:     547505  HIT:     143865  MISS:     403640	AVERAGE STALL: 22.311
L1BTB BRANCH_INDIRECT	ACCESS:     182331  HIT:      65641  MISS:     116690	AVERAGE STALL: 49.1
L1BTB BRANCH_CONDITIONAL	ACCESS:    2700408  HIT:    1406613  MISS:    1293795	AVERAGE STALL: 31.2845
L1BTB BRANCH_DIRECT_CALL	ACCESS:     946911  HIT:     106503  MISS:     840408	AVERAGE STALL: 34.089
L1BTB BRANCH_INDIRECT_CALL	ACCESS:     172515  HIT:      21908  MISS:     150607	AVERAGE STALL: 62.5861
L1BTB BRANCH_RETURN	ACCESS:    1119424  HIT:     291416  MISS:     828008	AVERAGE STALL: 32.1081
L1BTB BRANCH_OTHER ACCESS:          0  HIT:          0  MISS:          0	AVERAGE STALL: -nan
L1BTB TOTAL ROB OCCUPANCY AT BTB MISS: 0.53529

L2BTB TOTAL     ACCESS:    3607811  HIT:    3542596  MISS:      65215  HIT %:    98.1924  MISS %:    1.80761   MPKI: 1.3043
L2BTB BRANCH_DIRECT_JUMP	ACCESS:     399519  HIT:     395038  MISS:       4481	AVERAGE STALL: 22.311
L2BTB BRANCH_INDIRECT	ACCESS:     106386  HIT:     103676  MISS:       2710	AVERAGE STALL: 49.1
L2BTB BRANCH_CONDITIONAL	ACCESS:    1293795  HIT:    1289957  MISS:       3838	AVERAGE STALL: 31.2845
L2BTB BRANCH_DIRECT_CALL	ACCESS:     840408  HIT:     838887  MISS:       1521	AVERAGE STALL: 34.089
L2BTB BRANCH_INDIRECT_CALL	ACCESS:     141114  HIT:     130910  MISS:      10204	AVERAGE STALL: 62.5861
L2BTB BRANCH_RETURN	ACCESS:     826589  HIT:     784128  MISS:      42461	AVERAGE STALL: 32.1081
L2BTB BRANCH_OTHER ACCESS:          0  HIT:          0  MISS:          0	AVERAGE STALL: -nan
L2BTB TOTAL ROB OCCUPANCY AT BTB MISS: 29.8212

L2C TOTAL     ACCESS:    4512887  HIT:    4002393  MISS:     510494  HIT %:    88.6881  MISS %:    11.3119   MPKI: 10.2099
L2C LOAD INSTRUCTION	ACCESS:    2767598  HIT:    2495382  MISS:     272216  HIT %:    90.1642  MISS %:    9.83582  MPKI: 5.44432
L2C LOAD TRANSLATION INSTRUCTION	ACCESS:        336  HIT:        117  MISS:        219  HIT %:    34.8214  MISS %:    65.1786  MPKI: 0.00438
L2C LOAD DATA	ACCESS:     728661  HIT:     638244  MISS:      90417  HIT %:    87.5913  MISS %:    12.4087  MPKI: 1.80834
L2C RFO DATA	ACCESS:     289590  HIT:     237211  MISS:      52379  HIT %:    81.9127  MISS %:    18.0873  MPKI: 1.04758
L2C PREFETCH DATA	ACCESS:     200940  HIT:     121526  MISS:      79414  HIT %:    60.4787  MISS %:    39.5213  MPKI: 1.58828
L2C WRITEBACK DATA	ACCESS:     523762  HIT:     509221  MISS:      14541  HIT %:    97.2237  MISS %:    2.77626  MPKI: 0.29082
L2C LOAD TRANSLATION DATA	ACCESS:       1945  HIT:        655  MISS:       1290  HIT %:    33.6761  MISS %:    66.3239  MPKI: 0.0258
L2C TRANSLATION FROM L1D PREFETCHER DATA	ACCESS:         55  HIT:         37  MISS:         18  HIT %:    67.2727  MISS %:    32.7273  MPKI: 0.00036

L2C PREFETCH  REQUESTED:     105795  ISSUED:     105795  USEFUL:      10376  USELESS:      69801
L2C USEFUL LOAD PREFETCHES:      10376 PREFETCH ISSUED TO LOWER LEVEL:      80083  ACCURACY: 12.9566
 TIMELY PREFETCHES:      10376 LATE PREFETCHES: 669 DROPPED PREFETCHES: 0
L2C AVERAGE MISS LATENCY: 38.6416 cycles
L2C RQ	ACCESS:    3788199	FORWARD:          0	MERGED:          0	TO_CACHE:    3788186
L2C WQ	ACCESS:     523762	FORWARD:         13	MERGED:          0	TO_CACHE:     523762
L2C PQ	ACCESS:     209318	FORWARD:          0	MERGED:       3654	TO_CACHE:     205664

L2C Dense regions hint from L2: 0
PSCL5 TOTAL     ACCESS:       4412  HIT:       2206  MISS:       2206  HIT %:         50  MISS %:         50   MPKI: 0.04412
PSCL5 LOAD TRANSLATION INSTRUCTION	ACCESS:       4304  HIT:       2152  MISS:       2152  HIT %:         50  MISS %:         50  MPKI: 0.04304
PSCL5 TRANSLATION FROM L1D PREFETCHER INSTRUCTION	ACCESS:        108  HIT:         54  MISS:         54  HIT %:         50  MISS %:         50  MPKI: 0.00108


PSCL4 TOTAL     ACCESS:       4337  HIT:       2166  MISS:       2171  HIT %:    49.9424  MISS %:    50.0576   MPKI: 0.04342
PSCL4 LOAD TRANSLATION INSTRUCTION	ACCESS:       3828  HIT:       2117  MISS:       1711  HIT %:     55.303  MISS %:     44.697  MPKI: 0.03422
PSCL4 TRANSLATION FROM L1D PREFETCHER INSTRUCTION	ACCESS:         93  HIT:         49  MISS:         44  HIT %:    52.6882  MISS %:    47.3118  MPKI: 0.00088
PSCL4 LOAD TRANSLATION DATA	ACCESS:        411  HIT:          0  MISS:        411  HIT %:          0  MISS %:        100  MPKI: 0.00822
PSCL4 TRANSLATION FROM L1D PREFETCHER DATA	ACCESS:          5  HIT:          0  MISS:          5  HIT %:          0  MISS %:        100  MPKI: 0.0001


PSCL3 TOTAL     ACCESS:       4341  HIT:       2168  MISS:       2173  HIT %:    49.9424  MISS %:    50.0576   MPKI: 0.04346
PSCL3 LOAD TRANSLATION INSTRUCTION	ACCESS:       3830  HIT:       2119  MISS:       1711  HIT %:    55.3264  MISS %:    44.6736  MPKI: 0.03422
PSCL3 TRANSLATION FROM L1D PREFETCHER INSTRUCTION	ACCESS:         93  HIT:         49  MISS:         44  HIT %:    52.6882  MISS %:    47.3118  MPKI: 0.00088
PSCL3 LOAD TRANSLATION DATA	ACCESS:        413  HIT:          0  MISS:        413  HIT %:          0  MISS %:        100  MPKI: 0.00826
PSCL3 TRANSLATION FROM L1D PREFETCHER DATA	ACCESS:          5  HIT:          0  MISS:          5  HIT %:          0  MISS %:        100  MPKI: 0.0001


PSCL2 TOTAL     ACCESS:       4291  HIT:       2085  MISS:       2206  HIT %:    48.5901  MISS %:    51.4099   MPKI: 0.04412
PSCL2 LOAD TRANSLATION INSTRUCTION	ACCESS:       2327  HIT:       2032  MISS:        295  HIT %:    87.3227  MISS %:    12.6773  MPKI: 0.0059
PSCL2 TRANSLATION FROM L1D PREFETCHER INSTRUCTION	ACCESS:         53  HIT:         53  MISS:          0  HIT %:        100  MISS %:          0  MPKI: 0
PSCL2 LOAD TRANSLATION DATA	ACCESS:       1858  HIT:          0  MISS:       1858  HIT %:          0  MISS %:        100  MPKI: 0.03716
PSCL2 TRANSLATION FROM L1D PREFETCHER DATA	ACCESS:         53  HIT:          0  MISS:         53  HIT %:          0  MISS %:        100  MPKI: 0.00106


LLC TOTAL     ACCESS:     574644  HIT:     543903  MISS:      30741  HIT %:    94.6504  MISS %:    5.34957   MPKI: 0.61482
LLC LOAD INSTRUCTION	ACCESS:     272216  HIT:     271182  MISS:       1034  HIT %:    99.6202  MISS %:   0.379845  MPKI: 0.02068
LLC LOAD TRANSLATION INSTRUCTION	ACCESS:        219  HIT:        191  MISS:         28  HIT %:    87.2146  MISS %:    12.7854  MPKI: 0.00056
LLC LOAD DATA	ACCESS:      89783  HIT:      86037  MISS:       3746  HIT %:    95.8277  MISS %:    4.17228  MPKI: 0.07492
LLC RFO DATA	ACCESS:      52341  HIT:      37042  MISS:      15299  HIT %:    70.7705  MISS %:    29.2295  MPKI: 0.30598
LLC PREFETCH DATA	ACCESS:      80083  HIT:      69922  MISS:      10161  HIT %:    87.3119  MISS %:    12.6881  MPKI: 0.20322
LLC WRITEBACK DATA	ACCESS:      78694  HIT:      78295  MISS:        399  HIT %:     99.493  MISS %:   0.507027  MPKI: 0.00798
LLC LOAD TRANSLATION DATA	ACCESS:       1290  HIT:       1217  MISS:         73  HIT %:    94.3411  MISS %:    5.65891  MPKI: 0.00146
LLC TRANSLATION FROM L1D PREFETCHER DATA	ACCESS:         18  HIT:         17  MISS:          1  HIT %:    94.4444  MISS %:    5.55556  MPKI: 2e-05

LLC AVERAGE MISS LATENCY: 156.432 cycles
LLC RQ	ACCESS:     415870	FORWARD:          0	MERGED:          0	TO_CACHE:     415867
LLC WQ	ACCESS:      78694	FORWARD:          3	MERGED:          0	TO_CACHE:      78694
LLC PQ	ACCESS:      80083	FORWARD:          0	MERGED:          0	TO_CACHE:      80083

LLC Dense regions hint to LLC: 0

RAW hits: 1149533
Loads Generated: 12636894
Loads sent to L1D: 11487361
Stores Generated: 6950861
Stores sent to L1D: 6950873
Major fault: 0 Minor fault: 2661
Allocated PAGES: 2661

stream: 
stream:times selected: 1187659
stream:pref_filled: 120187
stream:pref_useful: 25095
stream:pref_late: 6171
stream:misses: 7396
stream:misses_by_poll: 0

CS: 
CS:times selected: 182124
CS:pref_filled: 59869
CS:pref_useful: 37128
CS:pref_late: 7499
CS:misses: 17595
CS:misses_by_poll: 5

CPLX: 
CPLX:times selected: 1004430
CPLX:pref_filled: 21539
CPLX:pref_useful: 4926
CPLX:pref_late: 3175
CPLX:misses: 91277
CPLX:misses_by_poll: 2

NL_L1: 
NL:times selected: 19820
NL:pref_filled: 646
NL:pref_useful: 336
NL:pref_late: 360
NL:misses: 1503
NL:misses_by_poll: 0

total selections: 2394033
total_filled: 95027
total_useful: 36624
total_late: 18439
total_polluted: 7
total_misses_after_warmup: 769602
conflicts: 6036279

test: 116698

DRAM Statistics
 CHANNEL 0
 RQ ROW_BUFFER_HIT:      11523  ROW_BUFFER_MISS:      18811
 DBUS_CONGESTED:          5
 WQ ROW_BUFFER_HIT:       1455  ROW_BUFFER_MISS:      13100  FULL:          0

 AVG_CONGESTED_CYCLE: 5

CPU 0 Branch Prediction Accuracy: 99.8222% MPKI: 0.32518 Average ROB Occupancy at Mispredict: 68.1632
Branch types
NOT_BRANCH: 40854094 81.7082%
BRANCH_DIRECT_JUMP: 547505 1.09501%
BRANCH_INDIRECT: 182331 0.364662%
BRANCH_CONDITIONAL: 6176877 12.3538%
BRANCH_DIRECT_CALL: 946911 1.89382%
BRANCH_INDIRECT_CALL: 172515 0.34503%
BRANCH_RETURN: 1119424 2.23885%
BRANCH_OTHER: 0 0%

DRAM PAGES: 1048576
Allocated PAGES: 2661
Average_ROB_Occupancy: 48.8666
Average_Decode_Occupancy: 4.62374
Average_FTQ_Occupancy: 13.8871
Indirect max targets: 14 Average targets: 1.17778
Branch_type:  BRANCH_DIRECT_JUMP:  Count Percentage: 3.31585 6.40468 4.09988 3.79399 9.94993 2.71886 1.60284 68.114 
Branch_type:  BRANCH_INDIRECT:  Count Percentage: 13.7711 3.44093 5.36714 3.7354 9.68519 1.20521 3.20251 59.5925 
Branch_type:  BRANCH_CONDITIONAL:  Count Percentage: 21.4794 3.03676 1.85295 3.15864 6.30754 9.54197 0.92737 53.6953 
Branch_type:  BRANCH_DIRECT_CALL:  Count Percentage: 0.752137 1.26427 1.02866 2.58891 5.1255 2.07211 0.618671 86.5497 
Branch_type:  BRANCH_INDIRECT_CALL:  Count Percentage: 9.52373 0 2.98403 4.26156 1.2589 2.9916 0.995938 77.9842 
Branch_type:  BRANCH_RETURN:  Count Percentage: 4.51994 1.37725 2.61165 3.27381 8.30368 10.5543 1.1845 68.1749 
Branch_type:  BRANCH_DIRECT_JUMP:  Total Count: 36325 70163 44914 41563 109001 29785 17559 746185 
Branch_type:  BRANCH_INDIRECT:  Total Count: 50367 12585 19630 13662 35423 4408 11713 217956 
Branch_type:  BRANCH_CONDITIONAL:  Total Count: 2653629 375170 228919 390228 779252 1178843 114570 6633678 
Branch_type:  BRANCH_DIRECT_CALL:  Total Count: 14190 23852 19407 48843 96699 39093 11672 1632868 
Branch_type:  BRANCH_INDIRECT_CALL:  Total Count: 32704 0 10247 14634 4323 10273 3420 267794 
Branch_type:  BRANCH_RETURN:  Total Count: 100835 30725 58263 73035 185246 235454 26425 1520907 
Number of unique branch instructions: 10810
Upper 32 bits: 
aaaa
ffff
ffff0000
Unique upper 32 bits: 3
Unique upper 36 bits: 3
Unique upper 40 bits: 5
Unique upper 44 bits: 32
Unique upper 48 bits: 158
Variant_0 : 1404 0.342773
Variant_1 : 1310 0.319824
Variant_2 : 1351 0.329834
Variant_3 : 0 0
Offset_3 4480
Offset_4 261
Offset_5 486
Offset_6 545
Offset_7 643
Offset_8 585
Offset_9 519
Offset_10 426
Offset_11 348
Offset_12 325
Offset_13 237
Offset_14 247
Offset_15 192
Offset_16 234
Offset_17 170
Offset_18 154
Offset_19 267
Offset_20 145
Offset_21 235
Offset_22 411
Offset_23 241
Offset_24 347
Offset_25 117
Offset_47 92
decode_dispatch_called: 30734778 51.3676
Dispatch_width: 0 18590448 60.4867 31.0706
Dispatch_width: 1 2362340 7.68621 3.94823
Dispatch_width: 2 1126413 3.66495 1.8826
Dispatch_width: 3 1085288 3.53114 1.81386
Dispatch_width: 4 1007062 3.27662 1.68312
Dispatch_width: 5 1278976 4.16133 2.13758
Dispatch_width: 6 5284251 17.1931 8.83167
Empty_decode_cycles: 29098172 48.6324
ROB_full_cycles: 505855 0.845446
Starvation_cycles_per_kilo_instr: 540.428
Starvation_cycles_per_kilo_instr_3: 517.568
Starvation_cycles_per_kilo_instr_0: 471.828
Branch_type_1  (3,1)  (4,9)  (5,39)  (6,75)  (7,126)  (8,152)  (9,137)  (10,110)  (11,77)  (12,55)  (13,11)  (14,2)  (15,3)  (16,4)  (18,1)  (19,5)  (20,2)  (21,1)  (22,3)  (23,2)  (24,10)  (25,12) 
Branch_type_2  (3,1)  (4,1)  (5,1)  (8,4)  (9,4)  (10,1)  (12,1)  (13,1)  (14,1)  (16,3)  (17,2)  (20,2)  (21,2)  (23,5)  (24,1)  (47,41) 
Branch_type_3  (3,4478)  (4,251)  (5,442)  (6,453)  (7,485)  (8,360)  (9,282)  (10,173)  (11,136)  (12,62)  (13,10) 
Branch_type_4  (6,4)  (7,8)  (8,26)  (9,58)  (10,68)  (11,69)  (12,116)  (13,100)  (14,112)  (15,91)  (16,105)  (17,77)  (18,66)  (19,129)  (20,74)  (21,124)  (22,216)  (23,136)  (24,202)  (25,101) 
Branch_type_5  (8,3)  (9,1)  (10,4)  (11,5)  (12,3)  (13,14)  (14,16)  (15,11)  (16,22)  (17,13)  (18,23)  (19,14)  (20,11)  (21,13)  (22,43)  (23,26)  (24,38) 
Branch_type_6  (5,4)  (6,13)  (7,24)  (8,40)  (9,37)  (10,70)  (11,61)  (12,88)  (13,101)  (14,116)  (15,87)  (16,100)  (17,78)  (18,64)  (19,119)  (20,56)  (21,95)  (22,149)  (23,72)  (24,96)  (25,4)  (47,51) 
Unique trigger count: 
Variant_0_evicts_0 : 0
Variant_0_evicts_1 : 0
Variant_0_evicts_2 : 0
Variant_0_evicts_3 : 0
Variant_1_evicts_0 : 0
Variant_1_evicts_1 : 0
Variant_1_evicts_2 : 0
Variant_1_evicts_3 : 0
Variant_2_evicts_0 : 0
Variant_2_evicts_1 : 0
Variant_2_evicts_2 : 0
Variant_2_evicts_3 : 0
Variant_3_evicts_0 : 0
Variant_3_evicts_1 : 0
Variant_3_evicts_2 : 0
Variant_3_evicts_3 : 0
BTB PER SET UNIQUE ADDR: 16 10 11 14 14 11 12 17 10 11 14 16 13 14 16 9 9 10 16 14 13 10 16 12 11 16 9 14 13 11 12 16 12 9 7 12 14 16 9 14 14 10 13 16 12 9 15 10 16 11 16 12 11 12 12 6 8 10 13 13 12 18 11 10 13 11 13 11 19 15 10 12 17 12 8 7 7 14 14 18 15 8 15 13 17 16 16 11 8 25 9 9 12 12 6 16 8 16 17 16 14 13 17 13 11 9 14 13 10 9 8 15 15 9 9 6 19 9 12 11 17 15 10 13 14 12 7 11 20 14 6 14 13 12 12 20 10 13 10 17 9 10 13 13 15 13 15 12 8 15 17 18 15 9 11 17 18 17 20 14 11 12 9 17 11 14 16 12 16 11 10 12 5 11 15 8 12 8 10 16 12 12 13 18 19 19 9 13 13 12 8 11 10 12 15 14 10 12 12 13 5 13 15 13 11 8 12 14 7 13 9 10 12 11 8 15 13 11 11 12 9 14 8 10 13 12 15 10 7 15 8 7 10 19 11 17 9 12 13 6 14 11 14 14 12 12 11 10 14 9 13 10 14 10 14 14 9 7 12 11 15 10 4 11 16 10 8 14 11 14 11 17 9 6 8 9 14 15 13 15 11 18 6 11 14 10 11 13 19 15 12 7 15 17 5 14 12 8 17 16 12 9 10 18 12 12 12 10 24 14 14 19 7 15 9 6 18 14 12 16 11 15 9 12 16 14 14 10 8 10 11 15 9 12 14 11 9 17 6 21 10 12 10 16 14 16 12 12 16 11 13 15 11 13 11 11 10 12 10 14 12 19 7 17 12 16 8 11 9 13 14 11 15 13 13 20 17 17 11 12 13 12 10 10 16 14 9 16 14 14 9 13 15 19 9 9 11 10 15 15 10 14 5 11 17 11 16 19 14 14 15 7 9 16 12 14 10 7 22 21 11 15 10 13 16 12 12 12 12 12 14 11 8 17 14 12 19 10 12 12 13 11 14 15 20 8 12 9 16 15 12 14 15 10 11 21 16 14 8 19 16 9 11 16 15 9 15 13 15 13 14 15 14 14 11 21 12 17 8 10 23 14 12 14 12 19 13 13 13 14 11 11 15 11 14 6 14 17 10 12 16 15 8 17 8 11 11 12 13 15 13 10 10 14 15 16 11 17 9 8 9 10 13 14 12 14 21 11 10 18 14 16 15 12 12 17 14 12 11 14 15 13 13 13 19 14 10 15 11 11 15 15 16 13 15 14 13 8 16 15 11 19 12 12 14 14 8 19 11 17 12 11 18 13 15 12 19 19 10 14 14 12 5 17 14 13 15 12 19 15 10 12 13 9 17 7 10 9 14 12 17 13 10 8 16 18 15 16 16 8 18 15 13 13 5 15 13 13 16 16 16 12 9 10 13 17 15 20 8 16 15 15 18 12 10 12 12 19 11 20 11 16 11 19 17 14 9 16 12 12 10 13 11 11 14 9 15 14 12 11 13 7 16 17 10 13 10 13 14 10 12 13 13 11 24 10 9 17 12 12 9 13 9 13 11 11 16 13 13 9 12 11 13 11 12 12 8 14 7 11 8 13 12 13 9 14 13 9 11 11 9 11 9 11 9 10 15 13 12 16 13 11 15 15 14 12 12 12 13 10 13 9 11 7 11 19 16 14 16 12 9 12 12 11 14 17 13 11 13 7 14 11 13 15 7 11 15 12 11 11 14 5 7 12 12 17 14 14 15 17 15 17 14 10 9 12 12 9 15 13 8 15 12 10 13 12 10 14 13 7 6 10 22 13 12 18 14 12 15 11 17 16 16 15 20 11 12 10 10 13 11 17 6 16 15 16 20 11 9 13 17 18 9 15 11 12 10 10 15 17 15 17 15 11 12 19 11 16 12 14 19 10 10 14 15 20 9 20 11 10 12 16 11 12 16 16 12 14 11 10 13 12 10 11 21 7 13 7 16 12 9 10 15 10 19 8 11 18 11 11 18 11 11 20 13 11 17 13 14 14 17 13 12 13 13 11 13 11 13 11 15 11 16 18 8 13 12 17 10 10 13 15 13 9 13 14 18 16 12 15 16 12 12 11 15 10 7 9 12 8 15 20 18 12 12 16 10 12 13 15 10 15 10 16 15 15 16 13 10 15 17 16 10 12 10 13 10 16 14 12 15 14 15 11 15 12 18 13 16 16 16 11 15 13 21 14 15 10 15 19 10 14 16 14 9 19 16 15 13 14 15 12 15 11 17 10 5 15 13 11 16 23 8 13 14 15 8 19 11 12 16 15 9 11 15 14 7 9 8 10 10 20 15 11 
BTB PER SET COUNT: 25 12 774 23 1149 18 984 556 1369 14 17 973 19386 19 17 11 1212 1488 20 23 30 11 720 18 14 30 13 16 390 17 19 1394 16 14 8 14 18 24 12 25 18 15 14 28 1099 9 21 11 873 18 21 198 14 18 333 6 11 13 19 16 16 22 177 13 17 14 17 14 31 21 1479 818 25 15 12 8 10 67 22 28 269 10 608 1010 20 397 19 13 1271 30 12 11 126 14 6 27 1356 26 34 1867 22 17 17 22 494 11 28 22 739 13 11 24 680 14 15 1485 26 14 1480 14 524 51 12 16 16 127 7 1435 27 641 9 2365 26 20 18 24 982 25 13 26 16 13 15 13 21 15 24 19 20 252 34 185 481 11 12 32 246 19 27 1173 15 328 10 27 1479 18 23 15 18 814 11 13 6 13 33 1005 13 10 19 340 19 114 3438 25 43 25 14 21 998 15 12 11 11 16 20 15 12 510 15 19 6 18 993 24 15 11 15 265 8 15 16 18 18 10913 9 49 19 20 2229 18 12 32 10 18 17 16 23 11 391 20 8 9 19 42 12 22 15 597 31 13 23 18 24 21 17 20 428 14 202 14 19 13 15 10 25 23 94 11 19 12 22 13 4 13 20 15 8 21 730 14 17 74 9 6 15 11 19 18 16 283 16 32 12 11 19 12 13 18 27 19 14 11 17 518 7 21 13 8 25 141 17 12 11 36 18 21 53 14 34 27 17 21 7 20 16 992 24 27 13 26 17 2944 9 15 20 189 32 16 8 16 13 25 37 16 18 16 12 430 6 25 10 1492 12 24 25 23 12 20 23 15 100 84 13 14 16 11 15 26 489 15 13 24 8 28 12 49 11 16 17 21 24 22 18 111 142 28 29 28 12 15 839 14 13 14 30 21 9 27 23 469 11 13 26 403 14 566 11 14 24 27 10 19 5 12 30 14 28 148 20 22 24 7 10 959 15 15 15 1148 38 29 14 21 11 19 30 13 578 16 19 450 22 15 10 31 509 19 28 294 14 14 41 19 20 26 26 8 16 13 25 19 23 2975 21 13 265 1461 24 21 9 35 28 10 15 28 25 12 3282 16 21 22 22 18 16 17 17 47 18 44 13 14 33 26 14 17 13 24 23 23 89 128 12 13 784 17 16 6 136 976 12 23 29 24 12 186 12 14 12 17 16 33 16 20 880 489 21 23 14 26 13 8 10 15 18 250 16 28 739 187 15 27 20 26 18 12 19 31 20 29 14 425 25 18 13 13 23 138 10 21 14 266 28 19 165 21 24 22 18 8 28 16 16 69 15 16 941 15 137 21 14 28 24 12 26 16 451 14 22 302 12 20 22 30 7 698 20 17 31 15 31 16 13 145 598 14 27 7 11 393 261 14 21 19 11 10 20 25 21 1205 17 10 27 1480 162 15 5 22 16 22 26 32 17 13 12 16 18 20 22 26 389 22 26 34 218 88 12 19 19 554 18 284 15 27 16 527 20 175 230 24 992 17 13 23 15 13 2448 507 20 144 15 322 70 12 18 20 1649 33 12 14 1490 19 15 14 729 14 32 508 15 22 17 15 9 15 1473 25 22 15 31 15 181 12 14 14 14 14 443 19 10 1511 14 12 10 16 1085 14 11 15 26 13 13 14 13 12 13 13 11 130 387 25 15 398 17 16 23 1202 16 17 19 17 998 1288 372 10 16 9 12 969 1010 15 23 15 13 18 521 24 36 23 1106 11 25 9 221 11 416 646 8 15 19 1135 15 15 19 6 8 14 15 27 17 2365 19 343 57 169 23 11 12 18 12 9 19 17 1543 22 65 10 17 17 14 18 18 9 7 980 34 17 1179 260 66 21 23 676 23 23 26 18 54 17 18 13 10 54 12 1647 6 28 22 89 295 21 12 797 27 823 11 22 12 12 12 20 21 27 24 27 23 16 511 21 20 25 15 19 29 129 13 22 351 29 14 36 16 711 1481 630 21 19 140 25 17 27 14 11 38 17 15 15 1026 9 28 7 28 46 13 15 32 15 24 9 13 29 14 14 22 12 147 32 768 401 25 18 20 25 20 635 157 4231 26 14 16 16 19 16 19 20 20 118 12 18 15 23 14 18 19 510 17 11 18 2331 2437 32 20 26 17 16 25 12 26 56 9 11 18 29 25 32 366 14 59 21 12 14 719 20 11 785 16 18 18 25 22 18 14 18 259 71 332 2241 13 18 190 29 19 22 19 25 137 15 19 18 793 16 19 28 72 12 21 19 222 32 26 13 25 30 20 475 49 146 21 215 18 513 20 18 24 277 401 549 1131 18 5 197 25 607 19 371 12 15 19 26 13 33 17 985 575 50 16 21 22 15 11 9 9 10 11 248 21 11 
To predecode: 0
Predecoding something: 0
Predecode request dropped: 0
sizeofblock_0 0
sizeofblock_1 42358
sizeofblock_2 33209
sizeofblock_3 38953
sizeofblock_4 23790
sizeofblock_5 0
sizeofblock_6 0
sizeofblock_7 0
sizeofblock_8 0
Variant_0 Correct: 1609729 Incorrect: 0 Accuracy: 1
Variant_1 Correct: 2087139 Incorrect: 0 Accuracy: 1
Variant_2 Correct: 3637839 Incorrect: 0 Accuracy: 1
Variant_3 Correct: 0 Incorrect: 0 Accuracy: -nan
