
*** ChampSim Multicore Out-of-Order Simulator ***

Warmup Instructions: 50000000
Simulation Instructions: 50000000
Number of CPUs: 1
LLC sets: 2048
LLC ways: 16
Off-chip DRAM Size: 4096 MB Channels: 1 Width: 64-bit Data Rate: 6400 MT/s
CPU 0 runs ./micro_traces/srv563.trace.gz
.gz
ITLB has LRU replacement policy
DTLB has LRU replacement policy
STLB has LRU replacement policy
FDIP Prefetcher at L1I
L1I has LRU replacement policy
L1D has LRU replacement policy
Initialize SRRIP state for L2C
Initialize DRRIP state for LLC
Heartbeat_Variant_0 : 1296 0.158203 per_variant_size: 0 1296 0 0 0 0 0 0 0 
Heartbeat_Variant_1 : 2760 0.336914 per_variant_size: 0 1181 1579 0 0 0 0 0 0 
Heartbeat_Variant_2 : 0 0 per_variant_size: 0 0 0 0 0 0 0 0 0 
Heartbeat_Variant_3 : 0 0 per_variant_size: 0 0 0 0 0 0 0 0 0 
Heartbeat_Variant_0_evicts 0 : 5580 1 : 0 2 : 0 3 : 0 
Heartbeat_Variant_1_evicts 0 : 1 1 : 0 2 : 0 3 : 0 
Heartbeat_Variant_2_evicts 0 : 0 1 : 0 2 : 0 3 : 0 
Heartbeat_Variant_3_evicts 0 : 0 1 : 0 2 : 0 3 : 0 
Heartbeat CPU 0 instructions: 10000000 cycles: 2797828 heartbeat IPC: 3.5742 cumulative IPC: 3.5742 (Simulation time: 0 hr 2 min 28 sec) 
Heartbeat_Variant_0 : 1334 0.162842 per_variant_size: 0 1334 0 0 0 0 0 0 0 
Heartbeat_Variant_1 : 2871 0.350464 per_variant_size: 0 1192 1679 0 0 0 0 0 0 
Heartbeat_Variant_2 : 0 0 per_variant_size: 0 0 0 0 0 0 0 0 0 
Heartbeat_Variant_3 : 0 0 per_variant_size: 0 0 0 0 0 0 0 0 0 
Heartbeat_Variant_0_evicts 0 : 5598 1 : 1 2 : 0 3 : 0 
Heartbeat_Variant_1_evicts 0 : 0 1 : 0 2 : 0 3 : 0 
Heartbeat_Variant_2_evicts 0 : 0 1 : 0 2 : 0 3 : 0 
Heartbeat_Variant_3_evicts 0 : 0 1 : 0 2 : 0 3 : 0 
Heartbeat CPU 0 instructions: 20000000 cycles: 5594640 heartbeat IPC: 3.5755 cumulative IPC: 3.57485 (Simulation time: 0 hr 4 min 43 sec) 
Heartbeat_Variant_0 : 1381 0.168579 per_variant_size: 0 1381 0 0 0 0 0 0 0 
Heartbeat_Variant_1 : 2991 0.365112 per_variant_size: 0 1214 1777 0 0 0 0 0 0 
Heartbeat_Variant_2 : 0 0 per_variant_size: 0 0 0 0 0 0 0 0 0 
Heartbeat_Variant_3 : 0 0 per_variant_size: 0 0 0 0 0 0 0 0 0 
Heartbeat_Variant_0_evicts 0 : 5532 1 : 1 2 : 0 3 : 0 
Heartbeat_Variant_1_evicts 0 : 1 1 : 0 2 : 0 3 : 0 
Heartbeat_Variant_2_evicts 0 : 0 1 : 0 2 : 0 3 : 0 
Heartbeat_Variant_3_evicts 0 : 0 1 : 0 2 : 0 3 : 0 
Heartbeat CPU 0 instructions: 30000002 cycles: 8391298 heartbeat IPC: 3.5757 cumulative IPC: 3.57513 (Simulation time: 0 hr 6 min 43 sec) 
Heartbeat_Variant_0 : 1381 0.168579 per_variant_size: 0 1381 0 0 0 0 0 0 0 
Heartbeat_Variant_1 : 2993 0.365356 per_variant_size: 0 1216 1777 0 0 0 0 0 0 
Heartbeat_Variant_2 : 0 0 per_variant_size: 0 0 0 0 0 0 0 0 0 
Heartbeat_Variant_3 : 0 0 per_variant_size: 0 0 0 0 0 0 0 0 0 
Heartbeat_Variant_0_evicts 0 : 5560 1 : 0 2 : 0 3 : 0 
Heartbeat_Variant_1_evicts 0 : 0 1 : 0 2 : 0 3 : 0 
Heartbeat_Variant_2_evicts 0 : 0 1 : 0 2 : 0 3 : 0 
Heartbeat_Variant_3_evicts 0 : 0 1 : 0 2 : 0 3 : 0 
Heartbeat CPU 0 instructions: 40000000 cycles: 11187503 heartbeat IPC: 3.57627 cumulative IPC: 3.57542 (Simulation time: 0 hr 8 min 50 sec) 
Heartbeat_Variant_0 : 1381 0.168579 per_variant_size: 0 1381 0 0 0 0 0 0 0 
Heartbeat_Variant_1 : 2995 0.365601 per_variant_size: 0 1217 1778 0 0 0 0 0 0 
Heartbeat_Variant_2 : 0 0 per_variant_size: 0 0 0 0 0 0 0 0 0 
Heartbeat_Variant_3 : 0 0 per_variant_size: 0 0 0 0 0 0 0 0 0 
Heartbeat_Variant_0_evicts 0 : 5580 1 : 0 2 : 0 3 : 0 
Heartbeat_Variant_1_evicts 0 : 0 1 : 0 2 : 0 3 : 0 
Heartbeat_Variant_2_evicts 0 : 0 1 : 0 2 : 0 3 : 0 
Heartbeat_Variant_3_evicts 0 : 0 1 : 0 2 : 0 3 : 0 
Heartbeat CPU 0 instructions: 50000003 cycles: 13983527 heartbeat IPC: 3.57651 cumulative IPC: 3.57564 (Simulation time: 0 hr 11 min 2 sec) 

Warmup complete CPU 0 instructions: 50000003 cycles: 13983527 (Simulation time: 0 hr 11 min 2 sec) 

Cycle: 20000000 FTQ IN: 58293016 FTQ occupancy: 20.0599 DECODE IN: 58293016 DECODE occupancy: 52.3612 ROB IN: 58292960 ROB occupancy: 314.882 ROB OUT: 58292608
Heartbeat_Variant_0 : 1381 0.168579 per_variant_size: 0 1381 0 0 0 0 0 0 0 
Heartbeat_Variant_1 : 2996 0.365723 per_variant_size: 0 1224 1772 0 0 0 0 0 0 
Heartbeat_Variant_2 : 0 0 per_variant_size: 0 0 0 0 0 0 0 0 0 
Heartbeat_Variant_3 : 0 0 per_variant_size: 0 0 0 0 0 0 0 0 0 
Heartbeat_Variant_0_evicts 0 : 5603 1 : 0 2 : 0 3 : 0 
Heartbeat_Variant_1_evicts 0 : 0 1 : 0 2 : 0 3 : 0 
Heartbeat_Variant_2_evicts 0 : 0 1 : 0 2 : 0 3 : 0 
Heartbeat_Variant_3_evicts 0 : 0 1 : 0 2 : 0 3 : 0 
Heartbeat CPU 0 instructions: 60000000 cycles: 21225341 heartbeat IPC: 1.38087 cumulative IPC: 1.38087 (Simulation time: 0 hr 13 min 23 sec) 
Heartbeat_Variant_0 : 1392 0.169922 per_variant_size: 0 1392 0 0 0 0 0 0 0 
Heartbeat_Variant_1 : 3022 0.368896 per_variant_size: 0 1229 1793 0 0 0 0 0 0 
Heartbeat_Variant_2 : 0 0 per_variant_size: 0 0 0 0 0 0 0 0 0 
Heartbeat_Variant_3 : 0 0 per_variant_size: 0 0 0 0 0 0 0 0 0 
Heartbeat_Variant_0_evicts 0 : 5538 1 : 0 2 : 0 3 : 0 
Heartbeat_Variant_1_evicts 0 : 0 1 : 0 2 : 0 3 : 0 
Heartbeat_Variant_2_evicts 0 : 0 1 : 0 2 : 0 3 : 0 
Heartbeat_Variant_3_evicts 0 : 0 1 : 0 2 : 0 3 : 0 
Heartbeat CPU 0 instructions: 70000003 cycles: 28408821 heartbeat IPC: 1.39208 cumulative IPC: 1.38645 (Simulation time: 0 hr 16 min 2 sec) 
Cycle: 30000000 FTQ IN: 13922670 FTQ occupancy: 13.1233 DECODE IN: 13922543 DECODE occupancy: 34.357 ROB IN: 13922539 ROB occupancy: 236.113 ROB OUT: 13922540
Heartbeat_Variant_0 : 1393 0.170044 per_variant_size: 0 1393 0 0 0 0 0 0 0 
Heartbeat_Variant_1 : 3022 0.368896 per_variant_size: 0 1226 1796 0 0 0 0 0 0 
Heartbeat_Variant_2 : 0 0 per_variant_size: 0 0 0 0 0 0 0 0 0 
Heartbeat_Variant_3 : 0 0 per_variant_size: 0 0 0 0 0 0 0 0 0 
Heartbeat_Variant_0_evicts 0 : 5576 1 : 0 2 : 0 3 : 0 
Heartbeat_Variant_1_evicts 0 : 0 1 : 0 2 : 0 3 : 0 
Heartbeat_Variant_2_evicts 0 : 0 1 : 0 2 : 0 3 : 0 
Heartbeat_Variant_3_evicts 0 : 0 1 : 0 2 : 0 3 : 0 
Heartbeat CPU 0 instructions: 80000003 cycles: 35664180 heartbeat IPC: 1.37829 cumulative IPC: 1.38372 (Simulation time: 0 hr 18 min 28 sec) 
Cycle: 40000000 FTQ IN: 13843649 FTQ occupancy: 13.245 DECODE IN: 13843776 DECODE occupancy: 34.5196 ROB IN: 13843836 ROB occupancy: 237.503 ROB OUT: 13843924
Heartbeat_Variant_0 : 1393 0.170044 per_variant_size: 0 1393 0 0 0 0 0 0 0 
Heartbeat_Variant_1 : 3022 0.368896 per_variant_size: 0 1224 1798 0 0 0 0 0 0 
Heartbeat_Variant_2 : 0 0 per_variant_size: 0 0 0 0 0 0 0 0 0 
Heartbeat_Variant_3 : 0 0 per_variant_size: 0 0 0 0 0 0 0 0 0 
Heartbeat_Variant_0_evicts 0 : 5583 1 : 0 2 : 0 3 : 0 
Heartbeat_Variant_1_evicts 0 : 0 1 : 0 2 : 0 3 : 0 
Heartbeat_Variant_2_evicts 0 : 0 1 : 0 2 : 0 3 : 0 
Heartbeat_Variant_3_evicts 0 : 0 1 : 0 2 : 0 3 : 0 
Heartbeat CPU 0 instructions: 90000000 cycles: 42826760 heartbeat IPC: 1.39614 cumulative IPC: 1.38681 (Simulation time: 0 hr 21 min 2 sec) 
Cycle: 50000000 FTQ IN: 13921602 FTQ occupancy: 13.1633 DECODE IN: 13921572 DECODE occupancy: 34.5826 ROB IN: 13921512 ROB occupancy: 237.669 ROB OUT: 13921423
Heartbeat_Variant_0 : 1410 0.172119 per_variant_size: 0 1410 0 0 0 0 0 0 0 
Heartbeat_Variant_1 : 3074 0.375244 per_variant_size: 0 1215 1859 0 0 0 0 0 0 
Heartbeat_Variant_2 : 0 0 per_variant_size: 0 0 0 0 0 0 0 0 0 
Heartbeat_Variant_3 : 0 0 per_variant_size: 0 0 0 0 0 0 0 0 0 
Heartbeat_Variant_0_evicts 0 : 5689 1 : 0 2 : 0 3 : 0 
Heartbeat_Variant_1_evicts 0 : 0 1 : 0 2 : 0 3 : 0 
Heartbeat_Variant_2_evicts 0 : 0 1 : 0 2 : 0 3 : 0 
Heartbeat_Variant_3_evicts 0 : 0 1 : 0 2 : 0 3 : 0 
Heartbeat CPU 0 instructions: 100000000 cycles: 50035319 heartbeat IPC: 1.38724 cumulative IPC: 1.38689 (Simulation time: 0 hr 23 min 23 sec) 
Finished CPU 0 instructions: 50000001 cycles: 36051793 cumulative IPC: 1.38689 (Simulation time: 0 hr 23 min 23 sec) 

ChampSim completed all CPUs

Region of Interest Statistics

CPU 0 cumulative IPC: 1.38689 instructions: 50000001 cycles: 36051793
 Fetch stage stalled: 53.2174  Sim cycles: 36051793 fetch stall cycle: 19185828
 Empty decode stage: 34.032  Sim cycles: 36051793 fetch stall cycle: 12269162
ITLB TOTAL     ACCESS:    5865643  HIT:    5371715  MISS:     493928  HIT %:    91.5793  MISS %:     8.4207   MPKI: 9.87856
ITLB LOAD TRANSLATION INSTRUCTION	ACCESS:    5741032  HIT:    5247104  MISS:     493928  HIT %:    91.3965  MISS %:    8.60347  MPKI: 9.87856
ITLB TRANSLATION FROM L1D PREFETCHER INSTRUCTION	ACCESS:     124611  HIT:     124611  MISS:          0  HIT %:        100  MISS %:          0  MPKI: 0

ITLB AVERAGE MISS LATENCY: 9.05628 cycles
ITLB RQ	ACCESS:    8001609	FORWARD:          0	MERGED:    1692418	TO_CACHE:    6309191

DTLB TOTAL     ACCESS:    8975737  HIT:    8503653  MISS:     472084  HIT %:    94.7404  MISS %:    5.25956   MPKI: 9.44168
DTLB LOAD TRANSLATION DATA	ACCESS:    8975737  HIT:    8503653  MISS:     472084  HIT %:    94.7404  MISS %:    5.25956  MPKI: 9.44168

DTLB AVERAGE MISS LATENCY: 9.33014 cycles
DTLB RQ	ACCESS:   13345590	FORWARD:          0	MERGED:    4332521	TO_CACHE:    9013069

STLB TOTAL     ACCESS:    1215673  HIT:    1213632  MISS:       2041  HIT %:    99.8321  MISS %:   0.167891   MPKI: 0.04082
STLB LOAD TRANSLATION INSTRUCTION	ACCESS:     493928  HIT:     493678  MISS:        250  HIT %:    99.9494  MISS %:  0.0506147  MPKI: 0.005
STLB LOAD TRANSLATION DATA	ACCESS:     472083  HIT:     470323  MISS:       1760  HIT %:    99.6272  MISS %:   0.372816  MPKI: 0.0352
STLB TRANSLATION FROM L1D PREFETCHER DATA	ACCESS:     249662  HIT:     249631  MISS:         31  HIT %:    99.9876  MISS %:  0.0124168  MPKI: 0.00062

STLB AVERAGE MISS LATENCY: 74.0764 cycles
STLB RQ	ACCESS:    1337458	FORWARD:          0	MERGED:     121744	TO_CACHE:    1215714

STLB Hit, L1D data hit: 0
STLB Hit, L2C data hit: 0
STLB Hit, LLC data hit: 0
STLB Hit, LLC data miss: 0
STLB STLB hints to L2: 0
L1D TOTAL     ACCESS:   13092399  HIT:   11973043  MISS:    1119356  HIT %:    91.4503  MISS %:    8.54966   MPKI: 22.3871
L1D LOAD DATA	ACCESS:    6557228  HIT:    5820891  MISS:     736337  HIT %:    88.7706  MISS %:    11.2294  MPKI: 14.7267
L1D RFO DATA	ACCESS:    6205872  HIT:    5918354  MISS:     287518  HIT %:     95.367  MISS %:      4.633  MPKI: 5.75036
L1D PREFETCH DATA	ACCESS:     329299  HIT:     233798  MISS:      95501  HIT %:    70.9987  MISS %:    29.0013  MPKI: 1.91002

L1D PREFETCH  REQUESTED:     743310  ISSUED:     743310  USEFUL:      35359  USELESS:      69211
L1D USEFUL LOAD PREFETCHES:      35359 PREFETCH ISSUED TO LOWER LEVEL:     104556  ACCURACY: 33.8182
 TIMELY PREFETCHES:      35359 LATE PREFETCHES: 9022 DROPPED PREFETCHES: 7
L1D AVERAGE MISS LATENCY: 260370 cycles
L1D RQ	ACCESS:   10700552	FORWARD:          0	MERGED:    3944469	TO_CACHE:    6591809
L1D WQ	ACCESS:    6950443	FORWARD:     164692	MERGED:     196662	TO_CACHE:    6753781
L1D PQ	ACCESS:     371864	FORWARD:          0	MERGED:          0	TO_CACHE:     371446

L1D UNIQUE REGIONS ACCESSED: 0
L1D REGIONS CONFLICTS: 0
L1D Cross Page Prefetch Requests: 6948
L1D Same Page Prefetch Requests: 751231
L1D ROI Sum of L1D PQ occupancy: 4721575
L1D PREFETCHES PUSHED FROM L2C: 0
L1I TOTAL     ACCESS:    7160680  HIT:    4397114  MISS:    2763566  HIT %:    61.4064  MISS %:    38.5936   MPKI: 55.2713
L1I LOAD INSTRUCTION	ACCESS:    6499931  HIT:    3736365  MISS:    2763566  HIT %:    57.4831  MISS %:    42.5169  MPKI: 55.2713
L1I PREFETCH INSTRUCTION	ACCESS:     660749  HIT:     660749  MISS:          0  HIT %:        100  MISS %:          0  MPKI: 0

L1I PREFETCH  REQUESTED:    1615074  ISSUED:    1615074  USEFUL:          0  USELESS:          0
L1I USEFUL LOAD PREFETCHES:          0 PREFETCH ISSUED TO LOWER LEVEL:          0  ACCURACY: -nan
 TIMELY PREFETCHES:          0 LATE PREFETCHES: 0 DROPPED PREFETCHES: 0
L1I AVERAGE MISS LATENCY: 17.0287 cycles
L1I RQ	ACCESS:    9506310	FORWARD:          0	MERGED:    2683902	TO_CACHE:    6822408
L1I PQ	ACCESS:    1615074	FORWARD:          0	MERGED:     435873	TO_CACHE:    1179201

L1BTB TOTAL     ACCESS:    5669591  HIT:    2040598  MISS:    3628993  HIT %:     35.992  MISS %:     64.008   MPKI: 72.5799
L1BTB BRANCH_DIRECT_JUMP	ACCESS:     548588 HIT:     144271 MISS:     404317 AVERAGE STALL: 48.4037 AVERAGE FETCH STALL: 13.1224 AVERAGE FETCH QUEUE STALL: 14.272 AVERAGE DECODE STALL: 20.121 AVERAGE EXECUTE STALL: 2.23407e+15
L1BTB BRANCH_INDIRECT	ACCESS:     182965 HIT:      66049 MISS:     116916 AVERAGE STALL: 104.903 AVERAGE FETCH STALL: 10.8938 AVERAGE FETCH QUEUE STALL: 16.242 AVERAGE DECODE STALL: 11.8317 AVERAGE EXECUTE STALL: 64.9737
L1BTB BRANCH_CONDITIONAL	ACCESS:    2710093 HIT:    1416770 MISS:    1293323 AVERAGE STALL: 53.7222 AVERAGE FETCH STALL: 18.9489 AVERAGE FETCH QUEUE STALL: 22.2594 AVERAGE DECODE STALL: 11.7925 AVERAGE EXECUTE STALL: 3.62198e+15
L1BTB BRANCH_DIRECT_CALL	ACCESS:     942632 HIT:     104144 MISS:     838488 AVERAGE STALL: 80.5389 AVERAGE FETCH STALL: 28.3872 AVERAGE FETCH QUEUE STALL: 32.214 AVERAGE DECODE STALL: 19.1109 AVERAGE EXECUTE STALL: 3.58886e+16
L1BTB BRANCH_INDIRECT_CALL	ACCESS:     171337 HIT:      20857 MISS:     150480 AVERAGE STALL: 131.392 AVERAGE FETCH STALL: 12.8975 AVERAGE FETCH QUEUE STALL: 15.005 AVERAGE DECODE STALL: 10.479 AVERAGE EXECUTE STALL: 92.5227
L1BTB BRANCH_RETURN	ACCESS:    1113976 HIT:     288507 MISS:     825469 AVERAGE STALL: 45.3996 AVERAGE FETCH STALL: 16.6551 AVERAGE FETCH QUEUE STALL: 3.54838 AVERAGE DECODE STALL: 5.79379 AVERAGE EXECUTE STALL: 4.41236e+14
L1BTB BRANCH_OTHER ACCESS:          0 HIT:          0 MISS:          0 AVERAGE STALL: -nan AVERAGE FETCH STALL: -nan AVERAGE FETCH QUEUE STALL: -nan AVERAGE DECODE STALL: -nan AVERAGE EXECUTE STALL: -nan
L1BTB TOTAL ROB OCCUPANCY AT BTB MISS: 2.45811

L2BTB TOTAL     ACCESS:    3603546  HIT:    3540626  MISS:      62920  HIT %:    98.2539  MISS %:    1.74606   MPKI: 1.2584
L2BTB BRANCH_DIRECT_JUMP	ACCESS:     400140 HIT:     396048 MISS:       4092 AVERAGE STALL: 48.4037 AVERAGE FETCH STALL: 13.1224 AVERAGE FETCH QUEUE STALL: 14.272 AVERAGE DECODE STALL: 20.121 AVERAGE EXECUTE STALL: 2.23407e+15
L2BTB BRANCH_INDIRECT	ACCESS:     106623 HIT:     103942 MISS:       2681 AVERAGE STALL: 104.903 AVERAGE FETCH STALL: 10.8938 AVERAGE FETCH QUEUE STALL: 16.242 AVERAGE DECODE STALL: 11.8317 AVERAGE EXECUTE STALL: 64.9737
L2BTB BRANCH_CONDITIONAL	ACCESS:    1293323 HIT:    1288192 MISS:       5131 AVERAGE STALL: 53.7222 AVERAGE FETCH STALL: 18.9489 AVERAGE FETCH QUEUE STALL: 22.2594 AVERAGE DECODE STALL: 11.7925 AVERAGE EXECUTE STALL: 3.62198e+15
L2BTB BRANCH_DIRECT_CALL	ACCESS:     838488 HIT:     837955 MISS:        533 AVERAGE STALL: 80.5389 AVERAGE FETCH STALL: 28.3872 AVERAGE FETCH QUEUE STALL: 32.214 AVERAGE DECODE STALL: 19.1109 AVERAGE EXECUTE STALL: 3.58886e+16
L2BTB BRANCH_INDIRECT_CALL	ACCESS:     140919 HIT:     130849 MISS:      10070 AVERAGE STALL: 131.392 AVERAGE FETCH STALL: 12.8975 AVERAGE FETCH QUEUE STALL: 15.005 AVERAGE DECODE STALL: 10.479 AVERAGE EXECUTE STALL: 92.5227
L2BTB BRANCH_RETURN	ACCESS:     824053 HIT:     783640 MISS:      40413 AVERAGE STALL: 45.3996 AVERAGE FETCH STALL: 16.6551 AVERAGE FETCH QUEUE STALL: 3.54838 AVERAGE DECODE STALL: 5.79379 AVERAGE EXECUTE STALL: 4.41236e+14
L2BTB BRANCH_OTHER ACCESS:          0 HIT:          0 MISS:          0 AVERAGE STALL: -nan AVERAGE FETCH STALL: -nan AVERAGE FETCH QUEUE STALL: -nan AVERAGE DECODE STALL: -nan AVERAGE EXECUTE STALL: -nan
L2BTB TOTAL ROB OCCUPANCY AT BTB MISS: 141.775

L2C TOTAL     ACCESS:    4485065  HIT:    4034394  MISS:     450671  HIT %:    89.9517  MISS %:    10.0483   MPKI: 9.01342
L2C LOAD INSTRUCTION	ACCESS:    2763566  HIT:    2518832  MISS:     244734  HIT %:    91.1443  MISS %:    8.85573  MPKI: 4.89468
L2C LOAD TRANSLATION INSTRUCTION	ACCESS:        282  HIT:         70  MISS:        212  HIT %:    24.8227  MISS %:    75.1773  MPKI: 0.00424
L2C LOAD DATA	ACCESS:     727286  HIT:     660013  MISS:      67273  HIT %:    90.7501  MISS %:    9.24987  MPKI: 1.34546
L2C RFO DATA	ACCESS:     287456  HIT:     234020  MISS:      53436  HIT %:    81.4107  MISS %:    18.5893  MPKI: 1.06872
L2C PREFETCH DATA	ACCESS:     182003  HIT:     112536  MISS:      69467  HIT %:    61.8319  MISS %:    38.1681  MPKI: 1.38934
L2C WRITEBACK DATA	ACCESS:     522593  HIT:     508443  MISS:      14150  HIT %:    97.2923  MISS %:    2.70765  MPKI: 0.283
L2C LOAD TRANSLATION DATA	ACCESS:       1821  HIT:        443  MISS:       1378  HIT %:    24.3273  MISS %:    75.6727  MPKI: 0.02756
L2C TRANSLATION FROM L1D PREFETCHER DATA	ACCESS:         58  HIT:         37  MISS:         21  HIT %:    63.7931  MISS %:    36.2069  MPKI: 0.00042

L2C PREFETCH  REQUESTED:      85059  ISSUED:      85059  USEFUL:       7813  USELESS:      61753
L2C USEFUL LOAD PREFETCHES:       7813 PREFETCH ISSUED TO LOWER LEVEL:      69986  ACCURACY: 11.1637
 TIMELY PREFETCHES:       7813 LATE PREFETCHES: 519 DROPPED PREFETCHES: 0
L2C AVERAGE MISS LATENCY: 39.7592 cycles
L2C RQ	ACCESS:    3780528	FORWARD:          0	MERGED:          0	TO_CACHE:    3780470
L2C WQ	ACCESS:     522593	FORWARD:         58	MERGED:          0	TO_CACHE:     522593
L2C PQ	ACCESS:     189615	FORWARD:          0	MERGED:       3535	TO_CACHE:     186080

L2C Dense regions hint from L2: 0
PSCL5 TOTAL     ACCESS:       4112  HIT:       2056  MISS:       2056  HIT %:         50  MISS %:         50   MPKI: 0.04112
PSCL5 LOAD TRANSLATION INSTRUCTION	ACCESS:       3996  HIT:       1998  MISS:       1998  HIT %:         50  MISS %:         50  MPKI: 0.03996
PSCL5 TRANSLATION FROM L1D PREFETCHER INSTRUCTION	ACCESS:        116  HIT:         58  MISS:         58  HIT %:         50  MISS %:         50  MPKI: 0.00116


PSCL4 TOTAL     ACCESS:       3824  HIT:       1909  MISS:       1915  HIT %:    49.9215  MISS %:    50.0785   MPKI: 0.0383
PSCL4 LOAD TRANSLATION INSTRUCTION	ACCESS:       2304  HIT:       1865  MISS:        439  HIT %:    80.9462  MISS %:    19.0538  MPKI: 0.00878
PSCL4 TRANSLATION FROM L1D PREFETCHER INSTRUCTION	ACCESS:         49  HIT:         44  MISS:          5  HIT %:    89.7959  MISS %:    10.2041  MPKI: 0.0001
PSCL4 LOAD TRANSLATION DATA	ACCESS:       1432  HIT:          0  MISS:       1432  HIT %:          0  MISS %:        100  MPKI: 0.02864
PSCL4 TRANSLATION FROM L1D PREFETCHER DATA	ACCESS:         39  HIT:          0  MISS:         39  HIT %:          0  MISS %:        100  MPKI: 0.00078


PSCL3 TOTAL     ACCESS:       3892  HIT:       1943  MISS:       1949  HIT %:    49.9229  MISS %:    50.0771   MPKI: 0.03898
PSCL3 LOAD TRANSLATION INSTRUCTION	ACCESS:       2338  HIT:       1899  MISS:        439  HIT %:    81.2233  MISS %:    18.7767  MPKI: 0.00878
PSCL3 TRANSLATION FROM L1D PREFETCHER INSTRUCTION	ACCESS:         49  HIT:         44  MISS:          5  HIT %:    89.7959  MISS %:    10.2041  MPKI: 0.0001
PSCL3 LOAD TRANSLATION DATA	ACCESS:       1466  HIT:          0  MISS:       1466  HIT %:          0  MISS %:        100  MPKI: 0.02932
PSCL3 TRANSLATION FROM L1D PREFETCHER DATA	ACCESS:         39  HIT:          0  MISS:         39  HIT %:          0  MISS %:        100  MPKI: 0.00078


PSCL2 TOTAL     ACCESS:       4018  HIT:       1962  MISS:       2056  HIT %:    48.8303  MISS %:    51.1697   MPKI: 0.04112
PSCL2 LOAD TRANSLATION INSTRUCTION	ACCESS:       2154  HIT:       1904  MISS:        250  HIT %:    88.3937  MISS %:    11.6063  MPKI: 0.005
PSCL2 TRANSLATION FROM L1D PREFETCHER INSTRUCTION	ACCESS:         58  HIT:         58  MISS:          0  HIT %:        100  MISS %:          0  MPKI: 0
PSCL2 LOAD TRANSLATION DATA	ACCESS:       1748  HIT:          0  MISS:       1748  HIT %:          0  MISS %:        100  MPKI: 0.03496
PSCL2 TRANSLATION FROM L1D PREFETCHER DATA	ACCESS:         58  HIT:          0  MISS:         58  HIT %:          0  MISS %:        100  MPKI: 0.00116


LLC TOTAL     ACCESS:     511282  HIT:     481263  MISS:      30019  HIT %:    94.1287  MISS %:    5.87132   MPKI: 0.60038
LLC LOAD INSTRUCTION	ACCESS:     244734  HIT:     243942  MISS:        792  HIT %:    99.6764  MISS %:   0.323617  MPKI: 0.01584
LLC LOAD TRANSLATION INSTRUCTION	ACCESS:        212  HIT:        191  MISS:         21  HIT %:    90.0943  MISS %:    9.90566  MPKI: 0.00042
LLC LOAD DATA	ACCESS:      66830  HIT:      63292  MISS:       3538  HIT %:     94.706  MISS %:    5.29403  MPKI: 0.07076
LLC RFO DATA	ACCESS:      53359  HIT:      37921  MISS:      15438  HIT %:    71.0677  MISS %:    28.9323  MPKI: 0.30876
LLC PREFETCH DATA	ACCESS:      69986  HIT:      60136  MISS:       9850  HIT %:    85.9258  MISS %:    14.0742  MPKI: 0.197
LLC WRITEBACK DATA	ACCESS:      74762  HIT:      74449  MISS:        313  HIT %:    99.5813  MISS %:   0.418662  MPKI: 0.00626
LLC LOAD TRANSLATION DATA	ACCESS:       1378  HIT:       1311  MISS:         67  HIT %:    95.1379  MISS %:    4.86212  MPKI: 0.00134
LLC TRANSLATION FROM L1D PREFETCHER DATA	ACCESS:         21  HIT:         21  MISS:          0  HIT %:        100  MISS %:          0  MPKI: 0

LLC AVERAGE MISS LATENCY: 159.265 cycles
LLC RQ	ACCESS:     366536	FORWARD:          0	MERGED:          0	TO_CACHE:     366535
LLC WQ	ACCESS:      74762	FORWARD:          1	MERGED:          0	TO_CACHE:      74762
LLC PQ	ACCESS:      69986	FORWARD:          0	MERGED:          0	TO_CACHE:      69986

LLC Dense regions hint to LLC: 0

RAW hits: 1939993
Loads Generated: 12640543
Loads sent to L1D: 10700552
Stores Generated: 6950433
Stores sent to L1D: 6950443
Major fault: 0 Minor fault: 2546
Allocated PAGES: 2546

stream: 
stream:times selected: 1188481
stream:pref_filled: 123669
stream:pref_useful: 24893
stream:pref_late: 6897
stream:misses: 8075
stream:misses_by_poll: 0

CS: 
CS:times selected: 179914
CS:pref_filled: 59215
CS:pref_useful: 35741
CS:pref_late: 7887
CS:misses: 17735
CS:misses_by_poll: 6

CPLX: 
CPLX:times selected: 1007437
CPLX:pref_filled: 19641
CPLX:pref_useful: 4475
CPLX:pref_late: 3030
CPLX:misses: 93310
CPLX:misses_by_poll: 2

NL_L1: 
NL:times selected: 21186
NL:pref_filled: 645
NL:pref_useful: 253
NL:pref_late: 365
NL:misses: 1880
NL:misses_by_poll: 0

total selections: 2397018
total_filled: 95501
total_useful: 35359
total_late: 19613
total_polluted: 8
total_misses_after_warmup: 770920
conflicts: 5523096

test: 117952

DRAM Statistics
 CHANNEL 0
 RQ ROW_BUFFER_HIT:      11322  ROW_BUFFER_MISS:      18361
 DBUS_CONGESTED:         11
 WQ ROW_BUFFER_HIT:       1537  ROW_BUFFER_MISS:      12723  FULL:          0

 AVG_CONGESTED_CYCLE: 6

CPU 0 Branch Prediction Accuracy: 99.8245% MPKI: 0.32086 Average ROB Occupancy at Mispredict: 187.87
Branch types
NOT_BRANCH: 40858295 81.7166%
BRANCH_DIRECT_JUMP: 548588 1.09718%
BRANCH_INDIRECT: 182965 0.36593%
BRANCH_CONDITIONAL: 6181813 12.3636%
BRANCH_DIRECT_CALL: 942632 1.88526%
BRANCH_INDIRECT_CALL: 171337 0.342674%
BRANCH_RETURN: 1113976 2.22795%
BRANCH_OTHER: 0 0%

DRAM PAGES: 1048576
Allocated PAGES: 2546
Average_ROB_Occupancy: 238.233
Average_Decode_Occupancy: 34.4774
Average_FTQ_Occupancy: 13.1862
Indirect max targets: 14 Average targets: 1.14966
Branch_type:  BRANCH_DIRECT_JUMP:  Count Percentage: 2.90188 6.71545 4.01451 9.10763 1.69594 5.97479 1.21898 68.3708 
Branch_type:  BRANCH_INDIRECT:  Count Percentage: 11.769 3.45274 2.54579 0 1.33799 9.66651 5.88967 65.3383 
Branch_type:  BRANCH_CONDITIONAL:  Count Percentage: 21.0906 3.22782 1.77466 5.4371 1.17557 12.8984 1.2358 53.1601 
Branch_type:  BRANCH_DIRECT_CALL:  Count Percentage: 0.259583 1.77361 1.43084 4.70998 2.16542 2.99894 0.705795 85.9558 
Branch_type:  BRANCH_INDIRECT_CALL:  Count Percentage: 9.55558 0 2.99514 8.70266 0 2.6605 1.28405 74.8021 
Branch_type:  BRANCH_RETURN:  Count Percentage: 3.90657 1.38011 1.41195 6.33894 2.79834 12.8647 1.89923 69.4001 
Branch_type:  BRANCH_DIRECT_JUMP:  Total Count: 31814 73623 44012 99849 18593 65503 13364 749565 
Branch_type:  BRANCH_INDIRECT:  Total Count: 43030 12624 9308 0 4892 35343 21534 238892 
Branch_type:  BRANCH_CONDITIONAL:  Total Count: 2606333 398887 219309 671906 145275 1593953 152718 6569419 
Branch_type:  BRANCH_DIRECT_CALL:  Total Count: 4896 33452 26987 88835 40842 56563 13312 1621213 
Branch_type:  BRANCH_INDIRECT_CALL:  Total Count: 32781 0 10275 29855 0 9127 4405 256613 
Branch_type:  BRANCH_RETURN:  Total Count: 87115 30776 31486 141356 62402 286879 42352 1547596 
Number of unique branch instructions: 9917
Upper 32 bits: 
aaaa
ffff
ffff0000
Unique upper 32 bits: 3
Unique upper 36 bits: 3
Unique upper 40 bits: 5
Unique upper 44 bits: 32
Unique upper 48 bits: 154
Variant_0 : 1410 0.172119
Variant_1 : 3074 0.375244
Variant_2 : 0 0
Variant_3 : 0 0
Offset_3 4073
Offset_4 249
Offset_5 451
Offset_6 503
Offset_7 585
Offset_8 509
Offset_9 468
Offset_10 385
Offset_11 315
Offset_12 288
Offset_13 201
Offset_14 230
Offset_15 189
Offset_16 223
Offset_17 143
Offset_18 126
Offset_19 240
Offset_20 142
Offset_21 235
Offset_22 392
Offset_23 241
Offset_24 327
Offset_25 88
Offset_47 80
decode_dispatch_called: 25512197 70.7654
Dispatch_width: 0 13699867 53.6993 38.0005
Dispatch_width: 1 951974 3.73145 2.64057
Dispatch_width: 2 821869 3.22147 2.27969
Dispatch_width: 3 487753 1.91184 1.35292
Dispatch_width: 4 5609582 21.9878 15.5598
Dispatch_width: 5 144553 0.566603 0.400959
Dispatch_width: 6 3796599 14.8815 10.531
Empty_decode_cycles: 10539596 29.2346
ROB_full_cycles: 8853085 24.5566
Starvation_cycles_per_kilo_instr: 234.021
Starvation_cycles_per_kilo_instr_3: 176.48
Starvation_cycles_per_kilo_instr_0: 153.864
Branch_type_1  (3,1)  (4,9)  (5,37)  (6,69)  (7,114)  (8,127)  (9,123)  (10,98)  (11,70)  (12,51)  (13,5)  (14,2)  (15,3)  (16,4)  (18,1)  (19,4)  (20,2)  (21,1)  (22,3)  (23,2)  (24,10)  (25,12) 
Branch_type_2  (3,1)  (5,1)  (8,3)  (9,3)  (12,1)  (13,1)  (14,1)  (16,3)  (17,2)  (20,2)  (21,2)  (23,5)  (24,1)  (47,36) 
Branch_type_3  (3,4071)  (4,240)  (5,409)  (6,418)  (7,439)  (8,317)  (9,256)  (10,156)  (11,130)  (12,58)  (13,4) 
Branch_type_4  (6,4)  (7,8)  (8,26)  (9,54)  (10,62)  (11,59)  (12,99)  (13,87)  (14,102)  (15,89)  (16,100)  (17,64)  (18,57)  (19,116)  (20,74)  (21,124)  (22,209)  (23,136)  (24,188)  (25,72) 
Branch_type_5  (8,2)  (9,1)  (10,3)  (11,5)  (12,3)  (13,14)  (14,16)  (15,11)  (16,20)  (17,11)  (18,16)  (19,12)  (20,10)  (21,13)  (22,42)  (23,26)  (24,37) 
Branch_type_6  (5,4)  (6,12)  (7,24)  (8,34)  (9,31)  (10,66)  (11,51)  (12,76)  (13,90)  (14,109)  (15,86)  (16,96)  (17,66)  (18,52)  (19,108)  (20,54)  (21,95)  (22,138)  (23,72)  (24,91)  (25,4)  (47,44) 
Unique trigger count: 
Variant_0_evicts_0 : 0
Variant_0_evicts_1 : 0
Variant_0_evicts_2 : 0
Variant_0_evicts_3 : 0
Variant_1_evicts_0 : 0
Variant_1_evicts_1 : 0
Variant_1_evicts_2 : 0
Variant_1_evicts_3 : 0
Variant_2_evicts_0 : 0
Variant_2_evicts_1 : 0
Variant_2_evicts_2 : 0
Variant_2_evicts_3 : 0
Variant_3_evicts_0 : 0
Variant_3_evicts_1 : 0
Variant_3_evicts_2 : 0
Variant_3_evicts_3 : 0
BTB PER SET UNIQUE ADDR: 1 3 2 3 3 2 3 2 2 6 3 6 4 4 3 4 2 3 4 1 3 3 4 3 3 3 3 1 3 3 4 3 2 3 3 1 3 2 4 3 3 3 5 3 3 3 3 2 5 3 2 3 5 1 0 3 4 2 3 2 3 2 2 4 5 2 3 5 4 1 3 3 3 5 5 3 3 3 2 3 4 3 3 3 2 4 3 3 3 2 2 2 5 4 4 1 6 3 3 3 3 5 4 4 4 3 3 3 4 4 4 2 2 3 3 3 3 4 2 4 3 2 2 3 6 4 4 4 4 0 1 4 4 1 3 5 2 2 3 4 2 3 4 6 2 3 3 2 4 5 3 1 2 4 3 3 2 3 5 2 2 2 2 5 4 3 2 4 4 4 4 2 3 3 3 4 3 4 2 2 2 3 2 3 2 2 2 4 6 3 3 2 3 3 1 1 3 3 5 2 4 3 3 4 2 4 0 1 4 3 2 5 3 4 3 4 4 4 3 4 2 5 2 3 6 3 3 3 5 3 2 5 3 3 2 5 3 3 3 3 3 2 2 3 5 3 1 3 3 2 2 4 2 2 3 4 3 2 4 2 4 3 4 3 2 1 5 5 3 3 4 3 4 4 6 3 4 1 4 7 3 1 2 3 3 2 4 3 3 3 4 4 2 3 3 4 5 3 5 3 3 2 3 3 4 2 3 3 5 3 1 3 5 1 3 4 3 3 4 4 6 2 3 3 5 3 1 2 2 5 3 4 1 3 2 2 3 4 4 3 1 4 3 2 3 2 2 2 2 3 3 4 3 1 3 5 3 2 2 4 4 5 2 3 3 5 3 3 2 2 5 2 5 3 1 3 3 4 3 2 3 4 3 3 3 4 1 2 3 4 3 2 1 5 3 3 3 3 3 1 5 5 3 4 3 3 3 3 5 3 3 1 1 4 2 2 3 4 3 3 3 1 3 4 4 2 3 4 1 5 3 1 4 2 2 2 2 3 2 2 3 2 3 2 4 2 3 3 4 5 3 2 3 5 4 1 6 3 4 2 4 4 3 4 3 2 4 4 3 4 4 3 3 6 3 4 1 2 3 5 3 3 4 3 2 1 3 2 5 4 4 4 3 3 4 5 4 3 1 6 2 3 2 2 5 3 3 0 4 2 3 3 5 3 1 4 4 3 3 5 4 4 3 3 4 3 1 2 2 4 4 5 3 3 3 5 2 3 5 4 3 4 4 4 3 3 2 4 2 3 2 5 2 5 3 4 3 0 2 3 2 5 5 4 3 1 4 3 3 2 3 2 0 2 4 3 2 3 1 3 1 5 2 3 4 4 2 1 5 1 3 4 3 3 2 3 4 4 2 2 3 4 3 2 3 3 4 0 4 3 3 3 4 5 0 4 4 5 4 4 3 1 5 4 3 4 2 5 2 4 1 4 5 4 3 3 2 5 4 3 4 4 2 1 2 4 3 4 4 1 4 3 4 1 3 5 5 2 2 2 2 2 3 3 3 2 4 3 5 3 3 3 3 5 4 3 2 5 2 4 2 2 2 4 4 4 2 5 5 3 4 2 2 3 4 4 3 1 3 5 4 2 3 2 4 4 2 3 5 4 4 2 2 3 2 2 3 4 2 3 3 3 2 3 4 2 4 3 2 5 2 2 5 2 5 2 4 5 2 2 2 5 5 4 4 2 4 2 4 3 4 3 3 4 4 4 2 0 2 3 6 3 4 3 2 4 4 5 2 2 5 2 2 3 3 3 4 5 2 3 3 2 5 3 4 3 2 3 4 4 3 3 4 3 5 1 5 1 2 2 4 3 4 2 2 4 3 2 4 5 4 2 0 3 4 4 3 4 4 2 5 3 5 5 3 4 3 3 5 5 2 4 3 6 4 4 2 5 2 4 1 4 3 3 3 3 4 2 2 3 3 5 4 3 4 4 5 3 2 4 1 6 3 5 4 3 3 4 4 2 3 3 3 4 2 4 2 5 2 5 5 3 3 3 4 3 4 3 4 1 4 1 2 0 2 5 2 3 3 1 3 1 2 2 2 2 4 3 4 2 3 4 2 4 3 4 2 4 4 2 3 1 4 5 3 3 4 3 3 2 2 5 3 2 3 3 4 3 2 2 4 4 4 4 2 1 1 2 4 2 5 5 3 4 6 3 3 3 3 2 4 3 3 6 3 1 4 4 2 5 4 1 2 2 3 5 3 3 4 4 2 3 4 2 3 3 4 4 4 3 3 1 2 6 5 4 2 2 2 3 5 3 3 1 1 5 2 4 2 5 3 5 5 5 3 3 1 2 1 2 1 3 4 4 4 2 5 5 4 3 2 3 3 2 4 3 3 2 2 3 4 4 4 4 4 2 4 5 3 3 5 3 5 3 2 3 4 3 3 2 2 3 4 3 1 2 4 3 4 3 3 3 2 2 4 3 3 2 3 2 5 2 5 2 4 3 4 1 1 2 5 4 1 4 5 3 5 6 3 2 5 3 5 3 1 4 2 3 3 2 2 4 3 2 3 5 5 5 4 4 2 3 3 4 4 3 5 3 3 1 3 4 5 1 3 5 2 2 3 2 3 3 2 1 3 2 2 3 4 1 3 3 1 2 3 1 4 4 2 1 5 3 4 2 3 3 5 3 4 3 4 3 3 5 3 3 3 3 3 4 5 2 4 3 5 4 4 1 2 4 4 3 3 2 5 3 3 2 1 0 3 2 3 3 3 3 2 1 5 3 3 1 3 4 3 3 2 2 7 4 5 1 3 5 3 5 2 5 3 2 3 2 4 4 4 5 3 3 2 3 5 4 5 3 4 2 5 4 0 3 2 4 2 1 2 4 3 3 3 3 3 3 3 3 6 4 5 4 2 2 4 3 4 2 4 4 2 3 4 2 5 4 3 5 4 4 4 3 3 4 3 3 4 2 2 2 4 4 4 4 2 3 5 5 3 5 3 1 2 5 4 4 4 3 4 2 4 5 3 0 2 4 1 3 4 2 4 3 6 4 2 3 3 4 2 5 3 3 5 3 2 4 2 3 4 4 3 2 4 2 4 2 5 2 2 2 4 0 4 4 4 3 3 4 2 2 4 2 2 4 4 4 2 4 4 4 1 2 3 1 2 3 2 3 3 4 3 2 2 3 1 2 1 4 1 4 4 5 2 2 3 3 4 2 3 1 3 3 4 4 3 3 5 3 4 2 3 1 2 3 3 3 3 6 5 4 2 5 3 4 4 2 2 5 4 3 2 5 5 3 3 5 3 2 3 4 4 4 5 5 3 3 2 3 3 3 3 3 4 2 4 4 2 2 4 4 2 3 4 3 2 2 4 2 3 3 3 4 5 5 3 5 5 3 6 4 3 4 3 4 3 3 2 3 4 3 4 2 3 2 3 2 6 3 4 2 3 3 4 2 3 4 4 2 2 5 3 2 1 5 3 2 2 3 3 1 4 3 4 1 2 2 5 3 4 4 3 2 1 4 6 3 5 4 4 3 3 4 2 0 2 5 3 3 3 3 3 2 5 2 1 3 3 3 1 3 2 5 3 5 4 1 4 3 2 3 4 2 4 4 3 3 4 3 2 3 4 2 3 4 5 3 2 2 4 2 3 3 3 3 5 3 2 3 5 3 2 4 2 4 3 3 4 3 2 3 3 3 3 5 4 3 2 2 1 3 4 2 2 2 2 2 3 3 3 4 4 4 3 3 3 2 2 2 5 2 2 2 4 3 4 5 4 1 4 2 5 2 5 2 2 4 3 3 2 3 3 5 2 1 4 4 2 4 3 3 2 3 5 4 3 3 3 1 1 3 6 4 3 2 2 3 1 2 2 2 2 3 2 3 3 4 3 3 2 3 3 2 4 3 4 1 5 2 4 2 4 3 3 5 1 1 3 4 4 5 5 3 3 2 2 4 4 3 4 4 3 4 4 4 6 3 4 5 1 2 2 3 3 4 4 4 4 3 2 2 1 1 2 3 3 3 3 5 3 3 6 4 2 3 4 4 5 5 0 5 3 4 5 4 2 4 2 3 4 4 5 2 2 3 3 5 2 4 3 5 3 4 2 3 4 3 2 3 2 1 5 3 2 2 4 2 4 3 5 3 3 5 1 3 2 2 3 3 4 5 1 4 5 3 3 5 6 1 3 3 4 4 2 3 5 2 3 2 3 2 1 3 3 2 3 3 5 3 3 2 4 5 3 5 1 3 6 2 3 2 1 5 3 1 2 3 3 5 3 3 2 3 3 3 1 4 3 4 4 7 4 3 3 1 5 3 2 3 3 4 2 6 3 3 3 3 0 4 1 4 2 1 3 6 2 3 3 4 2 3 4 4 1 2 3 3 4 3 1 4 3 3 4 2 1 1 3 4 2 3 3 3 3 3 4 4 2 3 3 3 4 0 4 2 3 4 3 3 2 3 3 2 3 4 3 2 4 2 5 6 4 2 2 2 1 2 2 3 3 1 5 3 3 5 2 4 4 3 4 3 4 4 1 3 3 3 2 1 5 3 5 2 2 5 4 4 4 4 4 2 0 1 2 3 0 2 2 5 3 4 3 4 3 3 3 4 3 5 4 3 4 2 4 0 2 3 4 2 5 2 4 3 4 3 3 2 2 2 2 3 3 4 
BTB PER SET COUNT: 1 1472 1469 3 3 2 3 2 2 2560 3 6 4 4 3 4 2 3 4 1 3 3 4 3 492 3 3 1 3 492 4 3 2 3 3 1 3 2 4 4 3 981 5 4 3 648 492 2 5 3 2 3 5 1 0 3 980 982 3 2 981 2 5 4 5 2 7 5 5 1 1202 3 4 6 5 284 5 4 2 3 4 4 3 3 2 4 3 4 493 981 2 2 981 5 4 1 6 3 3 3 3 6 4 5 371 3 5 4 5 4 4 2 2 3 6 3 3 4 2 495 4 2 670 3 7 4 4 4 681 0 1 5 4 1 3 5 2 2 3 4 2 3 4 6 2 3 3 2 5 11 3 1 2 4 4 4 2 982 5 2 2 2 2 5 4 5 2 4 4 4 4 2 3 3 3 4 3 6 2 2 2 3 3 3 2 2 2 4 6 3 4 2 3 5 1 1 3 981 1567 2 4 1471 5 5 2 4 0 1 34 3 2 9 3 371 3 4 34 552 3 6 2 5 2 493 6 3 4 6 5 3 456 5 3 3 2 5 3 3 3 3 3 2 2 3 5 3 1 3 3 2 2 4 2 4 4 4 1470 2 5 2 4 3 4 3 2 1 5 5 3 3 4 3 4 4 6 3 982 1 5 11 3 1 2 7 3 2 5 3 3 3 4 4 2 5 13 8 5 3 5 3 3 2 1473 3 4 2 3 3 5 11 1 3 5 1 3 5 3 4 4 4 6 2 3 3 5 3 1 2 2 5 4 6 1 3 2 2 3 4 4 3 1 4 3 3 3 2 2 2 2 4 3 4 3 1 3 5 3 2 2 22 5 6 2 9 3 3916 151 3 2 2 5 2 5 3 1 3 3 4 3 2 3 400 3 3 3 4 1 2 3 4 3 2 1 5 3 3 3 4 3 1 5 355 3 5 3 3 3 15 7 3 4 1 1 4 2 2 3 4 3 7 3 1 3 493 4 439 3 4 1 5 3 1 4 2 2 2 2 5 2 2 3 2 3 2 572 3 2447 4 5 5 3 361 3 5 371 1 8 3 4 2 4 4 980 4 6 2 5 4 3 4 4 5 3 10 3 5 1 2 3 5 3 3 4 3 94 1 3 2 5 4 982 5 688 3 5 7 4 5 1 6 2 3 2 2 1351 3 3 0 4 4 3 3 5 1960 1 4 4 492 3 5 5 4 3 3 4 3 1 2 2 4 4 5 3 6 3 5 2 3 9 4 4 4 4 4 3 1470 2 4 2 3 2 5 981 7 3 4 3 0 3 3 981 8490 6 4 3 1 1958 3 3 2 3 2 0 2 4 3 2 3 1 3 3 5 2 3 6 4 4 1 5 1 3 4 3 982 3 3 4 4 2 2 3 4 4 2 5 4 981 0 4 3 3 3 986 5 0 4 1471 5 4 4 3 1 5 7 3 4 2 5 2 4 1 4 5 5 3 4 2 5 4 3 4 4 2 1 2 4 3 4 6 1 5 9 4 1 3 5 5 3 2 2 2 1469 4 3 4 2 4 3 5 3 3 3 3 3250 4 4 2 6 2 4 2 195 2 4 4 4 2 5 7 3 4 2 3 4 4 4 3 1 3 5 5 2 3 2 5 4 2 3 5 4 4 3 2 3 2 490 980 5 2 4 3 3 2 3 4 2 4 3 2 5 2 2 5 2 5 3 4 5 2 2 2 5 5 6 4 2 4 2 4 4 1472 5 3 4 4 4 2 0 2 3 6 3 4 3 2 4 4 5 2 2 7 2 2 3 3 3 4 5 2 3 3 2 5 3 4 3 2 3 266 4 6 3 4 3 6 1 5 1 2 2 4 3 4 2 2 4 3 2 4 10 5 2 0 3 6 4 3 4 4 2 5 3 5 6 3 4 3 3 6 502 2 6 3 986 4 4 2 5 2 6 1 982 3 3 3 3 982 2 2 3 4 6 4 5 1962 5 5 3 2 4 1 7 3 5 493 3 3 4 4 2 3 3 3 4 2 4 2 5 2 5 5 3 3 3 4 3 4 3 4 1 1471 1 3 0 4 5 369 5 3 1 3 1 2 979 2 2 4 3 5 2 3 4 2 4 4 4 2 4 4 2 3 979 6 5 4 4 1473 3 3 3 3 6 3 2 3 3 5 981 2 6 4 4 4 7 2 1 1 2 5 2 5 5 3 4 983 3 3 3 4 2 4 5 3 7 3 1 494 4 2 5 6 1 2 3 5 7 3 3 4 5 2 3 4 3 3 4 4 45 4 3 4 1 2 6 5 5 2 2 2 36 5 6 3 1 1 6 2 1972 2 493 3 5 6 7 3 3 1 2 2 2 1 3 5 4 4 2 5 496 4 3 3 3 3 2 4 3 3 2 2 3 4 4 4 4 4 2 981 5 3 3 5 3 5 3 2 3 5 3 1470 2 2 3 5 3 1 2 4 3 5 3 3 3 2 2 4 3 9 2 3 5 5 2 5 980 4 3 5 1 1 2 5 6 1 6 5 4 34 6 76 2 6 5 5 3 1 4 3 3 3 2 2 4 3 2 3 6 5 123 7 4 2 3 3 7 4 3 5 3 3 1 3 4 5 1 3 6 3 2 5 2 3 20554 2 1 3 2 2 982 4 1 3 3 1 2 3 1 4 4 2 1 5 3 4 2 4 3 5 3 4 3 1468 4 3 5 3 3 3 3 3 4 1472 4 4 3 5 4 5 1 2 4 4 3 8 2 6 3 3 2 1 0 3 2 4 5 3 3 2 1 5 370 1470 1 3 5 3 3 2 2 7 4 5 1 4 5 3 5 3 6 4 2 3 2 4 4 5 5 3 4 2 3 5 12 5 5 5 2 1472 4 0 3 2 495 2 1 2 4 3 3 3 3 3 44 3 3 986 4 5 5 2 2 4 4 4 2 4 4 3 3 4 2 5 4 3 985 4 4 4 3 3 4 3 3 4 4 2 2 4 4 4 6 2 3 7 7 7 6 3 1 2 5 4 4 4 3 4 2 4 5 3 0 3 6 1 3 4 2 5 1471 6 1471 2 3 3 4 2 6 3 3 5 4 2 4 2 3 5 4 4 2 5 2 2939 2 5 2 2 3 4 0 5 4 4 4 3 4 2 2 5 2 2 4 4 4 2 13 4 4 1 2 3 1 2 3 2 3 3 6 4 2 2 3 2 2 1 4 1 4 5 6 2 2 5 3 4 2 5 1 3 3 4 33 4 3 6 1470 4 2 3 1 2 3 3 5 3 6 5 4 5 5 3 6 4 2 2 2941 4 3 2 6 5 4 3 7 4 2 3 4 4 492 5 5 3 153 2 3 3 3 3 3 4 2 5 4 2 2 5 4 2 4 4 3 3 2 4 2 3 3 3 4 11 6 3 8 983 3 6 4 983 4 3 4 3 3 2 3 4 3 5 2 3 2 249 980 9 3 4 2 3 4 4 2 5 4 4 2 2 982 3 2 1 5 3 2 2 3 3 1 4 3 983 1 2 3 5 3 4 43 3 2 1 4 6 4 6 4 4 3 4 4 2 0 2 5 3 5 3 3 3 2 5 3 1 3 5 3 1 3 2 5 3 5 4 1 4 3 2 4 5 2 4 1471 3 3 69 3 2 3 5 3 3 4 5 3 2 2 4 2 3 3 3 3 5 3 2 151 12 3 2 4 2 4 3 3 4 3 2 3 3 3 3 5 4 3 4 2 1 3 4 2 4 2 2 2 150 3 3 4 4 5 3 3 3 2 2 5 5 2 3 2 4 3 4 5 4 1 8 2 5 2 5 2 2 4 3 6 2 3 3 7 2 1 4 4 2 4 3 3 2 11 5 4 3 3 3 1 1 3 6 4 3 2 2 3 1 2 2 2 2 3 2 3 3 4 3 3 2 3 187 2 4 3 5 1 5 2 4 2 4 3 3 59 1 1 4 4 4 5 496 3 3 2 2 4 4 3 4 4 3 6 4 5 7 4 4 5 1 2 2 5 5 4 4 5 4 3 369 2 1 1 2 3 3 4 3 495 3 3 6 4 2 3 5 4 5 6 0 5 3 4 5 492 2 4 2 3 4 4 631 2 2 3 3 5 2 4 4 5 3 4 2 3 4 3 3 3 2 1 5 3 2 2 4 2 22 6 6 3 3 92 1 982 2 2 3 981 4 5 1 4 5 3 3 9 6 1 4 3 4 4 2 5 5 2 3 2 4 2 1 3 4 2 3 489 5 3 6 2 5 6 122 5 1 3 7 2 3 2 1 5 3 1 2 3 3 5 3 3 2 981 3 3 1 4 3 5 4 10 4 3 3 1 5 3 2 983 8 4 2 495 1470 3 14682 3 0 5 1 12 2 1 3 6 3 3 1471 7 2 3 8 4 1 2 3 3 4 3 1 4 3 3 4 2 2 1 3 501 3 3 3 580 3 4 4 4 2 25 3 3 5 0 4 2 4 4 3 30 2 3 3 2 3 4 4 2 4 2 5 6 4 981 2 981 1 22 2 3 2937 1 5 3 491 5 2 1471 4 7 5 3 4 4 1 3 122 3 2 1 5 3 5 2 2 6 4 4 4 4 4 2 0 1 2 3 0 2 2 1472 3 4 3 4 3 1470 3 10 3 1472 4 3 1471 2 1350 0 3 3 1227 2 5 2 100 3 4 3 3 2 2 2 2 3 3 4 
To predecode: 0
Predecoding something: 0
Predecode request dropped: 0
sizeofblock_0 0
sizeofblock_1 66626
sizeofblock_2 64430
sizeofblock_3 0
sizeofblock_4 0
sizeofblock_5 0
sizeofblock_6 0
sizeofblock_7 0
sizeofblock_8 0
Variant_0 Correct: 1616509 Incorrect: 0 Accuracy: 1
Variant_1 Correct: 5744281 Incorrect: 0 Accuracy: 1
Variant_2 Correct: 0 Incorrect: 0 Accuracy: -nan
Variant_3 Correct: 0 Incorrect: 0 Accuracy: -nan
