
*** ChampSim Multicore Out-of-Order Simulator ***

Warmup Instructions: 50000000
Simulation Instructions: 50000000
Number of CPUs: 1
LLC sets: 2048
LLC ways: 16
Off-chip DRAM Size: 4096 MB Channels: 1 Width: 64-bit Data Rate: 6400 MT/s
CPU 0 runs ./micro_traces/srv522.trace.gz
.gz
ITLB has LRU replacement policy
DTLB has LRU replacement policy
STLB has LRU replacement policy
FDIP Prefetcher at L1I
L1I has LRU replacement policy
L1D has LRU replacement policy
Initialize SRRIP state for L2C
Initialize DRRIP state for LLC
Heartbeat CPU 0 instructions: 10000000 cycles: 2798152 heartbeat IPC: 3.57379 cumulative IPC: 3.57379 (Simulation time: 0 hr 1 min 56 sec) 
Heartbeat CPU 0 instructions: 20000000 cycles: 5595064 heartbeat IPC: 3.57537 cumulative IPC: 3.57458 (Simulation time: 0 hr 3 min 51 sec) 
Heartbeat CPU 0 instructions: 30000000 cycles: 8391796 heartbeat IPC: 3.5756 cumulative IPC: 3.57492 (Simulation time: 0 hr 5 min 55 sec) 
Heartbeat CPU 0 instructions: 40000002 cycles: 11188497 heartbeat IPC: 3.57564 cumulative IPC: 3.5751 (Simulation time: 0 hr 7 min 54 sec) 
Heartbeat CPU 0 instructions: 50000000 cycles: 13985014 heartbeat IPC: 3.57588 cumulative IPC: 3.57526 (Simulation time: 0 hr 9 min 48 sec) 

Warmup complete CPU 0 instructions: 50000004 cycles: 13985015 (Simulation time: 0 hr 9 min 48 sec) 

Cycle: 20000000 FTQ IN: 58315350 FTQ occupancy: 17.865 DECODE IN: 58315342 DECODE occupancy: 48.0463 ROB IN: 58315338 ROB occupancy: 309.475 ROB OUT: 58315267
Heartbeat CPU 0 instructions: 60000000 cycles: 21222613 heartbeat IPC: 1.38167 cumulative IPC: 1.38167 (Simulation time: 0 hr 11 min 36 sec) 
Heartbeat CPU 0 instructions: 70000003 cycles: 28561629 heartbeat IPC: 1.36258 cumulative IPC: 1.37206 (Simulation time: 0 hr 13 min 18 sec) 
Cycle: 30000000 FTQ IN: 13658521 FTQ occupancy: 5.74094 DECODE IN: 13658529 DECODE occupancy: 19.5416 ROB IN: 13658475 ROB occupancy: 217.908 ROB OUT: 13658194
Heartbeat CPU 0 instructions: 80000001 cycles: 35821025 heartbeat IPC: 1.37752 cumulative IPC: 1.37388 (Simulation time: 0 hr 15 min 10 sec) 
Cycle: 40000000 FTQ IN: 13780373 FTQ occupancy: 5.61907 DECODE IN: 13780373 DECODE occupancy: 19.2626 ROB IN: 13780425 ROB occupancy: 217.728 ROB OUT: 13780434
Heartbeat CPU 0 instructions: 90000003 cycles: 43072370 heartbeat IPC: 1.37905 cumulative IPC: 1.37517 (Simulation time: 0 hr 17 min 1 sec) 
Cycle: 50000000 FTQ IN: 13715888 FTQ occupancy: 5.71553 DECODE IN: 13715886 DECODE occupancy: 19.3691 ROB IN: 13715885 ROB occupancy: 216.816 ROB OUT: 13715999
Heartbeat CPU 0 instructions: 100000001 cycles: 50386039 heartbeat IPC: 1.3673 cumulative IPC: 1.37359 (Simulation time: 0 hr 19 min 20 sec) 
Finished CPU 0 instructions: 50000000 cycles: 36401040 cumulative IPC: 1.37359 (Simulation time: 0 hr 19 min 20 sec) 

ChampSim completed all CPUs

Region of Interest Statistics

CPU 0 cumulative IPC: 1.37359 instructions: 50000000 cycles: 36401040
 Fetch stage stalled: 63.9429  Sim cycles: 36401040 fetch stall cycle: 23275879
 Empty decode stage: 48.1783  Sim cycles: 36401040 fetch stall cycle: 17537413
ITLB TOTAL     ACCESS:    5579741  HIT:    5084563  MISS:     495178  HIT %:    91.1254  MISS %:    8.87457   MPKI: 9.90356
ITLB LOAD TRANSLATION INSTRUCTION	ACCESS:    5463943  HIT:    4968765  MISS:     495178  HIT %:    90.9374  MISS %:    9.06265  MPKI: 9.90356
ITLB TRANSLATION FROM L1D PREFETCHER INSTRUCTION	ACCESS:     115798  HIT:     115798  MISS:          0  HIT %:        100  MISS %:          0  MPKI: 0

ITLB AVERAGE MISS LATENCY: 9.05135 cycles
ITLB RQ	ACCESS:    7431964	FORWARD:          0	MERGED:    1362979	TO_CACHE:    6068985

DTLB TOTAL     ACCESS:    8997467  HIT:    8520993  MISS:     476474  HIT %:    94.7044  MISS %:    5.29565   MPKI: 9.52948
DTLB LOAD TRANSLATION DATA	ACCESS:    8997467  HIT:    8520993  MISS:     476474  HIT %:    94.7044  MISS %:    5.29565  MPKI: 9.52948

DTLB AVERAGE MISS LATENCY: 9.31544 cycles
DTLB RQ	ACCESS:   13363878	FORWARD:          0	MERGED:    4330239	TO_CACHE:    9033639

STLB TOTAL     ACCESS:    1216898  HIT:    1214645  MISS:       2253  HIT %:    99.8149  MISS %:   0.185143   MPKI: 0.04506
STLB LOAD TRANSLATION INSTRUCTION	ACCESS:     495178  HIT:     494789  MISS:        389  HIT %:    99.9214  MISS %:  0.0785576  MPKI: 0.00778
STLB LOAD TRANSLATION DATA	ACCESS:     476367  HIT:     474531  MISS:       1836  HIT %:    99.6146  MISS %:   0.385417  MPKI: 0.03672
STLB TRANSLATION FROM L1D PREFETCHER DATA	ACCESS:     245353  HIT:     245325  MISS:         28  HIT %:    99.9886  MISS %:  0.0114121  MPKI: 0.00056

STLB AVERAGE MISS LATENCY: 65.8531 cycles
STLB RQ	ACCESS:    1335595	FORWARD:          0	MERGED:     118655	TO_CACHE:    1216940

STLB Hit, L1D data hit: 0
STLB Hit, L2C data hit: 0
STLB Hit, LLC data hit: 0
STLB Hit, LLC data miss: 0
STLB STLB hints to L2: 0
L1D TOTAL     ACCESS:   13112374  HIT:   12000836  MISS:    1111538  HIT %:     91.523  MISS %:    8.47702   MPKI: 22.2308
L1D LOAD DATA	ACCESS:    6571843  HIT:    5838649  MISS:     733194  HIT %:    88.8434  MISS %:    11.1566  MPKI: 14.6639
L1D RFO DATA	ACCESS:    6215420  HIT:    5930509  MISS:     284911  HIT %:    95.4161  MISS %:    4.58394  MPKI: 5.69822
L1D PREFETCH DATA	ACCESS:     325111  HIT:     231678  MISS:      93433  HIT %:    71.2612  MISS %:    28.7388  MPKI: 1.86866

L1D PREFETCH  REQUESTED:     728347  ISSUED:     728347  USEFUL:      32439  USELESS:      68564
L1D USEFUL LOAD PREFETCHES:      32439 PREFETCH ISSUED TO LOWER LEVEL:     101063  ACCURACY: 32.0978
 TIMELY PREFETCHES:      32439 LATE PREFETCHES: 7579 DROPPED PREFETCHES: 13
L1D AVERAGE MISS LATENCY: 224505 cycles
L1D RQ	ACCESS:   10707242	FORWARD:          0	MERGED:    3935907	TO_CACHE:    6606951
L1D WQ	ACCESS:    6949977	FORWARD:     164845	MERGED:     193050	TO_CACHE:    6756927
L1D PQ	ACCESS:     364404	FORWARD:          0	MERGED:          0	TO_CACHE:     363943

L1D UNIQUE REGIONS ACCESSED: 0
L1D REGIONS CONFLICTS: 0
L1D Cross Page Prefetch Requests: 5893
L1D Same Page Prefetch Requests: 743031
L1D ROI Sum of L1D PQ occupancy: 4619055
L1D PREFETCHES PUSHED FROM L2C: 0
L1I TOTAL     ACCESS:    6846857  HIT:    4077172  MISS:    2769685  HIT %:    59.5481  MISS %:    40.4519   MPKI: 55.3937
L1I LOAD INSTRUCTION	ACCESS:    6340903  HIT:    3571218  MISS:    2769685  HIT %:    56.3203  MISS %:    43.6797  MPKI: 55.3937
L1I PREFETCH INSTRUCTION	ACCESS:     505954  HIT:     505954  MISS:          0  HIT %:        100  MISS %:          0  MPKI: 0

L1I PREFETCH  REQUESTED:    1125089  ISSUED:    1125089  USEFUL:          0  USELESS:          0
L1I USEFUL LOAD PREFETCHES:          0 PREFETCH ISSUED TO LOWER LEVEL:          0  ACCURACY: -nan
 TIMELY PREFETCHES:          0 LATE PREFETCHES: 0 DROPPED PREFETCHES: 0
L1I AVERAGE MISS LATENCY: 18.0821 cycles
L1I RQ	ACCESS:    9439007	FORWARD:          0	MERGED:    2814370	TO_CACHE:    6624637
L1I PQ	ACCESS:    1125089	FORWARD:          0	MERGED:     317762	TO_CACHE:     807327

L1BTB TOTAL     ACCESS:    5670937  HIT:    2036410  MISS:    3634527  HIT %:    35.9096  MISS %:    64.0904   MPKI: 72.6905
L1BTB BRANCH_DIRECT_JUMP	ACCESS:     548631  HIT:     144289  MISS:     404342	AVERAGE STALL: 24.5673
L1BTB BRANCH_INDIRECT	ACCESS:     182808  HIT:      65964  MISS:     116844	AVERAGE STALL: 92.8691
L1BTB BRANCH_CONDITIONAL	ACCESS:    2704574  HIT:    1409731  MISS:    1294843	AVERAGE STALL: 22.9042
L1BTB BRANCH_DIRECT_CALL	ACCESS:     945720  HIT:     104962  MISS:     840758	AVERAGE STALL: 25.747
L1BTB BRANCH_INDIRECT_CALL	ACCESS:     171742  HIT:      21266  MISS:     150476	AVERAGE STALL: 126.273
L1BTB BRANCH_RETURN	ACCESS:    1117462  HIT:     290198  MISS:     827264	AVERAGE STALL: 26.0743
L1BTB BRANCH_OTHER ACCESS:          0  HIT:          0  MISS:          0	AVERAGE STALL: -nan
L1BTB TOTAL ROB OCCUPANCY AT BTB MISS: 22.8086

L2BTB TOTAL     ACCESS:    3609116  HIT:    3180470  MISS:     428646  HIT %:    88.1232  MISS %:    11.8768   MPKI: 8.57292
L2BTB BRANCH_DIRECT_JUMP	ACCESS:     400165  HIT:     352321  MISS:      47844	AVERAGE STALL: 24.5673
L2BTB BRANCH_INDIRECT	ACCESS:     106581  HIT:     101394  MISS:       5187	AVERAGE STALL: 92.8691
L2BTB BRANCH_CONDITIONAL	ACCESS:    1294841  HIT:    1153888  MISS:     140953	AVERAGE STALL: 22.9042
L2BTB BRANCH_DIRECT_CALL	ACCESS:     840757  HIT:     727603  MISS:     113154	AVERAGE STALL: 25.747
L2BTB BRANCH_INDIRECT_CALL	ACCESS:     140952  HIT:     119952  MISS:      21000	AVERAGE STALL: 126.273
L2BTB BRANCH_RETURN	ACCESS:     825820  HIT:     725312  MISS:     100508	AVERAGE STALL: 26.0743
L2BTB BRANCH_OTHER ACCESS:          0  HIT:          0  MISS:          0	AVERAGE STALL: -nan
L2BTB TOTAL ROB OCCUPANCY AT BTB MISS: 193.396

L2C TOTAL     ACCESS:    4503917  HIT:    3908799  MISS:     595118  HIT %:    86.7867  MISS %:    13.2133   MPKI: 11.9024
L2C LOAD INSTRUCTION	ACCESS:    2769685  HIT:    2434109  MISS:     335576  HIT %:     87.884  MISS %:     12.116  MPKI: 6.71152
L2C LOAD TRANSLATION INSTRUCTION	ACCESS:        427  HIT:        136  MISS:        291  HIT %:    31.8501  MISS %:    68.1499  MPKI: 0.00582
L2C LOAD DATA	ACCESS:     725603  HIT:     633174  MISS:      92429  HIT %:    87.2618  MISS %:    12.7382  MPKI: 1.84858
L2C RFO DATA	ACCESS:     284836  HIT:     222882  MISS:      61954  HIT %:    78.2492  MISS %:    21.7508  MPKI: 1.23908
L2C PREFETCH DATA	ACCESS:     199417  HIT:     114463  MISS:      84954  HIT %:    57.3988  MISS %:    42.6012  MPKI: 1.69908
L2C WRITEBACK DATA	ACCESS:     521979  HIT:     503360  MISS:      18619  HIT %:     96.433  MISS %:      3.567  MPKI: 0.37238
L2C LOAD TRANSLATION DATA	ACCESS:       1920  HIT:        633  MISS:       1287  HIT %:    32.9688  MISS %:    67.0312  MPKI: 0.02574
L2C TRANSLATION FROM L1D PREFETCHER DATA	ACCESS:         50  HIT:         42  MISS:          8  HIT %:         84  MISS %:         16  MPKI: 0.00016

L2C PREFETCH  REQUESTED:     107317  ISSUED:     107317  USEFUL:      10985  USELESS:      74341
L2C USEFUL LOAD PREFETCHES:      10985 PREFETCH ISSUED TO LOWER LEVEL:      85444  ACCURACY: 12.8564
 TIMELY PREFETCHES:      10985 LATE PREFETCHES: 490 DROPPED PREFETCHES: 0
L2C AVERAGE MISS LATENCY: 36.4218 cycles
L2C RQ	ACCESS:    3782559	FORWARD:          0	MERGED:          0	TO_CACHE:    3782523
L2C WQ	ACCESS:     521979	FORWARD:         36	MERGED:          0	TO_CACHE:     521979
L2C PQ	ACCESS:     208380	FORWARD:          0	MERGED:       4340	TO_CACHE:     204040

L2C Dense regions hint from L2: 0
PSCL5 TOTAL     ACCESS:       4534  HIT:       2267  MISS:       2267  HIT %:         50  MISS %:         50   MPKI: 0.04534
PSCL5 LOAD TRANSLATION INSTRUCTION	ACCESS:       4434  HIT:       2217  MISS:       2217  HIT %:         50  MISS %:         50  MPKI: 0.04434
PSCL5 TRANSLATION FROM L1D PREFETCHER INSTRUCTION	ACCESS:        100  HIT:         50  MISS:         50  HIT %:         50  MISS %:         50  MPKI: 0.001


PSCL4 TOTAL     ACCESS:       3997  HIT:       1993  MISS:       2004  HIT %:    49.8624  MISS %:    50.1376   MPKI: 0.04008
PSCL4 LOAD TRANSLATION INSTRUCTION	ACCESS:       2242  HIT:       1944  MISS:        298  HIT %:    86.7083  MISS %:    13.2917  MPKI: 0.00596
PSCL4 TRANSLATION FROM L1D PREFETCHER INSTRUCTION	ACCESS:         55  HIT:         49  MISS:          6  HIT %:    89.0909  MISS %:    10.9091  MPKI: 0.00012
PSCL4 LOAD TRANSLATION DATA	ACCESS:       1657  HIT:          0  MISS:       1657  HIT %:          0  MISS %:        100  MPKI: 0.03314
PSCL4 TRANSLATION FROM L1D PREFETCHER DATA	ACCESS:         43  HIT:          0  MISS:         43  HIT %:          0  MISS %:        100  MPKI: 0.00086


PSCL3 TOTAL     ACCESS:       4089  HIT:       2039  MISS:       2050  HIT %:    49.8655  MISS %:    50.1345   MPKI: 0.041
PSCL3 LOAD TRANSLATION INSTRUCTION	ACCESS:       2288  HIT:       1990  MISS:        298  HIT %:    86.9755  MISS %:    13.0245  MPKI: 0.00596
PSCL3 TRANSLATION FROM L1D PREFETCHER INSTRUCTION	ACCESS:         55  HIT:         49  MISS:          6  HIT %:    89.0909  MISS %:    10.9091  MPKI: 0.00012
PSCL3 LOAD TRANSLATION DATA	ACCESS:       1703  HIT:          0  MISS:       1703  HIT %:          0  MISS %:        100  MPKI: 0.03406
PSCL3 TRANSLATION FROM L1D PREFETCHER DATA	ACCESS:         43  HIT:          0  MISS:         43  HIT %:          0  MISS %:        100  MPKI: 0.00086


PSCL2 TOTAL     ACCESS:       4424  HIT:       2157  MISS:       2267  HIT %:    48.7568  MISS %:    51.2432   MPKI: 0.04534
PSCL2 LOAD TRANSLATION INSTRUCTION	ACCESS:       2495  HIT:       2107  MISS:        388  HIT %:    84.4489  MISS %:    15.5511  MPKI: 0.00776
PSCL2 TRANSLATION FROM L1D PREFETCHER INSTRUCTION	ACCESS:         50  HIT:         50  MISS:          0  HIT %:        100  MISS %:          0  MPKI: 0
PSCL2 LOAD TRANSLATION DATA	ACCESS:       1829  HIT:          0  MISS:       1829  HIT %:          0  MISS %:        100  MPKI: 0.03658
PSCL2 TRANSLATION FROM L1D PREFETCHER DATA	ACCESS:         50  HIT:          0  MISS:         50  HIT %:          0  MISS %:        100  MPKI: 0.001


LLC TOTAL     ACCESS:     667032  HIT:     639214  MISS:      27818  HIT %:    95.8296  MISS %:    4.17041   MPKI: 0.55636
LLC LOAD INSTRUCTION	ACCESS:     335576  HIT:     334726  MISS:        850  HIT %:    99.7467  MISS %:   0.253296  MPKI: 0.017
LLC LOAD TRANSLATION INSTRUCTION	ACCESS:        291  HIT:        269  MISS:         22  HIT %:    92.4399  MISS %:    7.56014  MPKI: 0.00044
LLC LOAD DATA	ACCESS:      92021  HIT:      88606  MISS:       3415  HIT %:    96.2889  MISS %:    3.71111  MPKI: 0.0683
LLC RFO DATA	ACCESS:      61854  HIT:      48521  MISS:      13333  HIT %:    78.4444  MISS %:    21.5556  MPKI: 0.26666
LLC PREFETCH DATA	ACCESS:      85443  HIT:      75666  MISS:       9777  HIT %:    88.5573  MISS %:    11.4427  MPKI: 0.19554
LLC WRITEBACK DATA	ACCESS:      90552  HIT:      90205  MISS:        347  HIT %:    99.6168  MISS %:   0.383205  MPKI: 0.00694
LLC LOAD TRANSLATION DATA	ACCESS:       1287  HIT:       1213  MISS:         74  HIT %:    94.2502  MISS %:    5.74981  MPKI: 0.00148
LLC TRANSLATION FROM L1D PREFETCHER DATA	ACCESS:          8  HIT:          8  MISS:          0  HIT %:        100  MISS %:          0  MPKI: 0

LLC AVERAGE MISS LATENCY: 156.054 cycles
LLC RQ	ACCESS:     491056	FORWARD:          0	MERGED:          0	TO_CACHE:     491038
LLC WQ	ACCESS:      90552	FORWARD:         19	MERGED:          0	TO_CACHE:      90552
LLC PQ	ACCESS:      85444	FORWARD:          0	MERGED:          0	TO_CACHE:      85443

LLC Dense regions hint to LLC: 0

RAW hits: 1926980
Loads Generated: 12634222
Loads sent to L1D: 10707242
Stores Generated: 6949969
Stores sent to L1D: 6949977
Major fault: 0 Minor fault: 2589
Allocated PAGES: 2589

stream: 
stream:times selected: 1179417
stream:pref_filled: 120430
stream:pref_useful: 23303
stream:pref_late: 6471
stream:misses: 6776
stream:misses_by_poll: 0

CS: 
CS:times selected: 176559
CS:pref_filled: 59352
CS:pref_useful: 35982
CS:pref_late: 6614
CS:misses: 15662
CS:misses_by_poll: 1

CPLX: 
CPLX:times selected: 1001709
CPLX:pref_filled: 19666
CPLX:pref_useful: 4815
CPLX:pref_late: 2935
CPLX:misses: 91180
CPLX:misses_by_poll: 1

NL_L1: 
NL:times selected: 19714
NL:pref_filled: 639
NL:pref_useful: 251
NL:pref_late: 195
NL:misses: 1047
NL:misses_by_poll: 0

total selections: 2377399
total_filled: 93433
total_useful: 32439
total_late: 17725
total_polluted: 2
total_misses_after_warmup: 768308
conflicts: 5532631

test: 114850

DRAM Statistics
 CHANNEL 0
 RQ ROW_BUFFER_HIT:      10325  ROW_BUFFER_MISS:      17133
 DBUS_CONGESTED:          9
 WQ ROW_BUFFER_HIT:       1273  ROW_BUFFER_MISS:      11852  FULL:          0

 AVG_CONGESTED_CYCLE: 4

CPU 0 Branch Prediction Accuracy: 99.8133% MPKI: 0.34154 Average ROB Occupancy at Mispredict: 187.334
Branch types
NOT_BRANCH: 40853097 81.7062%
BRANCH_DIRECT_JUMP: 548631 1.09726%
BRANCH_INDIRECT: 182808 0.365616%
BRANCH_CONDITIONAL: 6180081 12.3602%
BRANCH_DIRECT_CALL: 945720 1.89144%
BRANCH_INDIRECT_CALL: 171742 0.343484%
BRANCH_RETURN: 1117462 2.23492%
BRANCH_OTHER: 0 0%

DRAM PAGES: 1048576
Allocated PAGES: 2589
Average_ROB_Occupancy: 218.871
Average_Decode_Occupancy: 19.5034
Average_FTQ_Occupancy: 5.72972
Indirect max targets: 14 Average targets: 1.15254
Branch_type:  BRANCH_DIRECT_JUMP:  Count Percentage: 3.80171 5.84207 4.26478 14.1927 1.69945 6.57649 1.3149 62.3079 
Branch_type:  BRANCH_INDIRECT:  Count Percentage: 14.4151 0.811767 12.2283 23.3133 1.33779 14.5439 1.06656 32.2833 
Branch_type:  BRANCH_CONDITIONAL:  Count Percentage: 21.7711 2.62915 2.44199 8.15022 1.47802 5.01979 0.731697 57.778 
Branch_type:  BRANCH_DIRECT_CALL:  Count Percentage: 0.260878 1.77746 1.43673 4.6213 2.60799 3.19276 0.771945 85.3309 
Branch_type:  BRANCH_INDIRECT_CALL:  Count Percentage: 9.51736 0.575812 2.98246 4.83513 0 4.06302 0 78.0262 
Branch_type:  BRANCH_RETURN:  Count Percentage: 3.64709 1.30739 3.52653 8.73831 2.84406 5.74931 1.27977 72.9075 
Branch_type:  BRANCH_DIRECT_JUMP:  Total Count: 41640 63988 46712 155452 18614 72032 14402 682456 
Branch_type:  BRANCH_INDIRECT:  Total Count: 52616 2963 44634 85095 4883 53086 3893 117836 
Branch_type:  BRANCH_CONDITIONAL:  Total Count: 2688593 324683 301571 1006501 182526 619913 90360 7135228 
Branch_type:  BRANCH_DIRECT_CALL:  Total Count: 4930 33590 27151 87332 49285 60336 14588 1612561 
Branch_type:  BRANCH_INDIRECT_CALL:  Total Count: 32677 1977 10240 16601 0 13950 0 267896 
Branch_type:  BRANCH_RETURN:  Total Count: 81473 29206 78780 195207 63534 128435 28589 1628697 
Number of unique branch instructions: 10211
Upper 32 bits: 
aaaa
ffff
ffff0000
Unique upper 32 bits: 3
Unique upper 36 bits: 3
Unique upper 40 bits: 5
Unique upper 44 bits: 32
Unique upper 48 bits: 154
Offset_3 4217
Offset_4 260
Offset_5 466
Offset_6 527
Offset_7 613
Offset_8 535
Offset_9 488
Offset_10 397
Offset_11 331
Offset_12 295
Offset_13 215
Offset_14 234
Offset_15 195
Offset_16 228
Offset_17 156
Offset_18 126
Offset_19 247
Offset_20 144
Offset_21 236
Offset_22 403
Offset_23 245
Offset_24 335
Offset_25 88
Offset_47 82
Offset_64 16
decode_dispatch_called: 23012336 63.2189
Dispatch_width: 0 11488202 49.9219 31.5601
Dispatch_width: 1 906220 3.93797 2.48954
Dispatch_width: 2 1032400 4.48629 2.83618
Dispatch_width: 3 687686 2.98834 1.88919
Dispatch_width: 4 4007350 17.4139 11.0089
Dispatch_width: 5 406628 1.767 1.11708
Dispatch_width: 6 4483850 19.4845 12.3179
Empty_decode_cycles: 13388704 36.7811
ROB_full_cycles: 6128752 16.8367
Starvation_cycles_per_kilo_instr: 257.884
Starvation_cycles_per_kilo_instr_3: 213.745
Starvation_cycles_per_kilo_instr_0: 187.482
Branch_type_1  (3,1)  (4,9)  (5,37)  (6,72)  (7,118)  (8,138)  (9,127)  (10,102)  (11,74)  (12,51)  (13,5)  (14,2)  (15,3)  (16,4)  (18,1)  (19,4)  (20,2)  (21,1)  (22,3)  (23,2)  (24,10)  (25,12) 
Branch_type_2  (3,1)  (5,1)  (8,3)  (9,3)  (12,1)  (13,1)  (14,1)  (16,3)  (17,2)  (20,2)  (21,2)  (23,5)  (24,1)  (47,37) 
Branch_type_3  (3,4215)  (4,251)  (5,424)  (6,438)  (7,461)  (8,328)  (9,269)  (10,162)  (11,136)  (12,58)  (13,4)  (24,2)  (64,9) 
Branch_type_4  (6,4)  (7,8)  (8,30)  (9,54)  (10,63)  (11,62)  (12,104)  (13,94)  (14,103)  (15,93)  (16,102)  (17,72)  (18,57)  (19,121)  (20,74)  (21,124)  (22,215)  (23,138)  (24,193)  (25,72)  (64,3) 
Branch_type_5  (8,2)  (9,1)  (10,3)  (11,5)  (12,3)  (13,14)  (14,16)  (15,11)  (16,20)  (17,11)  (18,16)  (19,12)  (20,11)  (21,13)  (22,42)  (23,26)  (24,37) 
Branch_type_6  (5,4)  (6,13)  (7,26)  (8,34)  (9,34)  (10,67)  (11,54)  (12,78)  (13,97)  (14,112)  (15,88)  (16,99)  (17,71)  (18,52)  (19,110)  (20,55)  (21,96)  (22,143)  (23,74)  (24,92)  (25,4)  (47,45)  (64,4) 
aaaaab1fc620: 2ac9e77e 2aca717c 2aca8eff 2acaf6bc 2acaf9aa 2acaf9f1 2acb1abc 2acb1b7f 2acd4e22 2acdb712 2acf5f9e 2ad0ef44 2ad3f15c 2ad414e6 2ad60e42 2ad8609c 2ad99830 2ada35cc 2ada4676 2ada6612 2adf183e 2adf30e5 2adf5602 2adf785c 2ae11572 2aeb2dcf 2aee101b 2aee1ae1 2b156a8c 2b156b61 2b156bea 2b167f35 2b177656 2b17feec 2b1a3e5a 
aaaaac68f310: 2ac9ec8c 2ac9fb44 2ac9fbd2 2aca59ab 2acac04c 2acaf6e0 2acaf6ec 2acaf6f9 2acaf700 2acaf708 2acf2d90 2ad3cfbd 2ad3cfc4 2ad3d000 2ad3f35f 2ad4955d 2ad49571 2ad4f3f2 2ad4f400 2ad5f240 2ad5f37c 2ad5f86a 2ad5f86f 2ad5f880 2ad5fc0d 2ad5fc14 2ad5fc21 2ad5fe1b 2ad873bb 2ad873e3 2ad8a6b2 2ad9086e 2ad93096 2ad9bbb2 2ada152c 2ada1554 2ada3332 2ada5522 2adf3130 2adf313c 2adf3a3f 2adf3bd9 2adf5788 2adf7a8d 2ae07f6b 2ae0857a 2ae0857e 2ae08630 2ae08634 2ae08637 2ae08642 2ae0866f 2ae086e4 2ae086ec 2ae08717 2ae0871b 2aee0170 2aee1d38 2aee75f4 2aee7662 2aee85ca 2aee85e4 2aee8eef 2af70b84 2af74e8f 2b17d843 
aaaaac690ef0: 2aca598b 2acb111b 2acb175f 2acb1772 2acbfaf4 2acbfb00 2acf374f 2acf6d43 2acfa5c8 2ad3baf1 2ad3d4ac 2ad3d4b8 2ad3f1cf 2ad486b2 2ad5a59b 2ad5fc64 2ad5fcf9 2ad6121c 2ad906e9 2ad907bf 2ad9bada 2ada16ce 2ada1ad5 2ada43df 2ada64c0 2ada72ee 2adeb71a 2adf3bcb 2adf7a38 2adf7c6a 2adf8872 2adf8880 2adf9959 2adf9abe 2ae07f78 2ae08503 2ae08754 2ae12e80 2aea3bea 2aecb509 2aee00b0 2aee2bdd 2aee5467 2aee5601 2aee8f20 2af703fd 2af7048b 2af74e74 
Unique trigger count: 
1 9705
2 555
3 93
4 31
5 8
6 9
7 8
9 3
10 2
11 1
12 1
13 3
14 1
16 3
17 2
19 3
35 1
48 1
66 1
BTB PER SET UNIQUE ADDR: 2 4 3 2 1 0 3 2 4 0 2 0 5 3 1 3 3 2 4 4 3 4 2 3 4 5 1 4 4 2 6 6 4 3 4 2 1 5 5 2 4 4 3 7 6 2 4 3 6 3 4 3 3 1 0 3 4 3 4 3 1 5 2 3 1 4 7 2 3 5 5 1 1 4 2 3 3 7 2 3 2 3 1 4 4 3 2 5 3 3 6 4 3 5 3 0 4 3 1 3 4 2 3 3 3 2 1 2 3 2 2 1 3 6 2 6 2 5 4 1 4 4 2 0 1 2 2 1 6 6 5 2 4 3 5 3 2 1 3 3 5 3 3 3 2 4 2 5 4 3 3 8 4 5 2 0 3 3 4 2 3 5 4 4 6 3 2 2 8 1 3 2 4 2 1 1 3 6 5 1 3 3 6 3 4 6 3 1 2 4 5 3 3 4 4 5 4 3 3 7 3 2 4 1 3 3 2 4 2 1 2 4 5 4 3 2 4 5 4 0 1 1 2 3 3 2 3 3 0 3 8 3 3 1 3 3 5 3 1 2 1 0 5 3 9 8 1 1 3 3 3 2 1 3 2 6 3 5 4 3 4 4 4 2 3 7 3 1 4 2 3 2 2 4 5 2 2 2 3 3 4 2 6 2 6 5 3 3 1 1 0 3 1 7 1 1 5 3 2 2 3 3 1 2 4 2 4 2 6 5 3 1 3 2 5 1 6 6 2 2 3 6 3 5 2 2 1 6 1 1 4 0 2 5 5 2 3 5 5 0 4 0 1 4 5 2 1 5 4 3 3 6 4 3 5 3 2 0 4 1 2 6 2 4 6 5 1 1 2 2 3 2 3 4 4 4 3 4 4 4 6 3 2 6 3 3 6 2 4 2 5 5 4 2 3 1 5 0 1 3 4 2 3 2 2 4 3 2 1 1 1 3 4 3 2 2 6 3 1 3 1 1 3 4 5 3 3 0 2 5 1 2 8 3 5 5 3 3 3 0 2 4 5 3 4 6 2 3 3 2 4 3 1 2 5 1 1 3 7 2 3 3 4 6 2 3 5 3 3 4 0 4 5 3 3 1 4 5 1 1 2 1 2 2 0 4 3 0 7 1 5 2 4 5 0 5 3 3 2 2 5 2 1 2 1 2 2 2 2 3 3 2 3 7 2 1 2 5 4 5 3 5 4 3 6 6 0 7 6 3 4 3 3 6 4 4 1 2 4 1 2 5 6 3 5 2 8 3 6 9 3 6 3 6 1 3 3 1 2 4 7 2 5 2 2 1 4 2 2 7 4 2 3 8 3 2 3 3 1 6 4 2 1 0 1 0 0 9 4 2 5 6 2 1 2 3 5 2 2 1 4 2 4 7 1 4 4 4 2 2 5 2 2 2 2 3 2 0 3 1 5 4 7 2 2 4 2 5 2 3 5 4 3 2 5 3 2 3 2 3 7 1 4 3 0 0 3 3 3 3 3 3 5 2 3 0 4 3 2 3 6 2 6 4 5 4 5 3 1 4 6 3 4 3 6 6 3 3 3 3 4 2 4 2 6 4 5 3 4 3 1 5 2 2 2 3 6 4 5 5 0 6 0 3 3 2 4 1 3 1 3 3 3 2 2 1 7 2 0 3 2 0 1 1 1 1 1 4 2 4 5 5 2 2 2 4 5 3 2 2 1 3 2 4 2 2 4 2 3 2 0 2 1 3 2 2 2 6 4 1 3 3 1 5 4 4 8 3 2 3 5 4 0 3 3 4 5 2 1 3 3 4 0 3 8 6 3 4 0 3 2 4 2 1 5 7 7 2 2 4 5 3 6 3 5 3 3 5 2 3 1 4 4 1 4 4 1 2 0 4 4 2 5 2 2 1 3 2 4 4 3 1 3 2 5 2 2 1 5 2 2 1 3 3 1 4 7 4 4 2 6 2 5 4 4 5 3 2 5 4 3 6 2 1 9 3 3 4 5 3 1 3 3 6 4 0 2 2 6 4 3 5 5 4 6 4 2 2 3 5 4 3 4 4 3 2 6 3 2 2 5 2 1 3 4 5 4 5 3 4 5 4 0 3 1 5 0 1 5 2 6 5 5 3 4 2 3 2 5 7 4 4 9 7 5 4 6 5 1 6 4 2 0 4 4 5 5 5 3 2 7 0 5 5 2 3 6 5 4 2 3 3 4 5 2 6 9 4 6 3 3 4 0 5 6 1 7 5 1 3 7 5 3 5 2 1 2 3 4 2 5 4 2 7 5 5 4 5 3 5 1 3 5 2 3 5 4 3 3 3 5 3 4 4 5 2 5 2 2 4 5 2 9 5 2 4 3 3 2 3 4 7 6 2 3 2 3 3 4 1 3 2 4 4 3 4 5 6 4 6 0 3 3 3 3 4 2 1 3 2 3 1 2 1 4 1 3 3 3 5 2 8 5 3 2 1 10 1 2 4 1 2 6 5 3 6 3 5 5 6 2 5 2 2 1 1 5 0 4 4 3 7 4 1 7 4 6 2 4 4 5 4 5 8 4 4 6 1 4 4 7 4 3 3 4 3 6 6 3 6 5 6 4 4 5 3 1 2 4 5 1 3 2 1 4 4 2 2 5 2 2 5 4 1 5 1 7 3 3 2 3 1 3 5 3 4 3 4 2 6 2 3 6 3 4 3 4 5 2 8 3 5 3 8 6 1 7 1 5 2 1 2 4 4 3 1 3 5 2 1 2 2 4 3 3 3 3 4 2 6 2 5 4 5 0 5 3 2 2 6 8 0 7 0 1 4 5 2 5 1 3 3 4 1 1 2 4 5 3 4 1 4 4 6 5 1 4 3 3 6 10 4 2 6 6 5 1 1 3 5 6 3 2 2 4 3 4 4 5 3 1 4 2 2 6 8 5 3 3 6 1 2 5 2 4 1 3 2 6 8 3 3 3 3 4 4 2 5 6 6 4 2 1 5 3 2 4 3 4 4 4 4 7 3 5 4 3 5 5 3 1 7 4 4 3 3 3 2 4 3 2 2 5 4 3 2 5 1 1 3 3 8 5 2 3 4 2 3 3 3 4 3 2 1 3 2 4 2 5 3 4 4 2 1 2 6 1 5 2 4 2 4 6 1 1 4 5 3 3 4 5 2 3 4 4 5 4 4 4 3 3 2 2 3 5 2 4 1 3 0 8 3 2 6 4 4 5 7 3 2 3 3 1 2 4 1 4 2 4 3 0 6 1 5 2 2 3 4 3 2 4 2 3 2 3 1 5 2 0 3 4 1 1 3 1 4 2 3 6 3 1 2 2 3 2 2 6 2 3 5 3 3 3 4 2 2 3 0 2 2 2 3 2 2 2 0 4 0 4 2 4 4 3 3 2 1 2 5 4 2 7 1 3 4 2 2 4 5 2 2 5 0 1 2 3 1 1 2 3 3 5 3 1 1 6 3 1 4 1 6 1 4 3 3 6 2 3 2 1 3 3 1 1 3 5 1 3 3 1 2 0 5 1 3 3 0 3 2 5 3 4 3 3 4 1 3 2 2 1 3 3 0 2 3 2 3 3 1 3 3 2 10 6 2 2 2 4 1 1 3 6 2 3 0 3 2 3 2 3 5 5 6 7 0 4 2 6 4 4 5 4 8 2 4 8 3 0 6 3 3 3 4 3 3 2 1 2 4 2 2 3 3 2 3 5 3 5 4 6 1 1 5 6 3 3 4 5 4 6 2 5 5 2 6 3 3 3 2 3 7 5 3 2 3 3 3 3 4 2 3 3 2 3 1 3 8 0 2 2 3 3 4 5 3 4 2 6 1 2 2 6 2 4 5 7 1 1 7 3 4 3 3 4 7 2 3 2 3 7 3 5 3 5 3 5 10 4 4 3 5 2 5 4 3 2 3 1 2 2 3 4 3 2 3 3 5 4 2 4 9 0 3 2 4 4 4 3 4 3 6 3 5 1 5 2 3 4 3 3 0 3 5 0 7 2 5 5 1 4 3 2 0 4 2 3 5 3 6 2 2 2 1 3 4 7 1 4 3 0 3 3 4 5 3 1 3 5 2 3 2 6 3 4 1 5 3 0 2 4 1 1 8 2 0 5 1 4 3 3 3 6 3 3 6 1 5 3 5 2 5 4 2 3 2 7 1 4 0 3 3 4 4 4 3 2 1 2 3 0 3 0 3 5 6 2 2 5 2 3 3 4 1 3 2 4 2 4 2 5 3 2 3 1 2 3 3 4 3 3 4 2 1 1 4 2 5 1 4 1 5 4 2 3 1 4 1 2 3 6 2 3 4 5 5 3 3 3 4 4 2 0 3 3 0 2 1 2 2 4 2 5 2 2 3 4 1 3 4 4 2 4 8 3 2 7 7 3 2 4 1 2 6 3 4 4 2 4 0 1 2 6 3 2 4 4 2 5 3 4 7 4 3 1 4 1 0 2 3 0 5 4 6 1 3 4 6 4 0 2 2 4 2 4 1 3 2 8 3 1 3 3 6 2 7 3 4 6 0 1 3 1 4 2 1 0 2 3 4 6 5 1 0 3 4 5 1 1 1 3 5 2 1 5 4 3 3 5 4 0 6 3 6 2 1 2 2 1 2 4 1 3 1 3 2 3 1 5 2 5 2 4 2 1 3 5 4 4 0 
BTB PER SET COUNT: 2 6 3 2 1 0 3 2 4 0 2 0 2444 3 1 4 3 2 4 1555 4 5 2 3 4 14 1 5 1467 2 2884 26 4 3 5 2 2926 806 835 2 4 12 5 2209 5139 2 5 3 1460 3 4 3 4 2 0 3 6 5 6 3 1 12 2 3 1 489 410 2 4 1089 790 1 1 4 2 3 500 805 2 3 2 3 1 4 5 5 2 12 3 3 2428 487 3 3650 3 0 4 4 1 3 4 2 4 4 3 2 1 2 4 25 2 1 3 2002 2 1824 2 8 4 1 5 5 2 0 4 2 3 1 2412 14 2002 2 5 5 932 3 2 1 3 3 663 4 3 3 2 8 2 3962 4 3 3 6627 4 2399 2 0 3 3 4 2 4 1060 4 4 12 1939 2 2 7952 1 3 2 7 2 1 1 4 14 981 1 5 3 6575 3 4 12 3 1 2 4 33 4 3 4 5 12 4 3 3 15 4 3 4 1 5 3 2 1556 2 1 3 5 15 4 3 3 4 315 4 0 1 1 2 3 3 3 3 27 0 3 5871 3 3 5 3 3 9 3 1 3 1 0 2403 3 8872 1889 1 1 3 3 3 2 3 3 2 1945 3 20 4 3 6 4 4 2 1467 1506 4 1 4 2 3 3 2 4 5 2 2 3 3 3 14 2 1904 2 804 2465 3 3 1 3 0 3 1 25 1 1 9 3 2 2 3 3 1 3 4 2 5 2 1898 1061 3 1 3 2 1059 4 2434 1327 2 2 3 2275 4 7 2 2 1 246 1 1 1052 0 4 15 1503 4 991 5 23 0 4 0 1 992 993 2 1 6 4 4 4 127 5 3 40 5 2 0 5 1 2 207 2 6 2675 746 1 2 2 2 14 2 3 4 4 4 3 5 4 4 28 3 2 743 4 4 18 3 4 2 18 8 4 2 3 1 3398 0 2 5 5 2 3 2 2 4 1465 3 1 969 1 3 4 4 970 2 170 3 1 88 1 1 3 5 20 3 4 0 2 6 134 2 2693 3 1089 2242 3 4 3 0 2 4 1307 4 4 1080 3 3 3 2 4 3 1 2 1806 1 1 3 1434 2 3 4 5 1844 2 3 5 3 4 4 0 5 39 496 3 1 4 1091 1 1 2 1 2 498 0 4 3 0 46 1 9 2 5 12 0 29 41 3 2 2 1794 14 1 2 1 4 2 2 3 3 3 2 3 49 4 2 2 2383 7 512 3 1468 4 3 18 1461 0 1815 4650 3 4 6 3 24 5 590 1 2 43 1 2 1485 189 4 12 2 74 10 924 8961 3 1380 5 2858 1 3 6 2 2 4 6475 3 1841 2 2 1 6 2 2 2806 4 6 3 5177 3 2 4 5 8 29 4 35 1 0 1 0 0 3813 5 2 1900 2994 3 2 970 3 7 2 2 1 5 2 6 1585 1 4 4 4 3 2 2385 2 2 3 2 4 1160 0 3 1 8 502 3363 2 4 4 3 14 2 3 1955 1466 4 7 995 3 2 3 2 4 2940 1 4 3 0 0 3 3 3 4 3 3 9 2 3 0 5 3 2 5 7872 4 31 6 1946 4 2948 991 1 4 977 3 5 4 1455 2905 3 3 4 3 4 2 5 990 1480 5 10 1465 4 3 1 998 5 6 2 3 1811 4 15 51 0 2402 0 3 3 990 4 1 4 1 3 3 5 2 990 1 2482 2 0 3 3 0 1 1 1 1 1 4 2 4 1425 9 967 2 2 4 14 3 2 2 1 3 2 4 2 2 587 3 4 912 0 2 1 3 2 2 2 2858 5 1 3 5 1 15 5 4 5488 3 3 3 8 4 0 69 3 5 2757 3 1 3 4 5 0 4 3186 4515 3 4 0 3 5 49 28 1 9 2741 1902 2 3 4 12 3 13 4 1984 5 3 33 2 6 1 4 5 1 4 8 2 5 0 4 6 2 19 2 2 1 3 2 4 139 4 1 3 2 1987 4 64 2 1459 2 6 2 3 1467 1 11 2033 4 4 4 2444 2 1806 6 4 8 3 2 7 5 3 4466 2 12 6322 971 4 5 1486 9 1 3 3 2365 4 0 2 2 24 4 6 4459 13 4 88 5 2 2 5 8 4 3 5 4 3 2 802 3 2 2 1389 2 1 65 8 2414 4 1062 3 5 49 4 0 3 1 1359 0 1 977 2 55 283 1357 3 16 2 3 2 1806 515 4 502 5446 3694 1505 4 2087 10 1 101 4 2 0 969 5 2422 35 1503 3 2 845 0 272 8 2 4 1308 1939 5 2 3 589 4 4664 3 207 935 4 1994 6 4 4 0 489 25 1 7170 18 1 3 2060 14 503 7 2 3 2 3 5 2 1539 5 4 3418 7 11 4 1831 5 26 1 7 7 2 3 20 4 42 3 3 1952 3 2428 486 1716 2 26 3 2 5 1414 3 5058 23 2 4 3 3 3 3 4 2827 1799 4 5 2 3 3 4 3 3 3 4 5 3 5 8 1959 4 1372 0 3 3 3 1466 488 2 1 3 3 4 1 2 1 5 1 4 3 3 6 2 3891 1486 3 2 1 11080 1 2 4 1 2 1920 109 5 5149 4 24 7 2430 2 25 4 2 14 1 28 0 5 4 3 1997 4 1 1908 4 2364 2 502 4 12 4 2248 1697 4 4 2377 1 7 5 4757 6 5 3 4 3 1475 1899 3 2375 1388 1941 4 4 7 5 1 2 4 1965 1 3 2 1 12 5 4 2 600 2 2 257 4 1 12 1 5443 3 3 3 4 1 3 167 3 6 3 4 2 21 2 3 1672 3 4 3 4 1854 2 5420 3 1458 3 2660 7003 1 5023 1 18 2 1 10 589 4 3 1 3 116 2 1 3 500 4 3 3 3 3 5 3 1510 2 11 4 20 0 1852 3 2 2 36 7219 0 242 0 1 4 6 3 23 1 3 915 5 1 1 2 4 16 6 4 1 4 4 6954 18 1 4 3 4 3049 10109 1957 2 7186 19 1916 1 1 3 1805 2376 4 2 2 4 3 4 4 14 3 1 4 2 2 3177 7681 3720 3 3 336 1 2 17 2 4 1 3 2 2932 6446 971 4 3 3 43 5 2 1779 1945 2431 5 2 1 16 3 2 8 3 4 4 4 4 1811 3 1928 4 500 1806 2430 13 1 3017 4 4 4 3 3 40 6 3 2 2 18 4 3 2 1059 1 1 3 3 2966 9 3 3 4 2 3 16 3 5 4 3 1 3 2 4 2 9 3 7 4 2 1 2 1070 2 10 3 4 2 4 376 1 1 4 9 968 3 4 2434 2 4 42 12 10 5 9 5 3 4 2 3 4 1980 2 8 1 3 0 5457 3 2 2705 4 4 2249 6892 3 2 3 3 1 4 4 1 4 3 41 5 0 3758 1 7 3 2 4 5 3 2 1466 2 3 1450 3 1 601 2 0 3 4 1 2 1451 1 5 2 3 1803 3 1 2 2 3 2 2 2671 2 3 71 3 3 3 4 2 2 4 0 3 2 3 969 2 2 2 0 5 0 4 2 4 5 3 4 912 1 16 6 16 2 2436 1 3 5 2 2 6 11 137 2 21456 0 1 2 3 1 1 2 3 3 1919 416 1 1 1455 3 1 4 1 2388 1 4 4 3 1982 2 3 2 1 3 3 1 1 3 7 1 4 4 1 2 0 3636 1 3 4 0 3 417 1942 3 4 3 4 4 1 4 2 2 2 3 3 0 2 3 2 3 8 1 3 3 2 3701 2954 3 3 2 4 1 1 3 1768 2 3 0 3 2 3 2 3 7 2251 19 5548 0 4 2 2069 5 5 15 4 3383 2 4 8562 3 0 2895 1465 3 4 4 4 3 2 1 2 973 2 2 3 3 2 3 1797 8 1895 4 1054 2947 1 1254 6406 3 10 5 23 4 3473 3 1673 1898 2 1909 3 256 486 2 1465 1480 13 215 6 3 3 3 3 4 2 3 3 2 4 1 3 2429 0 2 2 9 3 6 520 3 5 2 3620 1 2 22 1352 5 1488 1527 2946 1 1 6009 3 992 3 4 4 1936 588 3 28 3 2797 3 504 3 4216 3 12 8400 5 4 14632 2909 2 1910 1466 99 2 3 2 3 2 4 4 3 2 4 3 314 5 2 145 3512 0 1466 2 1466 231 4 3 4 3 2266 3 762 1 2391 2 3 4 3 3 0 3 3028 0 5095 2 1209 2453 1 4 3 2 0 4 2 40 2415 4 4610 2 2 3 1 3 5 7089 1 4 535 0 3 3 4 1809 968 1 6 1945 2 3 2 2160 3 5 1 25 3 0 2 4 1463 1 3920 2 0 13 1 8 7 5 3 2431 7 477 2354 1 2362 3 1916 224 1809 130 2 4 3 3929 1 226 0 5 1554 7 6 4 3 2 1 2 577 0 3 0 3 8 3110 2 2 806 366 3 3 972 1 4 3 4 2 4 2 100 3 2 3 1 2 222 4 4 3 3 4 2 1 1 5 2 1476 1 4 1 3637 4 2 9 6 5 1 2 3 22 2 10 920 13 985 3 3 3 5 7 2 0 3 4 0 2 1 2 2 4 4 2398 2 2 3 4 1 3 4 4 2 4 3006 3 2 3202 2248 135 2 5 1 2 26 3 4 96 2 8 0 1 2 20 925 2 4 4 2 5 10 4 2518 4 3 1 4 1 0 2 3 0 21 1467 1090 1 3 4 2410 4 0 39 2 19 2 4 1 3 2 3698 4 1 3 3 2514 11 3383 3 5 5148 0 1 3 1 4 2 1 0 2 3 5 25 10 1 0 3 4 1526 1 1 1 3 2421 2 1 14 4 3 4 1802 4 0 2430 3 1800 6 1 2 2 1 2 9 1 3 1 3 2 3 1 18 2 215 2 6 2 1 3 1487 4 4 0 
