
*** ChampSim Multicore Out-of-Order Simulator ***

Warmup Instructions: 50000000
Simulation Instructions: 50000000
Number of CPUs: 1
LLC sets: 2048
LLC ways: 16
Off-chip DRAM Size: 4096 MB Channels: 1 Width: 64-bit Data Rate: 6400 MT/s
CPU 0 runs ./micro_traces/srv514.trace.gz
.gz
ITLB has LRU replacement policy
DTLB has LRU replacement policy
STLB has LRU replacement policy
FDIP Prefetcher at L1I
L1I has LRU replacement policy
L1D has LRU replacement policy
Initialize SRRIP state for L2C
Initialize DRRIP state for LLC
Heartbeat CPU 0 instructions: 10000001 cycles: 2795797 heartbeat IPC: 3.5768 cumulative IPC: 3.5768 (Simulation time: 0 hr 1 min 35 sec) 
Heartbeat CPU 0 instructions: 20000003 cycles: 5589385 heartbeat IPC: 3.57963 cumulative IPC: 3.57821 (Simulation time: 0 hr 3 min 10 sec) 
Heartbeat CPU 0 instructions: 30000000 cycles: 8384348 heartbeat IPC: 3.57786 cumulative IPC: 3.5781 (Simulation time: 0 hr 4 min 44 sec) 
Heartbeat CPU 0 instructions: 40000003 cycles: 11180538 heartbeat IPC: 3.5763 cumulative IPC: 3.57765 (Simulation time: 0 hr 6 min 20 sec) 
Heartbeat CPU 0 instructions: 50000000 cycles: 13975198 heartbeat IPC: 3.57825 cumulative IPC: 3.57777 (Simulation time: 0 hr 7 min 54 sec) 

Warmup complete CPU 0 instructions: 50000004 cycles: 13975199 (Simulation time: 0 hr 7 min 54 sec) 

Cycle: 20000000 FTQ IN: 57014488 FTQ occupancy: 18.3415 DECODE IN: 57014468 DECODE occupancy: 46.8982 ROB IN: 57014442 ROB occupancy: 283.578 ROB OUT: 57014403
Heartbeat CPU 0 instructions: 60000000 cycles: 22600321 heartbeat IPC: 1.1594 cumulative IPC: 1.1594 (Simulation time: 0 hr 9 min 16 sec) 
Cycle: 30000000 FTQ IN: 11445404 FTQ occupancy: 7.6109 DECODE IN: 11445424 DECODE occupancy: 16.4751 ROB IN: 11445450 ROB occupancy: 130.939 ROB OUT: 11445424
Heartbeat CPU 0 instructions: 70000000 cycles: 31342917 heartbeat IPC: 1.14383 cumulative IPC: 1.15156 (Simulation time: 0 hr 10 min 40 sec) 
Heartbeat CPU 0 instructions: 80000002 cycles: 39960330 heartbeat IPC: 1.16044 cumulative IPC: 1.15451 (Simulation time: 0 hr 12 min 4 sec) 
Cycle: 40000000 FTQ IN: 11588991 FTQ occupancy: 7.49991 DECODE IN: 11588893 DECODE occupancy: 16.2694 ROB IN: 11588833 ROB occupancy: 130.693 ROB OUT: 11588546
Heartbeat CPU 0 instructions: 90000000 cycles: 48711063 heartbeat IPC: 1.14276 cumulative IPC: 1.15155 (Simulation time: 0 hr 13 min 27 sec) 
Cycle: 50000000 FTQ IN: 11439219 FTQ occupancy: 7.64723 DECODE IN: 11439243 DECODE occupancy: 16.5303 ROB IN: 11439243 ROB occupancy: 132.126 ROB OUT: 11439560
*** Reached end of trace for Core: 0 Repeating trace: ./micro_traces/srv514.trace.gz
Heartbeat CPU 0 instructions: 100000002 cycles: 57310016 heartbeat IPC: 1.16293 cumulative IPC: 1.15381 (Simulation time: 0 hr 15 min 1 sec) 
Finished CPU 0 instructions: 50000002 cycles: 43334818 cumulative IPC: 1.15381 (Simulation time: 0 hr 15 min 1 sec) 

ChampSim completed all CPUs

Region of Interest Statistics

CPU 0 cumulative IPC: 1.15381 instructions: 50000002 cycles: 43334818
 Fetch stage stalled: 68.8053  Sim cycles: 43334818 fetch stall cycle: 29816650
 Empty decode stage: 55.8052  Sim cycles: 43334818 fetch stall cycle: 24183096
ITLB TOTAL     ACCESS:    5599502  HIT:    5109165  MISS:     490337  HIT %:    91.2432  MISS %:     8.7568   MPKI: 9.80674
ITLB LOAD TRANSLATION INSTRUCTION	ACCESS:    5486288  HIT:    4995951  MISS:     490337  HIT %:    91.0625  MISS %:     8.9375  MPKI: 9.80674
ITLB TRANSLATION FROM L1D PREFETCHER INSTRUCTION	ACCESS:     113214  HIT:     113214  MISS:          0  HIT %:        100  MISS %:          0  MPKI: 0

ITLB AVERAGE MISS LATENCY: 9.04597 cycles
ITLB RQ	ACCESS:    7471034	FORWARD:          0	MERGED:    1386187	TO_CACHE:    6084847

DTLB TOTAL     ACCESS:    9213258  HIT:    8740140  MISS:     473118  HIT %:    94.8648  MISS %:    5.13519   MPKI: 9.46236
DTLB LOAD TRANSLATION DATA	ACCESS:    9213258  HIT:    8740140  MISS:     473118  HIT %:    94.8648  MISS %:    5.13519  MPKI: 9.46236

DTLB AVERAGE MISS LATENCY: 9.31401 cycles
DTLB RQ	ACCESS:   13498430	FORWARD:          0	MERGED:    4250244	TO_CACHE:    9248186

STLB TOTAL     ACCESS:    1222026  HIT:    1219902  MISS:       2124  HIT %:    99.8262  MISS %:    0.17381   MPKI: 0.04248
STLB LOAD TRANSLATION INSTRUCTION	ACCESS:     490337  HIT:     490076  MISS:        261  HIT %:    99.9468  MISS %:  0.0532287  MPKI: 0.00522
STLB LOAD TRANSLATION DATA	ACCESS:     473069  HIT:     471214  MISS:       1855  HIT %:    99.6079  MISS %:    0.39212  MPKI: 0.0371
STLB TRANSLATION FROM L1D PREFETCHER DATA	ACCESS:     258620  HIT:     258612  MISS:          8  HIT %:    99.9969  MISS %: 0.00309334  MPKI: 0.00016

STLB AVERAGE MISS LATENCY: 68.8663 cycles
STLB RQ	ACCESS:    1366729	FORWARD:          0	MERGED:     144661	TO_CACHE:    1222068

STLB Hit, L1D data hit: 0
STLB Hit, L2C data hit: 0
STLB Hit, LLC data hit: 0
STLB Hit, LLC data miss: 0
STLB STLB hints to L2: 0
L1D TOTAL     ACCESS:   13269066  HIT:   12110472  MISS:    1158594  HIT %:    91.2685  MISS %:    8.73154   MPKI: 23.1719
L1D LOAD DATA	ACCESS:    6739802  HIT:    5975598  MISS:     764204  HIT %:    88.6613  MISS %:    11.3387  MPKI: 15.2841
L1D RFO DATA	ACCESS:    6189980  HIT:    5900189  MISS:     289791  HIT %:    95.3184  MISS %:    4.68161  MPKI: 5.79582
L1D PREFETCH DATA	ACCESS:     339284  HIT:     234685  MISS:     104599  HIT %:    69.1707  MISS %:    30.8293  MPKI: 2.09198

L1D PREFETCH  REQUESTED:     806818  ISSUED:     806818  USEFUL:      47277  USELESS:      69986
L1D USEFUL LOAD PREFETCHES:      47277 PREFETCH ISSUED TO LOWER LEVEL:     117346  ACCURACY: 40.2885
 TIMELY PREFETCHES:      47277 LATE PREFETCHES: 12679 DROPPED PREFETCHES: 12
L1D AVERAGE MISS LATENCY: 395143 cycles
L1D RQ	ACCESS:   10821800	FORWARD:          0	MERGED:    3885764	TO_CACHE:    6773820
L1D WQ	ACCESS:    6901403	FORWARD:     162486	MERGED:     176793	TO_CACHE:    6724610
L1D PQ	ACCESS:     403544	FORWARD:          0	MERGED:          0	TO_CACHE:     403274

L1D UNIQUE REGIONS ACCESSED: 0
L1D REGIONS CONFLICTS: 0
L1D Cross Page Prefetch Requests: 5876
L1D Same Page Prefetch Requests: 819016
L1D ROI Sum of L1D PQ occupancy: 5106793
L1D PREFETCHES PUSHED FROM L2C: 0
L1I TOTAL     ACCESS:    6901975  HIT:    4159426  MISS:    2742549  HIT %:    60.2643  MISS %:    39.7357   MPKI: 54.851
L1I LOAD INSTRUCTION	ACCESS:    6386763  HIT:    3644214  MISS:    2742549  HIT %:    57.0589  MISS %:    42.9411  MPKI: 54.851
L1I PREFETCH INSTRUCTION	ACCESS:     515212  HIT:     515212  MISS:          0  HIT %:        100  MISS %:          0  MPKI: 0

L1I PREFETCH  REQUESTED:    1183913  ISSUED:    1183913  USEFUL:          0  USELESS:          0
L1I USEFUL LOAD PREFETCHES:          0 PREFETCH ISSUED TO LOWER LEVEL:          0  ACCURACY: -nan
 TIMELY PREFETCHES:          0 LATE PREFETCHES: 0 DROPPED PREFETCHES: 0
L1I AVERAGE MISS LATENCY: 17.725 cycles
L1I RQ	ACCESS:    9470134	FORWARD:          0	MERGED:    2845727	TO_CACHE:    6624407
L1I PQ	ACCESS:    1183913	FORWARD:          0	MERGED:     337286	TO_CACHE:     846627

L1BTB TOTAL     ACCESS:    5681146  HIT:    2078183  MISS:    3602963  HIT %:    36.5803  MISS %:    63.4197   MPKI: 72.0593
L1BTB BRANCH_DIRECT_JUMP	ACCESS:     545086  HIT:     144166  MISS:     400920	AVERAGE STALL: 37.7801
L1BTB BRANCH_INDIRECT	ACCESS:     181892  HIT:      65700  MISS:     116192	AVERAGE STALL: 107.443
L1BTB BRANCH_CONDITIONAL	ACCESS:    2737873  HIT:    1454235  MISS:    1283638	AVERAGE STALL: 40.817
L1BTB BRANCH_DIRECT_CALL	ACCESS:     937390  HIT:     104294  MISS:     833096	AVERAGE STALL: 41.3559
L1BTB BRANCH_INDIRECT_CALL	ACCESS:     170769  HIT:      21331  MISS:     149438	AVERAGE STALL: 116.749
L1BTB BRANCH_RETURN	ACCESS:    1108136  HIT:     288457  MISS:     819679	AVERAGE STALL: 39.2725
L1BTB BRANCH_OTHER ACCESS:          0  HIT:          0  MISS:          0	AVERAGE STALL: -nan
L1BTB TOTAL ROB OCCUPANCY AT BTB MISS: 11.9042

L2BTB1 TOTAL     ACCESS:    3577676  HIT:    3174574  MISS:     403102  HIT %:    88.7329  MISS %:    11.2671   MPKI: 8.06204
L2BTB1 BRANCH_DIRECT_JUMP	ACCESS:     396759  HIT:     360344  MISS:      36415	AVERAGE STALL: 37.7801
L2BTB1 BRANCH_INDIRECT	ACCESS:     105971  HIT:      84141  MISS:      21830	AVERAGE STALL: 107.443
L2BTB1 BRANCH_CONDITIONAL	ACCESS:    1283638  HIT:    1175239  MISS:     108399	AVERAGE STALL: 40.817
L2BTB1 BRANCH_DIRECT_CALL	ACCESS:     833096  HIT:     719733  MISS:     113363	AVERAGE STALL: 41.3559
L2BTB1 BRANCH_INDIRECT_CALL	ACCESS:     139918  HIT:     114974  MISS:      24944	AVERAGE STALL: 116.749
L2BTB1 BRANCH_RETURN	ACCESS:     818294  HIT:     720143  MISS:      98151	AVERAGE STALL: 39.2725
L2BTB1 BRANCH_OTHER ACCESS:          0  HIT:          0  MISS:          0	AVERAGE STALL: -nan
L2BTB1 TOTAL ROB OCCUPANCY AT BTB MISS: 106.401

L2C TOTAL     ACCESS:    4517868  HIT:    3989002  MISS:     528866  HIT %:    88.2939  MISS %:    11.7061   MPKI: 10.5773
L2C LOAD INSTRUCTION	ACCESS:    2742549  HIT:    2441476  MISS:     301073  HIT %:    89.0221  MISS %:    10.9779  MPKI: 6.02146
L2C LOAD TRANSLATION INSTRUCTION	ACCESS:        294  HIT:         72  MISS:        222  HIT %:    24.4898  MISS %:    75.5102  MPKI: 0.00444
L2C LOAD DATA	ACCESS:     751492  HIT:     668765  MISS:      82727  HIT %:    88.9916  MISS %:    11.0084  MPKI: 1.65454
L2C RFO DATA	ACCESS:     289711  HIT:     236986  MISS:      52725  HIT %:    81.8008  MISS %:    18.1992  MPKI: 1.0545
L2C PREFETCH DATA	ACCESS:     206586  HIT:     131885  MISS:      74701  HIT %:    63.8402  MISS %:    36.1598  MPKI: 1.49402
L2C WRITEBACK DATA	ACCESS:     525283  HIT:     509292  MISS:      15991  HIT %:    96.9557  MISS %:    3.04426  MPKI: 0.31982
L2C LOAD TRANSLATION DATA	ACCESS:       1920  HIT:        506  MISS:       1414  HIT %:    26.3542  MISS %:    73.6458  MPKI: 0.02828
L2C TRANSLATION FROM L1D PREFETCHER DATA	ACCESS:         33  HIT:         20  MISS:         13  HIT %:    60.6061  MISS %:    39.3939  MPKI: 0.00026

L2C PREFETCH  REQUESTED:      96183  ISSUED:      96183  USEFUL:       8827  USELESS:      66218
L2C USEFUL LOAD PREFETCHES:       8827 PREFETCH ISSUED TO LOWER LEVEL:      75041  ACCURACY: 11.7629
 TIMELY PREFETCHES:       8827 LATE PREFETCHES: 340 DROPPED PREFETCHES: 0
L2C AVERAGE MISS LATENCY: 37.4537 cycles
L2C RQ	ACCESS:    3786047	FORWARD:          0	MERGED:          0	TO_CACHE:    3786002
L2C WQ	ACCESS:     525283	FORWARD:         45	MERGED:          0	TO_CACHE:     525283
L2C PQ	ACCESS:     213529	FORWARD:          0	MERGED:       3124	TO_CACHE:     210405

L2C Dense regions hint from L2: 0
PSCL5 TOTAL     ACCESS:       4274  HIT:       2137  MISS:       2137  HIT %:         50  MISS %:         50   MPKI: 0.04274
PSCL5 LOAD TRANSLATION INSTRUCTION	ACCESS:       4208  HIT:       2104  MISS:       2104  HIT %:         50  MISS %:         50  MPKI: 0.04208
PSCL5 TRANSLATION FROM L1D PREFETCHER INSTRUCTION	ACCESS:         66  HIT:         33  MISS:         33  HIT %:         50  MISS %:         50  MPKI: 0.00066


PSCL4 TOTAL     ACCESS:       3887  HIT:       1941  MISS:       1946  HIT %:    49.9357  MISS %:    50.0643   MPKI: 0.03892
PSCL4 LOAD TRANSLATION INSTRUCTION	ACCESS:       3042  HIT:       1908  MISS:       1134  HIT %:    62.7219  MISS %:    37.2781  MPKI: 0.02268
PSCL4 TRANSLATION FROM L1D PREFETCHER INSTRUCTION	ACCESS:         54  HIT:         33  MISS:         21  HIT %:    61.1111  MISS %:    38.8889  MPKI: 0.00042
PSCL4 LOAD TRANSLATION DATA	ACCESS:        779  HIT:          0  MISS:        779  HIT %:          0  MISS %:        100  MPKI: 0.01558
PSCL4 TRANSLATION FROM L1D PREFETCHER DATA	ACCESS:         12  HIT:          0  MISS:         12  HIT %:          0  MISS %:        100  MPKI: 0.00024


PSCL3 TOTAL     ACCESS:       4144  HIT:       2067  MISS:       2077  HIT %:    49.8793  MISS %:    50.1207   MPKI: 0.04154
PSCL3 LOAD TRANSLATION INSTRUCTION	ACCESS:       2150  HIT:       2035  MISS:        115  HIT %:    94.6512  MISS %:    5.34884  MPKI: 0.0023
PSCL3 TRANSLATION FROM L1D PREFETCHER INSTRUCTION	ACCESS:         32  HIT:         32  MISS:          0  HIT %:        100  MISS %:          0  MPKI: 0
PSCL3 LOAD TRANSLATION DATA	ACCESS:       1930  HIT:          0  MISS:       1930  HIT %:          0  MISS %:        100  MPKI: 0.0386
PSCL3 TRANSLATION FROM L1D PREFETCHER DATA	ACCESS:         32  HIT:          0  MISS:         32  HIT %:          0  MISS %:        100  MPKI: 0.00064


PSCL2 TOTAL     ACCESS:       4178  HIT:       2041  MISS:       2137  HIT %:    48.8511  MISS %:    51.1489   MPKI: 0.04274
PSCL2 LOAD TRANSLATION INSTRUCTION	ACCESS:       2268  HIT:       2008  MISS:        260  HIT %:    88.5362  MISS %:    11.4638  MPKI: 0.0052
PSCL2 TRANSLATION FROM L1D PREFETCHER INSTRUCTION	ACCESS:         33  HIT:         33  MISS:          0  HIT %:        100  MISS %:          0  MPKI: 0
PSCL2 LOAD TRANSLATION DATA	ACCESS:       1844  HIT:          0  MISS:       1844  HIT %:          0  MISS %:        100  MPKI: 0.03688
PSCL2 TRANSLATION FROM L1D PREFETCHER DATA	ACCESS:         33  HIT:          0  MISS:         33  HIT %:          0  MISS %:        100  MPKI: 0.00066


LLC TOTAL     ACCESS:     591352  HIT:     563207  MISS:      28145  HIT %:    95.2406  MISS %:    4.75943   MPKI: 0.5629
LLC LOAD INSTRUCTION	ACCESS:     301073  HIT:     300264  MISS:        809  HIT %:    99.7313  MISS %:   0.268706  MPKI: 0.01618
LLC LOAD TRANSLATION INSTRUCTION	ACCESS:        222  HIT:        191  MISS:         31  HIT %:     86.036  MISS %:     13.964  MPKI: 0.00062
LLC LOAD DATA	ACCESS:      82417  HIT:      78877  MISS:       3540  HIT %:    95.7048  MISS %:    4.29523  MPKI: 0.0708
LLC RFO DATA	ACCESS:      52675  HIT:      39298  MISS:      13377  HIT %:    74.6047  MISS %:    25.3953  MPKI: 0.26754
LLC PREFETCH DATA	ACCESS:      75041  HIT:      65018  MISS:      10023  HIT %:    86.6433  MISS %:    13.3567  MPKI: 0.20046
LLC WRITEBACK DATA	ACCESS:      78497  HIT:      78194  MISS:        303  HIT %:     99.614  MISS %:   0.386002  MPKI: 0.00606
LLC LOAD TRANSLATION DATA	ACCESS:       1414  HIT:       1352  MISS:         62  HIT %:    95.6153  MISS %:    4.38472  MPKI: 0.00124
LLC TRANSLATION FROM L1D PREFETCHER DATA	ACCESS:         13  HIT:         13  MISS:          0  HIT %:        100  MISS %:          0  MPKI: 0

LLC AVERAGE MISS LATENCY: 155.883 cycles
LLC RQ	ACCESS:     437834	FORWARD:          0	MERGED:          0	TO_CACHE:     437814
LLC WQ	ACCESS:      78497	FORWARD:         20	MERGED:          0	TO_CACHE:      78497
LLC PQ	ACCESS:      75041	FORWARD:          0	MERGED:          0	TO_CACHE:      75041

LLC Dense regions hint to LLC: 0

RAW hits: 1782288
Loads Generated: 12604088
Loads sent to L1D: 10821800
Stores Generated: 6901384
Stores sent to L1D: 6901403
Major fault: 0 Minor fault: 2600
Allocated PAGES: 2600

stream: 
stream:times selected: 1260052
stream:pref_filled: 126791
stream:pref_useful: 28534
stream:pref_late: 9466
stream:misses: 10892
stream:misses_by_poll: 0

CS: 
CS:times selected: 198735
CS:pref_filled: 75325
CS:pref_useful: 51527
CS:pref_late: 8976
CS:misses: 23483
CS:misses_by_poll: 2

CPLX: 
CPLX:times selected: 1060279
CPLX:pref_filled: 24700
CPLX:pref_useful: 7710
CPLX:pref_late: 4125
CPLX:misses: 131037
CPLX:misses_by_poll: 1

NL_L1: 
NL:times selected: 12711
NL:pref_filled: 1158
NL:pref_useful: 326
NL:pref_late: 451
NL:misses: 2055
NL:misses_by_poll: 0

total selections: 2531777
total_filled: 104599
total_useful: 47277
total_late: 25267
total_polluted: 3
total_misses_after_warmup: 798222
conflicts: 5569645

test: 119876

DRAM Statistics
 CHANNEL 0
 RQ ROW_BUFFER_HIT:      10191  ROW_BUFFER_MISS:      17650
 DBUS_CONGESTED:         14
 WQ ROW_BUFFER_HIT:       1403  ROW_BUFFER_MISS:      12456  FULL:          0

 AVG_CONGESTED_CYCLE: 5

CPU 0 Branch Prediction Accuracy: 99.8227% MPKI: 0.3247 Average ROB Occupancy at Mispredict: 151.658
Branch types
NOT_BRANCH: 40841973 81.6839%
BRANCH_DIRECT_JUMP: 545086 1.09017%
BRANCH_INDIRECT: 181892 0.363784%
BRANCH_CONDITIONAL: 6214598 12.4292%
BRANCH_DIRECT_CALL: 937390 1.87478%
BRANCH_INDIRECT_CALL: 170769 0.341538%
BRANCH_RETURN: 1108136 2.21627%
BRANCH_OTHER: 0 0%

DRAM PAGES: 1048576
Allocated PAGES: 2600
Average_ROB_Occupancy: 132.658
Average_Decode_Occupancy: 16.4304
Average_FTQ_Occupancy: 7.57728
Indirect max targets: 14 Average targets: 1.14478
Branch_type:  BRANCH_DIRECT_JUMP:  Count Percentage: 3.32705 6.00621 4.2378 7.9044 3.31511 6.01944 1.18464 68.0054 
Branch_type:  BRANCH_INDIRECT:  Count Percentage: 6.14169 3.48153 8.18425 9.67574 3.33826 2.80288 3.06906 63.3066 
Branch_type:  BRANCH_CONDITIONAL:  Count Percentage: 26.0831 2.72406 1.6215 4.56803 2.01565 3.53613 0.919638 58.5319 
Branch_type:  BRANCH_DIRECT_CALL:  Count Percentage: 0.847596 1.23517 0.745457 3.7102 3.21163 2.62085 0.834622 86.7945 
Branch_type:  BRANCH_INDIRECT_CALL:  Count Percentage: 9.5113 0 2.98331 0 1.28367 1.70462 3.28056 81.2365 
Branch_type:  BRANCH_RETURN:  Count Percentage: 8.21507 1.23954 1.20248 3.67014 4.41065 3.49654 1.25485 76.5107 
Branch_type:  BRANCH_DIRECT_JUMP:  Total Count: 36224 65394 46140 86061 36094 65538 12898 740424 
Branch_type:  BRANCH_INDIRECT:  Total Count: 22335 12661 29763 35187 12140 10193 11161 230222 
Branch_type:  BRANCH_CONDITIONAL:  Total Count: 3239237 338298 201372 567300 250322 439149 114209 7269022 
Branch_type:  BRANCH_DIRECT_CALL:  Total Count: 15875 23134 13962 69490 60152 49087 15632 1625612 
Branch_type:  BRANCH_INDIRECT_CALL:  Total Count: 32446 0 10177 0 4379 5815 11191 277123 
Branch_type:  BRANCH_RETURN:  Total Count: 181951 27454 26633 81288 97689 77443 27793 1694594 
Number of unique branch instructions: 10054
Upper 32 bits: 
aaaa
ffff
ffff0000
Unique upper 32 bits: 3
Unique upper 36 bits: 3
Unique upper 40 bits: 5
Unique upper 44 bits: 32
Unique upper 48 bits: 157
Offset_3 4136
Offset_4 251
Offset_5 460
Offset_6 515
Offset_7 583
Offset_8 514
Offset_9 482
Offset_10 381
Offset_11 314
Offset_12 272
Offset_13 215
Offset_14 229
Offset_15 192
Offset_16 224
Offset_17 151
Offset_18 126
Offset_19 240
Offset_20 140
Offset_21 241
Offset_22 397
Offset_23 241
Offset_24 333
Offset_25 88
Offset_47 82
Offset_64 1
decode_dispatch_called: 20182242 46.5728
Dispatch_width: 0 10039034 49.7419 23.1662
Dispatch_width: 1 533469 2.64326 1.23104
Dispatch_width: 2 667905 3.30937 1.54127
Dispatch_width: 3 413273 2.04771 0.953674
Dispatch_width: 4 1998262 9.90109 4.61122
Dispatch_width: 5 283999 1.40717 0.65536
Dispatch_width: 6 6246300 30.9495 14.414
Empty_decode_cycles: 23152576 53.4272
ROB_full_cycles: 2790342 6.43903
Starvation_cycles_per_kilo_instr: 342.982
Starvation_cycles_per_kilo_instr_3: 320.159
Starvation_cycles_per_kilo_instr_0: 304.013
Branch_type_1  (3,1)  (4,9)  (5,37)  (6,71)  (7,114)  (8,130)  (9,127)  (10,99)  (11,70)  (12,43)  (13,5)  (14,2)  (15,3)  (16,4)  (18,1)  (19,4)  (20,2)  (21,1)  (22,3)  (23,2)  (24,10)  (25,12) 
Branch_type_2  (3,1)  (5,1)  (8,3)  (9,3)  (12,1)  (13,1)  (14,1)  (16,3)  (17,2)  (20,2)  (21,2)  (23,5)  (24,1)  (47,38) 
Branch_type_3  (3,4134)  (4,242)  (5,418)  (6,429)  (7,440)  (8,320)  (9,267)  (10,156)  (11,127)  (12,50)  (13,4)  (64,1) 
Branch_type_4  (6,3)  (7,8)  (8,25)  (9,52)  (10,60)  (11,59)  (12,97)  (13,95)  (14,101)  (15,90)  (16,100)  (17,67)  (18,57)  (19,118)  (20,73)  (21,127)  (22,211)  (23,136)  (24,194)  (25,72) 
Branch_type_5  (8,2)  (9,1)  (10,3)  (11,5)  (12,3)  (13,14)  (14,16)  (15,11)  (16,20)  (17,12)  (18,16)  (19,12)  (20,10)  (21,13)  (22,42)  (23,26)  (24,37) 
Branch_type_6  (5,4)  (6,12)  (7,21)  (8,34)  (9,32)  (10,63)  (11,53)  (12,78)  (13,96)  (14,109)  (15,88)  (16,97)  (17,70)  (18,52)  (19,106)  (20,53)  (21,98)  (22,141)  (23,72)  (24,91)  (25,4)  (47,44) 
Unique trigger count: 
L2BTB1 768 4
L2BTB2 768 4
L2BTB3 768 4
L2BTB4 112 4
