
*** ChampSim Multicore Out-of-Order Simulator ***

Warmup Instructions: 50000000
Simulation Instructions: 50000000
Number of CPUs: 1
LLC sets: 2048
LLC ways: 16
Off-chip DRAM Size: 4096 MB Channels: 1 Width: 64-bit Data Rate: 6400 MT/s
CPU 0 runs ./micro_traces/srv559.trace.gz
.gz
ITLB has LRU replacement policy
DTLB has LRU replacement policy
STLB has LRU replacement policy
FDIP Prefetcher at L1I
L1I has LRU replacement policy
L1D has LRU replacement policy
Initialize SRRIP state for L2C
Initialize DRRIP state for LLC
Heartbeat_Variant_0 : 628 0.306641 per_variant_size: 0 628 0 0 0 0 0 0 0 
Heartbeat_Variant_1 : 1420 0.693359 per_variant_size: 0 149 1271 0 0 0 0 0 0 
Heartbeat_Variant_2 : 0 0 per_variant_size: 0 0 0 0 0 0 0 0 0 
Heartbeat_Variant_3 : 0 0 per_variant_size: 0 0 0 0 0 0 0 0 0 
Heartbeat_Variant_0_evicts 0 : 30393 1 : 59005 2 : 0 3 : 0 
Heartbeat_Variant_1_evicts 0 : 59033 1 : 0 2 : 0 3 : 0 
Heartbeat_Variant_2_evicts 0 : 0 1 : 0 2 : 0 3 : 0 
Heartbeat_Variant_3_evicts 0 : 0 1 : 0 2 : 0 3 : 0 
Heartbeat CPU 0 instructions: 10000001 cycles: 2798582 heartbeat IPC: 3.57324 cumulative IPC: 3.57324 (Simulation time: 0 hr 2 min 18 sec) 
Heartbeat_Variant_0 : 655 0.319824 per_variant_size: 0 655 0 0 0 0 0 0 0 
Heartbeat_Variant_1 : 1393 0.680176 per_variant_size: 0 122 1271 0 0 0 0 0 0 
Heartbeat_Variant_2 : 0 0 per_variant_size: 0 0 0 0 0 0 0 0 0 
Heartbeat_Variant_3 : 0 0 per_variant_size: 0 0 0 0 0 0 0 0 0 
Heartbeat_Variant_0_evicts 0 : 31028 1 : 59860 2 : 0 3 : 0 
Heartbeat_Variant_1_evicts 0 : 59833 1 : 0 2 : 0 3 : 0 
Heartbeat_Variant_2_evicts 0 : 0 1 : 0 2 : 0 3 : 0 
Heartbeat_Variant_3_evicts 0 : 0 1 : 0 2 : 0 3 : 0 
Heartbeat CPU 0 instructions: 20000003 cycles: 5596225 heartbeat IPC: 3.57444 cumulative IPC: 3.57384 (Simulation time: 0 hr 4 min 30 sec) 
Heartbeat_Variant_0 : 664 0.324219 per_variant_size: 0 664 0 0 0 0 0 0 0 
Heartbeat_Variant_1 : 1384 0.675781 per_variant_size: 0 138 1246 0 0 0 0 0 0 
Heartbeat_Variant_2 : 0 0 per_variant_size: 0 0 0 0 0 0 0 0 0 
Heartbeat_Variant_3 : 0 0 per_variant_size: 0 0 0 0 0 0 0 0 0 
Heartbeat_Variant_0_evicts 0 : 30892 1 : 59763 2 : 0 3 : 0 
Heartbeat_Variant_1_evicts 0 : 59754 1 : 0 2 : 0 3 : 0 
Heartbeat_Variant_2_evicts 0 : 0 1 : 0 2 : 0 3 : 0 
Heartbeat_Variant_3_evicts 0 : 0 1 : 0 2 : 0 3 : 0 
Heartbeat CPU 0 instructions: 30000003 cycles: 8394072 heartbeat IPC: 3.57418 cumulative IPC: 3.57395 (Simulation time: 0 hr 6 min 53 sec) 
Heartbeat_Variant_0 : 576 0.28125 per_variant_size: 0 576 0 0 0 0 0 0 0 
Heartbeat_Variant_1 : 1472 0.71875 per_variant_size: 0 139 1333 0 0 0 0 0 0 
Heartbeat_Variant_2 : 0 0 per_variant_size: 0 0 0 0 0 0 0 0 0 
Heartbeat_Variant_3 : 0 0 per_variant_size: 0 0 0 0 0 0 0 0 0 
Heartbeat_Variant_0_evicts 0 : 30876 1 : 59350 2 : 0 3 : 0 
Heartbeat_Variant_1_evicts 0 : 59438 1 : 0 2 : 0 3 : 0 
Heartbeat_Variant_2_evicts 0 : 0 1 : 0 2 : 0 3 : 0 
Heartbeat_Variant_3_evicts 0 : 0 1 : 0 2 : 0 3 : 0 
Heartbeat CPU 0 instructions: 40000002 cycles: 11191647 heartbeat IPC: 3.57452 cumulative IPC: 3.57409 (Simulation time: 0 hr 9 min 7 sec) 
Heartbeat_Variant_0 : 589 0.287598 per_variant_size: 0 589 0 0 0 0 0 0 0 
Heartbeat_Variant_1 : 1459 0.712402 per_variant_size: 0 126 1333 0 0 0 0 0 0 
Heartbeat_Variant_2 : 0 0 per_variant_size: 0 0 0 0 0 0 0 0 0 
Heartbeat_Variant_3 : 0 0 per_variant_size: 0 0 0 0 0 0 0 0 0 
Heartbeat_Variant_0_evicts 0 : 30889 1 : 59008 2 : 0 3 : 0 
Heartbeat_Variant_1_evicts 0 : 58995 1 : 0 2 : 0 3 : 0 
Heartbeat_Variant_2_evicts 0 : 0 1 : 0 2 : 0 3 : 0 
Heartbeat_Variant_3_evicts 0 : 0 1 : 0 2 : 0 3 : 0 
Heartbeat CPU 0 instructions: 50000003 cycles: 13988990 heartbeat IPC: 3.57482 cumulative IPC: 3.57424 (Simulation time: 0 hr 11 min 31 sec) 

Warmup complete CPU 0 instructions: 50000003 cycles: 13988990 (Simulation time: 0 hr 11 min 31 sec) 

Cycle: 20000000 FTQ IN: 54501286 FTQ occupancy: 17.1146 DECODE IN: 54501286 DECODE occupancy: 43.8998 ROB IN: 54501286 ROB occupancy: 260.523 ROB OUT: 54501199
Heartbeat_Variant_0 : 619 0.302246 per_variant_size: 0 619 0 0 0 0 0 0 0 
Heartbeat_Variant_1 : 1429 0.697754 per_variant_size: 0 119 1310 0 0 0 0 0 0 
Heartbeat_Variant_2 : 0 0 per_variant_size: 0 0 0 0 0 0 0 0 0 
Heartbeat_Variant_3 : 0 0 per_variant_size: 0 0 0 0 0 0 0 0 0 
Heartbeat_Variant_0_evicts 0 : 31038 1 : 59785 2 : 0 3 : 0 
Heartbeat_Variant_1_evicts 0 : 59755 1 : 0 2 : 0 3 : 0 
Heartbeat_Variant_2_evicts 0 : 0 1 : 0 2 : 0 3 : 0 
Heartbeat_Variant_3_evicts 0 : 0 1 : 0 2 : 0 3 : 0 
Heartbeat CPU 0 instructions: 60000001 cycles: 27541258 heartbeat IPC: 0.737884 cumulative IPC: 0.737884 (Simulation time: 0 hr 13 min 13 sec) 
Cycle: 30000000 FTQ IN: 7307433 FTQ occupancy: 3.57734 DECODE IN: 7307433 DECODE occupancy: 6.64167 ROB IN: 7307417 ROB occupancy: 56.9439 ROB OUT: 7307410
Cycle: 40000000 FTQ IN: 7337012 FTQ occupancy: 3.47333 DECODE IN: 7337010 DECODE occupancy: 6.41348 ROB IN: 7337026 ROB occupancy: 55.9416 ROB OUT: 7337055
Heartbeat_Variant_0 : 595 0.290527 per_variant_size: 0 595 0 0 0 0 0 0 0 
Heartbeat_Variant_1 : 1453 0.709473 per_variant_size: 0 152 1301 0 0 0 0 0 0 
Heartbeat_Variant_2 : 0 0 per_variant_size: 0 0 0 0 0 0 0 0 0 
Heartbeat_Variant_3 : 0 0 per_variant_size: 0 0 0 0 0 0 0 0 0 
Heartbeat_Variant_0_evicts 0 : 31165 1 : 59950 2 : 0 3 : 0 
Heartbeat_Variant_1_evicts 0 : 59974 1 : 0 2 : 0 3 : 0 
Heartbeat_Variant_2_evicts 0 : 0 1 : 0 2 : 0 3 : 0 
Heartbeat_Variant_3_evicts 0 : 0 1 : 0 2 : 0 3 : 0 
Heartbeat CPU 0 instructions: 70000002 cycles: 41165577 heartbeat IPC: 0.733982 cumulative IPC: 0.735928 (Simulation time: 0 hr 14 min 55 sec) 
Cycle: 50000000 FTQ IN: 7421772 FTQ occupancy: 3.46403 DECODE IN: 7421736 DECODE occupancy: 6.46304 ROB IN: 7421722 ROB occupancy: 55.6863 ROB OUT: 7421776
Heartbeat_Variant_0 : 643 0.313965 per_variant_size: 0 643 0 0 0 0 0 0 0 
Heartbeat_Variant_1 : 1405 0.686035 per_variant_size: 0 128 1277 0 0 0 0 0 0 
Heartbeat_Variant_2 : 0 0 per_variant_size: 0 0 0 0 0 0 0 0 0 
Heartbeat_Variant_3 : 0 0 per_variant_size: 0 0 0 0 0 0 0 0 0 
Heartbeat_Variant_0_evicts 0 : 31612 1 : 60166 2 : 0 3 : 0 
Heartbeat_Variant_1_evicts 0 : 60118 1 : 0 2 : 0 3 : 0 
Heartbeat_Variant_2_evicts 0 : 0 1 : 0 2 : 0 3 : 0 
Heartbeat_Variant_3_evicts 0 : 0 1 : 0 2 : 0 3 : 0 
Heartbeat CPU 0 instructions: 80000001 cycles: 54589042 heartbeat IPC: 0.744964 cumulative IPC: 0.738915 (Simulation time: 0 hr 16 min 47 sec) 
Cycle: 60000000 FTQ IN: 7489554 FTQ occupancy: 3.45798 DECODE IN: 7489592 DECODE occupancy: 6.42027 ROB IN: 7489588 ROB occupancy: 56.6041 ROB OUT: 7489595
Heartbeat_Variant_0 : 603 0.294434 per_variant_size: 0 603 0 0 0 0 0 0 0 
Heartbeat_Variant_1 : 1445 0.705566 per_variant_size: 0 150 1295 0 0 0 0 0 0 
Heartbeat_Variant_2 : 0 0 per_variant_size: 0 0 0 0 0 0 0 0 0 
Heartbeat_Variant_3 : 0 0 per_variant_size: 0 0 0 0 0 0 0 0 0 
Heartbeat_Variant_0_evicts 0 : 31053 1 : 58961 2 : 0 3 : 0 
Heartbeat_Variant_1_evicts 0 : 59001 1 : 0 2 : 0 3 : 0 
Heartbeat_Variant_2_evicts 0 : 0 1 : 0 2 : 0 3 : 0 
Heartbeat_Variant_3_evicts 0 : 0 1 : 0 2 : 0 3 : 0 
Heartbeat CPU 0 instructions: 90000001 cycles: 68065385 heartbeat IPC: 0.742041 cumulative IPC: 0.739694 (Simulation time: 0 hr 18 min 44 sec) 
Cycle: 70000000 FTQ IN: 7381011 FTQ occupancy: 3.60888 DECODE IN: 7381011 DECODE occupancy: 6.70505 ROB IN: 7381029 ROB occupancy: 57.5028 ROB OUT: 7381012
Cycle: 80000000 FTQ IN: 7529248 FTQ occupancy: 3.48353 DECODE IN: 7529245 DECODE occupancy: 6.44829 ROB IN: 7529245 ROB occupancy: 56.4586 ROB OUT: 7529253
Heartbeat_Variant_0 : 629 0.307129 per_variant_size: 0 629 0 0 0 0 0 0 0 
Heartbeat_Variant_1 : 1419 0.692871 per_variant_size: 0 138 1281 0 0 0 0 0 0 
Heartbeat_Variant_2 : 0 0 per_variant_size: 0 0 0 0 0 0 0 0 0 
Heartbeat_Variant_3 : 0 0 per_variant_size: 0 0 0 0 0 0 0 0 0 
Heartbeat_Variant_0_evicts 0 : 30779 1 : 59832 2 : 0 3 : 0 
Heartbeat_Variant_1_evicts 0 : 59806 1 : 0 2 : 0 3 : 0 
Heartbeat_Variant_2_evicts 0 : 0 1 : 0 2 : 0 3 : 0 
Heartbeat_Variant_3_evicts 0 : 0 1 : 0 2 : 0 3 : 0 
Heartbeat CPU 0 instructions: 100000001 cycles: 81389834 heartbeat IPC: 0.7505 cumulative IPC: 0.74183 (Simulation time: 0 hr 20 min 8 sec) 
Finished CPU 0 instructions: 50000002 cycles: 67400845 cumulative IPC: 0.74183 (Simulation time: 0 hr 20 min 8 sec) 

ChampSim completed all CPUs

Region of Interest Statistics

CPU 0 cumulative IPC: 0.74183 instructions: 50000002 cycles: 67400845
 Fetch stage stalled: 82.1007  Sim cycles: 67400845 fetch stall cycle: 55336600
 Empty decode stage: 67.5448  Sim cycles: 67400845 fetch stall cycle: 45525792
ITLB TOTAL     ACCESS:    5668100  HIT:    5175307  MISS:     492793  HIT %:    91.3059  MISS %:    8.69415   MPKI: 9.85586
ITLB LOAD TRANSLATION INSTRUCTION	ACCESS:    5593962  HIT:    5101169  MISS:     492793  HIT %:    91.1906  MISS %:    8.80937  MPKI: 9.85586
ITLB TRANSLATION FROM L1D PREFETCHER INSTRUCTION	ACCESS:      74138  HIT:      74138  MISS:          0  HIT %:        100  MISS %:          0  MPKI: 0

ITLB AVERAGE MISS LATENCY: 9.04495 cycles
ITLB RQ	ACCESS:    7140437	FORWARD:          0	MERGED:    1040257	TO_CACHE:    6100180

DTLB TOTAL     ACCESS:   10070393  HIT:    9594299  MISS:     476094  HIT %:    95.2723  MISS %:    4.72766   MPKI: 9.52188
DTLB LOAD TRANSLATION DATA	ACCESS:   10070393  HIT:    9594299  MISS:     476094  HIT %:    95.2723  MISS %:    4.72766  MPKI: 9.52188

DTLB AVERAGE MISS LATENCY: 9.33974 cycles
DTLB RQ	ACCESS:   14134754	FORWARD:          0	MERGED:    4036798	TO_CACHE:   10097956

STLB TOTAL     ACCESS:    1219509  HIT:    1217304  MISS:       2205  HIT %:    99.8192  MISS %:    0.18081   MPKI: 0.0441
STLB LOAD TRANSLATION INSTRUCTION	ACCESS:     492793  HIT:     492519  MISS:        274  HIT %:    99.9444  MISS %:  0.0556014  MPKI: 0.00548
STLB LOAD TRANSLATION DATA	ACCESS:     475756  HIT:     473838  MISS:       1918  HIT %:    99.5969  MISS %:   0.403148  MPKI: 0.03836
STLB TRANSLATION FROM L1D PREFETCHER DATA	ACCESS:     250960  HIT:     250947  MISS:         13  HIT %:    99.9948  MISS %: 0.00518011  MPKI: 0.00026

STLB AVERAGE MISS LATENCY: 75.176 cycles
STLB RQ	ACCESS:    1342919	FORWARD:          0	MERGED:     123360	TO_CACHE:    1219559

STLB Hit, L1D data hit: 0
STLB Hit, L2C data hit: 0
STLB Hit, LLC data hit: 0
STLB Hit, LLC data miss: 0
STLB STLB hints to L2: 0
L1D TOTAL     ACCESS:   13937930  HIT:   12824734  MISS:    1113196  HIT %:    92.0132  MISS %:    7.98681   MPKI: 22.2639
L1D LOAD DATA	ACCESS:    7301240  HIT:    6569420  MISS:     731820  HIT %:    89.9768  MISS %:    10.0232  MPKI: 14.6364
L1D RFO DATA	ACCESS:    6303046  HIT:    6016091  MISS:     286955  HIT %:    95.4474  MISS %:    4.55264  MPKI: 5.7391
L1D PREFETCH DATA	ACCESS:     333644  HIT:     239223  MISS:      94421  HIT %:    71.7001  MISS %:    28.2999  MPKI: 1.88842

L1D PREFETCH  REQUESTED:     748230  ISSUED:     748230  USEFUL:      33584  USELESS:      68345
L1D USEFUL LOAD PREFETCHES:      33584 PREFETCH ISSUED TO LOWER LEVEL:     101988  ACCURACY: 32.9294
 TIMELY PREFETCHES:      33584 LATE PREFETCHES: 7534 DROPPED PREFETCHES: 4
L1D AVERAGE MISS LATENCY: 316918 cycles
L1D RQ	ACCESS:   11275286	FORWARD:          0	MERGED:    3785570	TO_CACHE:    7326792
L1D WQ	ACCESS:    6943304	FORWARD:     163090	MERGED:     135342	TO_CACHE:    6807962
L1D PQ	ACCESS:     374198	FORWARD:          0	MERGED:          0	TO_CACHE:     374032

L1D UNIQUE REGIONS ACCESSED: 0
L1D REGIONS CONFLICTS: 0
L1D Cross Page Prefetch Requests: 6836
L1D Same Page Prefetch Requests: 755771
L1D ROI Sum of L1D PQ occupancy: 4753904
L1D PREFETCHES PUSHED FROM L2C: 0
L1I TOTAL     ACCESS:    7003151  HIT:    4246373  MISS:    2756778  HIT %:    60.6352  MISS %:    39.3648   MPKI: 55.1356
L1I LOAD INSTRUCTION	ACCESS:    6687598  HIT:    3930820  MISS:    2756778  HIT %:    58.7778  MISS %:    41.2222  MPKI: 55.1356
L1I PREFETCH INSTRUCTION	ACCESS:     315553  HIT:     315553  MISS:          0  HIT %:        100  MISS %:          0  MPKI: 0

L1I PREFETCH  REQUESTED:     549244  ISSUED:     549244  USEFUL:          0  USELESS:          0
L1I USEFUL LOAD PREFETCHES:          0 PREFETCH ISSUED TO LOWER LEVEL:          0  ACCURACY: -nan
 TIMELY PREFETCHES:          0 LATE PREFETCHES: 0 DROPPED PREFETCHES: 0
L1I AVERAGE MISS LATENCY: 16.976 cycles
L1I RQ	ACCESS:    9450575	FORWARD:          0	MERGED:    2686223	TO_CACHE:    6764352
L1I PQ	ACCESS:     549244	FORWARD:          0	MERGED:     173159	TO_CACHE:     376085

L1BTB TOTAL     ACCESS:    5671121  HIT:    2049946  MISS:    3621175  HIT %:    36.1471  MISS %:    63.8529   MPKI: 72.4235
L1BTB BRANCH_DIRECT_JUMP	ACCESS:     548608 HIT:     145735 MISS:     402873 AVERAGE STALL: 27.7915 AVERAGE FETCH STALL: 18.8975 AVERAGE FETCH QUEUE STALL: 2.95166 AVERAGE DECODE STALL: 5.09613 AVERAGE EXECUTE STALL: 1.0984e+14
L1BTB BRANCH_INDIRECT	ACCESS:     183227 HIT:      66277 MISS:     116950 AVERAGE STALL: 67.5639 AVERAGE FETCH STALL: 16.5146 AVERAGE FETCH QUEUE STALL: 3.50765 AVERAGE DECODE STALL: 5.02294 AVERAGE EXECUTE STALL: 41.5747
L1BTB BRANCH_CONDITIONAL	ACCESS:    2707644 HIT:    1418490 MISS:    1289154 AVERAGE STALL: 28.4798 AVERAGE FETCH STALL: 20.0624 AVERAGE FETCH QUEUE STALL: 2.59289 AVERAGE DECODE STALL: 5.078 AVERAGE EXECUTE STALL: 3.60195e+13
L1BTB BRANCH_DIRECT_CALL	ACCESS:     944369 HIT:     106670 MISS:     837699 AVERAGE STALL: 29.4009 AVERAGE FETCH STALL: 20.734 AVERAGE FETCH QUEUE STALL: 2.70664 AVERAGE DECODE STALL: 5.20692 AVERAGE EXECUTE STALL: 3.97648e+13
L1BTB BRANCH_INDIRECT_CALL	ACCESS:     171449 HIT:      21395 MISS:     150054 AVERAGE STALL: 88.5748 AVERAGE FETCH STALL: 18.6784 AVERAGE FETCH QUEUE STALL: 2.52575 AVERAGE DECODE STALL: 5.28526 AVERAGE EXECUTE STALL: 61.5257
L1BTB BRANCH_RETURN	ACCESS:    1115824 HIT:     291379 MISS:     824445 AVERAGE STALL: 28.8801 AVERAGE FETCH STALL: 18.5215 AVERAGE FETCH QUEUE STALL: 2.79299 AVERAGE DECODE STALL: 5.24648 AVERAGE EXECUTE STALL: 6.2044e+13
L1BTB BRANCH_OTHER ACCESS:          0 HIT:          0 MISS:          0 AVERAGE STALL: -nan AVERAGE FETCH STALL: -nan AVERAGE FETCH QUEUE STALL: -nan AVERAGE DECODE STALL: -nan AVERAGE EXECUTE STALL: -nan
L1BTB TOTAL ROB OCCUPANCY AT BTB MISS: 20.2551

L2BTB TOTAL     ACCESS:    3595783  HIT:    2054330  MISS:    1541453  HIT %:    57.1316  MISS %:    42.8684   MPKI: 30.8291
L2BTB BRANCH_DIRECT_JUMP	ACCESS:     398712 HIT:     234849 MISS:     163863 AVERAGE STALL: 27.7915 AVERAGE FETCH STALL: 18.8975 AVERAGE FETCH QUEUE STALL: 2.95166 AVERAGE DECODE STALL: 5.09613 AVERAGE EXECUTE STALL: 1.0984e+14
L2BTB BRANCH_INDIRECT	ACCESS:     106650 HIT:      82555 MISS:      24095 AVERAGE STALL: 67.5639 AVERAGE FETCH STALL: 16.5146 AVERAGE FETCH QUEUE STALL: 3.50765 AVERAGE DECODE STALL: 5.02294 AVERAGE EXECUTE STALL: 41.5747
L2BTB BRANCH_CONDITIONAL	ACCESS:    1289154 HIT:     774714 MISS:     514440 AVERAGE STALL: 28.4798 AVERAGE FETCH STALL: 20.0624 AVERAGE FETCH QUEUE STALL: 2.59289 AVERAGE DECODE STALL: 5.078 AVERAGE EXECUTE STALL: 3.60195e+13
L2BTB BRANCH_DIRECT_CALL	ACCESS:     837699 HIT:     373655 MISS:     464044 AVERAGE STALL: 29.4009 AVERAGE FETCH STALL: 20.734 AVERAGE FETCH QUEUE STALL: 2.70664 AVERAGE DECODE STALL: 5.20692 AVERAGE EXECUTE STALL: 3.97648e+13
L2BTB BRANCH_INDIRECT_CALL	ACCESS:     140525 HIT:      61552 MISS:      78973 AVERAGE STALL: 88.5748 AVERAGE FETCH STALL: 18.6784 AVERAGE FETCH QUEUE STALL: 2.52575 AVERAGE DECODE STALL: 5.28526 AVERAGE EXECUTE STALL: 61.5257
L2BTB BRANCH_RETURN	ACCESS:     823043 HIT:     527005 MISS:     296038 AVERAGE STALL: 28.8801 AVERAGE FETCH STALL: 18.5215 AVERAGE FETCH QUEUE STALL: 2.79299 AVERAGE DECODE STALL: 5.24648 AVERAGE EXECUTE STALL: 6.2044e+13
L2BTB BRANCH_OTHER ACCESS:          0 HIT:          0 MISS:          0 AVERAGE STALL: -nan AVERAGE FETCH STALL: -nan AVERAGE FETCH QUEUE STALL: -nan AVERAGE DECODE STALL: -nan AVERAGE EXECUTE STALL: -nan
L2BTB TOTAL ROB OCCUPANCY AT BTB MISS: 47.5832

L2C TOTAL     ACCESS:    4471797  HIT:    4028417  MISS:     443380  HIT %:     90.085  MISS %:    9.91503   MPKI: 8.8676
L2C LOAD INSTRUCTION	ACCESS:    2756778  HIT:    2518896  MISS:     237882  HIT %:     91.371  MISS %:    8.62899  MPKI: 4.75764
L2C LOAD TRANSLATION INSTRUCTION	ACCESS:        320  HIT:         84  MISS:        236  HIT %:      26.25  MISS %:      73.75  MPKI: 0.00472
L2C LOAD DATA	ACCESS:     724266  HIT:     655469  MISS:      68797  HIT %:    90.5011  MISS %:    9.49886  MPKI: 1.37594
L2C RFO DATA	ACCESS:     286917  HIT:     234948  MISS:      51969  HIT %:    81.8871  MISS %:    18.1129  MPKI: 1.03938
L2C PREFETCH DATA	ACCESS:     181423  HIT:     110501  MISS:      70922  HIT %:    60.9079  MISS %:    39.0921  MPKI: 1.41844
L2C WRITEBACK DATA	ACCESS:     520064  HIT:     507841  MISS:      12223  HIT %:    97.6497  MISS %:    2.35029  MPKI: 0.24446
L2C LOAD TRANSLATION DATA	ACCESS:       1991  HIT:        659  MISS:       1332  HIT %:    33.0989  MISS %:    66.9011  MPKI: 0.02664
L2C TRANSLATION FROM L1D PREFETCHER DATA	ACCESS:         38  HIT:         19  MISS:         19  HIT %:         50  MISS %:         50  MPKI: 0.00038

L2C PREFETCH  REQUESTED:      86111  ISSUED:      86111  USEFUL:       8134  USELESS:      63355
L2C USEFUL LOAD PREFETCHES:       8134 PREFETCH ISSUED TO LOWER LEVEL:      71418  ACCURACY: 11.3893
 TIMELY PREFETCHES:       8134 LATE PREFETCHES: 496 DROPPED PREFETCHES: 0
L2C AVERAGE MISS LATENCY: 39.9412 cycles
L2C RQ	ACCESS:    3770335	FORWARD:          0	MERGED:          0	TO_CACHE:    3770310
L2C WQ	ACCESS:     520064	FORWARD:         25	MERGED:          0	TO_CACHE:     520064
L2C PQ	ACCESS:     188099	FORWARD:          0	MERGED:       3272	TO_CACHE:     184827

L2C Dense regions hint from L2: 0
PSCL5 TOTAL     ACCESS:       4424  HIT:       2212  MISS:       2212  HIT %:         50  MISS %:         50   MPKI: 0.04424
PSCL5 LOAD TRANSLATION INSTRUCTION	ACCESS:       4354  HIT:       2177  MISS:       2177  HIT %:         50  MISS %:         50  MPKI: 0.04354
PSCL5 TRANSLATION FROM L1D PREFETCHER INSTRUCTION	ACCESS:         70  HIT:         35  MISS:         35  HIT %:         50  MISS %:         50  MPKI: 0.0007


PSCL4 TOTAL     ACCESS:       4331  HIT:       2161  MISS:       2170  HIT %:    49.8961  MISS %:    50.1039   MPKI: 0.0434
PSCL4 LOAD TRANSLATION INSTRUCTION	ACCESS:       2859  HIT:       2127  MISS:        732  HIT %:    74.3966  MISS %:    25.6034  MPKI: 0.01464
PSCL4 TRANSLATION FROM L1D PREFETCHER INSTRUCTION	ACCESS:         44  HIT:         34  MISS:         10  HIT %:    77.2727  MISS %:    22.7273  MPKI: 0.0002
PSCL4 LOAD TRANSLATION DATA	ACCESS:       1404  HIT:          0  MISS:       1404  HIT %:          0  MISS %:        100  MPKI: 0.02808
PSCL4 TRANSLATION FROM L1D PREFETCHER DATA	ACCESS:         24  HIT:          0  MISS:         24  HIT %:          0  MISS %:        100  MPKI: 0.00048


PSCL3 TOTAL     ACCESS:       4367  HIT:       2179  MISS:       2188  HIT %:     49.897  MISS %:     50.103   MPKI: 0.04376
PSCL3 LOAD TRANSLATION INSTRUCTION	ACCESS:       2877  HIT:       2145  MISS:        732  HIT %:    74.5568  MISS %:    25.4432  MPKI: 0.01464
PSCL3 TRANSLATION FROM L1D PREFETCHER INSTRUCTION	ACCESS:         44  HIT:         34  MISS:         10  HIT %:    77.2727  MISS %:    22.7273  MPKI: 0.0002
PSCL3 LOAD TRANSLATION DATA	ACCESS:       1422  HIT:          0  MISS:       1422  HIT %:          0  MISS %:        100  MPKI: 0.02844
PSCL3 TRANSLATION FROM L1D PREFETCHER DATA	ACCESS:         24  HIT:          0  MISS:         24  HIT %:          0  MISS %:        100  MPKI: 0.00048


PSCL2 TOTAL     ACCESS:       4301  HIT:       2089  MISS:       2212  HIT %:    48.5701  MISS %:    51.4299   MPKI: 0.04424
PSCL2 LOAD TRANSLATION INSTRUCTION	ACCESS:       2336  HIT:       2055  MISS:        281  HIT %:    87.9709  MISS %:    12.0291  MPKI: 0.00562
PSCL2 TRANSLATION FROM L1D PREFETCHER INSTRUCTION	ACCESS:         34  HIT:         34  MISS:          0  HIT %:        100  MISS %:          0  MPKI: 0
PSCL2 LOAD TRANSLATION DATA	ACCESS:       1897  HIT:          0  MISS:       1897  HIT %:          0  MISS %:        100  MPKI: 0.03794
PSCL2 TRANSLATION FROM L1D PREFETCHER DATA	ACCESS:         34  HIT:          0  MISS:         34  HIT %:          0  MISS %:        100  MPKI: 0.00068


LLC TOTAL     ACCESS:     502197  HIT:     471738  MISS:      30459  HIT %:    93.9349  MISS %:    6.06515   MPKI: 0.60918
LLC LOAD INSTRUCTION	ACCESS:     237882  HIT:     236580  MISS:       1302  HIT %:    99.4527  MISS %:    0.54733  MPKI: 0.02604
LLC LOAD TRANSLATION INSTRUCTION	ACCESS:        236  HIT:        203  MISS:         33  HIT %:    86.0169  MISS %:    13.9831  MPKI: 0.00066
LLC LOAD DATA	ACCESS:      68315  HIT:      64469  MISS:       3846  HIT %:    94.3702  MISS %:     5.6298  MPKI: 0.07692
LLC RFO DATA	ACCESS:      51950  HIT:      37632  MISS:      14318  HIT %:    72.4389  MISS %:    27.5611  MPKI: 0.28636
LLC PREFETCH DATA	ACCESS:      71418  HIT:      60946  MISS:      10472  HIT %:     85.337  MISS %:     14.663  MPKI: 0.20944
LLC WRITEBACK DATA	ACCESS:      71045  HIT:      70672  MISS:        373  HIT %:     99.475  MISS %:   0.525019  MPKI: 0.00746
LLC LOAD TRANSLATION DATA	ACCESS:       1332  HIT:       1218  MISS:        114  HIT %:    91.4414  MISS %:    8.55856  MPKI: 0.00228
LLC TRANSLATION FROM L1D PREFETCHER DATA	ACCESS:         19  HIT:         18  MISS:          1  HIT %:    94.7368  MISS %:    5.26316  MPKI: 2e-05

LLC AVERAGE MISS LATENCY: 155.516 cycles
LLC RQ	ACCESS:     359739	FORWARD:          0	MERGED:          0	TO_CACHE:     359734
LLC WQ	ACCESS:      71045	FORWARD:          5	MERGED:          0	TO_CACHE:      71045
LLC PQ	ACCESS:      71418	FORWARD:          0	MERGED:          0	TO_CACHE:      71418

LLC Dense regions hint to LLC: 0

RAW hits: 1357843
Loads Generated: 12633122
Loads sent to L1D: 11275286
Stores Generated: 6943288
Stores sent to L1D: 6943304
Major fault: 0 Minor fault: 2620
Allocated PAGES: 2620

stream: 
stream:times selected: 1189690
stream:pref_filled: 120825
stream:pref_useful: 24038
stream:pref_late: 6311
stream:misses: 7955
stream:misses_by_poll: 0

CS: 
CS:times selected: 177719
CS:pref_filled: 59796
CS:pref_useful: 35555
CS:pref_late: 6899
CS:misses: 16441
CS:misses_by_poll: 8

CPLX: 
CPLX:times selected: 1010867
CPLX:pref_filled: 20183
CPLX:pref_useful: 4732
CPLX:pref_late: 3073
CPLX:misses: 92639
CPLX:misses_by_poll: 11

NL_L1: 
NL:times selected: 20187
NL:pref_filled: 743
NL:pref_useful: 352
NL:pref_late: 245
NL:misses: 1693
NL:misses_by_poll: 0

total selections: 2398463
total_filled: 94421
total_useful: 33584
total_late: 17798
total_polluted: 19
total_misses_after_warmup: 757372
conflicts: 5878046

test: 117936

DRAM Statistics
 CHANNEL 0
 RQ ROW_BUFFER_HIT:      11021  ROW_BUFFER_MISS:      19056
 DBUS_CONGESTED:         11
 WQ ROW_BUFFER_HIT:       1524  ROW_BUFFER_MISS:      12809  FULL:          0

 AVG_CONGESTED_CYCLE: 5

CPU 0 Branch Prediction Accuracy: 99.809% MPKI: 0.34944 Average ROB Occupancy at Mispredict: 92.1872
Branch types
NOT_BRANCH: 40853232 81.7065%
BRANCH_DIRECT_JUMP: 548608 1.09722%
BRANCH_INDIRECT: 183227 0.366454%
BRANCH_CONDITIONAL: 6182931 12.3659%
BRANCH_DIRECT_CALL: 944369 1.88874%
BRANCH_INDIRECT_CALL: 171449 0.342898%
BRANCH_RETURN: 1115824 2.23165%
BRANCH_OTHER: 0 0%

DRAM PAGES: 1048576
Allocated PAGES: 2620
Average_ROB_Occupancy: 57.1589
Average_Decode_Occupancy: 6.50156
Average_FTQ_Occupancy: 3.50351
Indirect max targets: 14 Average targets: 1.17778
Branch_type:  BRANCH_DIRECT_JUMP:  Count Percentage: 3.39792 6.82409 4.04421 9.43577 1.69504 5.9665 1.01495 67.6215 
Branch_type:  BRANCH_INDIRECT:  Count Percentage: 11.7555 3.44574 2.56616 0 1.33234 9.70081 19.2401 51.9593 
Branch_type:  BRANCH_CONDITIONAL:  Count Percentage: 21.056 3.09803 1.85264 9.0436 1.19632 4.79894 1.85578 57.0987 
Branch_type:  BRANCH_DIRECT_CALL:  Count Percentage: 0.754216 1.26775 1.46163 5.13768 2.44078 2.36341 0.649048 85.9255 
Branch_type:  BRANCH_INDIRECT_CALL:  Count Percentage: 9.54649 0.577008 2.99168 4.85096 0.999173 1.71233 1.28841 78.034 
Branch_type:  BRANCH_RETURN:  Count Percentage: 3.97085 0.69828 1.40967 9.54713 2.65258 6.20265 3.04355 72.4753 
Branch_type:  BRANCH_DIRECT_JUMP:  Total Count: 37292 74894 44385 103557 18603 65482 11139 742142 
Branch_type:  BRANCH_INDIRECT:  Total Count: 43075 12626 9403 0 4882 35546 70500 190391 
Branch_type:  BRANCH_CONDITIONAL:  Total Count: 2603030 382991 229031 1118006 147894 593265 229419 7058770 
Branch_type:  BRANCH_DIRECT_CALL:  Total Count: 14214 23892 27546 96825 45999 44541 12232 1619357 
Branch_type:  BRANCH_INDIRECT_CALL:  Total Count: 32676 1975 10240 16604 3420 5861 4410 267097 
Branch_type:  BRANCH_RETURN:  Total Count: 88461 15556 31404 212687 59093 138180 67803 1614575 
Number of unique branch instructions: 10784
Upper 32 bits: 
aaaa
ffff
ffff0000
Unique upper 32 bits: 3
Unique upper 36 bits: 3
Unique upper 40 bits: 5
Unique upper 44 bits: 32
Unique upper 48 bits: 158
Variant_0 : 629 0.307129
Variant_1 : 1419 0.692871
Variant_2 : 0 0
Variant_3 : 0 0
Offset_3 4456
Offset_4 260
Offset_5 483
Offset_6 544
Offset_7 645
Offset_8 584
Offset_9 514
Offset_10 421
Offset_11 351
Offset_12 327
Offset_13 241
Offset_14 247
Offset_15 194
Offset_16 229
Offset_17 165
Offset_18 152
Offset_19 265
Offset_20 144
Offset_21 235
Offset_22 409
Offset_23 241
Offset_24 353
Offset_25 117
Offset_47 94
Offset_64 3
decode_dispatch_called: 20228845 30.0127
Dispatch_width: 0 9836657 48.6269 14.5943
Dispatch_width: 1 645004 3.18854 0.956967
Dispatch_width: 2 928789 4.59141 1.37801
Dispatch_width: 3 636684 3.14741 0.944623
Dispatch_width: 4 1514539 7.48703 2.24706
Dispatch_width: 5 474063 2.3435 0.703349
Dispatch_width: 6 6193109 30.6152 9.18847
Empty_decode_cycles: 47172000 69.9873
ROB_full_cycles: 1238499 1.83751
Starvation_cycles_per_kilo_instr: 599.692
Starvation_cycles_per_kilo_instr_3: 579.806
Starvation_cycles_per_kilo_instr_0: 557.702
Branch_type_1  (3,1)  (4,9)  (5,39)  (6,75)  (7,127)  (8,149)  (9,136)  (10,111)  (11,79)  (12,55)  (13,11)  (14,2)  (15,3)  (16,4)  (18,1)  (19,5)  (20,2)  (21,1)  (22,3)  (23,2)  (24,10)  (25,12) 
Branch_type_2  (3,1)  (4,1)  (5,1)  (8,4)  (9,4)  (10,1)  (12,1)  (13,1)  (14,1)  (16,3)  (17,2)  (20,2)  (21,2)  (23,5)  (24,1)  (47,43) 
Branch_type_3  (3,4454)  (4,250)  (5,439)  (6,452)  (7,486)  (8,363)  (9,279)  (10,169)  (11,138)  (12,63)  (13,10)  (64,1) 
Branch_type_4  (6,4)  (7,8)  (8,27)  (9,57)  (10,67)  (11,69)  (12,117)  (13,102)  (14,112)  (15,92)  (16,101)  (17,76)  (18,65)  (19,128)  (20,73)  (21,124)  (22,215)  (23,136)  (24,208)  (25,101)  (64,1) 
Branch_type_5  (8,3)  (9,1)  (10,4)  (11,5)  (12,3)  (13,14)  (14,16)  (15,11)  (16,22)  (17,11)  (18,23)  (19,14)  (20,11)  (21,13)  (22,43)  (23,26)  (24,38) 
Branch_type_6  (5,4)  (6,13)  (7,24)  (8,38)  (9,37)  (10,69)  (11,60)  (12,88)  (13,103)  (14,116)  (15,88)  (16,99)  (17,76)  (18,63)  (19,118)  (20,56)  (21,95)  (22,148)  (23,72)  (24,96)  (25,4)  (47,51)  (64,1) 
Unique trigger count: 
Variant_0_evicts_0 : 0
Variant_0_evicts_1 : 0
Variant_0_evicts_2 : 0
Variant_0_evicts_3 : 0
Variant_1_evicts_0 : 0
Variant_1_evicts_1 : 0
Variant_1_evicts_2 : 0
Variant_1_evicts_3 : 0
Variant_2_evicts_0 : 0
Variant_2_evicts_1 : 0
Variant_2_evicts_2 : 0
Variant_2_evicts_3 : 0
Variant_3_evicts_0 : 0
Variant_3_evicts_1 : 0
Variant_3_evicts_2 : 0
Variant_3_evicts_3 : 0
BTB PER SET UNIQUE ADDR: 48 48 48 52 53 42 50 45 42 45 58 45 44 45 43 38 41 42 46 48 50 53 34 38 46 37 58 48 52 42 49 50 47 35 45 46 48 35 43 50 48 45 39 52 40 51 49 39 37 41 57 50 50 44 50 54 46 49 46 39 50 47 45 59 50 54 49 50 51 39 46 54 48 48 61 48 44 41 49 50 51 34 50 31 39 57 55 56 57 52 55 40 59 41 49 57 41 54 56 59 62 57 48 47 47 44 49 39 47 39 50 48 52 62 39 55 53 37 48 52 59 48 52 60 47 54 61 49 54 51 60 44 51 46 45 48 48 53 45 60 44 40 45 49 50 57 46 47 40 39 55 48 51 52 52 42 45 36 51 55 52 44 44 45 47 55 52 50 42 36 46 37 46 43 60 59 60 51 48 55 39 52 47 40 44 49 50 47 46 47 47 43 40 42 50 50 60 48 46 45 53 41 58 45 38 39 56 44 44 49 48 45 50 50 35 59 48 38 44 37 41 47 50 43 47 42 48 47 54 48 32 45 63 55 42 42 42 43 48 42 42 58 60 48 41 63 40 46 49 38 51 40 58 39 53 28 52 53 48 44 54 43 54 51 44 44 47 49 54 57 43 45 55 43 58 49 50 41 42 48 52 34 46 57 44 42 28 52 43 52 62 46 36 46 43 52 45 47 49 44 54 43 54 52 51 48 48 41 42 46 41 48 33 50 45 50 45 44 44 48 37 46 47 52 55 67 55 68 43 64 53 38 57 43 57 42 42 61 53 55 52 41 50 46 51 47 51 54 44 49 50 48 46 60 57 47 43 61 51 47 45 36 40 40 55 52 36 45 44 47 60 48 48 51 55 43 52 46 42 40 49 52 60 46 45 47 53 49 40 54 50 53 55 49 51 41 40 47 60 52 37 48 45 42 52 53 50 47 41 44 45 38 55 37 58 52 53 44 53 57 53 60 56 54 59 39 48 50 59 48 51 58 45 44 44 54 49 51 54 58 49 45 53 44 39 51 44 48 49 50 57 39 48 52 46 63 66 39 42 41 36 44 60 45 66 31 57 49 58 60 53 55 34 51 51 41 36 39 49 57 44 51 51 69 47 41 56 48 57 41 43 42 42 42 46 48 40 43 37 30 47 48 54 35 43 53 62 41 54 55 46 44 
BTB PER SET COUNT: 5259 5311 5785 7250 6214 5253 6897 5083 3931 6092 8901 5235 4969 5854 5779 3777 4060 5668 5968 4912 5715 6286 3535 4201 6727 5721 7789 7321 6230 4607 6100 5720 5906 8246 5765 5747 5594 3276 5212 6461 6191 5281 5265 6503 4789 6948 6388 4289 4954 5049 7504 6308 5224 4818 5811 7193 4182 6920 6365 3602 6922 5504 5016 7426 6065 7111 6304 6347 7931 3542 4970 6639 5668 4824 6241 6476 5443 4647 6666 7183 6861 3740 5331 3874 4668 6756 7165 7764 7603 6814 6086 4661 7600 5090 5750 7559 4244 6280 7788 7980 7294 8262 6250 6873 5051 5192 7064 4802 5488 5892 6610 6164 6259 7666 4780 7094 7247 4166 6176 7497 6461 5502 7858 11488 7067 7682 7170 5849 6835 7258 8800 8436 7400 4627 5812 7153 5853 6476 4741 7717 6596 5775 5897 6156 6308 7581 6792 6539 5044 4002 7860 5129 5847 5339 7011 4559 6022 3646 6053 7487 5710 3680 4916 10322 5003 8310 8391 6422 3900 4348 4655 3601 5951 4487 8130 7420 7466 6422 6813 6679 4952 6875 5442 4777 5805 5356 6243 6618 6308 6340 7499 4893 5148 4970 7086 6355 7952 5202 6178 4694 7432 4410 8672 5150 4254 4423 7646 6165 4973 5938 6551 4645 7539 5394 4433 8080 5278 5974 4408 4137 5266 5893 6849 5005 6914 5065 6008 6082 8122 6446 4238 5606 8322 6568 5276 5568 4901 5288 6943 5163 4706 8150 6372 6734 5032 9382 3990 6031 7415 5358 5872 4130 7393 4162 6694 3103 7788 6353 5809 6155 7036 6042 6314 6422 5899 5420 6675 5805 7680 8010 5133 4485 6919 5565 7435 5952 5794 5002 5953 6736 5733 4105 5552 8563 5418 4497 2483 6823 5682 6085 7223 6098 3978 5638 4194 7230 5980 6450 6692 6260 7125 5116 6040 5698 5661 6284 13464 3751 5201 5442 6002 7368 4399 6607 5063 7017 4817 5001 5669 5937 4297 5683 5618 11597 4974 9998 9044 10124 4144 7463 6493 4623 6419 5928 8776 5404 5197 7641 8388 5933 7823 5174 5780 5742 6896 6030 7002 6969 5154 6600 7100 6018 5124 9417 8371 5741 5958 8504 7144 5839 5163 3829 4940 4606 8027 6387 5459 6026 5398 7054 9042 6647 5970 5786 7540 4543 7726 5082 5009 4311 6837 7323 6972 6136 4860 5393 6470 7569 4088 6736 6424 6413 5660 5356 6253 5155 5112 4911 7755 7229 3985 5545 5455 4454 6236 6733 6231 6189 4696 5397 5979 3957 5986 3616 7416 5676 5538 6183 7784 7656 6230 7289 7214 11231 7684 4077 4986 6499 7862 5510 10417 7811 6362 5902 6568 5895 6494 6549 7244 7389 5985 6408 5695 5456 6033 7016 5159 5933 6587 6920 6692 4970 7429 6649 4939 7548 8811 5128 4753 4457 4394 5515 7069 5620 12954 3042 7504 6608 7065 8229 6252 6588 3884 6187 6559 7667 6051 4362 5872 6519 7515 6747 6874 9363 4733 5428 6953 5348 7255 4736 5291 4151 4975 5174 5455 6047 4789 4973 4028 3299 5266 5304 5708 3760 5747 6612 7633 4735 7103 6370 6220 6568 
To predecode: 0
Predecoding something: 0
Predecode request dropped: 0
sizeofblock_0 0
sizeofblock_1 626913
sizeofblock_2 1596678
sizeofblock_3 0
sizeofblock_4 0
sizeofblock_5 0
sizeofblock_6 0
sizeofblock_7 0
sizeofblock_8 0
Variant_0 Correct: 746516 Incorrect: 0 Accuracy: 1
Variant_1 Correct: 3557365 Incorrect: 0 Accuracy: 1
Variant_2 Correct: 0 Incorrect: 0 Accuracy: -nan
Variant_3 Correct: 0 Incorrect: 0 Accuracy: -nan
