
*** ChampSim Multicore Out-of-Order Simulator ***

Warmup Instructions: 50000000
Simulation Instructions: 50000000
Number of CPUs: 1
LLC sets: 2048
LLC ways: 16
Off-chip DRAM Size: 4096 MB Channels: 1 Width: 64-bit Data Rate: 6400 MT/s
CPU 0 runs ./micro_traces/srv553.trace.gz
.gz
ITLB has LRU replacement policy
DTLB has LRU replacement policy
STLB has LRU replacement policy
CPU 0 L1I next line prefetcher
./conditional/srv553.cond
L1I has LRU replacement policy
L1D has LRU replacement policy
Initialize SRRIP state for L2C
Initialize DRRIP state for LLC
Heartbeat_Variant_0 : 1296 0.158203 per_variant_size: 0 1296 0 0 0 0 0 0 0 
Heartbeat_Variant_1 : 1358 0.165771 per_variant_size: 0 935 423 0 0 0 0 0 0 
Heartbeat_Variant_2 : 1612 0.196777 per_variant_size: 0 952 418 208 34 0 0 0 0 
Heartbeat_Variant_3 : 0 0 per_variant_size: 0 0 0 0 0 0 0 0 0 
Heartbeat_Variant_0_evicts 0 : 5606 1 : 0 2 : 2 3 : 0 
Heartbeat_Variant_1_evicts 0 : 1 1 : 0 2 : 237 3 : 0 
Heartbeat_Variant_2_evicts 0 : 3 1 : 236 2 : 0 3 : 0 
Heartbeat_Variant_3_evicts 0 : 0 1 : 0 2 : 0 3 : 0 
Heartbeat CPU 0 instructions: 10000003 cycles: 2796366 heartbeat IPC: 3.57607 cumulative IPC: 3.57607 (Simulation time: 0 hr 1 min 41 sec) 
Heartbeat_Variant_0 : 1386 0.169189 per_variant_size: 0 1386 0 0 0 0 0 0 0 
Heartbeat_Variant_1 : 1458 0.177979 per_variant_size: 0 977 481 0 0 0 0 0 0 
Heartbeat_Variant_2 : 1723 0.210327 per_variant_size: 0 1000 440 243 40 0 0 0 0 
Heartbeat_Variant_3 : 0 0 per_variant_size: 0 0 0 0 0 0 0 0 0 
Heartbeat_Variant_0_evicts 0 : 5539 1 : 2 2 : 2 3 : 0 
Heartbeat_Variant_1_evicts 0 : 1 1 : 0 2 : 243 3 : 0 
Heartbeat_Variant_2_evicts 0 : 1 1 : 243 2 : 0 3 : 0 
Heartbeat_Variant_3_evicts 0 : 0 1 : 0 2 : 0 3 : 0 
Heartbeat CPU 0 instructions: 20000000 cycles: 5592790 heartbeat IPC: 3.57599 cumulative IPC: 3.57603 (Simulation time: 0 hr 3 min 21 sec) 
Heartbeat_Variant_0 : 1386 0.169189 per_variant_size: 0 1386 0 0 0 0 0 0 0 
Heartbeat_Variant_1 : 1459 0.178101 per_variant_size: 0 974 485 0 0 0 0 0 0 
Heartbeat_Variant_2 : 1725 0.210571 per_variant_size: 0 1001 441 240 43 0 0 0 0 
Heartbeat_Variant_3 : 0 0 per_variant_size: 0 0 0 0 0 0 0 0 0 
Heartbeat_Variant_0_evicts 0 : 5509 1 : 0 2 : 0 3 : 0 
Heartbeat_Variant_1_evicts 0 : 0 1 : 0 2 : 247 3 : 0 
Heartbeat_Variant_2_evicts 0 : 0 1 : 248 2 : 0 3 : 0 
Heartbeat_Variant_3_evicts 0 : 0 1 : 0 2 : 0 3 : 0 
Heartbeat CPU 0 instructions: 30000000 cycles: 8387381 heartbeat IPC: 3.57834 cumulative IPC: 3.5768 (Simulation time: 0 hr 4 min 59 sec) 
Heartbeat_Variant_0 : 1387 0.169312 per_variant_size: 0 1387 0 0 0 0 0 0 0 
Heartbeat_Variant_1 : 1461 0.178345 per_variant_size: 0 978 483 0 0 0 0 0 0 
Heartbeat_Variant_2 : 1726 0.210693 per_variant_size: 0 1002 441 239 44 0 0 0 0 
Heartbeat_Variant_3 : 0 0 per_variant_size: 0 0 0 0 0 0 0 0 0 
Heartbeat_Variant_0_evicts 0 : 5601 1 : 1 2 : 1 3 : 0 
Heartbeat_Variant_1_evicts 0 : 0 1 : 0 2 : 239 3 : 0 
Heartbeat_Variant_2_evicts 0 : 1 1 : 237 2 : 0 3 : 0 
Heartbeat_Variant_3_evicts 0 : 0 1 : 0 2 : 0 3 : 0 
Heartbeat CPU 0 instructions: 40000001 cycles: 11183615 heartbeat IPC: 3.57624 cumulative IPC: 3.57666 (Simulation time: 0 hr 6 min 43 sec) 
Heartbeat_Variant_0 : 1387 0.169312 per_variant_size: 0 1387 0 0 0 0 0 0 0 
Heartbeat_Variant_1 : 1461 0.178345 per_variant_size: 0 976 485 0 0 0 0 0 0 
Heartbeat_Variant_2 : 1727 0.210815 per_variant_size: 0 1003 440 235 49 0 0 0 0 
Heartbeat_Variant_3 : 0 0 per_variant_size: 0 0 0 0 0 0 0 0 0 
Heartbeat_Variant_0_evicts 0 : 5560 1 : 0 2 : 0 3 : 0 
Heartbeat_Variant_1_evicts 0 : 0 1 : 0 2 : 243 3 : 0 
Heartbeat_Variant_2_evicts 0 : 0 1 : 243 2 : 0 3 : 0 
Heartbeat_Variant_3_evicts 0 : 0 1 : 0 2 : 0 3 : 0 
Heartbeat CPU 0 instructions: 50000002 cycles: 13978570 heartbeat IPC: 3.57788 cumulative IPC: 3.5769 (Simulation time: 0 hr 8 min 23 sec) 

Warmup complete CPU 0 instructions: 50000002 cycles: 13978570 (Simulation time: 0 hr 8 min 23 sec) 

Cycle: 20000000 FTQ IN: 58109104 FTQ occupancy: 19.7903 DECODE IN: 58108991 DECODE occupancy: 51.7476 ROB IN: 58108931 ROB occupancy: 314.639 ROB OUT: 58108583
Heartbeat_Variant_0 : 1388 0.169434 per_variant_size: 0 1388 0 0 0 0 0 0 0 
Heartbeat_Variant_1 : 1467 0.179077 per_variant_size: 0 979 488 0 0 0 0 0 0 
Heartbeat_Variant_2 : 1734 0.21167 per_variant_size: 0 1011 436 234 53 0 0 0 0 
Heartbeat_Variant_3 : 0 0 per_variant_size: 0 0 0 0 0 0 0 0 0 
Heartbeat_Variant_0_evicts 0 : 5598 1 : 0 2 : 0 3 : 0 
Heartbeat_Variant_1_evicts 0 : 0 1 : 0 2 : 238 3 : 0 
Heartbeat_Variant_2_evicts 0 : 0 1 : 238 2 : 0 3 : 0 
Heartbeat_Variant_3_evicts 0 : 0 1 : 0 2 : 0 3 : 0 
Heartbeat CPU 0 instructions: 60000003 cycles: 21375706 heartbeat IPC: 1.35187 cumulative IPC: 1.35187 (Simulation time: 0 hr 10 min 14 sec) 
Heartbeat_Variant_0 : 1402 0.171143 per_variant_size: 0 1402 0 0 0 0 0 0 0 
Heartbeat_Variant_1 : 1491 0.182007 per_variant_size: 0 979 512 0 0 0 0 0 0 
Heartbeat_Variant_2 : 1751 0.213745 per_variant_size: 0 1009 451 232 59 0 0 0 0 
Heartbeat_Variant_3 : 0 0 per_variant_size: 0 0 0 0 0 0 0 0 0 
Heartbeat_Variant_0_evicts 0 : 5537 1 : 0 2 : 1 3 : 0 
Heartbeat_Variant_1_evicts 0 : 0 1 : 0 2 : 247 3 : 0 
Heartbeat_Variant_2_evicts 0 : 0 1 : 247 2 : 0 3 : 0 
Heartbeat_Variant_3_evicts 0 : 0 1 : 0 2 : 0 3 : 0 
Heartbeat CPU 0 instructions: 70000003 cycles: 28728869 heartbeat IPC: 1.35996 cumulative IPC: 1.3559 (Simulation time: 0 hr 11 min 58 sec) 
Cycle: 30000000 FTQ IN: 13646710 FTQ occupancy: 12.127 DECODE IN: 13646772 DECODE occupancy: 32.1233 ROB IN: 13646832 ROB occupancy: 234.407 ROB OUT: 13646843
Heartbeat_Variant_0 : 1401 0.171021 per_variant_size: 0 1401 0 0 0 0 0 0 0 
Heartbeat_Variant_1 : 1490 0.181885 per_variant_size: 0 978 512 0 0 0 0 0 0 
Heartbeat_Variant_2 : 1754 0.214111 per_variant_size: 0 1012 451 235 56 0 0 0 0 
Heartbeat_Variant_3 : 0 0 per_variant_size: 0 0 0 0 0 0 0 0 0 
Heartbeat_Variant_0_evicts 0 : 5681 1 : 0 2 : 0 3 : 0 
Heartbeat_Variant_1_evicts 0 : 0 1 : 0 2 : 230 3 : 0 
Heartbeat_Variant_2_evicts 0 : 1 1 : 231 2 : 0 3 : 0 
Heartbeat_Variant_3_evicts 0 : 0 1 : 0 2 : 0 3 : 0 
Heartbeat CPU 0 instructions: 80000001 cycles: 36078498 heartbeat IPC: 1.36061 cumulative IPC: 1.35747 (Simulation time: 0 hr 13 min 48 sec) 
Cycle: 40000000 FTQ IN: 13637045 FTQ occupancy: 12.3171 DECODE IN: 13637096 DECODE occupancy: 32.37 ROB IN: 13637096 ROB occupancy: 234.98 ROB OUT: 13637335
Heartbeat_Variant_0 : 1401 0.171021 per_variant_size: 0 1401 0 0 0 0 0 0 0 
Heartbeat_Variant_1 : 1491 0.182007 per_variant_size: 0 983 508 0 0 0 0 0 0 
Heartbeat_Variant_2 : 1753 0.213989 per_variant_size: 0 1011 451 236 55 0 0 0 0 
Heartbeat_Variant_3 : 0 0 per_variant_size: 0 0 0 0 0 0 0 0 0 
Heartbeat_Variant_0_evicts 0 : 5594 1 : 0 2 : 0 3 : 0 
Heartbeat_Variant_1_evicts 0 : 0 1 : 0 2 : 241 3 : 0 
Heartbeat_Variant_2_evicts 0 : 0 1 : 240 2 : 0 3 : 0 
Heartbeat_Variant_3_evicts 0 : 0 1 : 0 2 : 0 3 : 0 
Heartbeat CPU 0 instructions: 90000000 cycles: 43363294 heartbeat IPC: 1.37272 cumulative IPC: 1.36125 (Simulation time: 0 hr 15 min 43 sec) 
Cycle: 50000000 FTQ IN: 13570175 FTQ occupancy: 12.3278 DECODE IN: 13570142 DECODE occupancy: 32.3781 ROB IN: 13570117 ROB occupancy: 234.553 ROB OUT: 13569870
*** Reached end of trace for Core: 0 Repeating trace: ./micro_traces/srv553.trace.gz
Heartbeat_Variant_0 : 1401 0.171021 per_variant_size: 0 1401 0 0 0 0 0 0 0 
Heartbeat_Variant_1 : 1492 0.182129 per_variant_size: 0 981 511 0 0 0 0 0 0 
Heartbeat_Variant_2 : 1752 0.213867 per_variant_size: 0 1010 451 237 54 0 0 0 0 
Heartbeat_Variant_3 : 0 0 per_variant_size: 0 0 0 0 0 0 0 0 0 
Heartbeat_Variant_0_evicts 0 : 5601 1 : 0 2 : 0 3 : 0 
Heartbeat_Variant_1_evicts 0 : 0 1 : 0 2 : 237 3 : 0 
Heartbeat_Variant_2_evicts 0 : 0 1 : 236 2 : 0 3 : 0 
Heartbeat_Variant_3_evicts 0 : 0 1 : 0 2 : 0 3 : 0 
Heartbeat CPU 0 instructions: 100000001 cycles: 50760068 heartbeat IPC: 1.35194 cumulative IPC: 1.35938 (Simulation time: 0 hr 17 min 41 sec) 
Finished CPU 0 instructions: 50000003 cycles: 36781499 cumulative IPC: 1.35938 (Simulation time: 0 hr 17 min 41 sec) 

ChampSim completed all CPUs

Region of Interest Statistics

CPU 0 cumulative IPC: 1.35938 instructions: 50000003 cycles: 36781499
 Fetch stage stalled: 55.0762  Sim cycles: 36781499 fetch stall cycle: 20257862
 Empty decode stage: 36.6624  Sim cycles: 36781499 fetch stall cycle: 13484972
ITLB TOTAL     ACCESS:    6877934  HIT:    6379016  MISS:     498918  HIT %:    92.7461  MISS %:    7.25389   MPKI: 9.97836
ITLB LOAD TRANSLATION INSTRUCTION	ACCESS:    5666923  HIT:    5187111  MISS:     479812  HIT %:    91.5331  MISS %:    8.46689  MPKI: 9.59624
ITLB TRANSLATION FROM L1D PREFETCHER INSTRUCTION	ACCESS:    1211011  HIT:    1191905  MISS:      19106  HIT %:    98.4223  MISS %:    1.57769  MPKI: 0.38212

ITLB AVERAGE MISS LATENCY: 65962.4 cycles
ITLB RQ	ACCESS:   10089641	FORWARD:          0	MERGED:    2738096	TO_CACHE:    7351545

DTLB TOTAL     ACCESS:    8939619  HIT:    8468591  MISS:     471028  HIT %:     94.731  MISS %:    5.26899   MPKI: 9.42056
DTLB LOAD TRANSLATION DATA	ACCESS:    8939619  HIT:    8468591  MISS:     471028  HIT %:     94.731  MISS %:    5.26899  MPKI: 9.42056

DTLB AVERAGE MISS LATENCY: 9.35783 cycles
DTLB RQ	ACCESS:   13291959	FORWARD:          0	MERGED:    4315661	TO_CACHE:    8976298

STLB TOTAL     ACCESS:    1231878  HIT:    1229692  MISS:       2186  HIT %:    99.8225  MISS %:   0.177453   MPKI: 0.04372
STLB LOAD TRANSLATION INSTRUCTION	ACCESS:     478792  HIT:     478543  MISS:        249  HIT %:     99.948  MISS %:  0.0520059  MPKI: 0.00498
STLB TRANSLATION FROM L1D PREFETCHER INSTRUCTION	ACCESS:      20126  HIT:      20090  MISS:         36  HIT %:    99.8211  MISS %:   0.178873  MPKI: 0.00072
STLB LOAD TRANSLATION DATA	ACCESS:     471028  HIT:     469142  MISS:       1886  HIT %:    99.5996  MISS %:   0.400401  MPKI: 0.03772
STLB TRANSLATION FROM L1D PREFETCHER DATA	ACCESS:     261932  HIT:     261917  MISS:         15  HIT %:    99.9943  MISS %: 0.00572668  MPKI: 0.0003

STLB AVERAGE MISS LATENCY: 74.6702 cycles
STLB RQ	ACCESS:    1406715	FORWARD:          0	MERGED:     146285	TO_CACHE:    1260430

STLB Hit, L1D data hit: 0
STLB Hit, L2C data hit: 0
STLB Hit, LLC data hit: 0
STLB Hit, LLC data miss: 0
STLB STLB hints to L2: 0
L1D TOTAL     ACCESS:   13038976  HIT:   11884064  MISS:    1154912  HIT %:    91.1426  MISS %:    8.85738   MPKI: 23.0982
L1D LOAD DATA	ACCESS:    6548198  HIT:    5789146  MISS:     759052  HIT %:    88.4082  MISS %:    11.5918  MPKI: 15.181
L1D RFO DATA	ACCESS:    6146106  HIT:    5856488  MISS:     289618  HIT %:    95.2878  MISS %:    4.71222  MPKI: 5.79236
L1D PREFETCH DATA	ACCESS:     344672  HIT:     238430  MISS:     106242  HIT %:    69.1759  MISS %:    30.8241  MPKI: 2.12484

L1D PREFETCH  REQUESTED:     816831  ISSUED:     816831  USEFUL:      49079  USELESS:      70867
L1D USEFUL LOAD PREFETCHES:      49079 PREFETCH ISSUED TO LOWER LEVEL:     120001  ACCURACY: 40.8988
 TIMELY PREFETCHES:      49079 LATE PREFETCHES: 13670 DROPPED PREFETCHES: 7
L1D AVERAGE MISS LATENCY: 386303 cycles
L1D RQ	ACCESS:   10683297	FORWARD:          0	MERGED:    3933825	TO_CACHE:    6587413
L1D WQ	ACCESS:    6902088	FORWARD:     162384	MERGED:     197542	TO_CACHE:    6704546
L1D PQ	ACCESS:     408578	FORWARD:          0	MERGED:          0	TO_CACHE:     408253

L1D UNIQUE REGIONS ACCESSED: 0
L1D REGIONS CONFLICTS: 0
L1D Cross Page Prefetch Requests: 6192
L1D Same Page Prefetch Requests: 819955
L1D ROI Sum of L1D PQ occupancy: 5199529
L1D PREFETCHES PUSHED FROM L2C: 0
L1I TOTAL     ACCESS:    8714990  HIT:    5440041  MISS:    3274949  HIT %:    62.4217  MISS %:    37.5783   MPKI: 65.499
L1I LOAD INSTRUCTION	ACCESS:    6536309  HIT:    4437062  MISS:    2099247  HIT %:    67.8833  MISS %:    32.1167  MPKI: 41.9849
L1I PREFETCH INSTRUCTION	ACCESS:    2178681  HIT:    1002979  MISS:    1175702  HIT %:    46.0361  MISS %:    53.9639  MPKI: 23.514

L1I PREFETCH  REQUESTED:    3872372  ISSUED:    3868908  USEFUL:     929032  USELESS:     481808
L1I USEFUL LOAD PREFETCHES:     929032 PREFETCH ISSUED TO LOWER LEVEL:    1410852  ACCURACY: 65.849
 TIMELY PREFETCHES:     929032 LATE PREFETCHES: 235151 DROPPED PREFETCHES: 66586
L1I AVERAGE MISS LATENCY: 2.32418e+06 cycles
L1I RQ	ACCESS:    9510478	FORWARD:          0	MERGED:    2762607	TO_CACHE:    6747871
L1I PQ	ACCESS:    3868908	FORWARD:          0	MERGED:     527138	TO_CACHE:    3341770

L1BTB TOTAL     ACCESS:    5679738  HIT:    2087161  MISS:    3592577  HIT %:    36.7475  MISS %:    63.2525   MPKI: 71.8515
L1BTB BRANCH_DIRECT_JUMP	ACCESS:     545897  HIT:     145056  MISS:     400841	AVERAGE STALL: 45.4582
L1BTB BRANCH_INDIRECT	ACCESS:     182493  HIT:      66216  MISS:     116277	AVERAGE STALL: 106.949
L1BTB BRANCH_CONDITIONAL	ACCESS:    2745604  HIT:    1464420  MISS:    1281184	AVERAGE STALL: 59.9148
L1BTB BRANCH_DIRECT_CALL	ACCESS:     933082  HIT:     103400  MISS:     829682	AVERAGE STALL: 53.1272
L1BTB BRANCH_INDIRECT_CALL	ACCESS:     169789  HIT:      20867  MISS:     148922	AVERAGE STALL: 128.241
L1BTB BRANCH_RETURN	ACCESS:    1102873  HIT:     287202  MISS:     815671	AVERAGE STALL: 49.68
L1BTB BRANCH_OTHER ACCESS:          0  HIT:          0  MISS:          0	AVERAGE STALL: -nan
L1BTB TOTAL ROB OCCUPANCY AT BTB MISS: 3.57583

L2BTB TOTAL     ACCESS:    3567149  HIT:    3486806  MISS:      80343  HIT %:    97.7477  MISS %:     2.2523   MPKI: 1.60686
L2BTB BRANCH_DIRECT_JUMP	ACCESS:     396599  HIT:     392542  MISS:       4057	AVERAGE STALL: 45.4582
L2BTB BRANCH_INDIRECT	ACCESS:     106069  HIT:     103374  MISS:       2695	AVERAGE STALL: 106.949
L2BTB BRANCH_CONDITIONAL	ACCESS:    1281184  HIT:    1264944  MISS:      16240	AVERAGE STALL: 59.9148
L2BTB BRANCH_DIRECT_CALL	ACCESS:     829682  HIT:     828806  MISS:        876	AVERAGE STALL: 53.1272
L2BTB BRANCH_INDIRECT_CALL	ACCESS:     139330  HIT:     129210  MISS:      10120	AVERAGE STALL: 128.241
L2BTB BRANCH_RETURN	ACCESS:     814285  HIT:     767930  MISS:      46355	AVERAGE STALL: 49.68
L2BTB BRANCH_OTHER ACCESS:          0  HIT:          0  MISS:          0	AVERAGE STALL: -nan
L2BTB TOTAL ROB OCCUPANCY AT BTB MISS: 159.895

L2C TOTAL     ACCESS:    5695069  HIT:    4798898  MISS:     896171  HIT %:    84.2641  MISS %:    15.7359   MPKI: 17.9234
L2C LOAD INSTRUCTION	ACCESS:    1864095  HIT:    1601270  MISS:     262825  HIT %:    85.9007  MISS %:    14.0993  MPKI: 5.2565
L2C PREFETCH INSTRUCTION	ACCESS:    1410852  HIT:    1225183  MISS:     185669  HIT %:    86.8399  MISS %:    13.1601  MPKI: 3.71338
L2C LOAD TRANSLATION INSTRUCTION	ACCESS:        279  HIT:         71  MISS:        208  HIT %:     25.448  MISS %:     74.552  MPKI: 0.00416
L2C TRANSLATION FROM L1D PREFETCHER INSTRUCTION	ACCESS:      39579  HIT:      26359  MISS:      13220  HIT %:    66.5984  MISS %:    33.4016  MPKI: 0.2644
L2C LOAD DATA	ACCESS:     745336  HIT:     613770  MISS:     131566  HIT %:    82.3481  MISS %:    17.6519  MPKI: 2.63132
L2C RFO DATA	ACCESS:     289497  HIT:     207765  MISS:      81732  HIT %:    71.7676  MISS %:    28.2324  MPKI: 1.63464
L2C PREFETCH DATA	ACCESS:     819283  HIT:     628793  MISS:     190490  HIT %:    76.7492  MISS %:    23.2508  MPKI: 3.8098
L2C WRITEBACK DATA	ACCESS:     524164  HIT:     495138  MISS:      29026  HIT %:    94.4624  MISS %:    5.53758  MPKI: 0.58052
L2C LOAD TRANSLATION DATA	ACCESS:       1955  HIT:        528  MISS:       1427  HIT %:    27.0077  MISS %:    72.9923  MPKI: 0.02854
L2C TRANSLATION FROM L1D PREFETCHER DATA	ACCESS:         29  HIT:         21  MISS:          8  HIT %:    72.4138  MISS %:    27.5862  MPKI: 0.00016

L2C PREFETCH  REQUESTED:    1489159  ISSUED:    1489159  USEFUL:      29652  USELESS:     362197
L2C USEFUL LOAD PREFETCHES:      29652 PREFETCH ISSUED TO LOWER LEVEL:     377960  ACCURACY: 7.84527
 TIMELY PREFETCHES:      29652 LATE PREFETCHES: 1801 DROPPED PREFETCHES: 0
L2C AVERAGE MISS LATENCY: 35.4089 cycles
L2C RQ	ACCESS:    2940851	FORWARD:          0	MERGED:          0	TO_CACHE:    2940773
L2C WQ	ACCESS:     524164	FORWARD:         79	MERGED:          0	TO_CACHE:     524164
L2C PQ	ACCESS:    3020012	FORWARD:          0	MERGED:     774448	TO_CACHE:    2245563

L2C Dense regions hint from L2: 0
PSCL5 TOTAL     ACCESS:      61418  HIT:      30709  MISS:      30709  HIT %:         50  MISS %:         50   MPKI: 0.61418
PSCL5 LOAD TRANSLATION INSTRUCTION	ACCESS:       4258  HIT:       2129  MISS:       2129  HIT %:         50  MISS %:         50  MPKI: 0.04258
PSCL5 TRANSLATION FROM L1D PREFETCHER INSTRUCTION	ACCESS:      57160  HIT:      28580  MISS:      28580  HIT %:         50  MISS %:         50  MPKI: 0.5716


PSCL4 TOTAL     ACCESS:      60584  HIT:      30288  MISS:      30296  HIT %:    49.9934  MISS %:    50.0066   MPKI: 0.60592
PSCL4 LOAD TRANSLATION INSTRUCTION	ACCESS:       3124  HIT:       2055  MISS:       1069  HIT %:     65.781  MISS %:     34.219  MPKI: 0.02138
PSCL4 TRANSLATION FROM L1D PREFETCHER INSTRUCTION	ACCESS:      48629  HIT:      28233  MISS:      20396  HIT %:    58.0579  MISS %:    41.9421  MPKI: 0.40792
PSCL4 LOAD TRANSLATION DATA	ACCESS:        994  HIT:          0  MISS:        994  HIT %:          0  MISS %:        100  MPKI: 0.01988
PSCL4 TRANSLATION FROM L1D PREFETCHER DATA	ACCESS:       7837  HIT:          0  MISS:       7837  HIT %:          0  MISS %:        100  MPKI: 0.15674


PSCL3 TOTAL     ACCESS:      60676  HIT:      30334  MISS:      30342  HIT %:    49.9934  MISS %:    50.0066   MPKI: 0.60684
PSCL3 LOAD TRANSLATION INSTRUCTION	ACCESS:       3170  HIT:       2101  MISS:       1069  HIT %:    66.2776  MISS %:    33.7224  MPKI: 0.02138
PSCL3 TRANSLATION FROM L1D PREFETCHER INSTRUCTION	ACCESS:      48629  HIT:      28233  MISS:      20396  HIT %:    58.0579  MISS %:    41.9421  MPKI: 0.40792
PSCL3 LOAD TRANSLATION DATA	ACCESS:       1040  HIT:          0  MISS:       1040  HIT %:          0  MISS %:        100  MPKI: 0.0208
PSCL3 TRANSLATION FROM L1D PREFETCHER DATA	ACCESS:       7837  HIT:          0  MISS:       7837  HIT %:          0  MISS %:        100  MPKI: 0.15674


PSCL2 TOTAL     ACCESS:      39800  HIT:      19850  MISS:      19950  HIT %:    49.8744  MISS %:    50.1256   MPKI: 0.399
PSCL2 LOAD TRANSLATION INSTRUCTION	ACCESS:       2292  HIT:       2036  MISS:        256  HIT %:    88.8307  MISS %:    11.1693  MPKI: 0.00512
PSCL2 TRANSLATION FROM L1D PREFETCHER INSTRUCTION	ACCESS:      33549  HIT:      17814  MISS:      15735  HIT %:    53.0985  MISS %:    46.9015  MPKI: 0.3147
PSCL2 LOAD TRANSLATION DATA	ACCESS:       1880  HIT:          0  MISS:       1880  HIT %:          0  MISS %:        100  MPKI: 0.0376
PSCL2 TRANSLATION FROM L1D PREFETCHER DATA	ACCESS:       2079  HIT:          0  MISS:       2079  HIT %:          0  MISS %:        100  MPKI: 0.04158


LLC TOTAL     ACCESS:     984483  HIT:     950448  MISS:      34035  HIT %:    96.5429  MISS %:    3.45714   MPKI: 0.6807
LLC LOAD INSTRUCTION	ACCESS:     261601  HIT:     260869  MISS:        732  HIT %:    99.7202  MISS %:   0.279815  MPKI: 0.01464
LLC PREFETCH INSTRUCTION	ACCESS:     184223  HIT:     183028  MISS:       1195  HIT %:    99.3513  MISS %:    0.64867  MPKI: 0.0239
LLC LOAD TRANSLATION INSTRUCTION	ACCESS:        208  HIT:        198  MISS:         10  HIT %:    95.1923  MISS %:    4.80769  MPKI: 0.0002
LLC TRANSLATION FROM L1D PREFETCHER INSTRUCTION	ACCESS:      13220  HIT:      13118  MISS:        102  HIT %:    99.2284  MISS %:   0.771558  MPKI: 0.00204
LLC LOAD DATA	ACCESS:     131061  HIT:     126977  MISS:       4084  HIT %:    96.8839  MISS %:    3.11611  MPKI: 0.08168
LLC RFO DATA	ACCESS:      81643  HIT:      66122  MISS:      15521  HIT %:    80.9892  MISS %:    19.0108  MPKI: 0.31042
LLC PREFETCH DATA	ACCESS:     193735  HIT:     181806  MISS:      11929  HIT %:    93.8426  MISS %:    6.15738  MPKI: 0.23858
LLC WRITEBACK DATA	ACCESS:     117357  HIT:     116995  MISS:        362  HIT %:    99.6915  MISS %:   0.308461  MPKI: 0.00724
LLC LOAD TRANSLATION DATA	ACCESS:       1427  HIT:       1328  MISS:         99  HIT %:    93.0624  MISS %:    6.93763  MPKI: 0.00198
LLC TRANSLATION FROM L1D PREFETCHER DATA	ACCESS:          8  HIT:          7  MISS:          1  HIT %:       87.5  MISS %:       12.5  MPKI: 2e-05

LLC AVERAGE MISS LATENCY: 166.673 cycles
LLC RQ	ACCESS:     489186	FORWARD:          0	MERGED:          0	TO_CACHE:     489169
LLC WQ	ACCESS:     117357	FORWARD:         19	MERGED:          0	TO_CACHE:     117357
LLC PQ	ACCESS:     377960	FORWARD:          0	MERGED:          0	TO_CACHE:     377958

LLC Dense regions hint to LLC: 0

RAW hits: 1929896
Loads Generated: 12613193
Loads sent to L1D: 10683297
Stores Generated: 6902078
Stores sent to L1D: 6902088
Major fault: 0 Minor fault: 2519
Allocated PAGES: 2519
I-Shadow cache 408 bytes
Touched + WorthPF tables 12288 bytes 
MMA filter 42 bytes 
FNL filter 272 bytes 
TOTAL PREFETCHER STORAGE SIZE: 19922 bytes
CPU 0 L1I next line prefetcher final stats

stream: 
stream:times selected: 1263192
stream:pref_filled: 125081
stream:pref_useful: 27653
stream:pref_late: 10534
stream:misses: 10496
stream:misses_by_poll: 0

CS: 
CS:times selected: 198906
CS:pref_filled: 70497
CS:pref_useful: 46855
CS:pref_late: 12655
CS:misses: 27540
CS:misses_by_poll: 6

CPLX: 
CPLX:times selected: 1063061
CPLX:pref_filled: 24199
CPLX:pref_useful: 6807
CPLX:pref_late: 4710
CPLX:misses: 129763
CPLX:misses_by_poll: 0

NL_L1: 
NL:times selected: 13063
NL:pref_filled: 1202
NL:pref_useful: 194
NL:pref_late: 543
NL:misses: 2118
NL:misses_by_poll: 0

total selections: 2538222
total_filled: 106242
total_useful: 49079
total_late: 30769
total_polluted: 6
total_misses_after_warmup: 798270
conflicts: 5478555

test: 121116

DRAM Statistics
 CHANNEL 0
 RQ ROW_BUFFER_HIT:      11410  ROW_BUFFER_MISS:      22256
 DBUS_CONGESTED:          2
 WQ ROW_BUFFER_HIT:       1615  ROW_BUFFER_MISS:      14224  FULL:          0

 AVG_CONGESTED_CYCLE: 6

CPU 0 Branch Prediction Accuracy: 99.8159% MPKI: 0.33678 Average ROB Occupancy at Mispredict: 193.459
Branch types
NOT_BRANCH: 40852391 81.7048%
BRANCH_DIRECT_JUMP: 545897 1.09179%
BRANCH_INDIRECT: 182493 0.364986%
BRANCH_CONDITIONAL: 6213403 12.4268%
BRANCH_DIRECT_CALL: 933082 1.86616%
BRANCH_INDIRECT_CALL: 169789 0.339578%
BRANCH_RETURN: 1102873 2.20575%
BRANCH_OTHER: 0 0%

DRAM PAGES: 1048576
Allocated PAGES: 2519
Average_ROB_Occupancy: 236.014
Average_Decode_Occupancy: 32.3069
Average_FTQ_Occupancy: 12.2639
Indirect max targets: 14 Average targets: 1.14966
Branch_type:  BRANCH_DIRECT_JUMP:  Count Percentage: 3.34064 6.03018 5.05481 3.7701 7.05164 12.6717 1.71966 60.3613 
Branch_type:  BRANCH_INDIRECT:  Count Percentage: 13.7594 6.28724 2.61447 3.70073 9.68446 16.4482 3.18063 44.3248 
Branch_type:  BRANCH_CONDITIONAL:  Count Percentage: 21.9489 3.86835 1.73762 2.83677 4.69582 14.7827 0.98497 49.1448 
Branch_type:  BRANCH_DIRECT_CALL:  Count Percentage: 0.709738 1.25073 1.05329 2.19371 4.41696 4.87798 0.889675 84.6079 
Branch_type:  BRANCH_INDIRECT_CALL:  Count Percentage: 9.52119 0 2.98197 4.2448 0 5.40068 0.999277 76.8521 
Branch_type:  BRANCH_RETURN:  Count Percentage: 4.44094 2.2779 1.75192 3.31218 7.1335 15.1739 1.38574 64.5239 
Branch_type:  BRANCH_DIRECT_JUMP:  Total Count: 36459 65812 55167 41146 76960 138296 18768 658769 
Branch_type:  BRANCH_INDIRECT:  Total Count: 50186 22932 9536 13498 35323 59993 11601 161670 
Branch_type:  BRANCH_CONDITIONAL:  Total Count: 2726564 480538 215853 352392 583329 1836351 122356 6104922 
Branch_type:  BRANCH_DIRECT_CALL:  Total Count: 13261 23369 19680 40988 82528 91142 16623 1580845 
Branch_type:  BRANCH_INDIRECT_CALL:  Total Count: 32405 0 10149 14447 0 18381 3401 261563 
Branch_type:  BRANCH_RETURN:  Total Count: 98126 50332 38710 73185 157620 335278 30619 1425705 
Number of unique branch instructions: 9864
Upper 32 bits: 
aaaa
ffff
ffff0000
Unique upper 32 bits: 3
Unique upper 36 bits: 3
Unique upper 40 bits: 5
Unique upper 44 bits: 32
Unique upper 48 bits: 154
Variant_0 : 1401 0.171021
Variant_1 : 1492 0.182129
Variant_2 : 1752 0.213867
Variant_3 : 0 0
Offset_3 4071
Offset_4 244
Offset_5 452
Offset_6 498
Offset_7 576
Offset_8 505
Offset_9 468
Offset_10 377
Offset_11 318
Offset_12 271
Offset_13 199
Offset_14 227
Offset_15 184
Offset_16 224
Offset_17 142
Offset_18 121
Offset_19 234
Offset_20 137
Offset_21 235
Offset_22 393
Offset_23 241
Offset_24 326
Offset_25 88
Offset_47 80
Offset_64 2
decode_dispatch_called: 25141309 68.3531
Dispatch_width: 0 13523661 53.7906 36.7676
Dispatch_width: 1 889136 3.53655 2.41735
Dispatch_width: 2 820061 3.26181 2.22955
Dispatch_width: 3 480262 1.91025 1.30572
Dispatch_width: 4 5182368 20.613 14.0896
Dispatch_width: 5 174439 0.693834 0.474257
Dispatch_width: 6 4071382 16.194 11.0691
Empty_decode_cycles: 11640190 31.6469
ROB_full_cycles: 8547658 23.239
Starvation_cycles_per_kilo_instr: 241.625
Starvation_cycles_per_kilo_instr_3: 188.057
Starvation_cycles_per_kilo_instr_0: 166.162
Branch_type_1  (3,1)  (4,9)  (5,37)  (6,68)  (7,113)  (8,129)  (9,124)  (10,97)  (11,70)  (12,44)  (13,5)  (14,2)  (15,3)  (16,4)  (18,1)  (19,4)  (20,2)  (21,1)  (22,3)  (23,2)  (24,10)  (25,12) 
Branch_type_2  (3,1)  (5,1)  (8,3)  (9,3)  (12,1)  (13,1)  (14,1)  (16,3)  (17,2)  (20,2)  (21,2)  (23,5)  (24,1)  (47,36) 
Branch_type_3  (3,4069)  (4,235)  (5,410)  (6,415)  (7,434)  (8,313)  (9,258)  (10,153)  (11,133)  (12,51)  (13,4)  (64,1) 
Branch_type_4  (6,3)  (7,8)  (8,25)  (9,51)  (10,60)  (11,59)  (12,96)  (13,86)  (14,100)  (15,86)  (16,100)  (17,63)  (18,55)  (19,115)  (20,71)  (21,124)  (22,209)  (23,136)  (24,187)  (25,72)  (64,1) 
Branch_type_5  (8,2)  (9,1)  (10,3)  (11,5)  (12,3)  (13,14)  (14,16)  (15,11)  (16,20)  (17,11)  (18,16)  (19,12)  (20,10)  (21,13)  (22,42)  (23,26)  (24,37) 
Branch_type_6  (5,4)  (6,12)  (7,21)  (8,33)  (9,31)  (10,64)  (11,51)  (12,76)  (13,89)  (14,108)  (15,84)  (16,97)  (17,66)  (18,49)  (19,103)  (20,52)  (21,95)  (22,139)  (23,72)  (24,91)  (25,4)  (47,44) 
Unique trigger count: 
Variant_0_evicts_0 : 0
Variant_0_evicts_1 : 0
Variant_0_evicts_2 : 0
Variant_0_evicts_3 : 0
Variant_1_evicts_0 : 0
Variant_1_evicts_1 : 0
Variant_1_evicts_2 : 0
Variant_1_evicts_3 : 0
Variant_2_evicts_0 : 0
Variant_2_evicts_1 : 0
Variant_2_evicts_2 : 0
Variant_2_evicts_3 : 0
Variant_3_evicts_0 : 0
Variant_3_evicts_1 : 0
Variant_3_evicts_2 : 0
Variant_3_evicts_3 : 0
BTB PER SET UNIQUE ADDR: 1 4 3 6 3 3 4 3 2 4 3 2 1 6 2 5 1 3 3 2 2 4 4 3 2 4 3 2 3 4 3 3 2 3 3 4 3 2 2 3 3 4 4 2 2 3 3 3 3 2 2 3 2 2 3 4 3 2 2 2 4 3 2 2 6 2 4 4 5 3 2 3 5 3 1 5 4 4 6 4 7 5 3 6 3 3 2 3 3 2 2 5 3 4 3 1 4 3 2 4 3 4 3 4 2 6 2 2 3 6 6 3 2 3 0 2 4 5 4 5 3 3 3 3 8 3 2 3 4 1 5 3 4 2 5 3 3 1 3 3 2 3 2 4 4 6 5 3 5 5 3 1 4 7 3 3 3 2 5 4 1 3 4 1 4 1 1 5 4 6 4 3 4 1 3 3 2 5 2 2 3 2 3 5 2 4 2 5 5 3 3 1 2 5 1 3 3 4 4 3 4 2 3 3 0 3 3 2 5 3 3 4 5 2 3 3 3 3 2 6 2 5 3 2 5 2 3 5 4 5 1 3 5 5 3 3 2 4 3 4 3 6 2 4 3 1 3 2 6 4 2 3 1 2 2 4 2 2 3 2 6 1 6 2 3 2 5 3 4 5 1 4 3 3 3 3 4 1 0 3 5 2 1 5 2 1 3 2 4 1 3 3 3 3 2 4 2 2 2 2 5 1 2 5 3 2 2 6 6 2 2 2 5 3 4 4 2 2 3 4 7 4 2 2 6 4 2 4 1 5 3 7 2 3 3 4 2 4 3 3 4 4 3 2 2 3 4 2 1 2 3 5 3 4 3 5 4 3 2 3 4 4 2 4 2 3 2 5 2 2 5 4 1 2 2 3 1 2 1 1 2 5 3 2 3 3 1 5 3 5 3 2 2 4 2 4 5 1 2 2 5 5 3 1 2 3 2 2 8 2 3 4 1 3 6 2 2 4 3 3 2 2 3 7 3 2 3 3 1 4 4 2 6 3 3 0 3 2 2 2 3 2 1 3 3 0 2 4 5 6 2 2 2 2 5 1 3 2 5 1 3 6 4 4 2 2 4 1 3 3 4 4 4 4 6 6 1 2 3 4 3 2 5 3 2 2 3 3 5 4 2 2 4 2 4 4 3 3 2 3 3 3 3 1 5 3 4 1 2 2 2 3 4 3 2 5 6 2 3 2 2 3 5 3 4 3 1 2 2 2 5 3 5 2 2 4 2 2 3 3 4 3 5 7 3 4 3 4 4 4 3 4 3 5 5 4 3 0 4 2 2 3 3 4 3 2 4 3 3 2 1 1 1 3 2 3 4 2 3 2 1 4 3 3 2 1 3 2 4 2 3 3 2 2 2 3 5 4 4 3 3 4 2 2 3 3 3 1 3 3 2 4 3 3 1 4 2 4 3 2 3 1 4 2 2 3 2 3 3 3 2 2 4 4 2 4 5 4 3 4 3 4 2 2 4 3 3 3 2 2 2 2 3 2 3 4 3 1 3 2 1 3 2 4 2 1 3 2 2 4 4 2 3 3 3 2 2 4 3 3 3 7 1 2 5 4 3 5 5 2 4 1 4 2 3 3 3 2 2 6 4 2 2 2 3 3 3 4 3 4 4 2 1 3 4 3 4 3 2 3 4 4 2 4 3 2 4 4 2 6 3 3 4 3 4 2 6 4 2 2 4 7 3 4 5 1 6 2 2 3 6 5 3 3 3 4 2 1 2 2 5 3 4 4 4 3 4 5 2 6 3 2 1 2 3 3 4 3 1 2 2 4 3 2 1 5 2 2 6 2 4 4 2 5 4 3 7 1 2 2 3 5 3 3 6 3 3 3 4 3 4 1 0 2 3 4 3 2 2 2 3 2 4 2 4 2 3 2 4 4 2 5 2 3 4 2 4 4 3 2 0 4 2 3 2 3 4 3 2 3 4 3 2 2 3 2 4 5 3 3 2 3 3 4 3 3 6 2 3 2 7 1 3 3 2 3 2 4 1 3 4 5 2 2 1 3 2 2 2 1 6 1 1 2 3 3 1 3 2 2 3 1 2 3 4 1 3 4 5 5 4 3 2 4 2 3 3 3 4 2 3 4 3 4 1 1 6 5 3 2 4 7 4 2 2 4 4 1 2 2 3 4 3 3 4 1 4 1 5 4 4 5 3 2 7 3 3 4 2 2 3 2 4 5 4 1 8 2 1 3 4 1 3 7 2 4 2 2 4 2 3 2 3 4 4 2 3 2 3 3 4 2 2 4 4 2 2 4 1 2 4 4 4 2 3 3 4 4 2 5 2 5 2 4 3 2 2 3 3 4 2 3 4 4 5 2 3 6 4 3 1 4 4 2 4 2 5 4 3 3 3 5 3 5 3 2 4 5 2 4 1 3 4 3 2 5 4 3 2 2 3 6 3 3 1 4 5 4 5 3 2 5 3 5 3 5 2 2 3 4 5 2 3 4 3 3 3 2 2 6 2 6 3 5 4 4 4 2 3 3 4 4 4 10 3 3 2 5 2 1 2 5 2 1 4 2 2 5 4 5 4 4 3 4 3 4 3 5 2 1 6 3 5 2 2 2 4 2 4 3 4 6 2 2 3 3 2 4 3 1 3 5 2 3 2 2 3 4 2 2 4 1 5 3 3 3 2 4 5 4 6 2 3 3 2 6 2 3 2 4 1 1 6 3 1 3 5 2 2 6 3 3 2 0 2 3 3 4 4 1 2 2 1 3 7 2 3 2 4 2 3 2 2 4 0 4 3 2 4 3 4 1 3 4 4 4 2 2 3 3 5 2 4 3 3 3 2 3 3 2 3 3 6 3 2 2 4 3 1 5 3 3 4 2 2 3 1 2 3 4 3 2 3 3 2 3 3 3 2 6 3 2 3 2 2 3 2 2 3 3 4 3 6 3 3 3 4 6 4 5 7 2 1 5 3 4 3 5 3 4 2 4 3 6 3 2 2 3 3 4 5 6 5 3 3 2 5 1 2 4 2 6 3 1 3 2 2 4 7 3 2 4 4 2 6 1 2 3 3 4 3 3 2 3 5 6 2 3 6 4 3 2 3 5 3 1 2 2 2 3 4 4 2 4 4 3 1 3 3 4 5 3 1 5 3 4 2 4 2 4 3 2 2 2 4 3 5 6 2 1 2 3 1 4 1 4 3 3 4 4 3 3 4 3 1 3 3 4 3 6 3 2 3 3 6 2 1 2 1 2 4 3 5 6 6 2 3 5 3 5 3 1 3 3 2 3 4 5 5 3 3 2 2 2 3 6 3 3 3 4 2 2 2 2 3 2 2 5 4 3 3 1 2 3 3 5 2 3 2 4 2 2 5 4 3 1 2 3 6 8 2 4 2 4 4 3 4 3 4 2 2 2 2 6 5 5 2 3 2 1 4 3 3 6 4 3 2 2 5 3 2 5 3 3 1 2 5 4 4 8 4 1 3 6 2 2 5 2 4 3 2 5 3 2 3 4 4 2 0 4 5 2 4 3 4 7 2 2 3 1 2 5 2 3 3 3 3 3 4 1 3 4 2 4 1 3 5 4 3 5 4 2 4 1 2 4 4 2 4 3 2 3 3 3 4 2 2 3 3 4 4 3 2 3 3 2 1 2 3 5 3 3 2 2 4 3 5 4 2 2 2 4 5 2 4 4 4 4 1 2 2 3 1 5 4 3 2 2 2 3 2 4 4 3 2 3 3 3 4 8 3 5 4 1 2 7 2 2 4 3 5 3 1 1 5 2 2 2 5 3 3 3 1 4 5 3 2 3 4 1 4 3 3 2 3 2 3 2 5 4 3 3 6 2 1 1 4 4 6 3 2 3 1 1 3 3 2 3 4 3 2 4 3 0 3 3 3 1 3 3 1 1 4 6 1 2 4 2 3 1 2 3 3 4 3 3 3 1 3 1 2 4 2 3 4 2 3 5 4 2 5 2 2 5 3 2 3 5 3 3 4 4 4 4 4 2 1 1 2 3 2 4 3 4 2 2 4 3 2 2 2 4 5 7 2 5 4 6 3 6 2 6 1 6 6 3 2 3 1 2 3 2 3 1 3 4 3 3 4 5 2 3 2 5 1 3 3 1 3 1 4 2 6 2 4 1 3 4 1 3 1 3 4 3 5 4 2 2 4 1 3 4 2 1 2 4 3 1 3 2 3 3 3 2 3 3 2 4 4 2 2 3 4 5 7 3 3 3 5 4 2 3 5 4 3 2 2 3 3 1 1 2 2 3 3 4 3 4 2 2 2 4 3 2 4 4 3 3 2 1 3 2 2 2 3 5 1 3 2 4 3 1 1 2 1 2 3 0 4 6 1 3 3 3 2 3 5 2 3 2 5 4 4 2 2 3 2 1 4 3 1 2 2 8 2 4 3 3 2 5 3 3 2 2 3 3 3 0 3 1 3 5 5 4 4 6 2 3 1 5 2 8 3 5 3 3 4 3 3 3 4 4 6 2 4 3 6 3 3 7 3 6 2 4 4 2 3 5 1 3 4 3 2 2 4 5 4 2 2 4 3 3 3 6 4 3 1 1 3 4 1 1 3 6 2 2 3 3 4 2 6 3 3 4 3 3 3 2 5 5 2 2 5 2 4 3 5 2 4 4 3 3 1 1 3 4 5 4 
BTB PER SET COUNT: 1 3392 2921 2906 18 634 580 4985 537 4 57 133 1 711 2 1808 1 3 1611 2 815 4 63 41 544 3440 4 2 6 1446 3 6 10 10 24 4 3 2 135 4 1248 3354 4552 2 2605 3213 721 954 1021 2 2 3 1412 2 3 38 3 1006 5 2 6 1903 2 2 5186 2 3490 209 2596 3 4 3 6 1363 366 4219 1902 1897 4269 5 4887 1227 3 2794 383 4 2 3 40 1005 2 225 6 372 1697 1 6 3 41 4 3 546 3 1429 25 32 2 949 3 1699 1603 285 2 1342 0 2 4 5 557 2149 28 30 3475 1890 4019 82 2394 4 4 1 1112 3 1646 503 4906 3 1643 254 3 1006 32 1006 2 1983 1507 14 545 693 9 16 3 1 1955 464 533 6 3 1005 1909 268 1 262 1202 1 2407 1 1 1743 2913 2364 1526 1028 5 2 598 546 3 2809 504 2 3 2 3 1479 2 2061 531 5 659 264 5 11 2 1027 825 4 251 1158 4 400 4 2 7 3 0 9 5 336 3581 1953 33 1276 1145 383 3 3 3 1061 2 2425 756 5009 31 2098 1510 2 1462 304 4 196 1692 2895 546 1953 2506 2227 746 440 3 2729 702 4190 1418 458 1452 1 10693 2 1896 4 2 93 1 508 1408 20 1953 2 6 235 2481 1 2701 2 3 6 736 1450 4 1491 1 6 7 3 3 3 1933 1 0 2968 929 2 1 294 2 1 3 169 581 1 75 1949 4 405 4147 4240 1447 506 2 1445 4428 1 1004 717 3 249 504 2869 4287 980 1005 2 5 3 7126 4 2 2 505 4 5019 6 5 2 4481 18 26 11 1 2293 693 2769 503 3 1453 4 2 1851 1452 3 1154 6 664 53 2893 10 3127 6 522 2 3 1518 2711 15 233 515 953 22 2 15 7 518 2 1580 2 4 390 628 16 478 6784 1616 1 3 1456 22 1 2 1 1 1604 1853 3 9 987 949 1 7341 1451 234 3 1490 658 6 2 4 5523 1 2 2 538 343 3 649 2 7 2 2 1457 1443 11 92 1 1474 751 2 952 280 3 2088 2 2 2413 3898 254 504 3 384 2879 6 4 2 1611 3 3 0 468 4 2753 479 3 2 1 769 895 0 2 88 313 2290 3 461 1444 3 1320 1 3 2 1253 1 2193 621 729 597 6 2 1490 3009 3 504 5323 2038 1391 1481 4055 1515 1 3 8 1905 12 1448 4455 1456 2007 3 1533 971 4073 472 953 1448 2914 3 1479 9 3 2049 224 503 1445 3 1446 1450 872 3 1200 1 3 209 2 3 2433 2012 1702 5 1085 1961 29 1436 2 1661 1479 1720 4 3 1 754 34 2 3941 3 671 505 2 475 2 1443 1556 520 2277 1198 9 531 239 6458 504 1308 4 1387 3 4 1007 1640 447 1941 186 0 4960 2 1006 41 3 4 1476 30 2396 1161 3 3 1 797 1 510 900 3085 2896 2 3 2 9 4 392 8 2 1 6 1445 478 1453 3 5 2 2 3 3649 5992 4 709 1136 3 1478 3 2 1408 1699 4 1 3 3 3 4 3 1452 1 926 920 4321 3 28 451 1 523 5 260 9 2 1418 3 1899 2 2 31 1498 2 2827 18 4 3 3217 17 1453 1010 2 1895 503 17 3858 501 3389 2 19 4 1944 3 408 2899 486 3 1599 1 2254 494 984 249 1 5738 2395 2 703 39 2 3 3 16 2 2 950 3 3 586 590 1 2 440 2237 3 6 11 2 3721 1 1424 2 1450 397 3 2 2 8 4 2 6 2078 1491 3 3 77 3 284 1334 5 1 13 2184 524 3379 491 503 4 512 2811 3 984 2398 2 4 2404 2633 3080 7 255 1457 3 1453 5 6360 4 2 1474 1958 5852 1148 810 1625 1 2230 2 2 3 1200 555 3 3 1952 24 2 1 124 3 1990 3 257 5693 529 9 34 3478 2 5132 7 4 3 2 1524 38 4 3 1 257 2 597 1041 2 1 1423 1388 2 218 3 8 28 2715 536 469 3 675 1441 2 5 1628 2937 1956 1278 3186 3 4831 138 3856 4 4235 1923 0 1014 3 323 18 772 5 2 6 2 34 2 4 582 3 1905 4 1505 5849 1934 2 1158 561 3 2279 3891 358 2 0 3392 3 6 2 3 2303 16 2 3 3795 3 3 2 3 2 4 7146 1453 9 1042 379 3 239 1467 3 4176 2 3 992 510 23 1879 3 1452 7 3 1851 1 866 1210 5 39 839 1 3 131 2 277 1 5340 1 1446 247 6 5 1 4 2823 108 4 1 3617 3 4 1944 3361 873 3453 4465 923 3217 2 8 1883 3 1456 3 2704 2 2741 2944 3 1589 1 389 6523 43 433 729 4341 2714 4 3 1207 1505 4 1 2 5 19 219 537 3 4 1 761 907 523 145 21 3813 504 2 4792 3 878 4 2122 2 3 2 259 6 1082 1 3815 2 1 3 4687 1 4 1951 3 1452 2 2 4200 278 1929 354 1221 2917 987 2423 552 1945 2166 3 18 7 2 1691 467 17 2 3452 40 504 4 9 194 2 244 1808 4 4 3 2368 2 8 582 480 3 552 183 953 370 954 2 3 2552 40 6 2 504 506 5 3 1 1459 5 2 5 2 958 4 5 2104 3 5 2455 5 1810 1935 1453 1130 3 244 245 3 262 599 21 2667 30 2901 2 32 24 2665 222 3 1 5 963 171 1452 1701 2 2211 3 3006 952 1455 1663 4 4 10 1150 1236 8 1907 3 2373 1236 2 2 5642 2 978 1840 1466 4 1456 522 597 587 1908 12 10 6 6041 834 171 6 1940 4 502 2 8 134 1 990 44 1494 27 2811 44 1083 10 733 18 1199 1991 133 20 2 2 2010 3 2473 452 2 2 1987 2 5 211 453 9 2 2 3 1428 2 1007 4 712 138 2874 1272 303 248 2396 6 14 620 2 3350 7 1823 6 6 249 656 18 5 4 3762 4 3 613 2 4044 509 55 4 77 1 1 1687 1910 1 4 3748 38 974 895 2796 3 6 0 2570 3 1221 6 1082 1 2 2 1449 9 358 2 3 2 3741 1045 1710 882 2 4 0 1213 3 503 158 315 583 1 744 1451 1514 4 2 2 3 3 1238 141 2918 3 15 3 1420 1807 343 1242 1458 3 755 568 3 3 235 3 1 521 257 1969 4 2 1447 3 3 476 1002 247 24 1879 1490 3 2 1180 3 3 2689 1559 3 2 1947 2 2 2514 59 262 4 3 2151 140 1058 64 3 3 461 2186 2895 9 2663 2 1 540 251 6 4 1713 3 6 3 574 7 1518 1451 4 71 3 3 1407 2323 2888 5 3 3 7 1956 1 2 9 2 108 3 1 3 1450 500 2182 3028 3 5 626 24 2 1175 2 2 3 3 3714 1452 3 2 183 508 3505 1163 8 2705 507 3 335 1953 4420 1136 1 2279 2 3 246 2368 1436 2 350 1448 3 1 4 8 1837 224 3 1 633 4 3436 2 347 3 1956 168 2 246 949 4 10 4504 3508 3 1 2 1470 1 4 248 517 529 585 1943 2638 3 3 986 41 1 5 3 2194 7 1213 3 6 3 4 4316 2 1 2 1 6 4 1450 1127 1744 1403 2 861 5 3 2402 3 1 3 2846 2 861 4 2112 303 3 512 1029 503 2234 3 7218 3 3 450 5 2 2 2 2 1443 2 32 2405 4 3 80 242 9 3 738 6169 503 3 2 4 5 3 1221 4 3 1 4 1926 11 4474 2 4 2 789 898 141 1905 4 506 17 936 6 2 1053 5 1055 3 1672 477 1 2098 3 1971 3187 4 1324 2 11 980 3 855 2252 3 18 929 2 1438 14 4389 4753 9 1 1547 3845 2 2 1360 967 2348 4178 2 1489 28 1389 3 4 234 110 0 4 2209 2453 4 518 6717 4055 3 2 1171 1 2 145 2 3 945 3166 1638 4 513 1 6 1719 3 2419 1 581 10084 4 1048 1666 4 1440 936 1 334 816 3355 2 4 360 156 3 1424 3265 4 2 2 952 1991 1977 3068 1168 1299 3 807 2 1452 2 947 1022 3 3 2 1449 7 22 1091 6 2 2 511 2927 695 2 29 1453 289 7 1 2 2 41 1 2828 519 1484 2 263 2712 264 2 4 748 1444 2 3 24 8 5 4474 3292 1497 4 1 2 4287 176 2 2250 3 4667 2357 1060 2 13 5 1061 6 4071 7 3 2182 1 2492 2694 3 2 3 4 1 49 1053 155 2 48 518 3 75 1183 4 3 1518 73 1397 140 1 5 4 5919 220 2 29 1 58 3 1427 1068 3 4077 303 3 3088 3 0 1788 3 118 1 2399 947 1 1 4 1791 1 1449 260 489 28 1 1897 294 4 4071 267 4 1397 968 652 2 2592 1535 1535 342 736 2 727 3332 48 2 6 719 4 1450 3 4 1626 2821 29 22 4 602 4 964 2056 535 1 1450 534 702 2 2599 1297 525 506 2 1690 323 703 470 4 2126 2381 1948 2 1459 4 3713 5 3488 247 4762 2 1009 4194 4 7 977 1927 2 868 1623 1884 1 1394 992 2633 21 4408 29 1883 3 4 2342 1 4 1236 1945 3 502 959 581 8053 3 3260 1 216 2486 1 7 1 991 4 3 2386 56 503 2 1679 86 1165 2692 3 1 1215 936 19 1 3 2 1006 7 67 2 3 504 60 4613 31 207 2 3 223 14 6381 7 78 4 106 13 1948 3 1315 6 3 2 2 592 20309 1 1 9 773 496 3 4 3 1948 206 2 504 998 710 2 554 12 15 498 2 1 3 2 2 1077 6 120 3 3 2 1876 14504 1 1 504 409 2459 146 0 2542 953 2 1446 2199 39 4 3 3252 947 4040 2 5 2509 488 2 8 8 3 432 256 255 1 2 2 4113 104 1450 3 1226 2 72 4 186 1451 2 9 3376 1461 0 1048 502 1687 1759 6769 434 7 6190 564 466 1 5 12 4095 2055 3358 3 501 2854 1006 1241 6859 11 841 270 2 2248 36 3226 116 1067 1037 6826 1550 11 7 516 39 3005 280 1 3 2515 3 2 2 516 3574 2909 2413 949 3425 3 3 1108 507 875 3 1330 1 3 33 1006 501 259 6247 2 18 543 4 2859 1454 58 658 3 4 3 3524 3105 5 2730 7 3 2 12 750 4 3 311 2 1016 846 51 1500 1 8 502 4 58 2732 
To predecode: 1175702
Predecoding something: 731644
Predecode request dropped: 0
sizeofblock_0 0
sizeofblock_1 583314
sizeofblock_2 499912
sizeofblock_3 501391
sizeofblock_4 108894
sizeofblock_5 0
sizeofblock_6 0
sizeofblock_7 0
sizeofblock_8 0
