
*** ChampSim Multicore Out-of-Order Simulator ***

Warmup Instructions: 50000000
Simulation Instructions: 50000000
Number of CPUs: 1
LLC sets: 2048
LLC ways: 16
Off-chip DRAM Size: 4096 MB Channels: 1 Width: 64-bit Data Rate: 6400 MT/s
CPU 0 runs ./micro_traces/srv563.trace.gz
.gz
ITLB has LRU replacement policy
DTLB has LRU replacement policy
STLB has LRU replacement policy
FDIP Prefetcher at L1I
L1I has LRU replacement policy
L1D has LRU replacement policy
Initialize SRRIP state for L2C
Initialize DRRIP state for LLC
Heartbeat CPU 0 instructions: 10000000 cycles: 2797822 heartbeat IPC: 3.57421 cumulative IPC: 3.57421 (Simulation time: 0 hr 1 min 52 sec) 
Heartbeat CPU 0 instructions: 20000000 cycles: 5594575 heartbeat IPC: 3.57557 cumulative IPC: 3.57489 (Simulation time: 0 hr 3 min 39 sec) 
Heartbeat CPU 0 instructions: 30000002 cycles: 8391155 heartbeat IPC: 3.5758 cumulative IPC: 3.57519 (Simulation time: 0 hr 5 min 31 sec) 
Heartbeat CPU 0 instructions: 40000000 cycles: 11187382 heartbeat IPC: 3.57625 cumulative IPC: 3.57546 (Simulation time: 0 hr 7 min 22 sec) 
Heartbeat CPU 0 instructions: 50000003 cycles: 13983406 heartbeat IPC: 3.57651 cumulative IPC: 3.57567 (Simulation time: 0 hr 9 min 12 sec) 

Warmup complete CPU 0 instructions: 50000003 cycles: 13983406 (Simulation time: 0 hr 9 min 12 sec) 

Cycle: 20000000 FTQ IN: 58248414 FTQ occupancy: 17.8028 DECODE IN: 58248404 DECODE occupancy: 47.8189 ROB IN: 58248389 ROB occupancy: 308.943 ROB OUT: 58248232
Heartbeat CPU 0 instructions: 60000000 cycles: 21263837 heartbeat IPC: 1.37354 cumulative IPC: 1.37354 (Simulation time: 0 hr 11 min 8 sec) 
Heartbeat CPU 0 instructions: 70000003 cycles: 28473603 heartbeat IPC: 1.38701 cumulative IPC: 1.38024 (Simulation time: 0 hr 12 min 52 sec) 
Cycle: 30000000 FTQ IN: 13857821 FTQ occupancy: 5.50038 DECODE IN: 13857831 DECODE occupancy: 18.9358 ROB IN: 13857846 ROB occupancy: 215.819 ROB OUT: 13857860
Heartbeat CPU 0 instructions: 80000003 cycles: 35755223 heartbeat IPC: 1.37332 cumulative IPC: 1.37793 (Simulation time: 0 hr 14 min 43 sec) 
Cycle: 40000000 FTQ IN: 13794355 FTQ occupancy: 5.65273 DECODE IN: 13794355 DECODE occupancy: 19.1961 ROB IN: 13794355 ROB occupancy: 216.559 ROB OUT: 13794280
Heartbeat CPU 0 instructions: 90000000 cycles: 42962337 heartbeat IPC: 1.38752 cumulative IPC: 1.38031 (Simulation time: 0 hr 16 min 22 sec) 
Cycle: 50000000 FTQ IN: 13886169 FTQ occupancy: 5.53146 DECODE IN: 13886169 DECODE occupancy: 18.8893 ROB IN: 13886138 ROB occupancy: 215.221 ROB OUT: 13886004
Heartbeat CPU 0 instructions: 100000000 cycles: 50203313 heartbeat IPC: 1.38103 cumulative IPC: 1.38046 (Simulation time: 0 hr 18 min 9 sec) 
Finished CPU 0 instructions: 50000001 cycles: 36219908 cumulative IPC: 1.38046 (Simulation time: 0 hr 18 min 9 sec) 

ChampSim completed all CPUs

Region of Interest Statistics

CPU 0 cumulative IPC: 1.38046 instructions: 50000001 cycles: 36219908
 Fetch stage stalled: 63.9448  Sim cycles: 36219908 fetch stall cycle: 23160752
 Empty decode stage: 48.9618  Sim cycles: 36219908 fetch stall cycle: 17733920
ITLB TOTAL     ACCESS:    5573866  HIT:    5080022  MISS:     493844  HIT %:      91.14  MISS %:    8.85999   MPKI: 9.87688
ITLB LOAD TRANSLATION INSTRUCTION	ACCESS:    5457518  HIT:    4963674  MISS:     493844  HIT %:    90.9511  MISS %:    9.04888  MPKI: 9.87688
ITLB TRANSLATION FROM L1D PREFETCHER INSTRUCTION	ACCESS:     116348  HIT:     116348  MISS:          0  HIT %:        100  MISS %:          0  MPKI: 0

ITLB AVERAGE MISS LATENCY: 9.04609 cycles
ITLB RQ	ACCESS:    7416005	FORWARD:          0	MERGED:    1353731	TO_CACHE:    6062274

DTLB TOTAL     ACCESS:    9000060  HIT:    8528097  MISS:     471963  HIT %:     94.756  MISS %:      5.244   MPKI: 9.43926
DTLB LOAD TRANSLATION DATA	ACCESS:    9000060  HIT:    8528097  MISS:     471963  HIT %:     94.756  MISS %:      5.244  MPKI: 9.43926

DTLB AVERAGE MISS LATENCY: 9.32952 cycles
DTLB RQ	ACCESS:   13361404	FORWARD:          0	MERGED:    4324569	TO_CACHE:    9036835

STLB TOTAL     ACCESS:    1214555  HIT:    1212511  MISS:       2044  HIT %:    99.8317  MISS %:   0.168292   MPKI: 0.04088
STLB LOAD TRANSLATION INSTRUCTION	ACCESS:     493844  HIT:     493593  MISS:        251  HIT %:    99.9492  MISS %:  0.0508258  MPKI: 0.00502
STLB LOAD TRANSLATION DATA	ACCESS:     471861  HIT:     470105  MISS:       1756  HIT %:    99.6279  MISS %:   0.372143  MPKI: 0.03512
STLB TRANSLATION FROM L1D PREFETCHER DATA	ACCESS:     248850  HIT:     248813  MISS:         37  HIT %:    99.9851  MISS %:  0.0148684  MPKI: 0.00074

STLB AVERAGE MISS LATENCY: 73.9716 cycles
STLB RQ	ACCESS:    1336496	FORWARD:          0	MERGED:     121903	TO_CACHE:    1214593

STLB Hit, L1D data hit: 0
STLB Hit, L2C data hit: 0
STLB Hit, LLC data hit: 0
STLB Hit, LLC data miss: 0
STLB STLB hints to L2: 0
L1D TOTAL     ACCESS:   13111106  HIT:   11993358  MISS:    1117748  HIT %:    91.4748  MISS %:     8.5252   MPKI: 22.355
L1D LOAD DATA	ACCESS:    6569848  HIT:    5833241  MISS:     736607  HIT %:    88.7881  MISS %:    11.2119  MPKI: 14.7321
L1D RFO DATA	ACCESS:    6212367  HIT:    5926009  MISS:     286358  HIT %:    95.3905  MISS %:    4.60948  MPKI: 5.72716
L1D PREFETCH DATA	ACCESS:     328891  HIT:     234108  MISS:      94783  HIT %:     71.181  MISS %:     28.819  MPKI: 1.89566

L1D PREFETCH  REQUESTED:     741776  ISSUED:     741776  USEFUL:      34951  USELESS:      68561
L1D USEFUL LOAD PREFETCHES:      34951 PREFETCH ISSUED TO LOWER LEVEL:     103505  ACCURACY: 33.7675
 TIMELY PREFETCHES:      34951 LATE PREFETCHES: 8683 DROPPED PREFETCHES: 7
L1D AVERAGE MISS LATENCY: 252621 cycles
L1D RQ	ACCESS:   10719331	FORWARD:          0	MERGED:    3950790	TO_CACHE:    6603615
L1D WQ	ACCESS:    6950443	FORWARD:     165328	MERGED:     192654	TO_CACHE:    6757789
L1D PQ	ACCESS:     371089	FORWARD:          0	MERGED:          0	TO_CACHE:     370687

L1D UNIQUE REGIONS ACCESSED: 0
L1D REGIONS CONFLICTS: 0
L1D Cross Page Prefetch Requests: 7000
L1D Same Page Prefetch Requests: 749896
L1D ROI Sum of L1D PQ occupancy: 4713906
L1D PREFETCHES PUSHED FROM L2C: 0
L1I TOTAL     ACCESS:    6861008  HIT:    4096980  MISS:    2764028  HIT %:     59.714  MISS %:     40.286   MPKI: 55.2806
L1I LOAD INSTRUCTION	ACCESS:    6354281  HIT:    3590253  MISS:    2764028  HIT %:    56.5013  MISS %:    43.4987  MPKI: 55.2806
L1I PREFETCH INSTRUCTION	ACCESS:     506727  HIT:     506727  MISS:          0  HIT %:        100  MISS %:          0  MPKI: 0

L1I PREFETCH  REQUESTED:    1113673  ISSUED:    1113673  USEFUL:          0  USELESS:          0
L1I USEFUL LOAD PREFETCHES:          0 PREFETCH ISSUED TO LOWER LEVEL:          0  ACCURACY: -nan
 TIMELY PREFETCHES:          0 LATE PREFETCHES: 0 DROPPED PREFETCHES: 0
L1I AVERAGE MISS LATENCY: 17.1953 cycles
L1I RQ	ACCESS:    9436477	FORWARD:          0	MERGED:    2818477	TO_CACHE:    6618000
L1I PQ	ACCESS:    1113673	FORWARD:          0	MERGED:     315668	TO_CACHE:     798005

L1BTB TOTAL     ACCESS:    5669503  HIT:    2040477  MISS:    3629026  HIT %:    35.9904  MISS %:    64.0096   MPKI: 72.5805
L1BTB BRANCH_DIRECT_JUMP	ACCESS:     548588  HIT:     144264  MISS:     404324	AVERAGE STALL: 24.7231
L1BTB BRANCH_INDIRECT	ACCESS:     182965  HIT:      66049  MISS:     116916	AVERAGE STALL: 89.2497
L1BTB BRANCH_CONDITIONAL	ACCESS:    2710003  HIT:    1416661  MISS:    1293342	AVERAGE STALL: 22.5493
L1BTB BRANCH_DIRECT_CALL	ACCESS:     942634  HIT:     104142  MISS:     838492	AVERAGE STALL: 25.4388
L1BTB BRANCH_INDIRECT_CALL	ACCESS:     171337  HIT:      20857  MISS:     150480	AVERAGE STALL: 124.685
L1BTB BRANCH_RETURN	ACCESS:    1113976  HIT:     288504  MISS:     825472	AVERAGE STALL: 25.0002
L1BTB BRANCH_OTHER ACCESS:          0  HIT:          0  MISS:          0	AVERAGE STALL: -nan
L1BTB TOTAL ROB OCCUPANCY AT BTB MISS: 23.2484

L2BTB TOTAL     ACCESS:    3603588  HIT:    3164847  MISS:     438741  HIT %:    87.8249  MISS %:    12.1751   MPKI: 8.77482
L2BTB BRANCH_DIRECT_JUMP	ACCESS:     400147  HIT:     350975  MISS:      49172	AVERAGE STALL: 24.7231
L2BTB BRANCH_INDIRECT	ACCESS:     106632  HIT:     101247  MISS:       5385	AVERAGE STALL: 89.2497
L2BTB BRANCH_CONDITIONAL	ACCESS:    1293342  HIT:    1147964  MISS:     145378	AVERAGE STALL: 22.5493
L2BTB BRANCH_DIRECT_CALL	ACCESS:     838492  HIT:     722109  MISS:     116383	AVERAGE STALL: 25.4388
L2BTB BRANCH_INDIRECT_CALL	ACCESS:     140919  HIT:     119412  MISS:      21507	AVERAGE STALL: 124.685
L2BTB BRANCH_RETURN	ACCESS:     824056  HIT:     723140  MISS:     100916	AVERAGE STALL: 25.0002
L2BTB BRANCH_OTHER ACCESS:          0  HIT:          0  MISS:          0	AVERAGE STALL: -nan
L2BTB TOTAL ROB OCCUPANCY AT BTB MISS: 192.298

L2C TOTAL     ACCESS:    4483935  HIT:    4022428  MISS:     461507  HIT %:    89.7075  MISS %:    10.2925   MPKI: 9.23014
L2C LOAD INSTRUCTION	ACCESS:    2764028  HIT:    2510227  MISS:     253801  HIT %:    90.8177  MISS %:    9.18229  MPKI: 5.07602
L2C LOAD TRANSLATION INSTRUCTION	ACCESS:        285  HIT:         68  MISS:        217  HIT %:    23.8596  MISS %:    76.1404  MPKI: 0.00434
L2C LOAD DATA	ACCESS:     727897  HIT:     659314  MISS:      68583  HIT %:    90.5779  MISS %:    9.42207  MPKI: 1.37166
L2C RFO DATA	ACCESS:     286285  HIT:     232254  MISS:      54031  HIT %:    81.1268  MISS %:    18.8732  MPKI: 1.08062
L2C PREFETCH DATA	ACCESS:     181165  HIT:     111913  MISS:      69252  HIT %:    61.7741  MISS %:    38.2259  MPKI: 1.38504
L2C WRITEBACK DATA	ACCESS:     522389  HIT:     508186  MISS:      14203  HIT %:    97.2811  MISS %:    2.71886  MPKI: 0.28406
L2C LOAD TRANSLATION DATA	ACCESS:       1825  HIT:        424  MISS:       1401  HIT %:    23.2329  MISS %:    76.7671  MPKI: 0.02802
L2C TRANSLATION FROM L1D PREFETCHER DATA	ACCESS:         61  HIT:         42  MISS:         19  HIT %:    68.8525  MISS %:    31.1475  MPKI: 0.00038

L2C PREFETCH  REQUESTED:      85296  ISSUED:      85296  USEFUL:       7692  USELESS:      61723
L2C USEFUL LOAD PREFETCHES:       7692 PREFETCH ISSUED TO LOWER LEVEL:      69813  ACCURACY: 11.018
 TIMELY PREFETCHES:       7692 LATE PREFETCHES: 561 DROPPED PREFETCHES: 0
L2C AVERAGE MISS LATENCY: 39.5623 cycles
L2C RQ	ACCESS:    3780446	FORWARD:          0	MERGED:          0	TO_CACHE:    3780385
L2C WQ	ACCESS:     522389	FORWARD:         61	MERGED:          0	TO_CACHE:     522389
L2C PQ	ACCESS:     188801	FORWARD:          0	MERGED:       3613	TO_CACHE:     185188

L2C Dense regions hint from L2: 0
PSCL5 TOTAL     ACCESS:       4114  HIT:       2057  MISS:       2057  HIT %:         50  MISS %:         50   MPKI: 0.04114
PSCL5 LOAD TRANSLATION INSTRUCTION	ACCESS:       3992  HIT:       1996  MISS:       1996  HIT %:         50  MISS %:         50  MPKI: 0.03992
PSCL5 TRANSLATION FROM L1D PREFETCHER INSTRUCTION	ACCESS:        122  HIT:         61  MISS:         61  HIT %:         50  MISS %:         50  MPKI: 0.00122


PSCL4 TOTAL     ACCESS:       3930  HIT:       1960  MISS:       1970  HIT %:    49.8728  MISS %:    50.1272   MPKI: 0.0394
PSCL4 LOAD TRANSLATION INSTRUCTION	ACCESS:       2346  HIT:       1907  MISS:        439  HIT %:    81.2873  MISS %:    18.7127  MPKI: 0.00878
PSCL4 TRANSLATION FROM L1D PREFETCHER INSTRUCTION	ACCESS:         59  HIT:         53  MISS:          6  HIT %:    89.8305  MISS %:    10.1695  MPKI: 0.00012
PSCL4 LOAD TRANSLATION DATA	ACCESS:       1478  HIT:          0  MISS:       1478  HIT %:          0  MISS %:        100  MPKI: 0.02956
PSCL4 TRANSLATION FROM L1D PREFETCHER DATA	ACCESS:         47  HIT:          0  MISS:         47  HIT %:          0  MISS %:        100  MPKI: 0.00094


PSCL3 TOTAL     ACCESS:       4000  HIT:       1995  MISS:       2005  HIT %:     49.875  MISS %:     50.125   MPKI: 0.0401
PSCL3 LOAD TRANSLATION INSTRUCTION	ACCESS:       2381  HIT:       1942  MISS:        439  HIT %:    81.5624  MISS %:    18.4376  MPKI: 0.00878
PSCL3 TRANSLATION FROM L1D PREFETCHER INSTRUCTION	ACCESS:         59  HIT:         53  MISS:          6  HIT %:    89.8305  MISS %:    10.1695  MPKI: 0.00012
PSCL3 LOAD TRANSLATION DATA	ACCESS:       1513  HIT:          0  MISS:       1513  HIT %:          0  MISS %:        100  MPKI: 0.03026
PSCL3 TRANSLATION FROM L1D PREFETCHER DATA	ACCESS:         47  HIT:          0  MISS:         47  HIT %:          0  MISS %:        100  MPKI: 0.00094


PSCL2 TOTAL     ACCESS:       4019  HIT:       1962  MISS:       2057  HIT %:    48.8181  MISS %:    51.1819   MPKI: 0.04114
PSCL2 LOAD TRANSLATION INSTRUCTION	ACCESS:       2152  HIT:       1901  MISS:        251  HIT %:    88.3364  MISS %:    11.6636  MPKI: 0.00502
PSCL2 TRANSLATION FROM L1D PREFETCHER INSTRUCTION	ACCESS:         61  HIT:         61  MISS:          0  HIT %:        100  MISS %:          0  MPKI: 0
PSCL2 LOAD TRANSLATION DATA	ACCESS:       1745  HIT:          0  MISS:       1745  HIT %:          0  MISS %:        100  MPKI: 0.0349
PSCL2 TRANSLATION FROM L1D PREFETCHER DATA	ACCESS:         61  HIT:          0  MISS:         61  HIT %:          0  MISS %:        100  MPKI: 0.00122


LLC TOTAL     ACCESS:     522961  HIT:     493008  MISS:      29953  HIT %:    94.2724  MISS %:    5.72758   MPKI: 0.59906
LLC LOAD INSTRUCTION	ACCESS:     253802  HIT:     252920  MISS:        882  HIT %:    99.6525  MISS %:   0.347515  MPKI: 0.01764
LLC LOAD TRANSLATION INSTRUCTION	ACCESS:        217  HIT:        195  MISS:         22  HIT %:    89.8618  MISS %:    10.1382  MPKI: 0.00044
LLC LOAD DATA	ACCESS:      68097  HIT:      64581  MISS:       3516  HIT %:    94.8368  MISS %:    5.16322  MPKI: 0.07032
LLC RFO DATA	ACCESS:      53954  HIT:      38537  MISS:      15417  HIT %:    71.4257  MISS %:    28.5743  MPKI: 0.30834
LLC PREFETCH DATA	ACCESS:      69813  HIT:      60138  MISS:       9675  HIT %:    86.1415  MISS %:    13.8585  MPKI: 0.1935
LLC WRITEBACK DATA	ACCESS:      75658  HIT:      75288  MISS:        370  HIT %:     99.511  MISS %:   0.489043  MPKI: 0.0074
LLC LOAD TRANSLATION DATA	ACCESS:       1401  HIT:       1330  MISS:         71  HIT %:    94.9322  MISS %:    5.06781  MPKI: 0.00142
LLC TRANSLATION FROM L1D PREFETCHER DATA	ACCESS:         19  HIT:         19  MISS:          0  HIT %:        100  MISS %:          0  MPKI: 0

LLC AVERAGE MISS LATENCY: 160.123 cycles
LLC RQ	ACCESS:     377495	FORWARD:          0	MERGED:          0	TO_CACHE:     377493
LLC WQ	ACCESS:      75658	FORWARD:          2	MERGED:          0	TO_CACHE:      75658
LLC PQ	ACCESS:      69813	FORWARD:          0	MERGED:          0	TO_CACHE:      69813

LLC Dense regions hint to LLC: 0

RAW hits: 1921218
Loads Generated: 12640547
Loads sent to L1D: 10719331
Stores Generated: 6950437
Stores sent to L1D: 6950443
Major fault: 0 Minor fault: 2546
Allocated PAGES: 2546

stream: 
stream:times selected: 1186287
stream:pref_filled: 122460
stream:pref_useful: 24570
stream:pref_late: 6810
stream:misses: 7907
stream:misses_by_poll: 0

CS: 
CS:times selected: 178577
CS:pref_filled: 59616
CS:pref_useful: 35675
CS:pref_late: 7854
CS:misses: 17610
CS:misses_by_poll: 2

CPLX: 
CPLX:times selected: 1006586
CPLX:pref_filled: 19295
CPLX:pref_useful: 4533
CPLX:pref_late: 3034
CPLX:misses: 93144
CPLX:misses_by_poll: 1

NL_L1: 
NL:times selected: 21317
NL:pref_filled: 681
NL:pref_useful: 284
NL:pref_late: 365
NL:misses: 1876
NL:misses_by_poll: 0

total selections: 2392767
total_filled: 94783
total_useful: 34951
total_late: 19359
total_polluted: 3
total_misses_after_warmup: 770376
conflicts: 5531903

test: 118260

DRAM Statistics
 CHANNEL 0
 RQ ROW_BUFFER_HIT:      11214  ROW_BUFFER_MISS:      18344
 DBUS_CONGESTED:         13
 WQ ROW_BUFFER_HIT:       1483  ROW_BUFFER_MISS:      12774  FULL:          0

 AVG_CONGESTED_CYCLE: 5

CPU 0 Branch Prediction Accuracy: 99.8245% MPKI: 0.32086 Average ROB Occupancy at Mispredict: 183.7
Branch types
NOT_BRANCH: 40858324 81.7166%
BRANCH_DIRECT_JUMP: 548588 1.09718%
BRANCH_INDIRECT: 182965 0.36593%
BRANCH_CONDITIONAL: 6181815 12.3636%
BRANCH_DIRECT_CALL: 942634 1.88527%
BRANCH_INDIRECT_CALL: 171337 0.342674%
BRANCH_RETURN: 1113976 2.22795%
BRANCH_OTHER: 0 0%

DRAM PAGES: 1048576
Allocated PAGES: 2546
Average_ROB_Occupancy: 217.446
Average_Decode_Occupancy: 19.1414
Average_FTQ_Occupancy: 5.62568
Indirect max targets: 14 Average targets: 1.14966
Branch_type:  BRANCH_DIRECT_JUMP:  Count Percentage: 2.90188 6.71545 4.01451 9.10763 1.69594 5.97479 1.21898 68.3708 
Branch_type:  BRANCH_INDIRECT:  Count Percentage: 11.769 3.45274 2.54579 0 1.33799 9.66651 5.88967 65.3383 
Branch_type:  BRANCH_CONDITIONAL:  Count Percentage: 21.0906 3.22782 1.77466 5.4371 1.17557 12.8984 1.2358 53.1601 
Branch_type:  BRANCH_DIRECT_CALL:  Count Percentage: 0.259583 1.77361 1.43083 4.70998 2.16542 2.99894 0.705794 85.9558 
Branch_type:  BRANCH_INDIRECT_CALL:  Count Percentage: 9.55558 0 2.99514 8.70266 0 2.6605 1.28405 74.8021 
Branch_type:  BRANCH_RETURN:  Count Percentage: 3.90657 1.38011 1.41195 6.33894 2.79834 12.8647 1.89923 69.4001 
Branch_type:  BRANCH_DIRECT_JUMP:  Total Count: 31814 73623 44012 99849 18593 65503 13364 749565 
Branch_type:  BRANCH_INDIRECT:  Total Count: 43030 12624 9308 0 4892 35343 21534 238892 
Branch_type:  BRANCH_CONDITIONAL:  Total Count: 2606333 398887 219309 671906 145275 1593953 152718 6569421 
Branch_type:  BRANCH_DIRECT_CALL:  Total Count: 4896 33452 26987 88835 40842 56563 13312 1621215 
Branch_type:  BRANCH_INDIRECT_CALL:  Total Count: 32781 0 10275 29855 0 9127 4405 256613 
Branch_type:  BRANCH_RETURN:  Total Count: 87115 30776 31486 141356 62402 286879 42352 1547596 
Number of unique branch instructions: 9917
Upper 32 bits: 
aaaa
ffff
ffff0000
Unique upper 32 bits: 3
Unique upper 36 bits: 3
Unique upper 40 bits: 5
Unique upper 44 bits: 32
Unique upper 48 bits: 154
Offset_3 4073
Offset_4 249
Offset_5 451
Offset_6 503
Offset_7 585
Offset_8 509
Offset_9 468
Offset_10 385
Offset_11 315
Offset_12 288
Offset_13 201
Offset_14 230
Offset_15 189
Offset_16 223
Offset_17 143
Offset_18 126
Offset_19 240
Offset_20 142
Offset_21 235
Offset_22 392
Offset_23 241
Offset_24 327
Offset_25 88
Offset_47 80
decode_dispatch_called: 22853652 63.0969
Dispatch_width: 0 11374353 49.7704 31.4036
Dispatch_width: 1 892491 3.90524 2.46409
Dispatch_width: 2 1030770 4.51031 2.84587
Dispatch_width: 3 684836 2.99662 1.89077
Dispatch_width: 4 3911768 17.1166 10.8
Dispatch_width: 5 412451 1.80475 1.13874
Dispatch_width: 6 4546983 19.8961 12.5538
Empty_decode_cycles: 13366256 36.9031
ROB_full_cycles: 5937678 16.3934
Starvation_cycles_per_kilo_instr: 257.352
Starvation_cycles_per_kilo_instr_3: 214.11
Starvation_cycles_per_kilo_instr_0: 188.029
Branch_type_1  (3,1)  (4,9)  (5,37)  (6,69)  (7,114)  (8,127)  (9,123)  (10,98)  (11,70)  (12,51)  (13,5)  (14,2)  (15,3)  (16,4)  (18,1)  (19,4)  (20,2)  (21,1)  (22,3)  (23,2)  (24,10)  (25,12) 
Branch_type_2  (3,1)  (5,1)  (8,3)  (9,3)  (12,1)  (13,1)  (14,1)  (16,3)  (17,2)  (20,2)  (21,2)  (23,5)  (24,1)  (47,36) 
Branch_type_3  (3,4071)  (4,240)  (5,409)  (6,418)  (7,439)  (8,317)  (9,256)  (10,156)  (11,130)  (12,58)  (13,4) 
Branch_type_4  (6,4)  (7,8)  (8,26)  (9,54)  (10,62)  (11,59)  (12,99)  (13,87)  (14,102)  (15,89)  (16,100)  (17,64)  (18,57)  (19,116)  (20,74)  (21,124)  (22,209)  (23,136)  (24,188)  (25,72) 
Branch_type_5  (8,2)  (9,1)  (10,3)  (11,5)  (12,3)  (13,14)  (14,16)  (15,11)  (16,20)  (17,11)  (18,16)  (19,12)  (20,10)  (21,13)  (22,42)  (23,26)  (24,37) 
Branch_type_6  (5,4)  (6,12)  (7,24)  (8,34)  (9,31)  (10,66)  (11,51)  (12,76)  (13,90)  (14,109)  (15,86)  (16,96)  (17,66)  (18,52)  (19,108)  (20,54)  (21,95)  (22,138)  (23,72)  (24,91)  (25,4)  (47,44) 
aaaaab1fc620: 2ac9e77e 2aca717c 2aca8eff 2acaf6bc 2acaf9aa 2acaf9f1 2acb1abc 2acb1b7f 2acd4e22 2acdb712 2acf5f9e 2ad0ef44 2ad3f15c 2ad414e6 2ad60e42 2ad8609c 2ad99830 2ada35cc 2ada4676 2ada6612 2adf183e 2adf30e5 2adf5602 2adf785c 2ae11572 2aeb2dcf 2aee101b 2aee1ae1 2b156a8c 2b156b61 2b156bea 2b167f35 2b177656 2b17feec 2b1a3e5a 
aaaaac68f310: 2ac9ec8c 2ac9fb44 2ac9fbd2 2aca59ab 2acac04c 2acaf6e0 2acaf6ec 2acaf6f9 2acaf700 2acaf708 2acf2d90 2ad3cfbd 2ad3cfc4 2ad3d000 2ad3f35f 2ad4955d 2ad49571 2ad4f3f2 2ad4f400 2ad5f240 2ad5f37c 2ad5f86a 2ad5f86f 2ad5f880 2ad5fc0d 2ad5fc14 2ad5fc21 2ad5fe1b 2ad873bb 2ad873e3 2ad8a6b2 2ad9086e 2ad93096 2ad9bbb2 2ada152c 2ada1554 2ada3332 2ada5522 2adf3130 2adf313c 2adf3a3f 2adf3bd9 2adf5788 2adf7a8d 2ae07f6b 2ae0857a 2ae0857e 2ae08630 2ae08634 2ae08637 2ae08642 2ae0866f 2ae086e4 2ae086ec 2ae08717 2ae0871b 2aee0170 2aee1d38 2aee75f4 2aee7662 2aee85ca 2aee85e4 2aee8eef 2af70b84 2af74e8f 2b17d843 
aaaaac690ef0: 2aca598b 2acb111b 2acb175f 2acb1772 2acbfaf4 2acbfb00 2acf374f 2acf6d43 2acfa5c8 2ad3baf1 2ad3d4ac 2ad3d4b8 2ad3f1cf 2ad486b2 2ad5a59b 2ad5fc64 2ad5fcf9 2ad6121c 2ad906e9 2ad907bf 2ad9bada 2ada16ce 2ada1ad5 2ada43df 2ada64c0 2ada72ee 2adeb71a 2adf3bcb 2adf7a38 2adf7c6a 2adf8872 2adf8880 2adf9959 2adf9abe 2ae07f78 2ae08503 2ae08754 2ae12e80 2aea3bea 2aecb509 2aee00b0 2aee2bdd 2aee5467 2aee5601 2aee8f20 2af703fd 2af7048b 2af74e74 
Unique trigger count: 
1 9454
2 503
3 86
4 27
5 10
6 9
7 6
9 3
10 2
11 1
12 2
13 3
16 2
17 2
19 3
35 1
48 1
66 1
BTB PER SET UNIQUE ADDR: 2 4 3 2 1 0 3 2 4 0 2 0 5 3 1 3 3 2 4 4 3 4 2 3 4 5 1 4 3 2 6 6 4 3 4 2 1 5 5 2 3 4 3 7 6 2 4 3 6 3 3 2 3 1 0 3 4 3 3 3 1 4 2 3 1 4 5 2 3 5 5 1 1 4 2 3 3 7 2 3 2 3 1 4 3 3 2 5 3 3 6 4 3 5 3 0 4 3 1 3 4 2 3 3 3 2 1 2 3 2 2 1 3 6 2 6 2 5 4 1 4 4 2 0 1 2 2 1 6 6 5 2 4 2 5 3 2 1 3 3 5 3 3 3 1 4 2 5 4 3 3 8 3 5 3 0 3 3 4 2 4 5 4 4 5 3 2 2 8 1 2 2 4 2 1 1 3 5 5 1 3 3 6 3 4 6 3 1 2 3 5 3 3 4 4 4 3 3 3 6 3 2 4 1 3 3 2 4 2 1 2 4 5 4 3 2 3 5 4 0 1 1 2 3 3 2 3 3 0 3 8 3 3 2 3 3 3 3 1 2 1 0 5 3 9 7 1 1 3 3 3 2 1 3 2 6 3 4 4 3 4 4 4 2 3 6 3 1 4 2 3 2 2 3 4 2 2 1 3 3 4 2 5 2 5 5 3 3 1 1 0 3 1 6 1 1 4 3 1 2 3 3 1 2 4 2 4 2 5 5 3 1 3 2 5 1 6 6 2 1 3 7 3 5 2 2 1 6 1 0 4 0 2 5 5 2 3 4 5 0 4 0 1 4 4 2 1 5 4 3 3 6 4 3 5 3 2 0 4 1 2 5 2 4 6 5 1 1 2 2 2 2 3 4 4 4 3 3 3 4 6 3 2 6 3 2 5 2 4 1 5 5 4 2 3 1 6 0 1 4 4 2 3 2 2 4 3 2 1 1 1 3 4 3 2 2 5 3 1 3 1 1 3 4 4 3 3 0 2 5 1 2 8 3 5 5 3 3 3 0 2 4 5 3 4 6 2 3 3 2 4 3 1 1 5 1 1 3 7 2 3 3 4 6 2 3 6 3 3 3 0 4 4 3 3 1 4 5 1 1 2 1 2 2 0 4 3 0 5 1 4 2 3 4 1 5 3 3 2 1 5 1 1 2 1 2 2 2 2 3 3 2 2 6 2 1 2 5 4 5 3 4 4 2 6 5 0 5 6 3 4 3 3 6 3 5 1 1 4 1 2 5 6 2 5 2 7 3 6 9 3 6 3 6 1 3 3 1 2 3 7 2 5 2 2 1 4 2 2 7 3 2 3 7 2 2 3 3 1 5 4 2 1 0 1 0 0 9 4 2 5 6 1 1 2 3 5 2 2 1 3 2 4 6 1 4 3 4 2 2 5 2 2 2 2 2 2 0 3 1 5 3 6 2 2 3 2 5 2 3 5 4 3 2 5 2 2 3 2 2 7 1 4 3 0 0 3 3 3 3 4 2 5 2 3 0 4 3 2 3 5 2 5 4 5 4 5 2 1 4 5 3 4 3 5 6 3 3 3 3 3 2 4 2 5 3 5 3 4 3 1 4 2 2 2 3 6 4 5 3 0 6 0 3 3 2 4 1 3 1 3 3 3 2 2 1 7 2 0 3 2 0 1 1 1 1 1 4 2 4 5 5 2 2 2 4 4 3 2 2 1 3 2 4 2 1 3 2 2 2 0 2 1 3 2 2 2 6 4 1 3 3 1 5 4 4 8 3 2 2 5 4 0 3 3 4 5 2 1 3 3 4 0 3 8 6 3 3 0 2 2 4 1 1 4 7 7 2 2 3 5 3 5 3 5 3 3 5 1 2 1 4 4 0 4 4 1 2 0 4 4 2 4 2 2 1 2 2 4 4 3 1 3 2 5 2 2 1 5 2 2 1 3 3 1 4 6 4 4 2 6 2 5 4 4 5 3 2 5 4 3 6 2 1 9 3 2 4 5 3 1 3 3 6 4 0 2 2 5 4 3 5 3 4 5 3 2 2 2 5 4 3 3 3 3 1 6 3 1 1 5 2 1 3 4 5 3 5 3 4 5 4 0 3 1 5 0 0 5 2 5 4 5 3 4 1 3 2 5 6 4 4 8 7 5 4 6 4 1 6 4 2 0 4 4 5 5 5 3 2 6 0 5 5 2 3 6 5 4 2 2 3 4 5 2 5 9 4 6 3 2 4 0 5 6 1 6 5 1 3 6 5 3 5 2 1 2 2 3 2 5 4 2 7 5 3 4 5 3 5 1 2 5 2 2 5 4 3 2 3 5 2 4 4 5 2 5 2 2 3 5 2 10 5 2 3 3 2 2 3 4 7 6 2 3 2 3 2 2 1 3 2 4 4 2 4 5 5 4 6 0 3 3 3 3 4 2 1 3 2 3 1 2 1 4 1 3 3 3 5 2 8 5 3 2 1 10 1 2 4 1 2 5 5 3 6 3 5 5 6 2 5 2 2 1 1 5 0 4 4 3 7 4 1 7 4 6 2 3 4 5 3 5 8 4 4 6 1 4 4 7 4 3 3 4 3 6 6 2 6 5 6 4 3 5 3 1 2 4 5 1 3 2 1 3 4 2 2 5 2 2 5 4 1 5 1 7 3 3 2 3 1 3 4 3 4 3 4 2 6 1 3 6 3 3 3 3 5 2 8 3 5 3 8 6 1 6 1 5 2 1 2 4 4 2 1 3 4 2 1 2 1 4 3 3 3 2 3 2 5 2 4 4 5 0 5 3 2 2 6 8 0 6 0 1 4 5 2 5 1 3 3 4 1 1 2 4 5 3 4 1 4 4 6 5 1 4 3 3 6 10 4 2 6 6 5 1 1 3 5 6 3 2 2 4 3 4 4 5 3 0 4 2 2 6 8 5 3 3 5 1 2 5 2 4 1 3 2 6 8 3 3 3 3 4 4 2 5 6 5 4 2 1 5 3 2 4 3 4 4 4 4 7 3 5 4 3 5 5 3 1 7 4 4 3 3 3 2 3 2 2 2 5 4 3 2 5 1 1 3 3 8 5 1 3 4 2 3 3 3 4 3 2 0 3 2 3 2 4 3 4 4 2 1 2 6 1 4 2 4 2 3 5 1 1 4 5 3 3 4 5 2 3 4 4 5 4 4 4 3 3 2 2 3 5 2 4 1 3 0 8 3 2 6 4 4 5 7 3 2 3 3 1 2 4 1 4 2 4 3 0 5 1 5 2 2 3 4 3 2 4 2 3 2 3 1 5 1 0 3 4 1 1 3 1 4 2 3 6 3 1 2 2 3 2 2 6 2 3 5 3 3 3 4 2 2 3 0 2 2 2 3 2 2 2 0 4 0 4 2 4 4 3 3 2 1 2 5 4 2 7 1 3 4 2 2 4 5 2 2 5 0 1 2 3 1 1 2 3 3 5 3 1 1 6 3 1 4 1 6 1 4 3 3 6 2 3 2 1 3 3 1 1 3 5 1 3 3 1 2 0 5 1 3 3 0 3 2 5 3 4 3 3 4 1 3 1 2 1 3 3 0 2 3 2 3 3 1 3 3 2 10 6 2 2 2 4 1 1 3 5 2 3 0 3 2 3 2 3 4 5 6 7 0 4 2 6 4 4 5 4 8 2 4 8 3 0 6 3 3 3 4 3 3 2 1 2 4 2 2 2 3 2 3 5 3 5 3 6 1 1 5 6 3 3 4 4 4 6 2 5 5 2 6 3 3 3 2 3 7 5 3 2 3 3 3 3 4 2 3 3 1 3 1 3 7 0 2 2 3 3 4 5 3 4 2 6 1 2 2 6 2 4 5 6 1 1 7 2 4 2 3 4 6 2 3 2 3 6 3 3 3 5 3 4 9 4 4 3 5 2 5 4 3 2 3 1 2 2 3 4 3 2 3 3 4 4 2 3 7 0 3 2 4 4 4 3 4 3 6 3 4 1 5 2 3 4 2 3 0 3 5 0 7 2 5 5 1 4 3 2 0 4 2 3 5 3 6 2 2 2 1 3 4 6 1 4 3 0 3 2 4 5 3 1 3 5 2 3 2 6 3 4 1 5 3 0 2 4 1 1 8 2 0 4 1 4 3 2 3 6 3 3 6 1 5 3 5 2 5 4 2 3 2 7 1 4 0 3 3 4 4 3 3 2 1 2 3 0 3 0 3 5 6 2 2 5 2 3 3 3 1 3 2 4 2 4 2 5 3 2 3 1 2 3 3 3 2 3 4 2 1 1 2 2 5 1 4 1 5 4 2 3 1 4 1 2 3 5 2 3 4 4 5 3 3 3 4 3 2 0 3 2 0 2 1 2 2 4 2 5 2 2 3 4 1 2 4 3 2 3 8 3 2 7 6 3 2 4 1 2 6 3 4 4 2 4 0 1 2 5 3 2 4 3 2 5 3 4 7 4 2 0 4 1 0 2 3 0 4 4 6 1 3 4 6 4 0 2 2 4 2 4 1 3 2 8 3 1 3 3 6 2 7 3 4 6 0 1 3 1 4 2 1 0 2 3 4 5 5 1 0 3 4 5 1 1 1 3 5 2 1 5 4 3 3 5 4 0 6 3 6 2 1 2 2 1 2 4 1 3 1 3 2 3 1 5 2 5 2 4 2 1 3 5 4 4 0 
BTB PER SET COUNT: 2 4 3 2 1 0 3 3 4 0 2 0 2448 3 1 3 3 2 4 1471 3 4 2 3 4 12 1 4 1470 2 2937 21 6 3 4 2 2936 735 735 2 3 4 4 2206 5395 2 4 3 1595 3 3 2 3 1 0 3 5 3 3 3 1 4 2 3 1 371 503 2 3 992 736 1 1 4 3 3 491 748 2 3 3 3 1 4 5 6 2 11 3 3 2472 493 3 3919 3 0 4 4 1 3 5 2 3 3 3 2 1 2 3 2 2 1 3 1958 2 1831 2 9 4 1 4 4 2 0 1 2 2 2 3350 11 1958 2 4 2 981 3 2 1 3 3 1792 6 3 3 1 8 2 4408 4 3 3 6793 3 2446 3 0 3 3 4 2 4 979 4 4 6 1961 2 2 8323 1 2 2 4 2 1 1 3 8 996 1 3 3 6850 3 4 11 3 1 2 3 40 3 3 4 4 9 3 3 4 9 3 2 4 1 4 3 2 1472 2 1 2 7 11 4 3 2 4 793 4 0 1 1 2 3 3 2 3 37 0 3 5821 3 3 2 3 3 3 3 1 2 1 0 2446 3 9300 2156 1 1 3 3 4 2 1 3 2 2352 3 4 4 3 4 4 4 2 1470 1473 3 1 4 2 3 2 2 3 4 3 2 1 4 4 5 2 1960 2 736 2450 3 3 1 1 0 3 1 16 1 1 6 3 1 2 3 3 1 2 5 2 4 2 1960 980 3 1 3 2 980 5 2451 1235 2 1 3 2206 3 7 2 2 1 606 1 0 983 0 2 11 1533 4 983 4 21 0 4 0 1 983 983 2 1 6 5 3 3 98 4 3 48 4 2 0 4 1 2 7 2 5 2686 1986 1 1 2 2 2 2 3 4 4 4 5 3 3 4 25 3 2 1989 4 3 12 2 5 1 20 7 4 2 3 1 3434 0 1 5 4 2 3 2 2 4 1470 2 1 979 1 3 5 3 980 2 144 3 1 90 1 1 3 4 4 3 5 0 2 5 136 3 2700 3 980 2445 3 3 3 0 3 5 1223 3 4 990 2 3 3 2 4 3 1 1 1960 1 1 3 1488 2 3 3 4 1970 2 3 13 3 3 3 0 5 31 491 3 1 4 980 1 1 2 1 2 491 0 4 3 0 25 1 4 2 3 4 2 20 3 3 2 1 1960 16 1 2 1 2 2 2 2 3 3 2 2 31 3 1 2 2446 4 504 3 1472 4 2 21 1470 0 1957 4905 3 4 3 3 20 3 496 3 1 6 1 2 1471 177 5 12 3 62 3 995 9296 3 1483 4 2932 1 3 6 1 2 3 6855 2 1960 2 2 1 4 2 2 2954 3 4 3 5396 2 2 3 3 1 22 4 40 1 0 1 0 0 3921 4 2 1959 2937 1 1 980 4 6 2 2 1 3 4 4 1466 1 4 3 5 2 2 2449 2 2 2 2 2 982 0 3 1 9 492 3425 3 3 3 2 15 2 3 1957 1471 3 5 981 2 2 3 2 2 2944 1 4 3 0 0 4 4 3 3 4 2 10 2 3 0 4 3 2 3 7838 3 22 4 1959 6 2949 982 3 4 736 3 6 4 1471 3008 3 3 5 3 3 2 4 981 1472 3 16 1470 4 3 1 983 2 3 2 3 1963 5 15 30 0 2449 0 3 3 981 4 1 3 1 3 3 4 2 981 1 2461 2 0 3 2 0 1 1 1 1 1 5 2 5 1471 9 980 2 2 4 4 4 2 2 1 3 2 4 2 2 491 2 2 980 0 2 1 5 2 2 2 2936 4 2 3 3 1 12 4 4 5883 3 5 2 7 4 0 94 3 5 2941 3 1 3 3 6 0 3 3067 4902 3 3 0 2 2 31 1 1 5 1624 1965 2 2 3 12 4 6 3 1964 3 3 17 1 3 1 4 4 0 5 4 1 2 0 4 4 2 4 2 3 1 2 2 4 79 3 1 3 2 1959 2 2 2 1470 2 2 1 3 1473 1 9 1969 4 4 2 2446 2 1962 5 4 8 3 2 6 4 3 4896 2 1 6377 981 4 4 1471 3 1 3 3 2462 4 0 3 2 21 4 5 4898 3 4 78 3 2 2 2 7 4 3 4 5 3 1 750 3 1 1 1807 2 1 37 5 2454 3 979 3 4 44 4 0 3 1 1470 0 0 981 2 42 4 1470 3 6 1 3 2 1960 84 4 495 5388 3920 1470 4 2058 6 3 25 5 2 0 982 4 2448 22 1471 3 3 756 0 301 7 3 4 1416 1960 4 2 2 492 4 4898 2 16 1152 4 1963 3 2 4 0 374 23 1 7343 17 1 3 1967 15 493 7 2 3 2 2 4 2 1695 4 2 3426 7 3 5 1959 3 24 1 2 6 2 2 16 4 4 2 5 1968 2 2449 371 1711 2 22 5 2 3 1806 3 5145 21 2 3 3 2 2 3 4 2939 1964 4 3 2 3 2 2 2 3 2 4 5 2 4 8 1958 4 1479 0 3 3 3 1470 376 2 2 7 4 3 1 5 1 4 1 3 3 3 10 2 3915 1471 3 2 2 11263 1 2 4 1 2 1959 93 3 5386 3 21 6 2449 2 25 2 2 1 1 25 0 4 4 3 1973 4 1 2042 4 2453 2 492 4 13 3 2447 1842 4 5 2453 1 4 4 4897 4 3 3 4 3 1475 1949 2 2449 1470 2266 4 3 7 4 1 3 4 1959 1 3 2 1 4 6 3 2 503 2 2 14 6 1 13 1 5629 3 3 2 3 1 3 4 3 4 4 4 3 22 1 3 1720 3 3 3 3 1958 2 5867 4 1470 3 2577 7343 1 5387 1 17 2 1 2 492 4 2 1 3 151 2 1 2 489 4 3 3 3 2 3 2 1470 2 4 4 17 0 1958 3 2 2 38 7353 0 29 0 1 4 6 2 21 1 3 980 4 1 1 2 4 13 3 4 1 4 4 7341 13 1 4 3 3 2935 10279 1971 2 7341 19 1957 1 1 4 1958 2449 3 2 2 4 3 4 4 14 3 0 4 2 2 3444 7950 3920 3 3 378 1 2 18 2 4 1 3 2 2937 6615 981 3 3 3 4 4 2 1958 1964 2446 4 2 1 18 3 2 8 3 4 4 4 4 1971 4 1958 4 491 1957 2446 3 1 3000 4 4 3 3 3 2 3 2 2 2 15 4 3 2 977 1 1 3 3 2941 9 1 3 4 2 3 3 3 4 4 2 0 3 2 4 2 4 3 9 4 2 1 2 988 1 4 2 4 2 3 352 1 1 4 9 981 3 5 2449 2 3 45 5 11 5 4 5 3 3 2 2 4 1960 3 4 1 3 0 5883 3 2 2937 4 4 2448 6865 3 2 3 3 1 2 6 2 4 2 4 5 0 3924 2 8 3 3 4 5 4 2 1471 2 3 1348 3 1 515 1 0 3 4 1 1 1349 1 4 2 3 1964 4 1 2 2 4 2 2 2936 2 3 70 4 3 3 4 2 2 3 0 3 2 2 981 2 2 2 0 4 0 4 2 4 5 3 3 979 1 12 5 24 2 2450 1 3 5 2 2 6 10 118 2 21536 0 1 2 3 1 1 2 4 3 1973 378 1 1 1442 3 1 4 1 2451 1 4 4 4 1947 2 3 2 1 3 3 1 1 3 6 1 3 3 1 2 0 3919 1 3 6 0 3 467 1965 3 4 3 3 4 1 3 1 2 1 3 3 0 2 3 2 3 6 1 3 3 2 3682 2938 2 3 2 4 2 1 3 1714 2 3 0 3 2 3 2 3 4 2447 16 5874 0 4 2 2203 4 4 17 4 3427 2 4 8430 3 0 2935 1470 3 5 4 3 3 2 1 2 983 2 2 2 3 2 3 1720 5 1957 3 989 2935 1 1230 6855 3 3 5 4 4 3432 2 1597 1957 2 1964 3 250 370 2 1470 1480 11 151 6 3 3 3 3 4 2 3 5 1 3 1 3 2573 0 2 2 3 4 5 510 3 4 2 3922 1 2 2 1472 2 1472 1470 2936 1 1 6363 2 984 2 3 4 1964 491 5 2 4 2938 3 492 3 4564 3 4 8819 5 4 14683 2940 2 1958 1471 3 2 3 1 2 2 3 4 3 2 4 3 4 4 2 172 3427 0 1471 2 1471 187 4 3 4 3 2327 3 749 1 2448 2 4 4 2 3 0 3 3034 0 5387 2 1229 2448 1 4 3 2 0 4 2 3 2454 3 4896 2 2 2 1 3 4 7341 1 4 483 0 3 2 4 1958 981 1 3 1961 2 4 2 2205 4 4 1 22 3 0 2 4 1468 1 3863 2 0 4 1 4 3 2 4 2394 4 442 2448 1 2447 3 1960 219 1958 62 2 3 2 4167 1 238 0 4 1470 4 4 4 3 2 2 2 493 0 3 0 3 8 3195 2 2 744 382 3 4 981 1 3 2 4 2 4 2 135 3 2 3 1 2 239 3 3 2 3 4 2 1 2 2 2 1439 1 4 1 3920 4 2 3 4 4 1 2 3 7 2 3 981 4 981 3 3 3 4 4 2 0 3 3 0 2 1 2 2 4 3 2446 2 2 3 4 1 2 4 3 2 3 3187 3 3 3182 2448 99 2 4 1 2 27 3 4 4 2 5 0 1 2 8 980 2 4 3 2 5 3 4 2560 4 2 0 4 1 0 2 3 0 4 1471 991 1 3 4 2426 4 0 2 2 5 2 5 1 3 2 3860 3 1 3 3 2452 6 3427 3 4 5147 0 1 3 1 4 2 1 0 2 3 5 17 8 2 0 3 4 1470 1 1 1 3 2448 2 1 17 4 3 5 1960 5 0 2451 3 1961 2 1 2 2 1 2 4 1 3 1 4 2 3 1 16 2 228 2 4 2 2 3 1499 4 5 0 
