
*** ChampSim Multicore Out-of-Order Simulator ***

Warmup Instructions: 50000000
Simulation Instructions: 50000000
Number of CPUs: 1
LLC sets: 2048
LLC ways: 16
Off-chip DRAM Size: 4096 MB Channels: 1 Width: 64-bit Data Rate: 6400 MT/s
CPU 0 runs ./micro_traces/srv548.trace.gz
.gz
ITLB has LRU replacement policy
DTLB has LRU replacement policy
STLB has LRU replacement policy
CPU 0 L1I next line prefetcher
L1I has LRU replacement policy
L1D has LRU replacement policy
Initialize SRRIP state for L2C
Initialize DRRIP state for LLC
Heartbeat CPU 0 instructions: 10000000 cycles: 2798897 heartbeat IPC: 3.57284 cumulative IPC: 3.57284 (Simulation time: 0 hr 1 min 38 sec) 
Heartbeat CPU 0 instructions: 20000002 cycles: 5596514 heartbeat IPC: 3.57447 cumulative IPC: 3.57365 (Simulation time: 0 hr 3 min 14 sec) 
Heartbeat CPU 0 instructions: 30000002 cycles: 8393613 heartbeat IPC: 3.57513 cumulative IPC: 3.57415 (Simulation time: 0 hr 4 min 51 sec) 
Heartbeat CPU 0 instructions: 40000001 cycles: 11190290 heartbeat IPC: 3.57567 cumulative IPC: 3.57453 (Simulation time: 0 hr 6 min 28 sec) 
Heartbeat CPU 0 instructions: 50000000 cycles: 13987022 heartbeat IPC: 3.5756 cumulative IPC: 3.57474 (Simulation time: 0 hr 8 min 6 sec) 

Warmup complete CPU 0 instructions: 50000004 cycles: 13987023 (Simulation time: 0 hr 8 min 6 sec) 

Cycle: 20000000 FTQ IN: 57567227 FTQ occupancy: 17.9245 DECODE IN: 57567151 DECODE occupancy: 47.2387 ROB IN: 57567151 ROB occupancy: 296.778 ROB OUT: 57567121
Heartbeat CPU 0 instructions: 60000002 cycles: 21917799 heartbeat IPC: 1.26091 cumulative IPC: 1.26091 (Simulation time: 0 hr 9 min 32 sec) 
Heartbeat CPU 0 instructions: 70000002 cycles: 29755746 heartbeat IPC: 1.27584 cumulative IPC: 1.26833 (Simulation time: 0 hr 10 min 59 sec) 
Cycle: 30000000 FTQ IN: 12750996 FTQ occupancy: 5.93844 DECODE IN: 12750953 DECODE occupancy: 17.1601 ROB IN: 12750893 ROB occupancy: 176.425 ROB OUT: 12750791
Heartbeat CPU 0 instructions: 80000002 cycles: 37720699 heartbeat IPC: 1.2555 cumulative IPC: 1.26403 (Simulation time: 0 hr 12 min 23 sec) 
Cycle: 40000000 FTQ IN: 12600950 FTQ occupancy: 6.01816 DECODE IN: 12601038 DECODE occupancy: 17.2134 ROB IN: 12601084 ROB occupancy: 177.871 ROB OUT: 12600972
Heartbeat CPU 0 instructions: 90000001 cycles: 45546052 heartbeat IPC: 1.2779 cumulative IPC: 1.26747 (Simulation time: 0 hr 13 min 48 sec) 
Cycle: 50000000 FTQ IN: 12656998 FTQ occupancy: 6.08636 DECODE IN: 12657029 DECODE occupancy: 17.2733 ROB IN: 12656990 ROB occupancy: 175.602 ROB OUT: 12657152
Heartbeat CPU 0 instructions: 100000003 cycles: 53480514 heartbeat IPC: 1.26033 cumulative IPC: 1.26603 (Simulation time: 0 hr 15 min 18 sec) 
Finished CPU 0 instructions: 50000003 cycles: 39493492 cumulative IPC: 1.26603 (Simulation time: 0 hr 15 min 18 sec) 

ChampSim completed all CPUs

Region of Interest Statistics

CPU 0 cumulative IPC: 1.26603 instructions: 50000003 cycles: 39493492
 Fetch stage stalled: 66.5017  Sim cycles: 39493492 fetch stall cycle: 26263826
 Empty decode stage: 49.3988  Sim cycles: 39493492 fetch stall cycle: 19509310
ITLB TOTAL     ACCESS:    7577734  HIT:    6965299  MISS:     612435  HIT %:     91.918  MISS %:    8.08203   MPKI: 12.2487
ITLB LOAD TRANSLATION INSTRUCTION	ACCESS:    5828888  HIT:    5699879  MISS:     129009  HIT %:    97.7867  MISS %:    2.21327  MPKI: 2.58018
ITLB TRANSLATION FROM L1D PREFETCHER INSTRUCTION	ACCESS:    1748846  HIT:    1265420  MISS:     483426  HIT %:    72.3574  MISS %:    27.6426  MPKI: 9.66852

ITLB AVERAGE MISS LATENCY: 158714 cycles
ITLB RQ	ACCESS:   11468488	FORWARD:          0	MERGED:    3737418	TO_CACHE:    7731070

DTLB TOTAL     ACCESS:    9103885  HIT:    8633456  MISS:     470429  HIT %:    94.8327  MISS %:    5.16734   MPKI: 9.40858
DTLB LOAD TRANSLATION DATA	ACCESS:    9103885  HIT:    8633456  MISS:     470429  HIT %:    94.8327  MISS %:    5.16734  MPKI: 9.40858

DTLB AVERAGE MISS LATENCY: 9.35938 cycles
DTLB RQ	ACCESS:   13438741	FORWARD:          0	MERGED:    4298965	TO_CACHE:    9139776

STLB TOTAL     ACCESS:    1331029  HIT:    1328872  MISS:       2157  HIT %:    99.8379  MISS %:   0.162055   MPKI: 0.04314
STLB LOAD TRANSLATION INSTRUCTION	ACCESS:     126225  HIT:     126057  MISS:        168  HIT %:    99.8669  MISS %:   0.133096  MPKI: 0.00336
STLB TRANSLATION FROM L1D PREFETCHER INSTRUCTION	ACCESS:     486210  HIT:     486120  MISS:         90  HIT %:    99.9815  MISS %:  0.0185105  MPKI: 0.0018
STLB LOAD TRANSLATION DATA	ACCESS:     470429  HIT:     468550  MISS:       1879  HIT %:    99.6006  MISS %:   0.399423  MPKI: 0.03758
STLB TRANSLATION FROM L1D PREFETCHER DATA	ACCESS:     248165  HIT:     248145  MISS:         20  HIT %:    99.9919  MISS %: 0.00805915  MPKI: 0.0004

STLB AVERAGE MISS LATENCY: 77.1261 cycles
STLB RQ	ACCESS:    1455685	FORWARD:          0	MERGED:     121003	TO_CACHE:    1334682

STLB Hit, L1D data hit: 0
STLB Hit, L2C data hit: 0
STLB Hit, LLC data hit: 0
STLB Hit, LLC data miss: 0
STLB STLB hints to L2: 0
L1D TOTAL     ACCESS:   13178280  HIT:   12054465  MISS:    1123815  HIT %:    91.4722  MISS %:    8.52778   MPKI: 22.4763
L1D LOAD DATA	ACCESS:    6638115  HIT:    5897262  MISS:     740853  HIT %:    88.8394  MISS %:    11.1606  MPKI: 14.8171
L1D RFO DATA	ACCESS:    6214248  HIT:    5926349  MISS:     287899  HIT %:    95.3671  MISS %:    4.63289  MPKI: 5.75798
L1D PREFETCH DATA	ACCESS:     325917  HIT:     230854  MISS:      95063  HIT %:    70.8321  MISS %:    29.1679  MPKI: 1.90126

L1D PREFETCH  REQUESTED:     738799  ISSUED:     738799  USEFUL:      35346  USELESS:      68622
L1D USEFUL LOAD PREFETCHES:      35346 PREFETCH ISSUED TO LOWER LEVEL:     104029  ACCURACY: 33.9771
 TIMELY PREFETCHES:      35346 LATE PREFETCHES: 8911 DROPPED PREFETCHES: 6
L1D AVERAGE MISS LATENCY: 270623 cycles
L1D RQ	ACCESS:   10758956	FORWARD:          0	MERGED:    3918148	TO_CACHE:    6676577
L1D WQ	ACCESS:    6950873	FORWARD:     164596	MERGED:     188709	TO_CACHE:    6762164
L1D PQ	ACCESS:     369582	FORWARD:          0	MERGED:          0	TO_CACHE:     369217

L1D UNIQUE REGIONS ACCESSED: 0
L1D REGIONS CONFLICTS: 0
L1D Cross Page Prefetch Requests: 6298
L1D Same Page Prefetch Requests: 753639
L1D ROI Sum of L1D PQ occupancy: 4698298
L1D PREFETCHES PUSHED FROM L2C: 0
L1I TOTAL     ACCESS:   11082743  HIT:    7455703  MISS:    3627040  HIT %:    67.2731  MISS %:    32.7269   MPKI: 72.5408
L1I LOAD INSTRUCTION	ACCESS:    6572983  HIT:    6006775  MISS:     566208  HIT %:    91.3858  MISS %:    8.61417  MPKI: 11.3242
L1I PREFETCH INSTRUCTION	ACCESS:    4509760  HIT:    1448928  MISS:    3060832  HIT %:    32.1287  MISS %:    67.8713  MPKI: 61.2166

L1I PREFETCH  REQUESTED:    5195262  ISSUED:    5195022  USEFUL:    2379939  USELESS:     772121
L1I USEFUL LOAD PREFETCHES:    2379939 PREFETCH ISSUED TO LOWER LEVEL:    3152044  ACCURACY: 75.5046
 TIMELY PREFETCHES:    2379939 LATE PREFETCHES: 91210 DROPPED PREFETCHES: 10128
L1I AVERAGE MISS LATENCY: 839282 cycles
L1I RQ	ACCESS:    9439724	FORWARD:          0	MERGED:    2822998	TO_CACHE:    6616726
L1I PQ	ACCESS:    5195022	FORWARD:          0	MERGED:     343260	TO_CACHE:    4851762

L1BTB TOTAL     ACCESS:    5669153  HIT:    2035918  MISS:    3633235  HIT %:    35.9122  MISS %:    64.0878   MPKI: 72.6647
L1BTB BRANCH_DIRECT_JUMP	ACCESS:     547503  HIT:     143864  MISS:     403639	AVERAGE STALL: 24.1699
L1BTB BRANCH_INDIRECT	ACCESS:     182329  HIT:      65594  MISS:     116735	AVERAGE STALL: 111.679
L1BTB BRANCH_CONDITIONAL	ACCESS:    2700471  HIT:    1406636  MISS:    1293835	AVERAGE STALL: 28.291
L1BTB BRANCH_DIRECT_CALL	ACCESS:     946912  HIT:     106503  MISS:     840409	AVERAGE STALL: 28.6595
L1BTB BRANCH_INDIRECT_CALL	ACCESS:     172516  HIT:      21908  MISS:     150608	AVERAGE STALL: 126.136
L1BTB BRANCH_RETURN	ACCESS:    1119422  HIT:     291413  MISS:     828009	AVERAGE STALL: 29.7403
L1BTB BRANCH_OTHER ACCESS:          0  HIT:          0  MISS:          0	AVERAGE STALL: -nan
L1BTB TOTAL ROB OCCUPANCY AT BTB MISS: 16.8446

L2BTB1 TOTAL     ACCESS:    3607906  HIT:    3203254  MISS:     404652  HIT %:    88.7843  MISS %:    11.2157   MPKI: 8.09304
L2BTB1 BRANCH_DIRECT_JUMP	ACCESS:     399518  HIT:     363653  MISS:      35865	AVERAGE STALL: 24.1699
L2BTB1 BRANCH_INDIRECT	ACCESS:     106438  HIT:      84112  MISS:      22326	AVERAGE STALL: 111.679
L2BTB1 BRANCH_CONDITIONAL	ACCESS:    1293835  HIT:    1186652  MISS:     107183	AVERAGE STALL: 28.291
L2BTB1 BRANCH_DIRECT_CALL	ACCESS:     840409  HIT:     725566  MISS:     114843	AVERAGE STALL: 28.6595
L2BTB1 BRANCH_INDIRECT_CALL	ACCESS:     141116  HIT:     116684  MISS:      24432	AVERAGE STALL: 126.136
L2BTB1 BRANCH_RETURN	ACCESS:     826590  HIT:     726587  MISS:     100003	AVERAGE STALL: 29.7403
L2BTB1 BRANCH_OTHER ACCESS:          0  HIT:          0  MISS:          0	AVERAGE STALL: -nan
L2BTB1 TOTAL ROB OCCUPANCY AT BTB MISS: 151.242

L2C TOTAL     ACCESS:    6612822  HIT:    5606080  MISS:    1006742  HIT %:    84.7759  MISS %:    15.2241   MPKI: 20.1348
L2C LOAD INSTRUCTION	ACCESS:     474998  HIT:     378172  MISS:      96826  HIT %:    79.6155  MISS %:    20.3845  MPKI: 1.93652
L2C PREFETCH INSTRUCTION	ACCESS:    3152043  HIT:    2760242  MISS:     391801  HIT %:    87.5699  MISS %:    12.4301  MPKI: 7.83602
L2C LOAD TRANSLATION INSTRUCTION	ACCESS:        189  HIT:         63  MISS:        126  HIT %:    33.3333  MISS %:    66.6667  MPKI: 0.00252
L2C TRANSLATION FROM L1D PREFETCHER INSTRUCTION	ACCESS:       5240  HIT:       5111  MISS:        129  HIT %:    97.5382  MISS %:    2.46183  MPKI: 0.00258
L2C LOAD DATA	ACCESS:     731897  HIT:     589089  MISS:     142808  HIT %:     80.488  MISS %:     19.512  MPKI: 2.85616
L2C RFO DATA	ACCESS:     287811  HIT:     209539  MISS:      78272  HIT %:    72.8044  MISS %:    27.1956  MPKI: 1.56544
L2C PREFETCH DATA	ACCESS:    1434550  HIT:    1173018  MISS:     261532  HIT %:    81.7691  MISS %:    18.2309  MPKI: 5.23064
L2C WRITEBACK DATA	ACCESS:     524098  HIT:     490399  MISS:      33699  HIT %:    93.5701  MISS %:     6.4299  MPKI: 0.67398
L2C LOAD TRANSLATION DATA	ACCESS:       1950  HIT:        423  MISS:       1527  HIT %:    21.6923  MISS %:    78.3077  MPKI: 0.03054
L2C TRANSLATION FROM L1D PREFETCHER DATA	ACCESS:         46  HIT:         24  MISS:         22  HIT %:    52.1739  MISS %:    47.8261  MPKI: 0.00044

L2C PREFETCH  REQUESTED:    3263255  ISSUED:    3263255  USEFUL:      32507  USELESS:     623554
L2C USEFUL LOAD PREFETCHES:      32507 PREFETCH ISSUED TO LOWER LEVEL:     655470  ACCURACY: 4.95934
 TIMELY PREFETCHES:      32507 LATE PREFETCHES: 2136 DROPPED PREFETCHES: 0
L2C AVERAGE MISS LATENCY: 34.1641 cycles
L2C RQ	ACCESS:    1502209	FORWARD:          0	MERGED:          0	TO_CACHE:    1502131
L2C WQ	ACCESS:     524098	FORWARD:         79	MERGED:          0	TO_CACHE:     524098
L2C PQ	ACCESS:    6519328	FORWARD:          0	MERGED:    1912110	TO_CACHE:    4607217

L2C Dense regions hint from L2: 0
PSCL5 TOTAL     ACCESS:      11538  HIT:       5769  MISS:       5769  HIT %:         50  MISS %:         50   MPKI: 0.11538
PSCL5 LOAD TRANSLATION INSTRUCTION	ACCESS:       4060  HIT:       2030  MISS:       2030  HIT %:         50  MISS %:         50  MPKI: 0.0406
PSCL5 TRANSLATION FROM L1D PREFETCHER INSTRUCTION	ACCESS:       7478  HIT:       3739  MISS:       3739  HIT %:         50  MISS %:         50  MPKI: 0.07478


PSCL4 TOTAL     ACCESS:      11399  HIT:       5697  MISS:       5702  HIT %:    49.9781  MISS %:    50.0219   MPKI: 0.11404
PSCL4 LOAD TRANSLATION INSTRUCTION	ACCESS:       2017  HIT:       1966  MISS:         51  HIT %:    97.4715  MISS %:    2.52851  MPKI: 0.00102
PSCL4 TRANSLATION FROM L1D PREFETCHER INSTRUCTION	ACCESS:       3749  HIT:       3731  MISS:         18  HIT %:    99.5199  MISS %:   0.480128  MPKI: 0.00036
PSCL4 LOAD TRANSLATION DATA	ACCESS:       1920  HIT:          0  MISS:       1920  HIT %:          0  MISS %:        100  MPKI: 0.0384
PSCL4 TRANSLATION FROM L1D PREFETCHER DATA	ACCESS:       3713  HIT:          0  MISS:       3713  HIT %:          0  MISS %:        100  MPKI: 0.07426


PSCL3 TOTAL     ACCESS:      11465  HIT:       5730  MISS:       5735  HIT %:    49.9782  MISS %:    50.0218   MPKI: 0.1147
PSCL3 LOAD TRANSLATION INSTRUCTION	ACCESS:       2050  HIT:       1999  MISS:         51  HIT %:    97.5122  MISS %:     2.4878  MPKI: 0.00102
PSCL3 TRANSLATION FROM L1D PREFETCHER INSTRUCTION	ACCESS:       3749  HIT:       3731  MISS:         18  HIT %:    99.5199  MISS %:   0.480128  MPKI: 0.00036
PSCL3 LOAD TRANSLATION DATA	ACCESS:       1953  HIT:          0  MISS:       1953  HIT %:          0  MISS %:        100  MPKI: 0.03906
PSCL3 TRANSLATION FROM L1D PREFETCHER DATA	ACCESS:       3713  HIT:          0  MISS:       3713  HIT %:          0  MISS %:        100  MPKI: 0.07426


PSCL2 TOTAL     ACCESS:       8364  HIT:       4126  MISS:       4238  HIT %:    49.3305  MISS %:    50.6695   MPKI: 0.08476
PSCL2 LOAD TRANSLATION INSTRUCTION	ACCESS:       2108  HIT:       1930  MISS:        178  HIT %:     91.556  MISS %:    8.44402  MPKI: 0.00356
PSCL2 TRANSLATION FROM L1D PREFETCHER INSTRUCTION	ACCESS:       4346  HIT:       2196  MISS:       2150  HIT %:    50.5292  MISS %:    49.4708  MPKI: 0.043
PSCL2 LOAD TRANSLATION DATA	ACCESS:       1864  HIT:          0  MISS:       1864  HIT %:          0  MISS %:        100  MPKI: 0.03728
PSCL2 TRANSLATION FROM L1D PREFETCHER DATA	ACCESS:         46  HIT:          0  MISS:         46  HIT %:          0  MISS %:        100  MPKI: 0.00092


LLC TOTAL     ACCESS:    1094950  HIT:    1062945  MISS:      32005  HIT %:     97.077  MISS %:    2.92296   MPKI: 0.6401
LLC LOAD INSTRUCTION	ACCESS:      96021  HIT:      95708  MISS:        313  HIT %:     99.674  MISS %:    0.32597  MPKI: 0.00626
LLC PREFETCH INSTRUCTION	ACCESS:     390389  HIT:     389757  MISS:        632  HIT %:    99.8381  MISS %:    0.16189  MPKI: 0.01264
LLC LOAD TRANSLATION INSTRUCTION	ACCESS:        126  HIT:        100  MISS:         26  HIT %:    79.3651  MISS %:    20.6349  MPKI: 0.00052
LLC TRANSLATION FROM L1D PREFETCHER INSTRUCTION	ACCESS:        129  HIT:        113  MISS:         16  HIT %:    87.5969  MISS %:    12.4031  MPKI: 0.00032
LLC LOAD DATA	ACCESS:     141533  HIT:     137622  MISS:       3911  HIT %:    97.2367  MISS %:    2.76331  MPKI: 0.07822
LLC RFO DATA	ACCESS:      78206  HIT:      62800  MISS:      15406  HIT %:    80.3007  MISS %:    19.6993  MPKI: 0.30812
LLC PREFETCH DATA	ACCESS:     265080  HIT:     253826  MISS:      11254  HIT %:    95.7545  MISS %:    4.24551  MPKI: 0.22508
LLC WRITEBACK DATA	ACCESS:     121917  HIT:     121569  MISS:        348  HIT %:    99.7146  MISS %:    0.28544  MPKI: 0.00696
LLC LOAD TRANSLATION DATA	ACCESS:       1527  HIT:       1429  MISS:         98  HIT %:    93.5822  MISS %:    6.41781  MPKI: 0.00196
LLC TRANSLATION FROM L1D PREFETCHER DATA	ACCESS:         22  HIT:         21  MISS:          1  HIT %:    95.4545  MISS %:    4.54545  MPKI: 2e-05

LLC AVERAGE MISS LATENCY: 161.069 cycles
LLC RQ	ACCESS:     317574	FORWARD:          0	MERGED:          0	TO_CACHE:     317564
LLC WQ	ACCESS:     121919	FORWARD:         11	MERGED:          0	TO_CACHE:     121919
LLC PQ	ACCESS:     655470	FORWARD:          0	MERGED:          0	TO_CACHE:     655469

LLC Dense regions hint to LLC: 0

RAW hits: 1877938
Loads Generated: 12636894
Loads sent to L1D: 10758956
Stores Generated: 6950862
Stores sent to L1D: 6950873
Major fault: 0 Minor fault: 2661
Allocated PAGES: 2661
I-Shadow cache 408 bytes
Touched + WorthPF tables 12288 bytes 
MMA filter 174 bytes 
FNL filter 272 bytes 
TOTAL PREFETCHER STORAGE SIZE: 31318 bytes
CPU 0 L1I next line prefetcher final stats

stream: 
stream:times selected: 1189723
stream:pref_filled: 117812
stream:pref_useful: 21896
stream:pref_late: 7616
stream:misses: 8050
stream:misses_by_poll: 0

CS: 
CS:times selected: 181033
CS:pref_filled: 55404
CS:pref_useful: 31846
CS:pref_late: 13144
CS:misses: 22941
CS:misses_by_poll: 6

CPLX: 
CPLX:times selected: 1007477
CPLX:pref_filled: 19937
CPLX:pref_useful: 4161
CPLX:pref_late: 3233
CPLX:misses: 95423
CPLX:misses_by_poll: 1

NL_L1: 
NL:times selected: 18155
NL:pref_filled: 583
NL:pref_useful: 216
NL:pref_late: 426
NL:misses: 1581
NL:misses_by_poll: 0

total selections: 2396388
total_filled: 95063
total_useful: 35346
total_late: 26058
total_polluted: 7
total_misses_after_warmup: 779315
conflicts: 5560792

test: 115440

DRAM Statistics
 CHANNEL 0
 RQ ROW_BUFFER_HIT:      11345  ROW_BUFFER_MISS:      20296
 DBUS_CONGESTED:         19
 WQ ROW_BUFFER_HIT:       1582  ROW_BUFFER_MISS:      13765  FULL:          0

 AVG_CONGESTED_CYCLE: 5

CPU 0 Branch Prediction Accuracy: 99.8222% MPKI: 0.32518 Average ROB Occupancy at Mispredict: 171.78
Branch types
NOT_BRANCH: 40854147 81.7083%
BRANCH_DIRECT_JUMP: 547503 1.09501%
BRANCH_INDIRECT: 182329 0.364658%
BRANCH_CONDITIONAL: 6176891 12.3538%
BRANCH_DIRECT_CALL: 946912 1.89382%
BRANCH_INDIRECT_CALL: 172516 0.345032%
BRANCH_RETURN: 1119422 2.23884%
BRANCH_OTHER: 0 0%

DRAM PAGES: 1048576
Allocated PAGES: 2661
Average_ROB_Occupancy: 177.603
Average_Decode_Occupancy: 17.1978
Average_FTQ_Occupancy: 6.01211
Indirect max targets: 14 Average targets: 1.17778
Branch_type:  BRANCH_DIRECT_JUMP:  Count Percentage: 3.31585 6.40467 4.09987 3.79399 9.94991 2.71886 1.60283 68.114 
Branch_type:  BRANCH_INDIRECT:  Count Percentage: 13.7711 3.44093 5.36714 3.7354 9.68519 1.20521 3.20251 59.5925 
Branch_type:  BRANCH_CONDITIONAL:  Count Percentage: 21.4796 3.03675 1.85295 3.15863 6.30752 9.54194 0.927367 53.6952 
Branch_type:  BRANCH_DIRECT_CALL:  Count Percentage: 0.752136 1.26427 1.02866 2.58891 5.1255 2.07211 0.61867 86.5498 
Branch_type:  BRANCH_INDIRECT_CALL:  Count Percentage: 9.5237 0 2.98402 4.26155 1.2589 2.99159 0.995935 77.9843 
Branch_type:  BRANCH_RETURN:  Count Percentage: 4.51994 1.37725 2.61165 3.2738 8.30368 10.5543 1.1845 68.1749 
Branch_type:  BRANCH_DIRECT_JUMP:  Total Count: 36325 70163 44914 41563 109001 29785 17559 746187 
Branch_type:  BRANCH_INDIRECT:  Total Count: 50367 12585 19630 13662 35423 4408 11713 217956 
Branch_type:  BRANCH_CONDITIONAL:  Total Count: 2653661 375170 228919 390228 779252 1178843 114570 6633684 
Branch_type:  BRANCH_DIRECT_CALL:  Total Count: 14190 23852 19407 48843 96699 39093 11672 1632871 
Branch_type:  BRANCH_INDIRECT_CALL:  Total Count: 32704 0 10247 14634 4323 10273 3420 267795 
Branch_type:  BRANCH_RETURN:  Total Count: 100835 30725 58263 73035 185246 235454 26425 1520908 
Number of unique branch instructions: 10810
Upper 32 bits: 
aaaa
ffff
ffff0000
Unique upper 32 bits: 3
Unique upper 36 bits: 3
Unique upper 40 bits: 5
Unique upper 44 bits: 32
Unique upper 48 bits: 158
Offset_3 4480
Offset_4 261
Offset_5 486
Offset_6 545
Offset_7 643
Offset_8 585
Offset_9 519
Offset_10 426
Offset_11 348
Offset_12 325
Offset_13 237
Offset_14 247
Offset_15 192
Offset_16 234
Offset_17 170
Offset_18 154
Offset_19 267
Offset_20 145
Offset_21 235
Offset_22 411
Offset_23 241
Offset_24 347
Offset_25 117
Offset_47 92
decode_dispatch_called: 21786429 55.1646
Dispatch_width: 0 10834193 49.7291 27.4329
Dispatch_width: 1 748166 3.43409 1.8944
Dispatch_width: 2 911675 4.1846 2.30842
Dispatch_width: 3 615416 2.82477 1.55827
Dispatch_width: 4 3041996 13.9628 7.70252
Dispatch_width: 5 395784 1.81665 1.00215
Dispatch_width: 6 5239199 24.048 13.266
Empty_decode_cycles: 17707063 44.8354
ROB_full_cycles: 4570894 11.5738
Starvation_cycles_per_kilo_instr: 296.834
Starvation_cycles_per_kilo_instr_3: 262.456
Starvation_cycles_per_kilo_instr_0: 239.704
Branch_type_1  (3,1)  (4,9)  (5,39)  (6,75)  (7,126)  (8,152)  (9,137)  (10,110)  (11,77)  (12,55)  (13,11)  (14,2)  (15,3)  (16,4)  (18,1)  (19,5)  (20,2)  (21,1)  (22,3)  (23,2)  (24,10)  (25,12) 
Branch_type_2  (3,1)  (4,1)  (5,1)  (8,4)  (9,4)  (10,1)  (12,1)  (13,1)  (14,1)  (16,3)  (17,2)  (20,2)  (21,2)  (23,5)  (24,1)  (47,41) 
Branch_type_3  (3,4478)  (4,251)  (5,442)  (6,453)  (7,485)  (8,360)  (9,282)  (10,173)  (11,136)  (12,62)  (13,10) 
Branch_type_4  (6,4)  (7,8)  (8,26)  (9,58)  (10,68)  (11,69)  (12,116)  (13,100)  (14,112)  (15,91)  (16,105)  (17,77)  (18,66)  (19,129)  (20,74)  (21,124)  (22,216)  (23,136)  (24,202)  (25,101) 
Branch_type_5  (8,3)  (9,1)  (10,4)  (11,5)  (12,3)  (13,14)  (14,16)  (15,11)  (16,22)  (17,13)  (18,23)  (19,14)  (20,11)  (21,13)  (22,43)  (23,26)  (24,38) 
Branch_type_6  (5,4)  (6,13)  (7,24)  (8,40)  (9,37)  (10,70)  (11,61)  (12,88)  (13,101)  (14,116)  (15,87)  (16,100)  (17,78)  (18,64)  (19,119)  (20,56)  (21,95)  (22,149)  (23,72)  (24,96)  (25,4)  (47,51) 
Unique trigger count: 
L2BTB1 768 4
L2BTB2 768 4
L2BTB3 768 4
L2BTB4 112 4
