
*** ChampSim Multicore Out-of-Order Simulator ***

Warmup Instructions: 50000000
Simulation Instructions: 50000000
Number of CPUs: 1
LLC sets: 2048
LLC ways: 16
Off-chip DRAM Size: 4096 MB Channels: 1 Width: 64-bit Data Rate: 6400 MT/s
CPU 0 runs ./micro_traces/srv548.trace.gz
.gz
ITLB has LRU replacement policy
DTLB has LRU replacement policy
STLB has LRU replacement policy
FDIP Prefetcher at L1I
L1I has LRU replacement policy
L1D has LRU replacement policy
Initialize SRRIP state for L2C
Initialize DRRIP state for LLC
Heartbeat CPU 0 instructions: 10000000 cycles: 2798351 heartbeat IPC: 3.57353 cumulative IPC: 3.57353 (Simulation time: 0 hr 1 min 39 sec) 
Heartbeat CPU 0 instructions: 20000002 cycles: 5595389 heartbeat IPC: 3.57521 cumulative IPC: 3.57437 (Simulation time: 0 hr 3 min 14 sec) 
Heartbeat CPU 0 instructions: 30000002 cycles: 8391939 heartbeat IPC: 3.57583 cumulative IPC: 3.57486 (Simulation time: 0 hr 4 min 49 sec) 
Heartbeat CPU 0 instructions: 40000001 cycles: 11188160 heartbeat IPC: 3.57625 cumulative IPC: 3.57521 (Simulation time: 0 hr 6 min 25 sec) 
Heartbeat CPU 0 instructions: 50000000 cycles: 13984285 heartbeat IPC: 3.57638 cumulative IPC: 3.57544 (Simulation time: 0 hr 8 min 0 sec) 

Warmup complete CPU 0 instructions: 50000004 cycles: 13984286 (Simulation time: 0 hr 8 min 0 sec) 

Cycle: 20000000 FTQ IN: 57898562 FTQ occupancy: 19.2311 DECODE IN: 57898553 DECODE occupancy: 49.645 ROB IN: 57898543 ROB occupancy: 301.693 ROB OUT: 57898191
Heartbeat CPU 0 instructions: 60000002 cycles: 21583818 heartbeat IPC: 1.31587 cumulative IPC: 1.31587 (Simulation time: 0 hr 9 min 32 sec) 
Heartbeat CPU 0 instructions: 70000002 cycles: 29098456 heartbeat IPC: 1.33074 cumulative IPC: 1.32326 (Simulation time: 0 hr 11 min 5 sec) 
Cycle: 30000000 FTQ IN: 13308472 FTQ occupancy: 10.2171 DECODE IN: 13308459 DECODE occupancy: 25.1416 ROB IN: 13308462 ROB occupancy: 193.426 ROB OUT: 13308700
Heartbeat CPU 0 instructions: 80000001 cycles: 36739253 heartbeat IPC: 1.30876 cumulative IPC: 1.31839 (Simulation time: 0 hr 12 min 40 sec) 
Cycle: 40000000 FTQ IN: 13151511 FTQ occupancy: 10.3935 DECODE IN: 13151347 DECODE occupancy: 25.3693 ROB IN: 13151294 ROB occupancy: 192.989 ROB OUT: 13151357
Heartbeat CPU 0 instructions: 90000001 cycles: 44238956 heartbeat IPC: 1.33339 cumulative IPC: 1.32211 (Simulation time: 0 hr 14 min 14 sec) 
Cycle: 50000000 FTQ IN: 13166843 FTQ occupancy: 10.387 DECODE IN: 13167025 DECODE occupancy: 25.3793 ROB IN: 13167085 ROB occupancy: 193.147 ROB OUT: 13167094
Heartbeat CPU 0 instructions: 100000003 cycles: 51854990 heartbeat IPC: 1.31302 cumulative IPC: 1.32028 (Simulation time: 0 hr 15 min 46 sec) 
Finished CPU 0 instructions: 50000003 cycles: 37870705 cumulative IPC: 1.32028 (Simulation time: 0 hr 15 min 46 sec) 

ChampSim completed all CPUs

Region of Interest Statistics

CPU 0 cumulative IPC: 1.32028 instructions: 50000003 cycles: 37870705
 Fetch stage stalled: 61.1494  Sim cycles: 37870705 fetch stall cycle: 23157691
 Empty decode stage: 45.313  Sim cycles: 37870705 fetch stall cycle: 17160344
ITLB TOTAL     ACCESS:    5796666  HIT:    5301789  MISS:     494877  HIT %:    91.4627  MISS %:    8.53727   MPKI: 9.89754
ITLB LOAD TRANSLATION INSTRUCTION	ACCESS:    5672167  HIT:    5177290  MISS:     494877  HIT %:    91.2753  MISS %:    8.72465  MPKI: 9.89754
ITLB TRANSLATION FROM L1D PREFETCHER INSTRUCTION	ACCESS:     124499  HIT:     124499  MISS:          0  HIT %:        100  MISS %:          0  MPKI: 0

ITLB AVERAGE MISS LATENCY: 9.05834 cycles
ITLB RQ	ACCESS:    7887775	FORWARD:          0	MERGED:    1635660	TO_CACHE:    6252115

DTLB TOTAL     ACCESS:    9048219  HIT:    8577707  MISS:     470512  HIT %:    94.7999  MISS %:    5.20005   MPKI: 9.41024
DTLB LOAD TRANSLATION DATA	ACCESS:    9048219  HIT:    8577707  MISS:     470512  HIT %:    94.7999  MISS %:    5.20005  MPKI: 9.41024

DTLB AVERAGE MISS LATENCY: 9.34541 cycles
DTLB RQ	ACCESS:   13402875	FORWARD:          0	MERGED:    4318398	TO_CACHE:    9084477

STLB TOTAL     ACCESS:    1213752  HIT:    1211558  MISS:       2194  HIT %:    99.8192  MISS %:   0.180762   MPKI: 0.04388
STLB LOAD TRANSLATION INSTRUCTION	ACCESS:     494877  HIT:     494579  MISS:        298  HIT %:    99.9398  MISS %:   0.060217  MPKI: 0.00596
STLB LOAD TRANSLATION DATA	ACCESS:     470512  HIT:     468641  MISS:       1871  HIT %:    99.6023  MISS %:   0.397652  MPKI: 0.03742
STLB TRANSLATION FROM L1D PREFETCHER DATA	ACCESS:     248363  HIT:     248338  MISS:         25  HIT %:    99.9899  MISS %:  0.0100659  MPKI: 0.0005

STLB AVERAGE MISS LATENCY: 73.8523 cycles
STLB RQ	ACCESS:    1333483	FORWARD:          0	MERGED:     119683	TO_CACHE:    1213800

STLB Hit, L1D data hit: 0
STLB Hit, L2C data hit: 0
STLB Hit, LLC data hit: 0
STLB Hit, LLC data miss: 0
STLB STLB hints to L2: 0
L1D TOTAL     ACCESS:   13152476  HIT:   12028250  MISS:    1124226  HIT %:    91.4524  MISS %:    8.54764   MPKI: 22.4845
L1D LOAD DATA	ACCESS:    6610076  HIT:    5869746  MISS:     740330  HIT %:       88.8  MISS %:       11.2  MPKI: 14.8066
L1D RFO DATA	ACCESS:    6215791  HIT:    5927682  MISS:     288109  HIT %:    95.3649  MISS %:    4.63511  MPKI: 5.76218
L1D PREFETCH DATA	ACCESS:     326609  HIT:     230822  MISS:      95787  HIT %:    70.6723  MISS %:    29.3277  MPKI: 1.91574

L1D PREFETCH  REQUESTED:     736559  ISSUED:     736559  USEFUL:      35122  USELESS:      68597
L1D USEFUL LOAD PREFETCHES:      35122 PREFETCH ISSUED TO LOWER LEVEL:     103758  ACCURACY: 33.8499
 TIMELY PREFETCHES:      35122 LATE PREFETCHES: 7929 DROPPED PREFETCHES: 6
L1D AVERAGE MISS LATENCY: 233398 cycles
L1D RQ	ACCESS:   10735690	FORWARD:          0	MERGED:    3928865	TO_CACHE:    6644483
L1D WQ	ACCESS:    6950873	FORWARD:     162713	MERGED:     192481	TO_CACHE:    6758392
L1D PQ	ACCESS:     368465	FORWARD:          0	MERGED:          0	TO_CACHE:     368094

L1D UNIQUE REGIONS ACCESSED: 0
L1D REGIONS CONFLICTS: 0
L1D Cross Page Prefetch Requests: 6964
L1D Same Page Prefetch Requests: 751430
L1D ROI Sum of L1D PQ occupancy: 4678302
L1D PREFETCHES PUSHED FROM L2C: 0
L1I TOTAL     ACCESS:    7092085  HIT:    4326356  MISS:    2765729  HIT %:    61.0026  MISS %:    38.9974   MPKI: 55.3146
L1I LOAD INSTRUCTION	ACCESS:    6456635  HIT:    3690906  MISS:    2765729  HIT %:    57.1645  MISS %:    42.8355  MPKI: 55.3146
L1I PREFETCH INSTRUCTION	ACCESS:     635450  HIT:     635450  MISS:          0  HIT %:        100  MISS %:          0  MPKI: 0

L1I PREFETCH  REQUESTED:    1510792  ISSUED:    1510792  USEFUL:          0  USELESS:          0
L1I USEFUL LOAD PREFETCHES:          0 PREFETCH ISSUED TO LOWER LEVEL:          0  ACCURACY: -nan
 TIMELY PREFETCHES:          0 LATE PREFETCHES: 0 DROPPED PREFETCHES: 0
L1I AVERAGE MISS LATENCY: 17.4664 cycles
L1I RQ	ACCESS:    9482787	FORWARD:          0	MERGED:    2693194	TO_CACHE:    6789593
L1I PQ	ACCESS:    1510792	FORWARD:          0	MERGED:     412610	TO_CACHE:    1098182

L1BTB TOTAL     ACCESS:    5669154  HIT:    2035923  MISS:    3633231  HIT %:    35.9123  MISS %:    64.0877   MPKI: 72.6646
L1BTB BRANCH_DIRECT_JUMP	ACCESS:     547501  HIT:     143863  MISS:     403638	AVERAGE STALL: 38.8931
L1BTB BRANCH_INDIRECT	ACCESS:     182329  HIT:      65594  MISS:     116735	AVERAGE STALL: 127.297
L1BTB BRANCH_CONDITIONAL	ACCESS:    2700476  HIT:    1406640  MISS:    1293836	AVERAGE STALL: 51.4388
L1BTB BRANCH_DIRECT_CALL	ACCESS:     946911  HIT:     106504  MISS:     840407	AVERAGE STALL: 53.7109
L1BTB BRANCH_INDIRECT_CALL	ACCESS:     172516  HIT:      21908  MISS:     150608	AVERAGE STALL: 142.84
L1BTB BRANCH_RETURN	ACCESS:    1119421  HIT:     291414  MISS:     828007	AVERAGE STALL: 46.7282
L1BTB BRANCH_OTHER ACCESS:          0  HIT:          0  MISS:          0	AVERAGE STALL: -nan
L1BTB TOTAL ROB OCCUPANCY AT BTB MISS: 4.93156

L2BTB1 TOTAL     ACCESS:    3607906  HIT:    3484579  MISS:     123327  HIT %:    96.5818  MISS %:    3.41824   MPKI: 2.46654
L2BTB1 BRANCH_DIRECT_JUMP	ACCESS:     399518  HIT:     391322  MISS:       8196	AVERAGE STALL: 38.8931
L2BTB1 BRANCH_INDIRECT	ACCESS:     106441  HIT:      95440  MISS:      11001	AVERAGE STALL: 127.297
L2BTB1 BRANCH_CONDITIONAL	ACCESS:    1293836  HIT:    1279024  MISS:      14812	AVERAGE STALL: 51.4388
L2BTB1 BRANCH_DIRECT_CALL	ACCESS:     840407  HIT:     817711  MISS:      22696	AVERAGE STALL: 53.7109
L2BTB1 BRANCH_INDIRECT_CALL	ACCESS:     141116  HIT:     127907  MISS:      13209	AVERAGE STALL: 142.84
L2BTB1 BRANCH_RETURN	ACCESS:     826588  HIT:     773175  MISS:      53413	AVERAGE STALL: 46.7282
L2BTB1 BRANCH_OTHER ACCESS:          0  HIT:          0  MISS:          0	AVERAGE STALL: -nan
L2BTB1 TOTAL ROB OCCUPANCY AT BTB MISS: 145.284

L2C TOTAL     ACCESS:    4503649  HIT:    4001522  MISS:     502127  HIT %:    88.8507  MISS %:    11.1493   MPKI: 10.0425
L2C LOAD INSTRUCTION	ACCESS:    2765729  HIT:    2481965  MISS:     283764  HIT %:      89.74  MISS %:      10.26  MPKI: 5.67528
L2C LOAD TRANSLATION INSTRUCTION	ACCESS:        336  HIT:        103  MISS:        233  HIT %:    30.6548  MISS %:    69.3452  MPKI: 0.00466
L2C LOAD DATA	ACCESS:     732295  HIT:     655280  MISS:      77015  HIT %:    89.4831  MISS %:    10.5169  MPKI: 1.5403
L2C RFO DATA	ACCESS:     288023  HIT:     238070  MISS:      49953  HIT %:    82.6566  MISS %:    17.3434  MPKI: 0.99906
L2C PREFETCH DATA	ACCESS:     190921  HIT:     115971  MISS:      74950  HIT %:    60.7429  MISS %:    39.2571  MPKI: 1.499
L2C WRITEBACK DATA	ACCESS:     524346  HIT:     509588  MISS:      14758  HIT %:    97.1854  MISS %:    2.81455  MPKI: 0.29516
L2C LOAD TRANSLATION DATA	ACCESS:       1942  HIT:        513  MISS:       1429  HIT %:    26.4161  MISS %:    73.5839  MPKI: 0.02858
L2C TRANSLATION FROM L1D PREFETCHER DATA	ACCESS:         57  HIT:         32  MISS:         25  HIT %:    56.1404  MISS %:    43.8596  MPKI: 0.0005

L2C PREFETCH  REQUESTED:      95030  ISSUED:      95030  USEFUL:       8984  USELESS:      66786
L2C USEFUL LOAD PREFETCHES:       8984 PREFETCH ISSUED TO LOWER LEVEL:      75645  ACCURACY: 11.8765
 TIMELY PREFETCHES:       8984 LATE PREFETCHES: 695 DROPPED PREFETCHES: 0
L2C AVERAGE MISS LATENCY: 38.9236 cycles
L2C RQ	ACCESS:    3788532	FORWARD:          0	MERGED:          0	TO_CACHE:    3788383
L2C WQ	ACCESS:     524346	FORWARD:        149	MERGED:          0	TO_CACHE:     524346
L2C PQ	ACCESS:     198788	FORWARD:          0	MERGED:       3164	TO_CACHE:     195624

L2C Dense regions hint from L2: 0
PSCL5 TOTAL     ACCESS:       4410  HIT:       2205  MISS:       2205  HIT %:         50  MISS %:         50   MPKI: 0.0441
PSCL5 LOAD TRANSLATION INSTRUCTION	ACCESS:       4298  HIT:       2149  MISS:       2149  HIT %:         50  MISS %:         50  MPKI: 0.04298
PSCL5 TRANSLATION FROM L1D PREFETCHER INSTRUCTION	ACCESS:        112  HIT:         56  MISS:         56  HIT %:         50  MISS %:         50  MPKI: 0.00112


PSCL4 TOTAL     ACCESS:       4335  HIT:       2165  MISS:       2170  HIT %:    49.9423  MISS %:    50.0577   MPKI: 0.0434
PSCL4 LOAD TRANSLATION INSTRUCTION	ACCESS:       3822  HIT:       2113  MISS:       1709  HIT %:    55.2852  MISS %:    44.7148  MPKI: 0.03418
PSCL4 TRANSLATION FROM L1D PREFETCHER INSTRUCTION	ACCESS:         97  HIT:         52  MISS:         45  HIT %:    53.6082  MISS %:    46.3918  MPKI: 0.0009
PSCL4 LOAD TRANSLATION DATA	ACCESS:        409  HIT:          0  MISS:        409  HIT %:          0  MISS %:        100  MPKI: 0.00818
PSCL4 TRANSLATION FROM L1D PREFETCHER DATA	ACCESS:          7  HIT:          0  MISS:          7  HIT %:          0  MISS %:        100  MPKI: 0.00014


PSCL3 TOTAL     ACCESS:       4339  HIT:       2167  MISS:       2172  HIT %:    49.9424  MISS %:    50.0576   MPKI: 0.04344
PSCL3 LOAD TRANSLATION INSTRUCTION	ACCESS:       3824  HIT:       2115  MISS:       1709  HIT %:    55.3086  MISS %:    44.6914  MPKI: 0.03418
PSCL3 TRANSLATION FROM L1D PREFETCHER INSTRUCTION	ACCESS:         97  HIT:         52  MISS:         45  HIT %:    53.6082  MISS %:    46.3918  MPKI: 0.0009
PSCL3 LOAD TRANSLATION DATA	ACCESS:        411  HIT:          0  MISS:        411  HIT %:          0  MISS %:        100  MPKI: 0.00822
PSCL3 TRANSLATION FROM L1D PREFETCHER DATA	ACCESS:          7  HIT:          0  MISS:          7  HIT %:          0  MISS %:        100  MPKI: 0.00014


PSCL2 TOTAL     ACCESS:       4289  HIT:       2084  MISS:       2205  HIT %:    48.5894  MISS %:    51.4106   MPKI: 0.0441
PSCL2 LOAD TRANSLATION INSTRUCTION	ACCESS:       2324  HIT:       2029  MISS:        295  HIT %:    87.3064  MISS %:    12.6936  MPKI: 0.0059
PSCL2 TRANSLATION FROM L1D PREFETCHER INSTRUCTION	ACCESS:         55  HIT:         55  MISS:          0  HIT %:        100  MISS %:          0  MPKI: 0
PSCL2 LOAD TRANSLATION DATA	ACCESS:       1855  HIT:          0  MISS:       1855  HIT %:          0  MISS %:        100  MPKI: 0.0371
PSCL2 TRANSLATION FROM L1D PREFETCHER DATA	ACCESS:         55  HIT:          0  MISS:         55  HIT %:          0  MISS %:        100  MPKI: 0.0011


LLC TOTAL     ACCESS:     560384  HIT:     529656  MISS:      30728  HIT %:    94.5166  MISS %:    5.48338   MPKI: 0.61456
LLC LOAD INSTRUCTION	ACCESS:     283764  HIT:     282759  MISS:       1005  HIT %:    99.6458  MISS %:   0.354168  MPKI: 0.0201
LLC LOAD TRANSLATION INSTRUCTION	ACCESS:        233  HIT:        200  MISS:         33  HIT %:    85.8369  MISS %:    14.1631  MPKI: 0.00066
LLC LOAD DATA	ACCESS:      76342  HIT:      72708  MISS:       3634  HIT %:    95.2398  MISS %:    4.76016  MPKI: 0.07268
LLC RFO DATA	ACCESS:      49920  HIT:      34626  MISS:      15294  HIT %:     69.363  MISS %:     30.637  MPKI: 0.30588
LLC PREFETCH DATA	ACCESS:      75641  HIT:      65418  MISS:      10223  HIT %:    86.4848  MISS %:    13.5152  MPKI: 0.20446
LLC WRITEBACK DATA	ACCESS:      73030  HIT:      72573  MISS:        457  HIT %:    99.3742  MISS %:    0.62577  MPKI: 0.00914
LLC LOAD TRANSLATION DATA	ACCESS:       1429  HIT:       1347  MISS:         82  HIT %:    94.2617  MISS %:    5.73828  MPKI: 0.00164
LLC TRANSLATION FROM L1D PREFETCHER DATA	ACCESS:         25  HIT:         25  MISS:          0  HIT %:        100  MISS %:          0  MPKI: 0

LLC AVERAGE MISS LATENCY: 159.031 cycles
LLC RQ	ACCESS:     411724	FORWARD:          0	MERGED:          0	TO_CACHE:     411713
LLC WQ	ACCESS:      73030	FORWARD:         15	MERGED:          0	TO_CACHE:      73030
LLC PQ	ACCESS:      75645	FORWARD:          0	MERGED:          0	TO_CACHE:      75641

LLC Dense regions hint to LLC: 0

RAW hits: 1901204
Loads Generated: 12636894
Loads sent to L1D: 10735690
Stores Generated: 6950862
Stores sent to L1D: 6950873
Major fault: 0 Minor fault: 2661
Allocated PAGES: 2661

stream: 
stream:times selected: 1190514
stream:pref_filled: 122016
stream:pref_useful: 24027
stream:pref_late: 6617
stream:misses: 7903
stream:misses_by_poll: 0

CS: 
CS:times selected: 182576
CS:pref_filled: 60567
CS:pref_useful: 37385
CS:pref_late: 6929
CS:misses: 16880
CS:misses_by_poll: 4

CPLX: 
CPLX:times selected: 1006750
CPLX:pref_filled: 19664
CPLX:pref_useful: 4739
CPLX:pref_late: 3043
CPLX:misses: 93242
CPLX:misses_by_poll: 1

NL_L1: 
NL:times selected: 20985
NL:pref_filled: 806
NL:pref_useful: 391
NL:pref_late: 295
NL:misses: 1839
NL:misses_by_poll: 0

total selections: 2400825
total_filled: 95787
total_useful: 35122
total_late: 18187
total_polluted: 5
total_misses_after_warmup: 774737
conflicts: 5544564

test: 115496

DRAM Statistics
 CHANNEL 0
 RQ ROW_BUFFER_HIT:      11483  ROW_BUFFER_MISS:      18779
 DBUS_CONGESTED:         16
 WQ ROW_BUFFER_HIT:       1540  ROW_BUFFER_MISS:      12972  FULL:          0

 AVG_CONGESTED_CYCLE: 4

CPU 0 Branch Prediction Accuracy: 99.8222% MPKI: 0.32518 Average ROB Occupancy at Mispredict: 168.064
Branch types
NOT_BRANCH: 40854099 81.7082%
BRANCH_DIRECT_JUMP: 547501 1.095%
BRANCH_INDIRECT: 182329 0.364658%
BRANCH_CONDITIONAL: 6176890 12.3538%
BRANCH_DIRECT_CALL: 946911 1.89382%
BRANCH_INDIRECT_CALL: 172516 0.345032%
BRANCH_RETURN: 1119421 2.23884%
BRANCH_OTHER: 0 0%

DRAM PAGES: 1048576
Allocated PAGES: 2661
Average_ROB_Occupancy: 194.073
Average_Decode_Occupancy: 25.3078
Average_FTQ_Occupancy: 10.3503
Indirect max targets: 14 Average targets: 1.17778
Branch_type:  BRANCH_DIRECT_JUMP:  Count Percentage: 3.31585 6.40468 4.09988 3.79399 9.94993 2.71886 1.60284 68.114 
Branch_type:  BRANCH_INDIRECT:  Count Percentage: 13.7711 3.44093 5.36714 3.7354 9.68519 1.20521 3.20251 59.5925 
Branch_type:  BRANCH_CONDITIONAL:  Count Percentage: 21.4796 3.03675 1.85295 3.15863 6.30752 9.54195 0.927367 53.6952 
Branch_type:  BRANCH_DIRECT_CALL:  Count Percentage: 0.752136 1.26427 1.02866 2.58891 5.1255 2.07211 0.618671 86.5497 
Branch_type:  BRANCH_INDIRECT_CALL:  Count Percentage: 9.5237 0 2.98402 4.26155 1.2589 2.99159 0.995935 77.9843 
Branch_type:  BRANCH_RETURN:  Count Percentage: 4.51994 1.37725 2.61165 3.27381 8.30368 10.5543 1.1845 68.1749 
Branch_type:  BRANCH_DIRECT_JUMP:  Total Count: 36325 70163 44914 41563 109001 29785 17559 746185 
Branch_type:  BRANCH_INDIRECT:  Total Count: 50367 12585 19630 13662 35423 4408 11713 217956 
Branch_type:  BRANCH_CONDITIONAL:  Total Count: 2653661 375170 228919 390228 779252 1178843 114570 6633683 
Branch_type:  BRANCH_DIRECT_CALL:  Total Count: 14190 23852 19407 48843 96699 39093 11672 1632870 
Branch_type:  BRANCH_INDIRECT_CALL:  Total Count: 32704 0 10247 14634 4323 10273 3420 267795 
Branch_type:  BRANCH_RETURN:  Total Count: 100835 30725 58263 73035 185246 235454 26425 1520907 
Number of unique branch instructions: 10810
Upper 32 bits: 
aaaa
ffff
ffff0000
Unique upper 32 bits: 3
Unique upper 36 bits: 3
Unique upper 40 bits: 5
Unique upper 44 bits: 32
Unique upper 48 bits: 158
Offset_3 4480
Offset_4 261
Offset_5 486
Offset_6 545
Offset_7 643
Offset_8 585
Offset_9 519
Offset_10 426
Offset_11 348
Offset_12 325
Offset_13 237
Offset_14 247
Offset_15 192
Offset_16 234
Offset_17 170
Offset_18 154
Offset_19 267
Offset_20 145
Offset_21 235
Offset_22 411
Offset_23 241
Offset_24 347
Offset_25 117
Offset_47 92
decode_dispatch_called: 22577283 59.6167
Dispatch_width: 0 11802932 52.2779 31.1664
Dispatch_width: 1 704374 3.11984 1.85994
Dispatch_width: 2 696441 3.0847 1.839
Dispatch_width: 3 423049 1.87378 1.11709
Dispatch_width: 4 3427097 15.1794 9.04947
Dispatch_width: 5 215370 0.953923 0.568698
Dispatch_width: 6 5308020 23.5104 14.0162
Empty_decode_cycles: 15293422 40.3833
ROB_full_cycles: 5407798 14.2796
Starvation_cycles_per_kilo_instr: 271.549
Starvation_cycles_per_kilo_instr_3: 235.124
Starvation_cycles_per_kilo_instr_0: 216.886
Branch_type_1  (3,1)  (4,9)  (5,39)  (6,75)  (7,126)  (8,152)  (9,137)  (10,110)  (11,77)  (12,55)  (13,11)  (14,2)  (15,3)  (16,4)  (18,1)  (19,5)  (20,2)  (21,1)  (22,3)  (23,2)  (24,10)  (25,12) 
Branch_type_2  (3,1)  (4,1)  (5,1)  (8,4)  (9,4)  (10,1)  (12,1)  (13,1)  (14,1)  (16,3)  (17,2)  (20,2)  (21,2)  (23,5)  (24,1)  (47,41) 
Branch_type_3  (3,4478)  (4,251)  (5,442)  (6,453)  (7,485)  (8,360)  (9,282)  (10,173)  (11,136)  (12,62)  (13,10) 
Branch_type_4  (6,4)  (7,8)  (8,26)  (9,58)  (10,68)  (11,69)  (12,116)  (13,100)  (14,112)  (15,91)  (16,105)  (17,77)  (18,66)  (19,129)  (20,74)  (21,124)  (22,216)  (23,136)  (24,202)  (25,101) 
Branch_type_5  (8,3)  (9,1)  (10,4)  (11,5)  (12,3)  (13,14)  (14,16)  (15,11)  (16,22)  (17,13)  (18,23)  (19,14)  (20,11)  (21,13)  (22,43)  (23,26)  (24,38) 
Branch_type_6  (5,4)  (6,13)  (7,24)  (8,40)  (9,37)  (10,70)  (11,61)  (12,88)  (13,101)  (14,116)  (15,87)  (16,100)  (17,78)  (18,64)  (19,119)  (20,56)  (21,95)  (22,149)  (23,72)  (24,96)  (25,4)  (47,51) 
Unique trigger count: 
L2BTB1 1536 4
L2BTB2 1536 4
L2BTB3 1536 4
L2BTB4 224 4
