
*** ChampSim Multicore Out-of-Order Simulator ***

Warmup Instructions: 50000000
Simulation Instructions: 50000000
Number of CPUs: 1
LLC sets: 2048
LLC ways: 16
Off-chip DRAM Size: 4096 MB Channels: 1 Width: 64-bit Data Rate: 6400 MT/s
CPU 0 runs ./micro_traces/srv5.trace.gz
.gz
ITLB has LRU replacement policy
DTLB has LRU replacement policy
STLB has LRU replacement policy
FDIP Prefetcher at L1I
L1I has LRU replacement policy
L1D has LRU replacement policy
Initialize SRRIP state for L2C
Initialize DRRIP state for LLC
Heartbeat_Variant_0 : 1004 0.326823 per_variant_size: 0 1004 0 0 0 0 0 0 0 
Heartbeat_Variant_1 : 2059 0.670247 per_variant_size: 0 357 1702 0 0 0 0 0 0 
Heartbeat_Variant_2 : 0 0 per_variant_size: 0 0 0 0 0 0 0 0 0 
Heartbeat_Variant_3 : 0 0 per_variant_size: 0 0 0 0 0 0 0 0 0 
Heartbeat_Variant_0_evicts 0 : 18007 1 : 26007 2 : 0 3 : 0 
Heartbeat_Variant_1_evicts 0 : 25968 1 : 0 2 : 0 3 : 0 
Heartbeat_Variant_2_evicts 0 : 0 1 : 0 2 : 0 3 : 0 
Heartbeat_Variant_3_evicts 0 : 0 1 : 0 2 : 0 3 : 0 
Heartbeat CPU 0 instructions: 10000002 cycles: 2797293 heartbeat IPC: 3.57489 cumulative IPC: 3.57489 (Simulation time: 0 hr 2 min 3 sec) 
Heartbeat_Variant_0 : 976 0.317708 per_variant_size: 0 976 0 0 0 0 0 0 0 
Heartbeat_Variant_1 : 2088 0.679688 per_variant_size: 0 370 1718 0 0 0 0 0 0 
Heartbeat_Variant_2 : 0 0 per_variant_size: 0 0 0 0 0 0 0 0 0 
Heartbeat_Variant_3 : 0 0 per_variant_size: 0 0 0 0 0 0 0 0 0 
Heartbeat_Variant_0_evicts 0 : 18373 1 : 25984 2 : 0 3 : 0 
Heartbeat_Variant_1_evicts 0 : 26012 1 : 0 2 : 0 3 : 0 
Heartbeat_Variant_2_evicts 0 : 0 1 : 0 2 : 0 3 : 0 
Heartbeat_Variant_3_evicts 0 : 0 1 : 0 2 : 0 3 : 0 
Heartbeat CPU 0 instructions: 20000002 cycles: 5594315 heartbeat IPC: 3.57523 cumulative IPC: 3.57506 (Simulation time: 0 hr 3 min 45 sec) 
Heartbeat_Variant_0 : 1029 0.334961 per_variant_size: 0 1029 0 0 0 0 0 0 0 
Heartbeat_Variant_1 : 2035 0.662435 per_variant_size: 0 336 1699 0 0 0 0 0 0 
Heartbeat_Variant_2 : 0 0 per_variant_size: 0 0 0 0 0 0 0 0 0 
Heartbeat_Variant_3 : 0 0 per_variant_size: 0 0 0 0 0 0 0 0 0 
Heartbeat_Variant_0_evicts 0 : 18413 1 : 26257 2 : 0 3 : 0 
Heartbeat_Variant_1_evicts 0 : 26204 1 : 0 2 : 0 3 : 0 
Heartbeat_Variant_2_evicts 0 : 0 1 : 0 2 : 0 3 : 0 
Heartbeat_Variant_3_evicts 0 : 0 1 : 0 2 : 0 3 : 0 
Heartbeat CPU 0 instructions: 30000002 cycles: 8391780 heartbeat IPC: 3.57466 cumulative IPC: 3.57493 (Simulation time: 0 hr 5 min 31 sec) 
Heartbeat_Variant_0 : 991 0.322591 per_variant_size: 0 991 0 0 0 0 0 0 0 
Heartbeat_Variant_1 : 2073 0.674805 per_variant_size: 0 378 1695 0 0 0 0 0 0 
Heartbeat_Variant_2 : 0 0 per_variant_size: 0 0 0 0 0 0 0 0 0 
Heartbeat_Variant_3 : 0 0 per_variant_size: 0 0 0 0 0 0 0 0 0 
Heartbeat_Variant_0_evicts 0 : 18313 1 : 26250 2 : 0 3 : 0 
Heartbeat_Variant_1_evicts 0 : 26288 1 : 0 2 : 0 3 : 0 
Heartbeat_Variant_2_evicts 0 : 0 1 : 0 2 : 0 3 : 0 
Heartbeat_Variant_3_evicts 0 : 0 1 : 0 2 : 0 3 : 0 
Heartbeat CPU 0 instructions: 40000003 cycles: 11190008 heartbeat IPC: 3.57369 cumulative IPC: 3.57462 (Simulation time: 0 hr 7 min 17 sec) 
Heartbeat_Variant_0 : 981 0.319336 per_variant_size: 0 981 0 0 0 0 0 0 0 
Heartbeat_Variant_1 : 2083 0.67806 per_variant_size: 0 365 1718 0 0 0 0 0 0 
Heartbeat_Variant_2 : 0 0 per_variant_size: 0 0 0 0 0 0 0 0 0 
Heartbeat_Variant_3 : 0 0 per_variant_size: 0 0 0 0 0 0 0 0 0 
Heartbeat_Variant_0_evicts 0 : 17748 1 : 25900 2 : 0 3 : 0 
Heartbeat_Variant_1_evicts 0 : 25910 1 : 0 2 : 0 3 : 0 
Heartbeat_Variant_2_evicts 0 : 0 1 : 0 2 : 0 3 : 0 
Heartbeat_Variant_3_evicts 0 : 0 1 : 0 2 : 0 3 : 0 
Heartbeat CPU 0 instructions: 50000001 cycles: 13986830 heartbeat IPC: 3.57549 cumulative IPC: 3.57479 (Simulation time: 0 hr 9 min 1 sec) 

Warmup complete CPU 0 instructions: 50000001 cycles: 13986830 (Simulation time: 0 hr 9 min 1 sec) 

Cycle: 20000000 FTQ IN: 56498517 FTQ occupancy: 18.0569 DECODE IN: 56498517 DECODE occupancy: 46.1024 ROB IN: 56498517 ROB occupancy: 277.632 ROB OUT: 56498201
Heartbeat_Variant_0 : 978 0.318359 per_variant_size: 0 978 0 0 0 0 0 0 0 
Heartbeat_Variant_1 : 2086 0.679036 per_variant_size: 0 347 1739 0 0 0 0 0 0 
Heartbeat_Variant_2 : 0 0 per_variant_size: 0 0 0 0 0 0 0 0 0 
Heartbeat_Variant_3 : 0 0 per_variant_size: 0 0 0 0 0 0 0 0 0 
Heartbeat_Variant_0_evicts 0 : 17927 1 : 26043 2 : 0 3 : 0 
Heartbeat_Variant_1_evicts 0 : 26046 1 : 0 2 : 0 3 : 0 
Heartbeat_Variant_2_evicts 0 : 0 1 : 0 2 : 0 3 : 0 
Heartbeat_Variant_3_evicts 0 : 0 1 : 0 2 : 0 3 : 0 
Heartbeat CPU 0 instructions: 60000001 cycles: 23372112 heartbeat IPC: 1.0655 cumulative IPC: 1.0655 (Simulation time: 0 hr 10 min 28 sec) 
Cycle: 30000000 FTQ IN: 10675431 FTQ occupancy: 6.79646 DECODE IN: 10675431 DECODE occupancy: 14.2407 ROB IN: 10675431 ROB occupancy: 115.946 ROB OUT: 10675734
Heartbeat_Variant_0 : 982 0.319661 per_variant_size: 0 982 0 0 0 0 0 0 0 
Heartbeat_Variant_1 : 2082 0.677734 per_variant_size: 0 363 1719 0 0 0 0 0 0 
Heartbeat_Variant_2 : 0 0 per_variant_size: 0 0 0 0 0 0 0 0 0 
Heartbeat_Variant_3 : 0 0 per_variant_size: 0 0 0 0 0 0 0 0 0 
Heartbeat_Variant_0_evicts 0 : 17085 1 : 25199 2 : 0 3 : 0 
Heartbeat_Variant_1_evicts 0 : 25195 1 : 0 2 : 0 3 : 0 
Heartbeat_Variant_2_evicts 0 : 0 1 : 0 2 : 0 3 : 0 
Heartbeat_Variant_3_evicts 0 : 0 1 : 0 2 : 0 3 : 0 
Heartbeat CPU 0 instructions: 70000000 cycles: 32524668 heartbeat IPC: 1.09259 cumulative IPC: 1.07887 (Simulation time: 0 hr 11 min 59 sec) 
Cycle: 40000000 FTQ IN: 10866058 FTQ occupancy: 6.73492 DECODE IN: 10866030 DECODE occupancy: 14.2298 ROB IN: 10866030 ROB occupancy: 117.012 ROB OUT: 10866035
Heartbeat_Variant_0 : 962 0.313151 per_variant_size: 0 962 0 0 0 0 0 0 0 
Heartbeat_Variant_1 : 2102 0.684245 per_variant_size: 0 374 1728 0 0 0 0 0 0 
Heartbeat_Variant_2 : 0 0 per_variant_size: 0 0 0 0 0 0 0 0 0 
Heartbeat_Variant_3 : 0 0 per_variant_size: 0 0 0 0 0 0 0 0 0 
Heartbeat_Variant_0_evicts 0 : 18216 1 : 26276 2 : 0 3 : 0 
Heartbeat_Variant_1_evicts 0 : 26296 1 : 0 2 : 0 3 : 0 
Heartbeat_Variant_2_evicts 0 : 0 1 : 0 2 : 0 3 : 0 
Heartbeat_Variant_3_evicts 0 : 0 1 : 0 2 : 0 3 : 0 
Heartbeat CPU 0 instructions: 80000000 cycles: 41962433 heartbeat IPC: 1.05957 cumulative IPC: 1.07236 (Simulation time: 0 hr 13 min 32 sec) 
Cycle: 50000000 FTQ IN: 10394129 FTQ occupancy: 6.64446 DECODE IN: 10394137 DECODE occupancy: 13.8038 ROB IN: 10394137 ROB occupancy: 114.215 ROB OUT: 10394057
Heartbeat_Variant_0 : 995 0.323893 per_variant_size: 0 995 0 0 0 0 0 0 0 
Heartbeat_Variant_1 : 2072 0.674479 per_variant_size: 0 323 1749 0 0 0 0 0 0 
Heartbeat_Variant_2 : 0 0 per_variant_size: 0 0 0 0 0 0 0 0 0 
Heartbeat_Variant_3 : 0 0 per_variant_size: 0 0 0 0 0 0 0 0 0 
Heartbeat_Variant_0_evicts 0 : 18312 1 : 26622 2 : 0 3 : 0 
Heartbeat_Variant_1_evicts 0 : 26589 1 : 0 2 : 0 3 : 0 
Heartbeat_Variant_2_evicts 0 : 0 1 : 0 2 : 0 3 : 0 
Heartbeat_Variant_3_evicts 0 : 0 1 : 0 2 : 0 3 : 0 
Heartbeat CPU 0 instructions: 90000000 cycles: 51475919 heartbeat IPC: 1.05114 cumulative IPC: 1.06698 (Simulation time: 0 hr 14 min 53 sec) 
Cycle: 60000000 FTQ IN: 10654493 FTQ occupancy: 6.42017 DECODE IN: 10654513 DECODE occupancy: 13.3497 ROB IN: 10654511 ROB occupancy: 111.718 ROB OUT: 10654597
Heartbeat_Variant_0 : 968 0.315104 per_variant_size: 0 968 0 0 0 0 0 0 0 
Heartbeat_Variant_1 : 2099 0.683268 per_variant_size: 0 374 1725 0 0 0 0 0 0 
Heartbeat_Variant_2 : 0 0 per_variant_size: 0 0 0 0 0 0 0 0 0 
Heartbeat_Variant_3 : 0 0 per_variant_size: 0 0 0 0 0 0 0 0 0 
Heartbeat_Variant_0_evicts 0 : 18353 1 : 27039 2 : 0 3 : 0 
Heartbeat_Variant_1_evicts 0 : 27066 1 : 0 2 : 0 3 : 0 
Heartbeat_Variant_2_evicts 0 : 0 1 : 0 2 : 0 3 : 0 
Heartbeat_Variant_3_evicts 0 : 0 1 : 0 2 : 0 3 : 0 
Heartbeat CPU 0 instructions: 100000003 cycles: 60855507 heartbeat IPC: 1.06615 cumulative IPC: 1.06681 (Simulation time: 0 hr 16 min 23 sec) 
Finished CPU 0 instructions: 50000002 cycles: 46868677 cumulative IPC: 1.06681 (Simulation time: 0 hr 16 min 23 sec) 

ChampSim completed all CPUs

Region of Interest Statistics

CPU 0 cumulative IPC: 1.06681 instructions: 50000002 cycles: 46868677
 Fetch stage stalled: 71.6116  Sim cycles: 46868677 fetch stall cycle: 33563411
 Empty decode stage: 58.4769  Sim cycles: 46868677 fetch stall cycle: 27407347
ITLB TOTAL     ACCESS:    5542177  HIT:    5046155  MISS:     496022  HIT %:    91.0501  MISS %:    8.94995   MPKI: 9.92044
ITLB LOAD TRANSLATION INSTRUCTION	ACCESS:    5435758  HIT:    4939736  MISS:     496022  HIT %:    90.8748  MISS %:    9.12517  MPKI: 9.92044
ITLB TRANSLATION FROM L1D PREFETCHER INSTRUCTION	ACCESS:     106419  HIT:     106419  MISS:          0  HIT %:        100  MISS %:          0  MPKI: 0

ITLB AVERAGE MISS LATENCY: 9.05353 cycles
ITLB RQ	ACCESS:    7313005	FORWARD:          0	MERGED:    1245439	TO_CACHE:    6067566

DTLB TOTAL     ACCESS:    9398952  HIT:    8924998  MISS:     473954  HIT %:    94.9574  MISS %:    5.04263   MPKI: 9.47908
DTLB LOAD TRANSLATION DATA	ACCESS:    9398952  HIT:    8924998  MISS:     473954  HIT %:    94.9574  MISS %:    5.04263  MPKI: 9.47908

DTLB AVERAGE MISS LATENCY: 9.34484 cycles
DTLB RQ	ACCESS:   13666160	FORWARD:          0	MERGED:    4234345	TO_CACHE:    9431815

STLB TOTAL     ACCESS:    1219086  HIT:    1216842  MISS:       2244  HIT %:    99.8159  MISS %:   0.184072   MPKI: 0.04488
STLB LOAD TRANSLATION INSTRUCTION	ACCESS:     496022  HIT:     495714  MISS:        308  HIT %:    99.9379  MISS %:   0.062094  MPKI: 0.00616
STLB LOAD TRANSLATION DATA	ACCESS:     473796  HIT:     471877  MISS:       1919  HIT %:     99.595  MISS %:   0.405027  MPKI: 0.03838
STLB TRANSLATION FROM L1D PREFETCHER DATA	ACCESS:     249268  HIT:     249251  MISS:         17  HIT %:    99.9932  MISS %: 0.00681997  MPKI: 0.00034

STLB AVERAGE MISS LATENCY: 73.8155 cycles
STLB RQ	ACCESS:    1338706	FORWARD:          0	MERGED:     119577	TO_CACHE:    1219129

STLB Hit, L1D data hit: 0
STLB Hit, L2C data hit: 0
STLB Hit, LLC data hit: 0
STLB Hit, LLC data miss: 0
STLB STLB hints to L2: 0
L1D TOTAL     ACCESS:   13438305  HIT:   12315477  MISS:    1122828  HIT %:    91.6446  MISS %:    8.35543   MPKI: 22.4566
L1D LOAD DATA	ACCESS:    6849394  HIT:    6108751  MISS:     740643  HIT %:    89.1867  MISS %:    10.8133  MPKI: 14.8129
L1D RFO DATA	ACCESS:    6260593  HIT:    5973811  MISS:     286782  HIT %:    95.4193  MISS %:    4.58075  MPKI: 5.73564
L1D PREFETCH DATA	ACCESS:     328318  HIT:     232915  MISS:      95403  HIT %:    70.9419  MISS %:    29.0581  MPKI: 1.90806

L1D PREFETCH  REQUESTED:     737770  ISSUED:     737770  USEFUL:      34340  USELESS:      68545
L1D USEFUL LOAD PREFETCHES:      34340 PREFETCH ISSUED TO LOWER LEVEL:     102982  ACCURACY: 33.3456
 TIMELY PREFETCHES:      34340 LATE PREFETCHES: 7476 DROPPED PREFETCHES: 7
L1D AVERAGE MISS LATENCY: 246751 cycles
L1D RQ	ACCESS:   10915847	FORWARD:          0	MERGED:    3870507	TO_CACHE:    6879065
L1D WQ	ACCESS:    6955398	FORWARD:     166585	MERGED:     168303	TO_CACHE:    6787095
L1D PQ	ACCESS:     369040	FORWARD:          0	MERGED:          0	TO_CACHE:     368730

L1D UNIQUE REGIONS ACCESSED: 0
L1D REGIONS CONFLICTS: 0
L1D Cross Page Prefetch Requests: 7003
L1D Same Page Prefetch Requests: 755711
L1D ROI Sum of L1D PQ occupancy: 4687678
L1D PREFETCHES PUSHED FROM L2C: 0
L1I TOTAL     ACCESS:    6882249  HIT:    4107008  MISS:    2775241  HIT %:    59.6754  MISS %:    40.3246   MPKI: 55.5048
L1I LOAD INSTRUCTION	ACCESS:    6436795  HIT:    3661554  MISS:    2775241  HIT %:    56.8847  MISS %:    43.1153  MPKI: 55.5048
L1I PREFETCH INSTRUCTION	ACCESS:     445454  HIT:     445454  MISS:          0  HIT %:        100  MISS %:          0  MPKI: 0

L1I PREFETCH  REQUESTED:     975364  ISSUED:     975364  USEFUL:          0  USELESS:          0
L1I USEFUL LOAD PREFETCHES:          0 PREFETCH ISSUED TO LOWER LEVEL:          0  ACCURACY: -nan
 TIMELY PREFETCHES:          0 LATE PREFETCHES: 0 DROPPED PREFETCHES: 0
L1I AVERAGE MISS LATENCY: 17.4504 cycles
L1I RQ	ACCESS:    9462213	FORWARD:          0	MERGED:    2841458	TO_CACHE:    6620755
L1I PQ	ACCESS:     975364	FORWARD:          0	MERGED:     283114	TO_CACHE:     692250

L1BTB TOTAL     ACCESS:    5670574  HIT:    2028996  MISS:    3641578  HIT %:    35.7811  MISS %:    64.2189   MPKI: 72.8316
L1BTB BRANCH_DIRECT_JUMP	ACCESS:     548408 HIT:     143256 MISS:     405152 AVERAGE STALL: 34.9471 AVERAGE FETCH STALL: 19.3076 AVERAGE FETCH QUEUE STALL: 7.83604 AVERAGE DECODE STALL: 6.9527 AVERAGE EXECUTE STALL: 2.82908e+14
L1BTB BRANCH_INDIRECT	ACCESS:     182571 HIT:      65575 MISS:     116996 AVERAGE STALL: 87.755 AVERAGE FETCH STALL: 14.5857 AVERAGE FETCH QUEUE STALL: 9.60287 AVERAGE DECODE STALL: 6.92655 AVERAGE EXECUTE STALL: 55.698
L1BTB BRANCH_CONDITIONAL	ACCESS:    2702907 HIT:    1405375 MISS:    1297532 AVERAGE STALL: 36.0797 AVERAGE FETCH STALL: 21.8674 AVERAGE FETCH QUEUE STALL: 6.8708 AVERAGE DECODE STALL: 6.59929 AVERAGE EXECUTE STALL: 9.78669e+13
L1BTB BRANCH_DIRECT_CALL	ACCESS:     946373 HIT:     104576 MISS:     841797 AVERAGE STALL: 37.0516 AVERAGE FETCH STALL: 22.0032 AVERAGE FETCH QUEUE STALL: 7.31197 AVERAGE DECODE STALL: 6.98162 AVERAGE EXECUTE STALL: 9.13087e+13
L1BTB BRANCH_INDIRECT_CALL	ACCESS:     171970 HIT:      21099 MISS:     150871 AVERAGE STALL: 115.063 AVERAGE FETCH STALL: 18.8097 AVERAGE FETCH QUEUE STALL: 6.6059 AVERAGE DECODE STALL: 6.71854 AVERAGE EXECUTE STALL: 82.3825
L1BTB BRANCH_RETURN	ACCESS:    1118345 HIT:     289115 MISS:     829230 AVERAGE STALL: 36.8309 AVERAGE FETCH STALL: 18.7902 AVERAGE FETCH QUEUE STALL: 6.35304 AVERAGE DECODE STALL: 6.4468 AVERAGE EXECUTE STALL: 1.44246e+14
L1BTB BRANCH_OTHER ACCESS:          0 HIT:          0 MISS:          0 AVERAGE STALL: -nan AVERAGE FETCH STALL: -nan AVERAGE FETCH QUEUE STALL: -nan AVERAGE DECODE STALL: -nan AVERAGE EXECUTE STALL: -nan
L1BTB TOTAL ROB OCCUPANCY AT BTB MISS: 16.0456

L2BTB TOTAL     ACCESS:    3616193  HIT:    2986550  MISS:     629643  HIT %:    82.5882  MISS %:    17.4118   MPKI: 12.5929
L2BTB BRANCH_DIRECT_JUMP	ACCESS:     401032 HIT:     339893 MISS:      61139 AVERAGE STALL: 34.9471 AVERAGE FETCH STALL: 19.3076 AVERAGE FETCH QUEUE STALL: 7.83604 AVERAGE DECODE STALL: 6.9527 AVERAGE EXECUTE STALL: 2.82908e+14
L2BTB BRANCH_INDIRECT	ACCESS:     106650 HIT:      95930 MISS:      10720 AVERAGE STALL: 87.755 AVERAGE FETCH STALL: 14.5857 AVERAGE FETCH QUEUE STALL: 9.60287 AVERAGE DECODE STALL: 6.92655 AVERAGE EXECUTE STALL: 55.698
L2BTB BRANCH_CONDITIONAL	ACCESS:    1297532 HIT:    1107895 MISS:     189637 AVERAGE STALL: 36.0797 AVERAGE FETCH STALL: 21.8674 AVERAGE FETCH QUEUE STALL: 6.8708 AVERAGE DECODE STALL: 6.59929 AVERAGE EXECUTE STALL: 9.78669e+13
L2BTB BRANCH_DIRECT_CALL	ACCESS:     841797 HIT:     639672 MISS:     202125 AVERAGE STALL: 37.0516 AVERAGE FETCH STALL: 22.0032 AVERAGE FETCH QUEUE STALL: 7.31197 AVERAGE DECODE STALL: 6.98162 AVERAGE EXECUTE STALL: 9.13087e+13
L2BTB BRANCH_INDIRECT_CALL	ACCESS:     141362 HIT:     101908 MISS:      39454 AVERAGE STALL: 115.063 AVERAGE FETCH STALL: 18.8097 AVERAGE FETCH QUEUE STALL: 6.6059 AVERAGE DECODE STALL: 6.71854 AVERAGE EXECUTE STALL: 82.3825
L2BTB BRANCH_RETURN	ACCESS:     827820 HIT:     701252 MISS:     126568 AVERAGE STALL: 36.8309 AVERAGE FETCH STALL: 18.7902 AVERAGE FETCH QUEUE STALL: 6.35304 AVERAGE DECODE STALL: 6.4468 AVERAGE EXECUTE STALL: 1.44246e+14
L2BTB BRANCH_OTHER ACCESS:          0 HIT:          0 MISS:          0 AVERAGE STALL: -nan AVERAGE FETCH STALL: -nan AVERAGE FETCH QUEUE STALL: -nan AVERAGE DECODE STALL: -nan AVERAGE EXECUTE STALL: -nan
L2BTB TOTAL ROB OCCUPANCY AT BTB MISS: 92.8005

L2C TOTAL     ACCESS:    4511134  HIT:    4025666  MISS:     485468  HIT %:    89.2384  MISS %:    10.7616   MPKI: 9.70936
L2C LOAD INSTRUCTION	ACCESS:    2775241  HIT:    2501257  MISS:     273984  HIT %:    90.1276  MISS %:    9.87244  MPKI: 5.47968
L2C LOAD TRANSLATION INSTRUCTION	ACCESS:        352  HIT:         99  MISS:        253  HIT %:     28.125  MISS %:     71.875  MPKI: 0.00506
L2C LOAD DATA	ACCESS:     733149  HIT:     657459  MISS:      75690  HIT %:     89.676  MISS %:     10.324  MPKI: 1.5138
L2C RFO DATA	ACCESS:     286655  HIT:     238641  MISS:      48014  HIT %:    83.2502  MISS %:    16.7498  MPKI: 0.96028
L2C PREFETCH DATA	ACCESS:     189944  HIT:     116729  MISS:      73215  HIT %:    61.4544  MISS %:    38.5456  MPKI: 1.4643
L2C WRITEBACK DATA	ACCESS:     523738  HIT:     510842  MISS:      12896  HIT %:    97.5377  MISS %:     2.4623  MPKI: 0.25792
L2C LOAD TRANSLATION DATA	ACCESS:       2017  HIT:        613  MISS:       1404  HIT %:    30.3917  MISS %:    69.6083  MPKI: 0.02808
L2C TRANSLATION FROM L1D PREFETCHER DATA	ACCESS:         38  HIT:         26  MISS:         12  HIT %:    68.4211  MISS %:    31.5789  MPKI: 0.00024

L2C PREFETCH  REQUESTED:      94348  ISSUED:      94348  USEFUL:       8826  USELESS:      64712
L2C USEFUL LOAD PREFETCHES:       8826 PREFETCH ISSUED TO LOWER LEVEL:      73537  ACCURACY: 12.0021
 TIMELY PREFETCHES:       8826 LATE PREFETCHES: 322 DROPPED PREFETCHES: 0
L2C AVERAGE MISS LATENCY: 38.6873 cycles
L2C RQ	ACCESS:    3797495	FORWARD:          0	MERGED:          0	TO_CACHE:    3797455
L2C WQ	ACCESS:     523738	FORWARD:         40	MERGED:          0	TO_CACHE:     523738
L2C PQ	ACCESS:     197330	FORWARD:          0	MERGED:       3447	TO_CACHE:     193883

L2C Dense regions hint from L2: 0
PSCL5 TOTAL     ACCESS:       4504  HIT:       2252  MISS:       2252  HIT %:         50  MISS %:         50   MPKI: 0.04504
PSCL5 LOAD TRANSLATION INSTRUCTION	ACCESS:       4428  HIT:       2214  MISS:       2214  HIT %:         50  MISS %:         50  MPKI: 0.04428
PSCL5 TRANSLATION FROM L1D PREFETCHER INSTRUCTION	ACCESS:         76  HIT:         38  MISS:         38  HIT %:         50  MISS %:         50  MPKI: 0.00076


PSCL4 TOTAL     ACCESS:       3875  HIT:       1935  MISS:       1940  HIT %:    49.9355  MISS %:    50.0645   MPKI: 0.0388
PSCL4 LOAD TRANSLATION INSTRUCTION	ACCESS:       2803  HIT:       1908  MISS:        895  HIT %:    68.0699  MISS %:    31.9301  MPKI: 0.0179
PSCL4 TRANSLATION FROM L1D PREFETCHER INSTRUCTION	ACCESS:         47  HIT:         27  MISS:         20  HIT %:    57.4468  MISS %:    42.5532  MPKI: 0.0004
PSCL4 LOAD TRANSLATION DATA	ACCESS:       1018  HIT:          0  MISS:       1018  HIT %:          0  MISS %:        100  MPKI: 0.02036
PSCL4 TRANSLATION FROM L1D PREFETCHER DATA	ACCESS:          7  HIT:          0  MISS:          7  HIT %:          0  MISS %:        100  MPKI: 0.00014


PSCL3 TOTAL     ACCESS:       3831  HIT:       1910  MISS:       1921  HIT %:    49.8564  MISS %:    50.1436   MPKI: 0.03842
PSCL3 LOAD TRANSLATION INSTRUCTION	ACCESS:       2323  HIT:       1876  MISS:        447  HIT %:    80.7576  MISS %:    19.2424  MPKI: 0.00894
PSCL3 TRANSLATION FROM L1D PREFETCHER INSTRUCTION	ACCESS:         44  HIT:         34  MISS:         10  HIT %:    77.2727  MISS %:    22.7273  MPKI: 0.0002
PSCL3 LOAD TRANSLATION DATA	ACCESS:       1440  HIT:          0  MISS:       1440  HIT %:          0  MISS %:        100  MPKI: 0.0288
PSCL3 TRANSLATION FROM L1D PREFETCHER DATA	ACCESS:         24  HIT:          0  MISS:         24  HIT %:          0  MISS %:        100  MPKI: 0.00048


PSCL2 TOTAL     ACCESS:       4363  HIT:       2111  MISS:       2252  HIT %:    48.3841  MISS %:    51.6159   MPKI: 0.04504
PSCL2 LOAD TRANSLATION INSTRUCTION	ACCESS:       2386  HIT:       2073  MISS:        313  HIT %:    86.8818  MISS %:    13.1182  MPKI: 0.00626
PSCL2 TRANSLATION FROM L1D PREFETCHER INSTRUCTION	ACCESS:         38  HIT:         38  MISS:          0  HIT %:        100  MISS %:          0  MPKI: 0
PSCL2 LOAD TRANSLATION DATA	ACCESS:       1901  HIT:          0  MISS:       1901  HIT %:          0  MISS %:        100  MPKI: 0.03802
PSCL2 TRANSLATION FROM L1D PREFETCHER DATA	ACCESS:         38  HIT:          0  MISS:         38  HIT %:          0  MISS %:        100  MPKI: 0.00076


LLC TOTAL     ACCESS:     545274  HIT:     515541  MISS:      29733  HIT %:    94.5471  MISS %:    5.45285   MPKI: 0.59466
LLC LOAD INSTRUCTION	ACCESS:     273984  HIT:     272753  MISS:       1231  HIT %:    99.5507  MISS %:   0.449296  MPKI: 0.02462
LLC LOAD TRANSLATION INSTRUCTION	ACCESS:        253  HIT:        212  MISS:         41  HIT %:    83.7945  MISS %:    16.2055  MPKI: 0.00082
LLC LOAD DATA	ACCESS:      75371  HIT:      71548  MISS:       3823  HIT %:    94.9278  MISS %:    5.07224  MPKI: 0.07646
LLC RFO DATA	ACCESS:      48005  HIT:      34117  MISS:      13888  HIT %:    71.0697  MISS %:    28.9303  MPKI: 0.27776
LLC PREFETCH DATA	ACCESS:      73537  HIT:      63240  MISS:      10297  HIT %:    85.9975  MISS %:    14.0025  MPKI: 0.20594
LLC WRITEBACK DATA	ACCESS:      72708  HIT:      72380  MISS:        328  HIT %:    99.5489  MISS %:    0.45112  MPKI: 0.00656
LLC LOAD TRANSLATION DATA	ACCESS:       1404  HIT:       1279  MISS:        125  HIT %:    91.0969  MISS %:    8.90313  MPKI: 0.0025
LLC TRANSLATION FROM L1D PREFETCHER DATA	ACCESS:         12  HIT:         12  MISS:          0  HIT %:        100  MISS %:          0  MPKI: 0

LLC AVERAGE MISS LATENCY: 153.565 cycles
LLC RQ	ACCESS:     399035	FORWARD:          0	MERGED:          0	TO_CACHE:     399029
LLC WQ	ACCESS:      72708	FORWARD:          6	MERGED:          0	TO_CACHE:      72708
LLC PQ	ACCESS:      73537	FORWARD:          0	MERGED:          0	TO_CACHE:      73537

LLC Dense regions hint to LLC: 0

RAW hits: 1719622
Loads Generated: 12635470
Loads sent to L1D: 10915847
Stores Generated: 6955384
Stores sent to L1D: 6955398
Major fault: 0 Minor fault: 2591
Allocated PAGES: 2591

stream: 
stream:times selected: 1190660
stream:pref_filled: 122777
stream:pref_useful: 24418
stream:pref_late: 6538
stream:misses: 8097
stream:misses_by_poll: 0

CS: 
CS:times selected: 178469
CS:pref_filled: 59813
CS:pref_useful: 36126
CS:pref_late: 6699
CS:misses: 15789
CS:misses_by_poll: 3

CPLX: 
CPLX:times selected: 1011032
CPLX:pref_filled: 19733
CPLX:pref_useful: 4708
CPLX:pref_late: 2977
CPLX:misses: 92961
CPLX:misses_by_poll: 3

NL_L1: 
NL:times selected: 20577
NL:pref_filled: 816
NL:pref_useful: 345
NL:pref_late: 284
NL:misses: 1745
NL:misses_by_poll: 0

total selections: 2400738
total_filled: 95403
total_useful: 34340
total_late: 17637
total_polluted: 6
total_misses_after_warmup: 770315
conflicts: 5660505

test: 116785

DRAM Statistics
 CHANNEL 0
 RQ ROW_BUFFER_HIT:      10854  ROW_BUFFER_MISS:      18547
 DBUS_CONGESTED:          6
 WQ ROW_BUFFER_HIT:       1425  ROW_BUFFER_MISS:      12707  FULL:          0

 AVG_CONGESTED_CYCLE: 5

CPU 0 Branch Prediction Accuracy: 99.8098% MPKI: 0.34798 Average ROB Occupancy at Mispredict: 128.28
Branch types
NOT_BRANCH: 40851697 81.7034%
BRANCH_DIRECT_JUMP: 548408 1.09682%
BRANCH_INDIRECT: 182571 0.365142%
BRANCH_CONDITIONAL: 6180304 12.3606%
BRANCH_DIRECT_CALL: 946373 1.89275%
BRANCH_INDIRECT_CALL: 171970 0.34394%
BRANCH_RETURN: 1118345 2.23669%
BRANCH_OTHER: 0 0%

DRAM PAGES: 1048576
Allocated PAGES: 2591
Average_ROB_Occupancy: 115.36
Average_Decode_Occupancy: 13.8626
Average_FTQ_Occupancy: 6.63221
Indirect max targets: 14 Average targets: 1.17572
Branch_type:  BRANCH_DIRECT_JUMP:  Count Percentage: 3.65456 5.30924 4.21505 2.77702 8.18439 6.01067 6.80713 63.0419 
Branch_type:  BRANCH_INDIRECT:  Count Percentage: 11.7748 3.41525 2.56267 0 13.0274 2.80817 16.5336 49.8781 
Branch_type:  BRANCH_CONDITIONAL:  Count Percentage: 20.9632 6.9143 2.46823 2.39793 3.75547 4.63239 3.16229 55.7062 
Branch_type:  BRANCH_DIRECT_CALL:  Count Percentage: 0.390155 1.76233 0.740935 1.48346 5.09139 2.6241 0.74189 87.1657 
Branch_type:  BRANCH_INDIRECT_CALL:  Count Percentage: 9.56376 0 2.99636 0.000876043 0.848009 1.715 0.00759237 84.8684 
Branch_type:  BRANCH_RETURN:  Count Percentage: 4.04029 5.58952 2.15223 2.53622 4.80673 5.13362 3.51602 72.2254 
Branch_type:  BRANCH_DIRECT_JUMP:  Total Count: 40113 58275 46265 30481 89833 65974 74716 691957 
Branch_type:  BRANCH_INDIRECT:  Total Count: 43117 12506 9384 0 47704 10283 60543 182644 
Branch_type:  BRANCH_CONDITIONAL:  Total Count: 2591457 854741 305121 296431 464248 572653 390920 6886360 
Branch_type:  BRANCH_DIRECT_CALL:  Total Count: 7352 33209 13962 27954 95941 49448 13980 1642531 
Branch_type:  BRANCH_INDIRECT_CALL:  Total Count: 32751 0 10261 3 2904 5873 26 290631 
Branch_type:  BRANCH_RETURN:  Total Count: 90005 124517 47945 56499 107079 114361 78326 1608956 
Number of unique branch instructions: 10653
Upper 32 bits: 
aaaa
ffff
ffff0000
Unique upper 32 bits: 3
Unique upper 36 bits: 3
Unique upper 40 bits: 5
Unique upper 44 bits: 32
Unique upper 48 bits: 158
Variant_0 : 968 0.315104
Variant_1 : 2099 0.683268
Variant_2 : 0 0
Variant_3 : 0 0
Offset_3 4405
Offset_4 260
Offset_5 479
Offset_6 541
Offset_7 634
Offset_8 576
Offset_9 510
Offset_10 417
Offset_11 342
Offset_12 308
Offset_13 238
Offset_14 244
Offset_15 196
Offset_16 226
Offset_17 163
Offset_18 144
Offset_19 259
Offset_20 141
Offset_21 235
Offset_22 409
Offset_23 241
Offset_24 343
Offset_25 117
Offset_47 92
Offset_64 2
decode_dispatch_called: 19431240 41.4589
Dispatch_width: 0 9385447 48.3008 20.025
Dispatch_width: 1 534773 2.75213 1.141
Dispatch_width: 2 659650 3.39479 1.40744
Dispatch_width: 3 444890 2.28956 0.949227
Dispatch_width: 4 1653866 8.51138 3.52872
Dispatch_width: 5 320134 1.64752 0.683045
Dispatch_width: 6 6432480 33.1038 13.7245
Empty_decode_cycles: 27437437 58.5411
ROB_full_cycles: 2310212 4.92912
Starvation_cycles_per_kilo_instr: 381.26
Starvation_cycles_per_kilo_instr_3: 361.52
Starvation_cycles_per_kilo_instr_0: 345.127
Branch_type_1  (3,1)  (4,9)  (5,39)  (6,74)  (7,123)  (8,151)  (9,134)  (10,110)  (11,76)  (12,47)  (13,11)  (14,2)  (15,3)  (16,4)  (18,1)  (19,5)  (20,2)  (21,1)  (22,3)  (23,2)  (24,10)  (25,12) 
Branch_type_2  (3,1)  (4,1)  (5,1)  (8,4)  (9,4)  (10,1)  (12,1)  (13,1)  (14,1)  (16,3)  (17,2)  (20,2)  (21,2)  (23,5)  (24,1)  (47,41) 
Branch_type_3  (3,4403)  (4,250)  (5,435)  (6,451)  (7,481)  (8,354)  (9,279)  (10,168)  (11,130)  (12,54)  (13,10)  (64,2) 
Branch_type_4  (6,3)  (7,8)  (8,26)  (9,55)  (10,66)  (11,70)  (12,115)  (13,101)  (14,110)  (15,93)  (16,99)  (17,75)  (18,61)  (19,126)  (20,72)  (21,124)  (22,214)  (23,136)  (24,198)  (25,101) 
Branch_type_5  (8,3)  (9,1)  (10,4)  (11,5)  (12,3)  (13,14)  (14,16)  (15,11)  (16,22)  (17,11)  (18,23)  (19,14)  (20,11)  (21,13)  (22,43)  (23,26)  (24,38) 
Branch_type_6  (5,4)  (6,13)  (7,22)  (8,38)  (9,37)  (10,68)  (11,61)  (12,88)  (13,101)  (14,115)  (15,89)  (16,98)  (17,75)  (18,59)  (19,114)  (20,54)  (21,95)  (22,149)  (23,72)  (24,96)  (25,4)  (47,51) 
Unique trigger count: 
Variant_0_evicts_0 : 0
Variant_0_evicts_1 : 0
Variant_0_evicts_2 : 0
Variant_0_evicts_3 : 0
Variant_1_evicts_0 : 0
Variant_1_evicts_1 : 0
Variant_1_evicts_2 : 0
Variant_1_evicts_3 : 0
Variant_2_evicts_0 : 0
Variant_2_evicts_1 : 0
Variant_2_evicts_2 : 0
Variant_2_evicts_3 : 0
Variant_3_evicts_0 : 0
Variant_3_evicts_1 : 0
Variant_3_evicts_2 : 0
Variant_3_evicts_3 : 0
BTB PER SET UNIQUE ADDR: 14 19 12 19 18 19 16 15 10 19 11 21 24 17 17 14 15 12 17 18 19 15 15 19 15 21 15 18 19 17 12 18 20 8 15 15 17 18 13 18 14 17 17 20 16 13 19 12 22 18 22 13 16 19 17 8 13 14 13 18 18 22 22 15 17 20 17 15 24 22 13 16 22 13 12 8 10 20 12 25 21 8 20 22 19 18 14 17 14 30 14 10 19 15 11 23 15 13 22 19 29 26 19 16 21 15 16 19 12 14 13 26 22 14 14 12 18 19 13 19 21 15 18 12 15 13 10 16 25 11 12 21 17 18 15 22 11 20 15 25 13 26 19 18 22 17 16 14 11 16 17 19 15 16 17 24 21 20 17 17 16 19 18 19 16 16 18 13 18 13 14 17 16 20 16 16 15 14 16 23 14 15 10 21 24 24 8 20 15 15 21 17 10 18 16 15 15 22 15 16 25 17 14 18 13 18 20 16 14 19 16 22 18 20 15 19 15 21 12 26 14 20 10 13 21 16 19 22 12 23 13 12 16 22 18 21 19 16 18 11 15 17 19 19 12 14 16 18 18 17 22 15 15 14 23 16 14 15 13 14 16 14 8 16 17 11 12 13 16 14 12 20 11 13 11 12 19 18 16 17 10 19 11 16 19 13 13 27 23 22 14 10 17 22 10 19 17 17 16 19 14 18 11 26 20 25 17 19 20 18 17 20 12 31 14 10 22 14 17 23 19 15 10 17 15 24 12 10 17 14 11 23 16 15 17 24 16 17 12 31 14 19 12 22 24 21 15 11 13 17 15 14 12 20 13 20 15 18 12 14 17 22 11 25 15 20 11 20 15 18 19 15 21 20 13 24 18 24 15 16 18 17 12 11 14 16 18 22 17 15 22 13 21 27 14 14 17 13 19 17 16 20 18 20 17 20 17 16 19 20 17 13 14 21 14 14 16 20 25 22 17 17 16 20 20 15 20 16 19 19 22 16 12 17 22 20 22 11 16 17 18 17 17 23 30 13 14 17 23 22 19 26 21 14 22 27 20 21 16 24 12 18 12 20 22 13 17 20 21 18 17 17 15 14 16 26 18 24 12 15 23 22 15 19 15 20 21 28 22 18 15 21 13 12 13 14 23 25 16 20 16 24 15 24 17 12 17 27 21 22 17 28 16 15 14 24 15 26 12 12 13 15 17 15 19 24 24 12 11 21 22 21 22 14 17 22 16 17 19 19 19 13 17 17 21 23 8 21 13 19 17 20 20 14 14 17 18 17 17 23 18 24 19 11 21 20 10 25 20 21 19 22 23 23 18 20 20 20 17 16 14 22 10 16 18 23 14 18 24 19 16 18 16 14 21 15 12 20 18 16 19 14 15 13 20 16 26 12 14 18 22 19 15 15 7 24 13 21 16 16 23 17 12 11 15 25 15 22 17 19 9 21 19 19 19 20 18 22 12 20 19 14 19 25 20 20 17 21 27 18 12 16 13 13 18 13 13 20 17 18 14 9 20 23 15 19 13 16 10 16 18 18 15 17 29 16 22 17 20 23 22 18 15 19 18 16 18 21 22 24 16 22 18 11 11 17 13 22 16 21 13 18 24 25 11 17 13 15 15 15 16 18 14 15 15 16 21 14 16 22 14 17 16 17 14 16 17 15 19 14 22 16 19 13 15 14 19 18 27 13 16 13 19 14 22 21 16 16 16 13 19 16 18 13 15 17 24 17 12 11 17 12 12 18 18 21 14 18 15 22 17 21 12 15 17 10 22 17 19 23 14 19 21 13 19 19 13 22 12 9 12 8 20 23 17 27 18 12 22 16 25 19 26 23 26 17 20 14 19 13 19 23 24 23 16 24 26 23 12 24 18 19 12 19 20 14 13 14 16 20 18 18 18 19 13 23 17 19 22 15 21 18 15 15 16 20 18 22 18 18 18 15 12 15 18 22 23 22 21 19 17 18 15 16 22 11 19 14 23 12 15 18 23 16 19 6 19 17 16 20 22 8 18 21 18 18 20 17 20 19 22 15 17 17 16 20 23 15 12 15 18 17 17 19 12 21 16 21 13 23 17 18 17 16 14 18 28 18 18 16 19 17 11 18 17 14 10 23 17 16 22 23 19 16 19 23 20 14 21 20 13 20 18 19 16 19 18 20 16 16 15 21 16 20 16 17 20 20 21 13 23 19 18 21 24 18 20 22 11 17 17 20 20 16 21 15 18 22 22 27 17 23 21 18 16 20 28 17 21 19 21 20 23 15 18 13 18 16 20 17 23 24 15 21 17 21 9 25 18 16 18 20 18 14 12 12 11 15 7 13 19 27 12 13 
BTB PER SET COUNT: 1600 1250 2297 1140 2047 1305 2217 834 1773 1368 582 1276 1732 1438 1105 478 1256 473 1467 929 1536 1368 829 1137 877 1771 799 1425 1804 1438 467 1028 1323 180 991 1157 1011 737 586 1681 724 1060 1076 1810 2139 720 1073 855 1912 756 1721 1080 829 1277 1264 438 534 899 927 1251 818 2448 1575 1052 1491 1972 762 1687 1918 1778 1482 1422 2010 860 408 639 576 1745 838 1838 2062 251 1538 1402 1143 880 464 1610 1918 2770 640 633 1448 848 328 1432 721 457 1526 3008 2696 2073 1214 996 2749 414 1446 1280 2336 910 998 1945 2241 988 1148 951 1221 1434 1283 1874 1917 828 1507 405 575 524 508 1750 2146 1310 848 2351 1175 1048 1284 1618 949 1238 582 1734 983 1794 1496 887 1175 1010 1324 700 518 1488 1190 975 1433 798 626 2372 2131 1556 1110 1506 610 1387 1413 1102 693 1712 865 508 1458 1643 448 923 1284 1079 1481 775 611 641 1483 2126 1189 708 701 1343 1695 2100 358 1155 1192 1173 1374 765 424 1448 825 558 889 2120 779 602 1624 1043 1658 861 624 1522 1233 1059 1265 2002 1422 1233 709 4045 1211 1618 1007 1683 857 1660 625 1165 679 945 1230 1239 1000 1588 796 1882 815 403 830 1345 1345 12368 1051 1185 1488 562 2217 1385 2066 1564 1028 844 922 1438 1117 1318 1424 504 556 490 1561 1424 778 1119 806 613 1209 611 275 1501 1002 377 673 979 922 1098 597 1251 279 582 730 799 1206 831 1039 1727 127 1539 953 1482 1230 914 365 1526 1522 1324 1002 367 517 1871 498 980 1692 916 968 1326 526 902 267 2083 1142 1910 1067 1871 1762 985 1309 1229 728 2041 2451 1304 1619 1052 1532 1938 1060 2913 434 927 490 1937 749 504 1269 484 668 1946 1404 616 1058 1843 867 1418 690 2635 714 1891 932 1504 1751 1222 768 832 643 1357 767 1011 606 1634 636 1173 1019 1417 569 766 942 1538 606 2163 824 1849 378 1288 776 1286 1417 876 1392 2117 220 1618 846 1556 772 1772 1737 1054 337 509 782 627 1609 1752 663 694 1810 419 1495 1832 560 561 1039 922 1425 1933 1281 963 1566 1103 998 1355 897 1534 902 1971 531 305 734 1246 660 843 961 3966 2043 1327 768 995 1444 1332 974 1244 1966 1076 980 640 2147 715 499 1477 1970 1767 1396 738 1129 1092 1721 1338 1015 1863 2358 1034 1585 1328 1965 1553 1327 3238 1571 949 1701 2445 1308 913 569 2083 848 1158 582 1267 1615 922 9192 1113 1644 1247 1345 983 931 954 1057 1771 1067 2390 890 797 2094 1803 968 1098 1482 1241 1405 1910 2095 1151 1339 1557 3714 636 269 1300 2288 1698 1154 973 746 1608 872 1910 1413 529 903 2401 1946 1229 1439 3166 1848 1336 679 1907 650 1841 586 421 525 1152 1024 515 1321 2025 1779 1174 943 3569 2296 1492 1385 772 1275 1905 914 2010 1380 1425 1154 690 830 1144 1019 1758 87 1305 850 1582 857 1443 1251 787 910 503 1204 778 1043 1462 810 2015 770 836 1892 945 521 1984 1568 1888 1958 1832 1429 1809 1014 1470 1378 1615 890 754 740 1625 523 2579 850 1404 522 713 2406 906 845 1432 1134 653 1082 969 377 1444 1454 744 867 1099 1293 678 1077 1196 2169 2139 452 1075 1812 2040 793 477 257 1947 395 1465 1711 1210 1947 918 551 835 779 1737 848 1973 850 1672 237 1641 1781 1094 841 1276 1581 1067 577 1100 1660 714 1371 1860 1921 1726 931 1768 2869 847 523 1131 465 968 2519 643 1112 1694 927 942 1381 270 1566 1573 7780 1185 1050 1392 1051 1376 1012 914 1639 1394 2425 1828 1548 825 1519 2174 1511 1334 1424 1132 2282 862 1290 1113 1758 2352 674 2025 1236 671 3474 1013 1089 2788 1008 1578 700 1123 2254 1691 723 1165 597 1017 564 869 898 1289 1314 931 1019 853 2100 932 845 1636 1431 1357 723 1150 700 834 949 1079 1088 1880 1821 1244 1215 986 658 2628 1588 1529 2831 528 1369 354 1050 772 1887 1481 1519 761 1567 727 1870 928 1780 899 684 873 1466 1514 737 284 1333 544 336 1328 1523 1831 593 1686 418 1594 896 1745 786 1102 1241 622 1681 1859 705 1786 2261 1323 1690 728 1215 1213 745 1271 528 352 650 1001 1517 1572 998 2518 1070 475 1193 1181 2133 955 2207 2031 1521 943 1692 715 1501 1111 929 4631 1837 1902 1030 2174 1503 3103 696 2747 1226 1668 869 1133 2110 685 756 930 1094 2201 1192 1363 1206 1446 384 2375 1135 1057 1507 693 1534 1198 831 914 781 1036 1166 1528 1125 5141 1700 1099 402 824 1397 2068 1628 1665 1950 1201 1561 766 816 680 2178 400 988 605 1525 725 1291 1148 1318 1030 1231 6 1080 883 2208 1405 1648 162 963 1179 1286 1566 693 1132 1211 1704 1980 1166 2646 397 719 1220 2137 920 970 842 1517 1037 917 1855 705 1592 986 2105 866 1512 1453 1670 1092 1626 1043 1416 3270 1740 1108 1078 1355 1560 364 1558 856 1042 96 1461 941 807 1609 1676 882 775 875 2375 1303 896 1388 1407 546 2254 1368 1148 909 1556 1061 1686 887 938 827 1787 1619 2367 996 947 1385 1474 1526 675 1536 1203 1454 1060 1906 744 2012 1952 461 970 1116 1902 1008 701 1164 1294 1576 1395 1745 2540 1249 2015 1425 1356 944 1719 2809 1059 1470 1708 1168 3098 1780 886 1153 877 1037 2180 1063 1369 1646 2096 1086 1527 846 1290 321 1942 1464 907 1642 1636 1130 838 781 803 840 1055 281 461 1085 2829 638 780 
To predecode: 0
Predecoding something: 0
Predecode request dropped: 0
sizeofblock_0 0
sizeofblock_1 302253
sizeofblock_2 569607
sizeofblock_3 0
sizeofblock_4 0
sizeofblock_5 0
sizeofblock_6 0
sizeofblock_7 0
sizeofblock_8 0
Variant_0 Correct: 1223256 Incorrect: 0 Accuracy: 1
Variant_1 Correct: 4972324 Incorrect: 0 Accuracy: 1
Variant_2 Correct: 0 Incorrect: 0 Accuracy: -nan
Variant_3 Correct: 0 Incorrect: 0 Accuracy: -nan
