
*** ChampSim Multicore Out-of-Order Simulator ***

Warmup Instructions: 50000000
Simulation Instructions: 50000000
Number of CPUs: 1
LLC sets: 2048
LLC ways: 16
Off-chip DRAM Size: 4096 MB Channels: 1 Width: 64-bit Data Rate: 6400 MT/s
CPU 0 runs ./micro_traces/srv567.trace.gz
.gz
ITLB has LRU replacement policy
DTLB has LRU replacement policy
STLB has LRU replacement policy
FDIP Prefetcher at L1I
L1I has LRU replacement policy
L1D has LRU replacement policy
Initialize SRRIP state for L2C
Initialize DRRIP state for LLC
Heartbeat CPU 0 instructions: 10000000 cycles: 2797995 heartbeat IPC: 3.57399 cumulative IPC: 3.57399 (Simulation time: 0 hr 1 min 39 sec) 
Heartbeat CPU 0 instructions: 20000002 cycles: 5593072 heartbeat IPC: 3.57772 cumulative IPC: 3.57585 (Simulation time: 0 hr 3 min 13 sec) 
Heartbeat CPU 0 instructions: 30000003 cycles: 8389221 heartbeat IPC: 3.57635 cumulative IPC: 3.57602 (Simulation time: 0 hr 4 min 45 sec) 
Heartbeat CPU 0 instructions: 40000002 cycles: 11185390 heartbeat IPC: 3.57632 cumulative IPC: 3.57609 (Simulation time: 0 hr 6 min 20 sec) 
Heartbeat CPU 0 instructions: 50000001 cycles: 13981874 heartbeat IPC: 3.57592 cumulative IPC: 3.57606 (Simulation time: 0 hr 7 min 52 sec) 

Warmup complete CPU 0 instructions: 50000001 cycles: 13981874 (Simulation time: 0 hr 7 min 52 sec) 

Cycle: 20000000 FTQ IN: 57879992 FTQ occupancy: 19.2735 DECODE IN: 57879992 DECODE occupancy: 49.8089 ROB IN: 57879984 ROB occupancy: 300.928 ROB OUT: 57879913
Heartbeat CPU 0 instructions: 60000001 cycles: 21596336 heartbeat IPC: 1.31329 cumulative IPC: 1.31329 (Simulation time: 0 hr 9 min 26 sec) 
Heartbeat CPU 0 instructions: 70000003 cycles: 29083072 heartbeat IPC: 1.3357 cumulative IPC: 1.3244 (Simulation time: 0 hr 11 min 1 sec) 
Cycle: 30000000 FTQ IN: 13349894 FTQ occupancy: 10.4266 DECODE IN: 13349872 DECODE occupancy: 25.8442 ROB IN: 13349880 ROB occupancy: 190.144 ROB OUT: 13349809
Heartbeat CPU 0 instructions: 80000002 cycles: 36658969 heartbeat IPC: 1.31998 cumulative IPC: 1.32292 (Simulation time: 0 hr 12 min 37 sec) 
Cycle: 40000000 FTQ IN: 13215108 FTQ occupancy: 10.6178 DECODE IN: 13215083 DECODE occupancy: 26.1197 ROB IN: 13215023 ROB occupancy: 191.782 ROB OUT: 13214813
Heartbeat CPU 0 instructions: 90000001 cycles: 44180384 heartbeat IPC: 1.32954 cumulative IPC: 1.32457 (Simulation time: 0 hr 14 min 12 sec) 
Cycle: 50000000 FTQ IN: 13215637 FTQ occupancy: 10.5776 DECODE IN: 13215684 DECODE occupancy: 25.9144 ROB IN: 13215744 ROB occupancy: 190.558 ROB OUT: 13215770
Heartbeat CPU 0 instructions: 100000001 cycles: 51755566 heartbeat IPC: 1.3201 cumulative IPC: 1.32367 (Simulation time: 0 hr 15 min 44 sec) 
Finished CPU 0 instructions: 50000000 cycles: 37773692 cumulative IPC: 1.32367 (Simulation time: 0 hr 15 min 44 sec) 

ChampSim completed all CPUs

Region of Interest Statistics

CPU 0 cumulative IPC: 1.32367 instructions: 50000000 cycles: 37773692
 Fetch stage stalled: 60.8014  Sim cycles: 37773692 fetch stall cycle: 22966920
 Empty decode stage: 44.0418  Sim cycles: 37773692 fetch stall cycle: 16636196
ITLB TOTAL     ACCESS:    5809133  HIT:    5315693  MISS:     493440  HIT %:    91.5058  MISS %:    8.49421   MPKI: 9.8688
ITLB LOAD TRANSLATION INSTRUCTION	ACCESS:    5682181  HIT:    5188741  MISS:     493440  HIT %:     91.316  MISS %:    8.68399  MPKI: 9.8688
ITLB TRANSLATION FROM L1D PREFETCHER INSTRUCTION	ACCESS:     126952  HIT:     126952  MISS:          0  HIT %:        100  MISS %:          0  MPKI: 0

ITLB AVERAGE MISS LATENCY: 9.05095 cycles
ITLB RQ	ACCESS:    7890652	FORWARD:          0	MERGED:    1630032	TO_CACHE:    6260620

DTLB TOTAL     ACCESS:    9048421  HIT:    8578029  MISS:     470392  HIT %:    94.8014  MISS %:    5.19861   MPKI: 9.40784
DTLB LOAD TRANSLATION DATA	ACCESS:    9048421  HIT:    8578029  MISS:     470392  HIT %:    94.8014  MISS %:    5.19861  MPKI: 9.40784

DTLB AVERAGE MISS LATENCY: 9.3258 cycles
DTLB RQ	ACCESS:   13401866	FORWARD:          0	MERGED:    4317135	TO_CACHE:    9084731

STLB TOTAL     ACCESS:    1212680  HIT:    1210591  MISS:       2089  HIT %:    99.8277  MISS %:   0.172263   MPKI: 0.04178
STLB LOAD TRANSLATION INSTRUCTION	ACCESS:     493440  HIT:     493157  MISS:        283  HIT %:    99.9426  MISS %:  0.0573525  MPKI: 0.00566
STLB LOAD TRANSLATION DATA	ACCESS:     470120  HIT:     468350  MISS:       1770  HIT %:    99.6235  MISS %:     0.3765  MPKI: 0.0354
STLB TRANSLATION FROM L1D PREFETCHER DATA	ACCESS:     249120  HIT:     249084  MISS:         36  HIT %:    99.9855  MISS %:  0.0144509  MPKI: 0.00072

STLB AVERAGE MISS LATENCY: 72.3107 cycles
STLB RQ	ACCESS:    1333545	FORWARD:          0	MERGED:     120830	TO_CACHE:    1212715

STLB Hit, L1D data hit: 0
STLB Hit, L2C data hit: 0
STLB Hit, LLC data hit: 0
STLB Hit, LLC data miss: 0
STLB STLB hints to L2: 0
L1D TOTAL     ACCESS:   13147711  HIT:   12029804  MISS:    1117907  HIT %:    91.4973  MISS %:    8.50267   MPKI: 22.3581
L1D LOAD DATA	ACCESS:    6613569  HIT:    5878023  MISS:     735546  HIT %:    88.8782  MISS %:    11.1218  MPKI: 14.7109
L1D RFO DATA	ACCESS:    6206282  HIT:    5919313  MISS:     286969  HIT %:    95.3762  MISS %:    4.62385  MPKI: 5.73938
L1D PREFETCH DATA	ACCESS:     327860  HIT:     232468  MISS:      95392  HIT %:    70.9047  MISS %:    29.0953  MPKI: 1.90784

L1D PREFETCH  REQUESTED:     739802  ISSUED:     739802  USEFUL:      35313  USELESS:      68675
L1D USEFUL LOAD PREFETCHES:      35313 PREFETCH ISSUED TO LOWER LEVEL:     104002  ACCURACY: 33.9542
 TIMELY PREFETCHES:      35313 LATE PREFETCHES: 8580 DROPPED PREFETCHES: 8
L1D AVERAGE MISS LATENCY: 252941 cycles
L1D RQ	ACCESS:   10737792	FORWARD:          0	MERGED:    3928008	TO_CACHE:    6648198
L1D WQ	ACCESS:    6947799	FORWARD:     161962	MERGED:     194131	TO_CACHE:    6753668
L1D PQ	ACCESS:     370089	FORWARD:          0	MERGED:          0	TO_CACHE:     369713

L1D UNIQUE REGIONS ACCESSED: 0
L1D REGIONS CONFLICTS: 0
L1D Cross Page Prefetch Requests: 6953
L1D Same Page Prefetch Requests: 749512
L1D ROI Sum of L1D PQ occupancy: 4707046
L1D PREFETCHES PUSHED FROM L2C: 0
L1I TOTAL     ACCESS:    7105901  HIT:    4344655  MISS:    2761246  HIT %:    61.1415  MISS %:    38.8585   MPKI: 55.2249
L1I LOAD INSTRUCTION	ACCESS:    6469099  HIT:    3707853  MISS:    2761246  HIT %:    57.3164  MISS %:    42.6836  MPKI: 55.2249
L1I PREFETCH INSTRUCTION	ACCESS:     636802  HIT:     636802  MISS:          0  HIT %:        100  MISS %:          0  MPKI: 0

L1I PREFETCH  REQUESTED:    1510160  ISSUED:    1510160  USEFUL:          0  USELESS:          0
L1I USEFUL LOAD PREFETCHES:          0 PREFETCH ISSUED TO LOWER LEVEL:          0  ACCURACY: -nan
 TIMELY PREFETCHES:          0 LATE PREFETCHES: 0 DROPPED PREFETCHES: 0
L1I AVERAGE MISS LATENCY: 17.2584 cycles
L1I RQ	ACCESS:    9481668	FORWARD:          0	MERGED:    2689681	TO_CACHE:    6791987
L1I PQ	ACCESS:    1510160	FORWARD:          0	MERGED:     411495	TO_CACHE:    1098665

L1BTB TOTAL     ACCESS:    5667984  HIT:    2041912  MISS:    3626072  HIT %:    36.0254  MISS %:    63.9746   MPKI: 72.5214
L1BTB BRANCH_DIRECT_JUMP	ACCESS:     548037  HIT:     144579  MISS:     403458	AVERAGE STALL: 37.5729
L1BTB BRANCH_INDIRECT	ACCESS:     182828  HIT:      66039  MISS:     116789	AVERAGE STALL: 124.738
L1BTB BRANCH_CONDITIONAL	ACCESS:    2704928  HIT:    1412953  MISS:    1291975	AVERAGE STALL: 49.35
L1BTB BRANCH_DIRECT_CALL	ACCESS:     944384  HIT:     106142  MISS:     838242	AVERAGE STALL: 52.0747
L1BTB BRANCH_INDIRECT_CALL	ACCESS:     171712  HIT:      21413  MISS:     150299	AVERAGE STALL: 141.963
L1BTB BRANCH_RETURN	ACCESS:    1116095  HIT:     290786  MISS:     825309	AVERAGE STALL: 46.6175
L1BTB BRANCH_OTHER ACCESS:          0  HIT:          0  MISS:          0	AVERAGE STALL: -nan
L1BTB TOTAL ROB OCCUPANCY AT BTB MISS: 4.94788

L2BTB1 TOTAL     ACCESS:    3600742  HIT:    3477623  MISS:     123119  HIT %:    96.5807  MISS %:    3.41927   MPKI: 2.46238
L2BTB1 BRANCH_DIRECT_JUMP	ACCESS:     399302  HIT:     391089  MISS:       8213	AVERAGE STALL: 37.5729
L2BTB1 BRANCH_INDIRECT	ACCESS:     106538  HIT:      95633  MISS:      10905	AVERAGE STALL: 124.738
L2BTB1 BRANCH_CONDITIONAL	ACCESS:    1291975  HIT:    1277156  MISS:      14819	AVERAGE STALL: 49.35
L2BTB1 BRANCH_DIRECT_CALL	ACCESS:     838242  HIT:     815491  MISS:      22751	AVERAGE STALL: 52.0747
L2BTB1 BRANCH_INDIRECT_CALL	ACCESS:     140769  HIT:     127509  MISS:      13260	AVERAGE STALL: 141.963
L2BTB1 BRANCH_RETURN	ACCESS:     823916  HIT:     770745  MISS:      53171	AVERAGE STALL: 46.6175
L2BTB1 BRANCH_OTHER ACCESS:          0  HIT:          0  MISS:          0	AVERAGE STALL: -nan
L2BTB1 TOTAL ROB OCCUPANCY AT BTB MISS: 145.724

L2C TOTAL     ACCESS:    4493563  HIT:    3992988  MISS:     500575  HIT %:    88.8602  MISS %:    11.1398   MPKI: 10.0115
L2C LOAD INSTRUCTION	ACCESS:    2761250  HIT:    2496554  MISS:     264696  HIT %:    90.4139  MISS %:    9.58609  MPKI: 5.29392
L2C LOAD TRANSLATION INSTRUCTION	ACCESS:        319  HIT:         78  MISS:        241  HIT %:    24.4514  MISS %:    75.5486  MPKI: 0.00482
L2C LOAD DATA	ACCESS:     726857  HIT:     647101  MISS:      79756  HIT %:    89.0273  MISS %:    10.9727  MPKI: 1.59512
L2C RFO DATA	ACCESS:     286897  HIT:     227028  MISS:      59869  HIT %:    79.1322  MISS %:    20.8678  MPKI: 1.19738
L2C PREFETCH DATA	ACCESS:     194035  HIT:     116821  MISS:      77214  HIT %:    60.2061  MISS %:    39.7939  MPKI: 1.54428
L2C WRITEBACK DATA	ACCESS:     522305  HIT:     504843  MISS:      17462  HIT %:    96.6567  MISS %:    3.34326  MPKI: 0.34924
L2C LOAD TRANSLATION DATA	ACCESS:       1844  HIT:        523  MISS:       1321  HIT %:    28.3623  MISS %:    71.6377  MPKI: 0.02642
L2C TRANSLATION FROM L1D PREFETCHER DATA	ACCESS:         56  HIT:         40  MISS:         16  HIT %:    71.4286  MISS %:    28.5714  MPKI: 0.00032

L2C PREFETCH  REQUESTED:      97047  ISSUED:      97047  USEFUL:       8043  USELESS:      69601
L2C USEFUL LOAD PREFETCHES:       8043 PREFETCH ISSUED TO LOWER LEVEL:      77498  ACCURACY: 10.3783
 TIMELY PREFETCHES:       8043 LATE PREFETCHES: 284 DROPPED PREFETCHES: 0
L2C AVERAGE MISS LATENCY: 38.5559 cycles
L2C RQ	ACCESS:    3777376	FORWARD:          0	MERGED:          0	TO_CACHE:    3777226
L2C WQ	ACCESS:     522305	FORWARD:        151	MERGED:          0	TO_CACHE:     522305
L2C PQ	ACCESS:     201049	FORWARD:          0	MERGED:       3480	TO_CACHE:     197568

L2C Dense regions hint from L2: 0
PSCL5 TOTAL     ACCESS:       4200  HIT:       2100  MISS:       2100  HIT %:         50  MISS %:         50   MPKI: 0.042
PSCL5 LOAD TRANSLATION INSTRUCTION	ACCESS:       4088  HIT:       2044  MISS:       2044  HIT %:         50  MISS %:         50  MPKI: 0.04088
PSCL5 TRANSLATION FROM L1D PREFETCHER INSTRUCTION	ACCESS:        112  HIT:         56  MISS:         56  HIT %:         50  MISS %:         50  MPKI: 0.00112


PSCL4 TOTAL     ACCESS:       3980  HIT:       1986  MISS:       1994  HIT %:    49.8995  MISS %:    50.1005   MPKI: 0.03988
PSCL4 LOAD TRANSLATION INSTRUCTION	ACCESS:       3015  HIT:       1931  MISS:       1084  HIT %:    64.0464  MISS %:    35.9536  MPKI: 0.02168
PSCL4 TRANSLATION FROM L1D PREFETCHER INSTRUCTION	ACCESS:         88  HIT:         55  MISS:         33  HIT %:       62.5  MISS %:       37.5  MPKI: 0.00066
PSCL4 LOAD TRANSLATION DATA	ACCESS:        855  HIT:          0  MISS:        855  HIT %:          0  MISS %:        100  MPKI: 0.0171
PSCL4 TRANSLATION FROM L1D PREFETCHER DATA	ACCESS:         22  HIT:          0  MISS:         22  HIT %:          0  MISS %:        100  MPKI: 0.00044


PSCL3 TOTAL     ACCESS:       4032  HIT:       2012  MISS:       2020  HIT %:    49.9008  MISS %:    50.0992   MPKI: 0.0404
PSCL3 LOAD TRANSLATION INSTRUCTION	ACCESS:       3041  HIT:       1957  MISS:       1084  HIT %:    64.3538  MISS %:    35.6462  MPKI: 0.02168
PSCL3 TRANSLATION FROM L1D PREFETCHER INSTRUCTION	ACCESS:         88  HIT:         55  MISS:         33  HIT %:       62.5  MISS %:       37.5  MPKI: 0.00066
PSCL3 LOAD TRANSLATION DATA	ACCESS:        881  HIT:          0  MISS:        881  HIT %:          0  MISS %:        100  MPKI: 0.01762
PSCL3 TRANSLATION FROM L1D PREFETCHER DATA	ACCESS:         22  HIT:          0  MISS:         22  HIT %:          0  MISS %:        100  MPKI: 0.00044


PSCL2 TOTAL     ACCESS:       4096  HIT:       1996  MISS:       2100  HIT %:    48.7305  MISS %:    51.2695   MPKI: 0.042
PSCL2 LOAD TRANSLATION INSTRUCTION	ACCESS:       2223  HIT:       1940  MISS:        283  HIT %:    87.2695  MISS %:    12.7305  MPKI: 0.00566
PSCL2 TRANSLATION FROM L1D PREFETCHER INSTRUCTION	ACCESS:         56  HIT:         56  MISS:          0  HIT %:        100  MISS %:          0  MPKI: 0
PSCL2 LOAD TRANSLATION DATA	ACCESS:       1761  HIT:          0  MISS:       1761  HIT %:          0  MISS %:        100  MPKI: 0.03522
PSCL2 TRANSLATION FROM L1D PREFETCHER DATA	ACCESS:         56  HIT:          0  MISS:         56  HIT %:          0  MISS %:        100  MPKI: 0.00112


LLC TOTAL     ACCESS:     567021  HIT:     537189  MISS:      29832  HIT %:    94.7388  MISS %:    5.26118   MPKI: 0.59664
LLC LOAD INSTRUCTION	ACCESS:     264696  HIT:     263740  MISS:        956  HIT %:    99.6388  MISS %:   0.361169  MPKI: 0.01912
LLC LOAD TRANSLATION INSTRUCTION	ACCESS:        241  HIT:        211  MISS:         30  HIT %:    87.5519  MISS %:    12.4481  MPKI: 0.0006
LLC LOAD DATA	ACCESS:      79479  HIT:      76105  MISS:       3374  HIT %:    95.7549  MISS %:    4.24515  MPKI: 0.06748
LLC RFO DATA	ACCESS:      59859  HIT:      44651  MISS:      15208  HIT %:    74.5936  MISS %:    25.4064  MPKI: 0.30416
LLC PREFETCH DATA	ACCESS:      77498  HIT:      67679  MISS:       9819  HIT %:      87.33  MISS %:      12.67  MPKI: 0.19638
LLC WRITEBACK DATA	ACCESS:      83911  HIT:      83542  MISS:        369  HIT %:    99.5602  MISS %:   0.439752  MPKI: 0.00738
LLC LOAD TRANSLATION DATA	ACCESS:       1321  HIT:       1246  MISS:         75  HIT %:    94.3225  MISS %:    5.67752  MPKI: 0.0015
LLC TRANSLATION FROM L1D PREFETCHER DATA	ACCESS:         16  HIT:         15  MISS:          1  HIT %:      93.75  MISS %:       6.25  MPKI: 2e-05

LLC AVERAGE MISS LATENCY: 159.549 cycles
LLC RQ	ACCESS:     405615	FORWARD:          0	MERGED:          0	TO_CACHE:     405612
LLC WQ	ACCESS:      83911	FORWARD:          3	MERGED:          0	TO_CACHE:      83911
LLC PQ	ACCESS:      77498	FORWARD:          0	MERGED:          0	TO_CACHE:      77498

LLC Dense regions hint to LLC: 0

RAW hits: 1900471
Loads Generated: 12638263
Loads sent to L1D: 10737792
Stores Generated: 6947803
Stores sent to L1D: 6947799
Major fault: 0 Minor fault: 2539
Allocated PAGES: 2539

stream: 
stream:times selected: 1191326
stream:pref_filled: 122750
stream:pref_useful: 24251
stream:pref_late: 6873
stream:misses: 7998
stream:misses_by_poll: 0

CS: 
CS:times selected: 182377
CS:pref_filled: 59438
CS:pref_useful: 36050
CS:pref_late: 7568
CS:misses: 17061
CS:misses_by_poll: 4

CPLX: 
CPLX:times selected: 1007728
CPLX:pref_filled: 19314
CPLX:pref_useful: 4484
CPLX:pref_late: 3068
CPLX:misses: 93082
CPLX:misses_by_poll: 0

NL_L1: 
NL:times selected: 21145
NL:pref_filled: 778
NL:pref_useful: 322
NL:pref_late: 280
NL:misses: 1803
NL:misses_by_poll: 0

total selections: 2402576
total_filled: 95392
total_useful: 35313
total_late: 19124
total_polluted: 4
total_misses_after_warmup: 770179
conflicts: 5543566

test: 116357

DRAM Statistics
 CHANNEL 0
 RQ ROW_BUFFER_HIT:      10915  ROW_BUFFER_MISS:      18539
 DBUS_CONGESTED:          4
 WQ ROW_BUFFER_HIT:       1478  ROW_BUFFER_MISS:      12972  FULL:          0

 AVG_CONGESTED_CYCLE: 5

CPU 0 Branch Prediction Accuracy: 99.8221% MPKI: 0.32538 Average ROB Occupancy at Mispredict: 167.017
Branch types
NOT_BRANCH: 40855855 81.7117%
BRANCH_DIRECT_JUMP: 548037 1.09607%
BRANCH_INDIRECT: 182828 0.365656%
BRANCH_CONDITIONAL: 6180754 12.3615%
BRANCH_DIRECT_CALL: 944384 1.88877%
BRANCH_INDIRECT_CALL: 171712 0.343424%
BRANCH_RETURN: 1116095 2.23219%
BRANCH_OTHER: 0 0%

DRAM PAGES: 1048576
Allocated PAGES: 2539
Average_ROB_Occupancy: 191.862
Average_Decode_Occupancy: 25.9573
Average_FTQ_Occupancy: 10.5458
Indirect max targets: 14 Average targets: 1.14527
Branch_type:  BRANCH_DIRECT_JUMP:  Count Percentage: 4.03058 4.7638 4.93335 3.0079 3.0643 6.01234 7.27985 66.9079 
Branch_type:  BRANCH_INDIRECT:  Count Percentage: 13.7445 0.811105 2.56882 0 0 17.7484 17.4902 47.6369 
Branch_type:  BRANCH_CONDITIONAL:  Count Percentage: 26.2716 1.94536 1.54049 6.25448 1.55418 5.09184 5.62217 51.7199 
Branch_type:  BRANCH_DIRECT_CALL:  Count Percentage: 0.885198 1.47925 1.16308 2.38365 2.50939 3.52069 6.166 81.8927 
Branch_type:  BRANCH_INDIRECT_CALL:  Count Percentage: 9.52115 0 2.98392 6.41717 0 2.4763 5.11579 73.4857 
Branch_type:  BRANCH_RETURN:  Count Percentage: 10.4596 1.45934 1.49155 6.79354 1.66171 6.47523 6.53457 65.1245 
Branch_type:  BRANCH_DIRECT_JUMP:  Total Count: 44169 52204 54062 32962 33580 65886 79776 733208 
Branch_type:  BRANCH_INDIRECT:  Total Count: 50311 2969 9403 0 0 64967 64022 174372 
Branch_type:  BRANCH_CONDITIONAL:  Total Count: 3246774 240417 190382 772960 192073 629275 694816 6391809 
Branch_type:  BRANCH_DIRECT_CALL:  Total Count: 16692 27894 21932 44948 47319 66389 116271 1544235 
Branch_type:  BRANCH_INDIRECT_CALL:  Total Count: 32674 0 10240 22022 0 8498 17556 252183 
Branch_type:  BRANCH_RETURN:  Total Count: 233211 32538 33256 151471 37050 144374 145697 1452037 
Number of unique branch instructions: 9804
Upper 32 bits: 
aaaa
ffff
ffff0000
Unique upper 32 bits: 3
Unique upper 36 bits: 3
Unique upper 40 bits: 5
Unique upper 44 bits: 32
Unique upper 48 bits: 154
Offset_3 4030
Offset_4 244
Offset_5 449
Offset_6 498
Offset_7 571
Offset_8 508
Offset_9 463
Offset_10 374
Offset_11 301
Offset_12 269
Offset_13 203
Offset_14 227
Offset_15 184
Offset_16 220
Offset_17 145
Offset_18 118
Offset_19 234
Offset_20 136
Offset_21 235
Offset_22 392
Offset_23 241
Offset_24 331
Offset_25 88
Offset_47 82
Offset_64 1
decode_dispatch_called: 22737077 60.1929
Dispatch_width: 0 12043224 52.9673 31.8826
Dispatch_width: 1 682709 3.00262 1.80737
Dispatch_width: 2 675698 2.97179 1.78881
Dispatch_width: 3 411231 1.80864 1.08867
Dispatch_width: 4 3303719 14.5301 8.74608
Dispatch_width: 5 205920 0.905657 0.545141
Dispatch_width: 6 5414576 23.8139 14.3343
Empty_decode_cycles: 15036615 39.8071
ROB_full_cycles: 5270213 13.9521
Starvation_cycles_per_kilo_instr: 270.889
Starvation_cycles_per_kilo_instr_3: 235.793
Starvation_cycles_per_kilo_instr_0: 218.096
Branch_type_1  (3,1)  (4,9)  (5,37)  (6,68)  (7,113)  (8,128)  (9,122)  (10,97)  (11,67)  (12,43)  (13,5)  (14,2)  (15,3)  (16,4)  (18,1)  (19,4)  (20,2)  (21,1)  (22,3)  (23,2)  (24,10)  (25,12) 
Branch_type_2  (3,1)  (5,1)  (8,3)  (9,3)  (12,1)  (13,1)  (14,1)  (16,3)  (17,2)  (20,2)  (21,2)  (23,5)  (24,1)  (47,38) 
Branch_type_3  (3,4028)  (4,235)  (5,407)  (6,415)  (7,429)  (8,316)  (9,255)  (10,151)  (11,120)  (12,50)  (13,4)  (64,1) 
Branch_type_4  (6,3)  (7,8)  (8,25)  (9,51)  (10,60)  (11,58)  (12,96)  (13,88)  (14,100)  (15,86)  (16,98)  (17,64)  (18,53)  (19,115)  (20,71)  (21,124)  (22,209)  (23,136)  (24,192)  (25,72) 
Branch_type_5  (8,2)  (9,1)  (10,3)  (11,5)  (12,3)  (13,14)  (14,16)  (15,11)  (16,20)  (17,11)  (18,16)  (19,12)  (20,10)  (21,13)  (22,42)  (23,26)  (24,37) 
Branch_type_6  (5,4)  (6,12)  (7,21)  (8,34)  (9,31)  (10,63)  (11,51)  (12,76)  (13,91)  (14,108)  (15,84)  (16,95)  (17,68)  (18,48)  (19,103)  (20,51)  (21,95)  (22,138)  (23,72)  (24,91)  (25,4)  (47,44) 
Unique trigger count: 
L2BTB1 1536 4
L2BTB2 1536 4
L2BTB3 1536 4
L2BTB4 224 4
