
*** ChampSim Multicore Out-of-Order Simulator ***

Warmup Instructions: 50000000
Simulation Instructions: 50000000
Number of CPUs: 1
LLC sets: 2048
LLC ways: 16
Off-chip DRAM Size: 4096 MB Channels: 1 Width: 64-bit Data Rate: 6400 MT/s
CPU 0 runs ./micro_traces/srv548.trace.gz
.gz
ITLB has LRU replacement policy
DTLB has LRU replacement policy
STLB has LRU replacement policy
FDIP Prefetcher at L1I
L1I has LRU replacement policy
L1D has LRU replacement policy
Initialize SRRIP state for L2C
Initialize DRRIP state for LLC
Heartbeat_Variant_0 : 1330 0.324707 per_variant_size: 0 1330 0 0 0 0 0 0 0 
Heartbeat_Variant_1 : 2346 0.572754 per_variant_size: 0 165 2181 0 0 0 0 0 0 
Heartbeat_Variant_2 : 0 0 per_variant_size: 0 0 0 0 0 0 0 0 0 
Heartbeat_Variant_3 : 0 0 per_variant_size: 0 0 0 0 0 0 0 0 0 
Heartbeat_Variant_0_evicts 0 : 5527 1 : 2 2 : 0 3 : 0 
Heartbeat_Variant_1_evicts 0 : 0 1 : 0 2 : 0 3 : 0 
Heartbeat_Variant_2_evicts 0 : 0 1 : 0 2 : 0 3 : 0 
Heartbeat_Variant_3_evicts 0 : 0 1 : 0 2 : 0 3 : 0 
Heartbeat CPU 0 instructions: 10000000 cycles: 2798381 heartbeat IPC: 3.57349 cumulative IPC: 3.57349 (Simulation time: 0 hr 1 min 44 sec) 
Heartbeat_Variant_0 : 1441 0.351807 per_variant_size: 0 1441 0 0 0 0 0 0 0 
Heartbeat_Variant_1 : 2591 0.632568 per_variant_size: 0 142 2449 0 0 0 0 0 0 
Heartbeat_Variant_2 : 0 0 per_variant_size: 0 0 0 0 0 0 0 0 0 
Heartbeat_Variant_3 : 0 0 per_variant_size: 0 0 0 0 0 0 0 0 0 
Heartbeat_Variant_0_evicts 0 : 5676 1 : 48 2 : 0 3 : 0 
Heartbeat_Variant_1_evicts 0 : 37 1 : 0 2 : 0 3 : 0 
Heartbeat_Variant_2_evicts 0 : 0 1 : 0 2 : 0 3 : 0 
Heartbeat_Variant_3_evicts 0 : 0 1 : 0 2 : 0 3 : 0 
Heartbeat CPU 0 instructions: 20000002 cycles: 5595434 heartbeat IPC: 3.57519 cumulative IPC: 3.57434 (Simulation time: 0 hr 3 min 23 sec) 
Heartbeat_Variant_0 : 1451 0.354248 per_variant_size: 0 1451 0 0 0 0 0 0 0 
Heartbeat_Variant_1 : 2633 0.642822 per_variant_size: 0 110 2523 0 0 0 0 0 0 
Heartbeat_Variant_2 : 0 0 per_variant_size: 0 0 0 0 0 0 0 0 0 
Heartbeat_Variant_3 : 0 0 per_variant_size: 0 0 0 0 0 0 0 0 0 
Heartbeat_Variant_0_evicts 0 : 5680 1 : 133 2 : 0 3 : 0 
Heartbeat_Variant_1_evicts 0 : 134 1 : 0 2 : 0 3 : 0 
Heartbeat_Variant_2_evicts 0 : 0 1 : 0 2 : 0 3 : 0 
Heartbeat_Variant_3_evicts 0 : 0 1 : 0 2 : 0 3 : 0 
Heartbeat CPU 0 instructions: 30000002 cycles: 8391852 heartbeat IPC: 3.576 cumulative IPC: 3.5749 (Simulation time: 0 hr 5 min 5 sec) 
Heartbeat_Variant_0 : 1452 0.354492 per_variant_size: 0 1452 0 0 0 0 0 0 0 
Heartbeat_Variant_1 : 2633 0.642822 per_variant_size: 0 104 2529 0 0 0 0 0 0 
Heartbeat_Variant_2 : 0 0 per_variant_size: 0 0 0 0 0 0 0 0 0 
Heartbeat_Variant_3 : 0 0 per_variant_size: 0 0 0 0 0 0 0 0 0 
Heartbeat_Variant_0_evicts 0 : 5604 1 : 11 2 : 0 3 : 0 
Heartbeat_Variant_1_evicts 0 : 10 1 : 0 2 : 0 3 : 0 
Heartbeat_Variant_2_evicts 0 : 0 1 : 0 2 : 0 3 : 0 
Heartbeat_Variant_3_evicts 0 : 0 1 : 0 2 : 0 3 : 0 
Heartbeat CPU 0 instructions: 40000001 cycles: 11188088 heartbeat IPC: 3.57624 cumulative IPC: 3.57523 (Simulation time: 0 hr 6 min 46 sec) 
Heartbeat_Variant_0 : 1458 0.355957 per_variant_size: 0 1458 0 0 0 0 0 0 0 
Heartbeat_Variant_1 : 2635 0.643311 per_variant_size: 0 78 2557 0 0 0 0 0 0 
Heartbeat_Variant_2 : 0 0 per_variant_size: 0 0 0 0 0 0 0 0 0 
Heartbeat_Variant_3 : 0 0 per_variant_size: 0 0 0 0 0 0 0 0 0 
Heartbeat_Variant_0_evicts 0 : 5694 1 : 111 2 : 0 3 : 0 
Heartbeat_Variant_1_evicts 0 : 109 1 : 0 2 : 0 3 : 0 
Heartbeat_Variant_2_evicts 0 : 0 1 : 0 2 : 0 3 : 0 
Heartbeat_Variant_3_evicts 0 : 0 1 : 0 2 : 0 3 : 0 
Heartbeat CPU 0 instructions: 50000000 cycles: 13984105 heartbeat IPC: 3.57652 cumulative IPC: 3.57549 (Simulation time: 0 hr 8 min 28 sec) 

Warmup complete CPU 0 instructions: 50000004 cycles: 13984106 (Simulation time: 0 hr 8 min 28 sec) 

Cycle: 20000000 FTQ IN: 58327099 FTQ occupancy: 20.5948 DECODE IN: 58327099 DECODE occupancy: 53.4097 ROB IN: 58327099 ROB occupancy: 318.966 ROB OUT: 58326968
Heartbeat_Variant_0 : 1462 0.356934 per_variant_size: 0 1462 0 0 0 0 0 0 0 
Heartbeat_Variant_1 : 2631 0.642334 per_variant_size: 0 88 2543 0 0 0 0 0 0 
Heartbeat_Variant_2 : 0 0 per_variant_size: 0 0 0 0 0 0 0 0 0 
Heartbeat_Variant_3 : 0 0 per_variant_size: 0 0 0 0 0 0 0 0 0 
Heartbeat_Variant_0_evicts 0 : 5579 1 : 39 2 : 0 3 : 0 
Heartbeat_Variant_1_evicts 0 : 35 1 : 0 2 : 0 3 : 0 
Heartbeat_Variant_2_evicts 0 : 0 1 : 0 2 : 0 3 : 0 
Heartbeat_Variant_3_evicts 0 : 0 1 : 0 2 : 0 3 : 0 
Heartbeat CPU 0 instructions: 60000002 cycles: 21195315 heartbeat IPC: 1.38673 cumulative IPC: 1.38673 (Simulation time: 0 hr 10 min 28 sec) 
Heartbeat_Variant_0 : 1462 0.356934 per_variant_size: 0 1462 0 0 0 0 0 0 0 
Heartbeat_Variant_1 : 2632 0.642578 per_variant_size: 0 94 2538 0 0 0 0 0 0 
Heartbeat_Variant_2 : 0 0 per_variant_size: 0 0 0 0 0 0 0 0 0 
Heartbeat_Variant_3 : 0 0 per_variant_size: 0 0 0 0 0 0 0 0 0 
Heartbeat_Variant_0_evicts 0 : 5517 1 : 3 2 : 0 3 : 0 
Heartbeat_Variant_1_evicts 0 : 3 1 : 0 2 : 0 3 : 0 
Heartbeat_Variant_2_evicts 0 : 0 1 : 0 2 : 0 3 : 0 
Heartbeat_Variant_3_evicts 0 : 0 1 : 0 2 : 0 3 : 0 
Heartbeat CPU 0 instructions: 70000002 cycles: 28323548 heartbeat IPC: 1.40287 cumulative IPC: 1.39475 (Simulation time: 0 hr 12 min 29 sec) 
Cycle: 30000000 FTQ IN: 14025888 FTQ occupancy: 14.8844 DECODE IN: 14025789 DECODE occupancy: 38.0742 ROB IN: 14025729 ROB occupancy: 251.113 ROB OUT: 14025512
Heartbeat_Variant_0 : 1464 0.357422 per_variant_size: 0 1464 0 0 0 0 0 0 0 
Heartbeat_Variant_1 : 2631 0.642334 per_variant_size: 0 90 2541 0 0 0 0 0 0 
Heartbeat_Variant_2 : 0 0 per_variant_size: 0 0 0 0 0 0 0 0 0 
Heartbeat_Variant_3 : 0 0 per_variant_size: 0 0 0 0 0 0 0 0 0 
Heartbeat_Variant_0_evicts 0 : 5674 1 : 163 2 : 0 3 : 0 
Heartbeat_Variant_1_evicts 0 : 161 1 : 0 2 : 0 3 : 0 
Heartbeat_Variant_2_evicts 0 : 0 1 : 0 2 : 0 3 : 0 
Heartbeat_Variant_3_evicts 0 : 0 1 : 0 2 : 0 3 : 0 
Heartbeat CPU 0 instructions: 80000001 cycles: 35577039 heartbeat IPC: 1.37865 cumulative IPC: 1.38934 (Simulation time: 0 hr 14 min 27 sec) 
Cycle: 40000000 FTQ IN: 13870500 FTQ occupancy: 14.8821 DECODE IN: 13870599 DECODE occupancy: 37.7141 ROB IN: 13870639 ROB occupancy: 248.699 ROB OUT: 13870635
Heartbeat_Variant_0 : 1462 0.356934 per_variant_size: 0 1462 0 0 0 0 0 0 0 
Heartbeat_Variant_1 : 2633 0.642822 per_variant_size: 0 99 2534 0 0 0 0 0 0 
Heartbeat_Variant_2 : 0 0 per_variant_size: 0 0 0 0 0 0 0 0 0 
Heartbeat_Variant_3 : 0 0 per_variant_size: 0 0 0 0 0 0 0 0 0 
Heartbeat_Variant_0_evicts 0 : 5590 1 : 7 2 : 0 3 : 0 
Heartbeat_Variant_1_evicts 0 : 9 1 : 0 2 : 0 3 : 0 
Heartbeat_Variant_2_evicts 0 : 0 1 : 0 2 : 0 3 : 0 
Heartbeat_Variant_3_evicts 0 : 0 1 : 0 2 : 0 3 : 0 
Heartbeat CPU 0 instructions: 90000000 cycles: 42697487 heartbeat IPC: 1.40441 cumulative IPC: 1.39308 (Simulation time: 0 hr 16 min 26 sec) 
Heartbeat_Variant_0 : 1458 0.355957 per_variant_size: 0 1458 0 0 0 0 0 0 0 
Heartbeat_Variant_1 : 2638 0.644043 per_variant_size: 0 92 2546 0 0 0 0 0 0 
Heartbeat_Variant_2 : 0 0 per_variant_size: 0 0 0 0 0 0 0 0 0 
Heartbeat_Variant_3 : 0 0 per_variant_size: 0 0 0 0 0 0 0 0 0 
Heartbeat_Variant_0_evicts 0 : 5630 1 : 61 2 : 0 3 : 0 
Heartbeat_Variant_1_evicts 0 : 66 1 : 0 2 : 0 3 : 0 
Heartbeat_Variant_2_evicts 0 : 0 1 : 0 2 : 0 3 : 0 
Heartbeat_Variant_3_evicts 0 : 0 1 : 0 2 : 0 3 : 0 
Heartbeat CPU 0 instructions: 100000003 cycles: 49924882 heartbeat IPC: 1.38362 cumulative IPC: 1.39118 (Simulation time: 0 hr 18 min 37 sec) 
Finished CPU 0 instructions: 50000003 cycles: 35940777 cumulative IPC: 1.39118 (Simulation time: 0 hr 18 min 37 sec) 

ChampSim completed all CPUs

Region of Interest Statistics

CPU 0 cumulative IPC: 1.39118 instructions: 50000003 cycles: 35940777
 Fetch stage stalled: 45.8711  Sim cycles: 35940777 fetch stall cycle: 16486425
 Empty decode stage: 25.5973  Sim cycles: 35940777 fetch stall cycle: 9199868
ITLB TOTAL     ACCESS:    5839509  HIT:    5344610  MISS:     494899  HIT %:     91.525  MISS %:    8.47501   MPKI: 9.89798
ITLB LOAD TRANSLATION INSTRUCTION	ACCESS:    5706440  HIT:    5211541  MISS:     494899  HIT %:    91.3274  MISS %:    8.67264  MPKI: 9.89798
ITLB TRANSLATION FROM L1D PREFETCHER INSTRUCTION	ACCESS:     133069  HIT:     133069  MISS:          0  HIT %:        100  MISS %:          0  MPKI: 0

ITLB AVERAGE MISS LATENCY: 9.06536 cycles
ITLB RQ	ACCESS:    7953173	FORWARD:          0	MERGED:    1625819	TO_CACHE:    6327354

DTLB TOTAL     ACCESS:    8956055  HIT:    8486111  MISS:     469944  HIT %:    94.7528  MISS %:    5.24722   MPKI: 9.39888
DTLB LOAD TRANSLATION DATA	ACCESS:    8956055  HIT:    8486111  MISS:     469944  HIT %:    94.7528  MISS %:    5.24722  MPKI: 9.39888

DTLB AVERAGE MISS LATENCY: 9.3583 cycles
DTLB RQ	ACCESS:   13329430	FORWARD:          0	MERGED:    4336858	TO_CACHE:    8992572

STLB TOTAL     ACCESS:    1212168  HIT:    1209974  MISS:       2194  HIT %:     99.819  MISS %:   0.180998   MPKI: 0.04388
STLB LOAD TRANSLATION INSTRUCTION	ACCESS:     494900  HIT:     494602  MISS:        298  HIT %:    99.9398  MISS %:  0.0602142  MPKI: 0.00596
STLB LOAD TRANSLATION DATA	ACCESS:     469944  HIT:     468075  MISS:       1869  HIT %:    99.6023  MISS %:   0.397707  MPKI: 0.03738
STLB TRANSLATION FROM L1D PREFETCHER DATA	ACCESS:     247324  HIT:     247297  MISS:         27  HIT %:    99.9891  MISS %:  0.0109169  MPKI: 0.00054

STLB AVERAGE MISS LATENCY: 77.7233 cycles
STLB RQ	ACCESS:    1332816	FORWARD:          0	MERGED:     120600	TO_CACHE:    1212216

STLB Hit, L1D data hit: 0
STLB Hit, L2C data hit: 0
STLB Hit, LLC data hit: 0
STLB Hit, LLC data miss: 0
STLB STLB hints to L2: 0
L1D TOTAL     ACCESS:   13075111  HIT:   11951076  MISS:    1124035  HIT %:    91.4032  MISS %:    8.59675   MPKI: 22.4807
L1D LOAD DATA	ACCESS:    6539803  HIT:    5798671  MISS:     741132  HIT %:    88.6674  MISS %:    11.3326  MPKI: 14.8226
L1D RFO DATA	ACCESS:    6208884  HIT:    5921695  MISS:     287189  HIT %:    95.3745  MISS %:    4.62545  MPKI: 5.74378
L1D PREFETCH DATA	ACCESS:     326424  HIT:     230710  MISS:      95714  HIT %:     70.678  MISS %:     29.322  MPKI: 1.91428

L1D PREFETCH  REQUESTED:     736303  ISSUED:     736303  USEFUL:      35140  USELESS:      68468
L1D USEFUL LOAD PREFETCHES:      35140 PREFETCH ISSUED TO LOWER LEVEL:     103654  ACCURACY: 33.9012
 TIMELY PREFETCHES:      35140 LATE PREFETCHES: 7897 DROPPED PREFETCHES: 6
L1D AVERAGE MISS LATENCY: 226479 cycles
L1D RQ	ACCESS:   10686876	FORWARD:          0	MERGED:    3944759	TO_CACHE:    6576099
L1D WQ	ACCESS:    6950873	FORWARD:     166379	MERGED:     197542	TO_CACHE:    6753331
L1D PQ	ACCESS:     368332	FORWARD:          0	MERGED:          0	TO_CACHE:     367971

L1D UNIQUE REGIONS ACCESSED: 0
L1D REGIONS CONFLICTS: 0
L1D Cross Page Prefetch Requests: 7020
L1D Same Page Prefetch Requests: 750920
L1D ROI Sum of L1D PQ occupancy: 4674366
L1D PREFETCHES PUSHED FROM L2C: 0
L1I TOTAL     ACCESS:    7114904  HIT:    4349344  MISS:    2765560  HIT %:      61.13  MISS %:      38.87   MPKI: 55.3112
L1I LOAD INSTRUCTION	ACCESS:    6447596  HIT:    3682036  MISS:    2765560  HIT %:    57.1071  MISS %:    42.8929  MPKI: 55.3112
L1I PREFETCH INSTRUCTION	ACCESS:     667308  HIT:     667308  MISS:          0  HIT %:        100  MISS %:          0  MPKI: 0

L1I PREFETCH  REQUESTED:    1614937  ISSUED:    1614937  USEFUL:          0  USELESS:          0
L1I USEFUL LOAD PREFETCHES:          0 PREFETCH ISSUED TO LOWER LEVEL:          0  ACCURACY: -nan
 TIMELY PREFETCHES:          0 LATE PREFETCHES: 0 DROPPED PREFETCHES: 0
L1I AVERAGE MISS LATENCY: 17.5271 cycles
L1I RQ	ACCESS:    9567610	FORWARD:          0	MERGED:    2804480	TO_CACHE:    6763130
L1I PQ	ACCESS:    1614937	FORWARD:          0	MERGED:     424894	TO_CACHE:    1190043

L1BTB TOTAL     ACCESS:    5669179  HIT:    2035924  MISS:    3633255  HIT %:    35.9121  MISS %:    64.0879   MPKI: 72.6651
L1BTB BRANCH_DIRECT_JUMP	ACCESS:     547506 HIT:     143863 MISS:     403643 AVERAGE STALL: 55.5397 AVERAGE FETCH STALL: 13.9753 AVERAGE FETCH QUEUE STALL: 20.3288 AVERAGE DECODE STALL: 20.3009 AVERAGE EXECUTE STALL: 2.34066e+15
L1BTB BRANCH_INDIRECT	ACCESS:     182331 HIT:      65593 MISS:     116738 AVERAGE STALL: 114.484 AVERAGE FETCH STALL: 10.8507 AVERAGE FETCH QUEUE STALL: 18.5802 AVERAGE DECODE STALL: 13.5018 AVERAGE EXECUTE STALL: 70.589
L1BTB BRANCH_CONDITIONAL	ACCESS:    2700482 HIT:    1406643 MISS:    1293839 AVERAGE STALL: 77.0723 AVERAGE FETCH STALL: 23.5175 AVERAGE FETCH QUEUE STALL: 31.8183 AVERAGE DECODE STALL: 20.9421 AVERAGE EXECUTE STALL: 4.27503e+15
L1BTB BRANCH_DIRECT_CALL	ACCESS:     946917 HIT:     106503 MISS:     840414 AVERAGE STALL: 77.4432 AVERAGE FETCH STALL: 27.0065 AVERAGE FETCH QUEUE STALL: 30.5329 AVERAGE DECODE STALL: 19.4542 AVERAGE EXECUTE STALL: 1.19011e+16
L1BTB BRANCH_INDIRECT_CALL	ACCESS:     172517 HIT:      21908 MISS:     150609 AVERAGE STALL: 142.769 AVERAGE FETCH STALL: 12.9192 AVERAGE FETCH QUEUE STALL: 18.2889 AVERAGE DECODE STALL: 11.6916 AVERAGE EXECUTE STALL: 99.379
L1BTB BRANCH_RETURN	ACCESS:    1119426 HIT:     291414 MISS:     828012 AVERAGE STALL: 50.2744 AVERAGE FETCH STALL: 17.7383 AVERAGE FETCH QUEUE STALL: 4.73038 AVERAGE DECODE STALL: 6.23943 AVERAGE EXECUTE STALL: 4.26081e+14
L1BTB BRANCH_OTHER ACCESS:          0 HIT:          0 MISS:          0 AVERAGE STALL: -nan AVERAGE FETCH STALL: -nan AVERAGE FETCH QUEUE STALL: -nan AVERAGE DECODE STALL: -nan AVERAGE EXECUTE STALL: -nan
L1BTB TOTAL ROB OCCUPANCY AT BTB MISS: 2.76039

L2BTB TOTAL     ACCESS:    3607941  HIT:    3543612  MISS:      64329  HIT %:     98.217  MISS %:    1.78298   MPKI: 1.28658
L2BTB BRANCH_DIRECT_JUMP	ACCESS:     399522 HIT:     395761 MISS:       3761 AVERAGE STALL: 55.5397 AVERAGE FETCH STALL: 13.9753 AVERAGE FETCH QUEUE STALL: 20.3288 AVERAGE DECODE STALL: 20.3009 AVERAGE EXECUTE STALL: 2.34066e+15
L2BTB BRANCH_INDIRECT	ACCESS:     106456 HIT:     103754 MISS:       2702 AVERAGE STALL: 114.484 AVERAGE FETCH STALL: 10.8507 AVERAGE FETCH QUEUE STALL: 18.5802 AVERAGE DECODE STALL: 13.5018 AVERAGE EXECUTE STALL: 70.589
L2BTB BRANCH_CONDITIONAL	ACCESS:    1293839 HIT:    1289491 MISS:       4348 AVERAGE STALL: 77.0723 AVERAGE FETCH STALL: 23.5175 AVERAGE FETCH QUEUE STALL: 31.8183 AVERAGE DECODE STALL: 20.9421 AVERAGE EXECUTE STALL: 4.27503e+15
L2BTB BRANCH_DIRECT_CALL	ACCESS:     840414 HIT:     838847 MISS:       1567 AVERAGE STALL: 77.4432 AVERAGE FETCH STALL: 27.0065 AVERAGE FETCH QUEUE STALL: 30.5329 AVERAGE DECODE STALL: 19.4542 AVERAGE EXECUTE STALL: 1.19011e+16
L2BTB BRANCH_INDIRECT_CALL	ACCESS:     141117 HIT:     131060 MISS:      10057 AVERAGE STALL: 142.769 AVERAGE FETCH STALL: 12.9192 AVERAGE FETCH QUEUE STALL: 18.2889 AVERAGE DECODE STALL: 11.6916 AVERAGE EXECUTE STALL: 99.379
L2BTB BRANCH_RETURN	ACCESS:     826593 HIT:     784699 MISS:      41894 AVERAGE STALL: 50.2744 AVERAGE FETCH STALL: 17.7383 AVERAGE FETCH QUEUE STALL: 4.73038 AVERAGE DECODE STALL: 6.23943 AVERAGE EXECUTE STALL: 4.26081e+14
L2BTB BRANCH_OTHER ACCESS:          0 HIT:          0 MISS:          0 AVERAGE STALL: -nan AVERAGE FETCH STALL: -nan AVERAGE FETCH QUEUE STALL: -nan AVERAGE DECODE STALL: -nan AVERAGE EXECUTE STALL: -nan
L2BTB TOTAL ROB OCCUPANCY AT BTB MISS: 155.905

L2C TOTAL     ACCESS:    4502478  HIT:    4002091  MISS:     500387  HIT %:    88.8864  MISS %:    11.1136   MPKI: 10.0077
L2C LOAD INSTRUCTION	ACCESS:    2765561  HIT:    2482166  MISS:     283395  HIT %:    89.7527  MISS %:    10.2473  MPKI: 5.6679
L2C LOAD TRANSLATION INSTRUCTION	ACCESS:        336  HIT:        106  MISS:        230  HIT %:    31.5476  MISS %:    68.4524  MPKI: 0.0046
L2C LOAD DATA	ACCESS:     733213  HIT:     656884  MISS:      76329  HIT %:    89.5898  MISS %:    10.4102  MPKI: 1.52658
L2C RFO DATA	ACCESS:     287104  HIT:     237589  MISS:      49515  HIT %:    82.7536  MISS %:    17.2464  MPKI: 0.9903
L2C PREFETCH DATA	ACCESS:     189886  HIT:     115344  MISS:      74542  HIT %:    60.7438  MISS %:    39.2562  MPKI: 1.49084
L2C WRITEBACK DATA	ACCESS:     524380  HIT:     509485  MISS:      14895  HIT %:    97.1595  MISS %:     2.8405  MPKI: 0.2979
L2C LOAD TRANSLATION DATA	ACCESS:       1944  HIT:        487  MISS:       1457  HIT %:    25.0514  MISS %:    74.9486  MPKI: 0.02914
L2C TRANSLATION FROM L1D PREFETCHER DATA	ACCESS:         54  HIT:         30  MISS:         24  HIT %:    55.5556  MISS %:    44.4444  MPKI: 0.00048

L2C PREFETCH  REQUESTED:      94139  ISSUED:      94139  USEFUL:       8973  USELESS:      66364
L2C USEFUL LOAD PREFETCHES:       8973 PREFETCH ISSUED TO LOWER LEVEL:      75234  ACCURACY: 11.9268
 TIMELY PREFETCHES:       8973 LATE PREFETCHES: 692 DROPPED PREFETCHES: 0
L2C AVERAGE MISS LATENCY: 38.8 cycles
L2C RQ	ACCESS:    3788276	FORWARD:          0	MERGED:          0	TO_CACHE:    3788212
L2C WQ	ACCESS:     524380	FORWARD:         64	MERGED:          0	TO_CACHE:     524380
L2C PQ	ACCESS:     197793	FORWARD:          0	MERGED:       3236	TO_CACHE:     194557

L2C Dense regions hint from L2: 0
PSCL5 TOTAL     ACCESS:       4408  HIT:       2204  MISS:       2204  HIT %:         50  MISS %:         50   MPKI: 0.04408
PSCL5 LOAD TRANSLATION INSTRUCTION	ACCESS:       4302  HIT:       2151  MISS:       2151  HIT %:         50  MISS %:         50  MPKI: 0.04302
PSCL5 TRANSLATION FROM L1D PREFETCHER INSTRUCTION	ACCESS:        106  HIT:         53  MISS:         53  HIT %:         50  MISS %:         50  MPKI: 0.00106


PSCL4 TOTAL     ACCESS:       4335  HIT:       2165  MISS:       2170  HIT %:    49.9423  MISS %:    50.0577   MPKI: 0.0434
PSCL4 LOAD TRANSLATION INSTRUCTION	ACCESS:       3829  HIT:       2117  MISS:       1712  HIT %:    55.2886  MISS %:    44.7114  MPKI: 0.03424
PSCL4 TRANSLATION FROM L1D PREFETCHER INSTRUCTION	ACCESS:         89  HIT:         48  MISS:         41  HIT %:    53.9326  MISS %:    46.0674  MPKI: 0.00082
PSCL4 LOAD TRANSLATION DATA	ACCESS:        410  HIT:          0  MISS:        410  HIT %:          0  MISS %:        100  MPKI: 0.0082
PSCL4 TRANSLATION FROM L1D PREFETCHER DATA	ACCESS:          7  HIT:          0  MISS:          7  HIT %:          0  MISS %:        100  MPKI: 0.00014


PSCL3 TOTAL     ACCESS:       4339  HIT:       2167  MISS:       2172  HIT %:    49.9424  MISS %:    50.0576   MPKI: 0.04344
PSCL3 LOAD TRANSLATION INSTRUCTION	ACCESS:       3831  HIT:       2119  MISS:       1712  HIT %:    55.3119  MISS %:    44.6881  MPKI: 0.03424
PSCL3 TRANSLATION FROM L1D PREFETCHER INSTRUCTION	ACCESS:         89  HIT:         48  MISS:         41  HIT %:    53.9326  MISS %:    46.0674  MPKI: 0.00082
PSCL3 LOAD TRANSLATION DATA	ACCESS:        412  HIT:          0  MISS:        412  HIT %:          0  MISS %:        100  MPKI: 0.00824
PSCL3 TRANSLATION FROM L1D PREFETCHER DATA	ACCESS:          7  HIT:          0  MISS:          7  HIT %:          0  MISS %:        100  MPKI: 0.00014


PSCL2 TOTAL     ACCESS:       4287  HIT:       2083  MISS:       2204  HIT %:    48.5888  MISS %:    51.4112   MPKI: 0.04408
PSCL2 LOAD TRANSLATION INSTRUCTION	ACCESS:       2326  HIT:       2031  MISS:        295  HIT %:    87.3173  MISS %:    12.6827  MPKI: 0.0059
PSCL2 TRANSLATION FROM L1D PREFETCHER INSTRUCTION	ACCESS:         52  HIT:         52  MISS:          0  HIT %:        100  MISS %:          0  MPKI: 0
PSCL2 LOAD TRANSLATION DATA	ACCESS:       1857  HIT:          0  MISS:       1857  HIT %:          0  MISS %:        100  MPKI: 0.03714
PSCL2 TRANSLATION FROM L1D PREFETCHER DATA	ACCESS:         52  HIT:          0  MISS:         52  HIT %:          0  MISS %:        100  MPKI: 0.00104


LLC TOTAL     ACCESS:     558267  HIT:     527737  MISS:      30530  HIT %:    94.5313  MISS %:    5.46871   MPKI: 0.6106
LLC LOAD INSTRUCTION	ACCESS:     283395  HIT:     282465  MISS:        930  HIT %:    99.6718  MISS %:   0.328164  MPKI: 0.0186
LLC LOAD TRANSLATION INSTRUCTION	ACCESS:        230  HIT:        199  MISS:         31  HIT %:    86.5217  MISS %:    13.4783  MPKI: 0.00062
LLC LOAD DATA	ACCESS:      75667  HIT:      72075  MISS:       3592  HIT %:    95.2529  MISS %:    4.74712  MPKI: 0.07184
LLC RFO DATA	ACCESS:      49473  HIT:      34168  MISS:      15305  HIT %:    69.0639  MISS %:    30.9361  MPKI: 0.3061
LLC PREFETCH DATA	ACCESS:      75233  HIT:      65068  MISS:      10165  HIT %:    86.4886  MISS %:    13.5114  MPKI: 0.2033
LLC WRITEBACK DATA	ACCESS:      72788  HIT:      72375  MISS:        413  HIT %:    99.4326  MISS %:   0.567401  MPKI: 0.00826
LLC LOAD TRANSLATION DATA	ACCESS:       1457  HIT:       1364  MISS:         93  HIT %:     93.617  MISS %:    6.38298  MPKI: 0.00186
LLC TRANSLATION FROM L1D PREFETCHER DATA	ACCESS:         24  HIT:         23  MISS:          1  HIT %:    95.8333  MISS %:    4.16667  MPKI: 2e-05

LLC AVERAGE MISS LATENCY: 157.268 cycles
LLC RQ	ACCESS:     410258	FORWARD:          0	MERGED:          0	TO_CACHE:     410246
LLC WQ	ACCESS:      72788	FORWARD:         13	MERGED:          0	TO_CACHE:      72788
LLC PQ	ACCESS:      75234	FORWARD:          0	MERGED:          0	TO_CACHE:      75233

LLC Dense regions hint to LLC: 0

RAW hits: 1950018
Loads Generated: 12636894
Loads sent to L1D: 10686876
Stores Generated: 6950862
Stores sent to L1D: 6950873
Major fault: 0 Minor fault: 2661
Allocated PAGES: 2661

stream: 
stream:times selected: 1188813
stream:pref_filled: 121864
stream:pref_useful: 24354
stream:pref_late: 6652
stream:misses: 8060
stream:misses_by_poll: 0

CS: 
CS:times selected: 180913
CS:pref_filled: 60675
CS:pref_useful: 37266
CS:pref_late: 6877
CS:misses: 16870
CS:misses_by_poll: 3

CPLX: 
CPLX:times selected: 1006721
CPLX:pref_filled: 19313
CPLX:pref_useful: 4575
CPLX:pref_late: 3025
CPLX:misses: 93353
CPLX:misses_by_poll: 0

NL_L1: 
NL:times selected: 20854
NL:pref_filled: 801
NL:pref_useful: 381
NL:pref_late: 302
NL:misses: 1795
NL:misses_by_poll: 0

total selections: 2397301
total_filled: 95714
total_useful: 35140
total_late: 18134
total_polluted: 3
total_misses_after_warmup: 777428
conflicts: 5513290

test: 115772

DRAM Statistics
 CHANNEL 0
 RQ ROW_BUFFER_HIT:      11426  ROW_BUFFER_MISS:      18672
 DBUS_CONGESTED:         17
 WQ ROW_BUFFER_HIT:       1517  ROW_BUFFER_MISS:      12900  FULL:          0

 AVG_CONGESTED_CYCLE: 5

CPU 0 Branch Prediction Accuracy: 99.8222% MPKI: 0.32518 Average ROB Occupancy at Mispredict: 194.473
Branch types
NOT_BRANCH: 40854275 81.7085%
BRANCH_DIRECT_JUMP: 547506 1.09501%
BRANCH_INDIRECT: 182331 0.364662%
BRANCH_CONDITIONAL: 6176923 12.3538%
BRANCH_DIRECT_CALL: 946917 1.89383%
BRANCH_INDIRECT_CALL: 172517 0.345034%
BRANCH_RETURN: 1119426 2.23885%
BRANCH_OTHER: 0 0%

DRAM PAGES: 1048576
Allocated PAGES: 2661
Average_ROB_Occupancy: 250.946
Average_Decode_Occupancy: 37.8879
Average_FTQ_Occupancy: 14.9147
Indirect max targets: 14 Average targets: 1.17778
Branch_type:  BRANCH_DIRECT_JUMP:  Count Percentage: 3.31584 6.40466 4.09986 3.79398 9.94989 2.71885 1.60283 68.1141 
Branch_type:  BRANCH_INDIRECT:  Count Percentage: 13.771 3.44091 5.36711 3.73538 9.68514 1.20521 3.2025 59.5927 
Branch_type:  BRANCH_CONDITIONAL:  Count Percentage: 21.4796 3.03674 1.85294 3.15863 6.30751 9.51823 0.927365 53.719 
Branch_type:  BRANCH_DIRECT_CALL:  Count Percentage: 0.752134 1.26426 1.02866 2.5889 5.12548 2.07211 0.618669 86.5498 
Branch_type:  BRANCH_INDIRECT_CALL:  Count Percentage: 9.52367 0 2.98401 4.26154 1.25889 2.99158 0.995932 77.9844 
Branch_type:  BRANCH_RETURN:  Count Percentage: 4.51993 1.37725 2.61164 3.2738 8.30366 10.0293 1.1845 68.6999 
Branch_type:  BRANCH_DIRECT_JUMP:  Total Count: 36325 70163 44914 41563 109001 29785 17559 746190 
Branch_type:  BRANCH_INDIRECT:  Total Count: 50367 12585 19630 13662 35423 4408 11713 217958 
Branch_type:  BRANCH_CONDITIONAL:  Total Count: 2653661 375170 228919 390228 779252 1175916 114570 6636643 
Branch_type:  BRANCH_DIRECT_CALL:  Total Count: 14190 23852 19407 48843 96699 39093 11672 1632876 
Branch_type:  BRANCH_INDIRECT_CALL:  Total Count: 32704 0 10247 14634 4323 10273 3420 267796 
Branch_type:  BRANCH_RETURN:  Total Count: 100835 30725 58263 73035 185246 223743 26425 1532623 
Number of unique branch instructions: 10810
Upper 32 bits: 
aaaa
ffff
ffff0000
Unique upper 32 bits: 3
Unique upper 36 bits: 3
Unique upper 40 bits: 5
Unique upper 44 bits: 32
Unique upper 48 bits: 158
Variant_0 : 1458 0.355957
Variant_1 : 2638 0.644043
Variant_2 : 0 0
Variant_3 : 0 0
Offset_3 4480
Offset_4 261
Offset_5 486
Offset_6 545
Offset_7 643
Offset_8 585
Offset_9 519
Offset_10 426
Offset_11 348
Offset_12 325
Offset_13 237
Offset_14 247
Offset_15 192
Offset_16 234
Offset_17 170
Offset_18 154
Offset_19 267
Offset_20 145
Offset_21 235
Offset_22 411
Offset_23 241
Offset_24 347
Offset_25 117
Offset_47 92
decode_dispatch_called: 26238787 73.0056
Dispatch_width: 0 14118956 53.8095 39.2839
Dispatch_width: 1 1015556 3.87044 2.82564
Dispatch_width: 2 853956 3.25456 2.37601
Dispatch_width: 3 495144 1.88707 1.37767
Dispatch_width: 4 6315089 24.0678 17.5708
Dispatch_width: 5 109769 0.418346 0.305416
Dispatch_width: 6 3330317 12.6923 9.26612
Empty_decode_cycles: 9701990 26.9944
ROB_full_cycles: 10031693 27.9117
Starvation_cycles_per_kilo_instr: 225.788
Starvation_cycles_per_kilo_instr_3: 161.539
Starvation_cycles_per_kilo_instr_0: 137.893
Branch_type_1  (3,1)  (4,9)  (5,39)  (6,75)  (7,126)  (8,152)  (9,137)  (10,110)  (11,77)  (12,55)  (13,11)  (14,2)  (15,3)  (16,4)  (18,1)  (19,5)  (20,2)  (21,1)  (22,3)  (23,2)  (24,10)  (25,12) 
Branch_type_2  (3,1)  (4,1)  (5,1)  (8,4)  (9,4)  (10,1)  (12,1)  (13,1)  (14,1)  (16,3)  (17,2)  (20,2)  (21,2)  (23,5)  (24,1)  (47,41) 
Branch_type_3  (3,4478)  (4,251)  (5,442)  (6,453)  (7,485)  (8,360)  (9,282)  (10,173)  (11,136)  (12,62)  (13,10) 
Branch_type_4  (6,4)  (7,8)  (8,26)  (9,58)  (10,68)  (11,69)  (12,116)  (13,100)  (14,112)  (15,91)  (16,105)  (17,77)  (18,66)  (19,129)  (20,74)  (21,124)  (22,216)  (23,136)  (24,202)  (25,101) 
Branch_type_5  (8,3)  (9,1)  (10,4)  (11,5)  (12,3)  (13,14)  (14,16)  (15,11)  (16,22)  (17,13)  (18,23)  (19,14)  (20,11)  (21,13)  (22,43)  (23,26)  (24,38) 
Branch_type_6  (5,4)  (6,13)  (7,24)  (8,40)  (9,37)  (10,70)  (11,61)  (12,88)  (13,101)  (14,116)  (15,87)  (16,100)  (17,78)  (18,64)  (19,119)  (20,56)  (21,95)  (22,149)  (23,72)  (24,96)  (25,4)  (47,51) 
Unique trigger count: 
Variant_0_evicts_0 : 0
Variant_0_evicts_1 : 0
Variant_0_evicts_2 : 0
Variant_0_evicts_3 : 0
Variant_1_evicts_0 : 0
Variant_1_evicts_1 : 0
Variant_1_evicts_2 : 0
Variant_1_evicts_3 : 0
Variant_2_evicts_0 : 0
Variant_2_evicts_1 : 0
Variant_2_evicts_2 : 0
Variant_2_evicts_3 : 0
Variant_3_evicts_0 : 0
Variant_3_evicts_1 : 0
Variant_3_evicts_2 : 0
Variant_3_evicts_3 : 0
BTB PER SET UNIQUE ADDR: 41 31 34 39 32 43 40 34 32 41 39 33 44 33 36 41 37 39 39 32 33 28 35 38 39 31 33 35 39 44 40 32 31 36 44 33 41 33 40 40 46 32 33 43 32 41 37 36 44 30 31 42 37 42 42 32 35 39 42 33 40 36 36 45 33 34 41 38 43 33 39 44 41 32 27 39 34 43 31 29 39 32 37 40 32 43 36 28 27 37 33 36 39 29 35 40 36 32 39 37 29 37 40 29 28 32 32 34 34 30 30 39 28 36 51 30 39 35 36 43 39 34 38 45 39 40 45 38 30 35 41 29 38 32 34 29 35 29 34 38 35 36 28 36 34 37 25 38 30 46 45 33 34 47 33 28 52 35 31 39 41 31 29 40 33 44 35 30 30 34 48 34 36 31 29 35 36 34 42 32 43 32 31 34 43 36 28 37 35 40 29 34 47 33 36 43 33 39 40 36 28 41 36 41 43 29 38 36 31 42 34 32 33 29 31 37 37 34 36 38 32 43 36 27 34 35 34 37 41 27 32 49 33 38 30 43 29 40 38 31 40 32 30 39 34 38 41 34 32 38 34 36 42 30 33 41 
BTB PER SET COUNT: 614 40 1539 656 36 57 44 1497 148 46 45 245 50 418 2182 47 2598 1156 799 35 543 1017 1026 417 43 186 2850 84 1684 48 573 156 1056 44 2353 39 1514 36 3029 51 374 553 39 44 35 837 95 38 732 39 35 1527 48 51 524 33 40 261 111 947 77 45 1529 92 37 414 15906 482 48 36 45 47 48 37 1138 45 1546 770 283 32 769 37 1485 419 35 76 490 32 1118 41 452 41 42 1972 36 159 42 160 1367 42 1554 45 41 34 33 38 32 1498 1555 1507 36 43 32 1942 762 34 44 40 1130 680 40 1000 1516 1493 2009 456 627 214 34 47 4401 30 39 32 533 29 169 1497 36 38 1305 1010 29 144 35 1244 29 44 32 347 1664 413 40 287 34 60 1577 1036 40 46 526 1107 30 231 33 186 290 34 33 38 449 2493 1500 34 29 44 2998 1387 1394 35 1235 41 1112 2417 1194 467 31 38 38 77 2962 512 1716 34 584 291 527 291 45 3127 33 1012 1145 1027 1742 525 2031 37 527 1370 36 389 1301 4428 522 41 552 1007 1104 48 39 572 1589 28 316 40 2129 1930 398 32 105 1088 36 3126 1493 45 1427 47 3524 35 158 36 38 45 1022 1085 45 20539 36 288 36 53 531 33 40 45 
To predecode: 0
Predecoding something: 0
Predecode request dropped: 0
sizeofblock_0 0
sizeofblock_1 33378
sizeofblock_2 100517
sizeofblock_3 0
sizeofblock_4 0
sizeofblock_5 0
sizeofblock_6 0
sizeofblock_7 0
sizeofblock_8 0
Variant_0 Correct: 1612597 Incorrect: 0 Accuracy: 1
Variant_1 Correct: 5729268 Incorrect: 0 Accuracy: 1
Variant_2 Correct: 0 Incorrect: 0 Accuracy: -nan
Variant_3 Correct: 0 Incorrect: 0 Accuracy: -nan
