
*** ChampSim Multicore Out-of-Order Simulator ***

Warmup Instructions: 50000000
Simulation Instructions: 50000000
Number of CPUs: 1
LLC sets: 2048
LLC ways: 16
Off-chip DRAM Size: 4096 MB Channels: 1 Width: 64-bit Data Rate: 6400 MT/s
CPU 0 runs ./micro_traces/srv514.trace.gz
.gz
ITLB has LRU replacement policy
DTLB has LRU replacement policy
STLB has LRU replacement policy
CPU 0 L1I next line prefetcher
./conditional/srv514.cond
L1I has LRU replacement policy
L1D has LRU replacement policy
Initialize SRRIP state for L2C
Initialize DRRIP state for LLC
Heartbeat_Variant_0 : 1321 0.32251 per_variant_size: 0 1321 0 0 0 0 0 0 0 
Heartbeat_Variant_1 : 1206 0.294434 per_variant_size: 0 587 619 0 0 0 0 0 0 
Heartbeat_Variant_2 : 1309 0.31958 per_variant_size: 0 539 352 333 85 0 0 0 0 
Heartbeat_Variant_3 : 0 0 per_variant_size: 0 0 0 0 0 0 0 0 0 
Heartbeat_Variant_0_evicts 0 : 5875 1 : 247 2 : 242 3 : 0 
Heartbeat_Variant_1_evicts 0 : 221 1 : 0 2 : 437 3 : 0 
Heartbeat_Variant_2_evicts 0 : 232 1 : 433 2 : 0 3 : 0 
Heartbeat_Variant_3_evicts 0 : 0 1 : 0 2 : 0 3 : 0 
Heartbeat CPU 0 instructions: 10000001 cycles: 2795825 heartbeat IPC: 3.57676 cumulative IPC: 3.57676 (Simulation time: 0 hr 1 min 41 sec) 
Heartbeat_Variant_0 : 1354 0.330566 per_variant_size: 0 1354 0 0 0 0 0 0 0 
Heartbeat_Variant_1 : 1242 0.303223 per_variant_size: 0 585 657 0 0 0 0 0 0 
Heartbeat_Variant_2 : 1339 0.326904 per_variant_size: 0 534 363 340 102 0 0 0 0 
Heartbeat_Variant_3 : 0 0 per_variant_size: 0 0 0 0 0 0 0 0 0 
Heartbeat_Variant_0_evicts 0 : 5660 1 : 114 2 : 131 3 : 0 
Heartbeat_Variant_1_evicts 0 : 115 1 : 0 2 : 355 3 : 0 
Heartbeat_Variant_2_evicts 0 : 122 1 : 359 2 : 0 3 : 0 
Heartbeat_Variant_3_evicts 0 : 0 1 : 0 2 : 0 3 : 0 
Heartbeat CPU 0 instructions: 20000003 cycles: 5589657 heartbeat IPC: 3.57931 cumulative IPC: 3.57804 (Simulation time: 0 hr 3 min 23 sec) 
Heartbeat_Variant_0 : 1370 0.334473 per_variant_size: 0 1370 0 0 0 0 0 0 0 
Heartbeat_Variant_1 : 1251 0.30542 per_variant_size: 0 572 679 0 0 0 0 0 0 
Heartbeat_Variant_2 : 1353 0.330322 per_variant_size: 0 524 368 363 98 0 0 0 0 
Heartbeat_Variant_3 : 0 0 per_variant_size: 0 0 0 0 0 0 0 0 0 
Heartbeat_Variant_0_evicts 0 : 5646 1 : 134 2 : 129 3 : 0 
Heartbeat_Variant_1_evicts 0 : 126 1 : 0 2 : 353 3 : 0 
Heartbeat_Variant_2_evicts 0 : 134 1 : 354 2 : 0 3 : 0 
Heartbeat_Variant_3_evicts 0 : 0 1 : 0 2 : 0 3 : 0 
Heartbeat CPU 0 instructions: 30000000 cycles: 8384707 heartbeat IPC: 3.57775 cumulative IPC: 3.57794 (Simulation time: 0 hr 5 min 4 sec) 
Heartbeat_Variant_0 : 1381 0.337158 per_variant_size: 0 1381 0 0 0 0 0 0 0 
Heartbeat_Variant_1 : 1252 0.305664 per_variant_size: 0 566 686 0 0 0 0 0 0 
Heartbeat_Variant_2 : 1354 0.330566 per_variant_size: 0 517 374 365 98 0 0 0 0 
Heartbeat_Variant_3 : 0 0 per_variant_size: 0 0 0 0 0 0 0 0 0 
Heartbeat_Variant_0_evicts 0 : 5676 1 : 51 2 : 73 3 : 0 
Heartbeat_Variant_1_evicts 0 : 58 1 : 0 2 : 270 3 : 0 
Heartbeat_Variant_2_evicts 0 : 56 1 : 282 2 : 0 3 : 0 
Heartbeat_Variant_3_evicts 0 : 0 1 : 0 2 : 0 3 : 0 
Heartbeat CPU 0 instructions: 40000003 cycles: 11181298 heartbeat IPC: 3.57578 cumulative IPC: 3.5774 (Simulation time: 0 hr 6 min 57 sec) 
Heartbeat_Variant_0 : 1381 0.337158 per_variant_size: 0 1381 0 0 0 0 0 0 0 
Heartbeat_Variant_1 : 1258 0.307129 per_variant_size: 0 569 689 0 0 0 0 0 0 
Heartbeat_Variant_2 : 1351 0.329834 per_variant_size: 0 510 376 382 83 0 0 0 0 
Heartbeat_Variant_3 : 0 0 per_variant_size: 0 0 0 0 0 0 0 0 0 
Heartbeat_Variant_0_evicts 0 : 5552 1 : 35 2 : 32 3 : 0 
Heartbeat_Variant_1_evicts 0 : 42 1 : 0 2 : 276 3 : 0 
Heartbeat_Variant_2_evicts 0 : 25 1 : 278 2 : 0 3 : 0 
Heartbeat_Variant_3_evicts 0 : 0 1 : 0 2 : 0 3 : 0 
Heartbeat CPU 0 instructions: 50000000 cycles: 13976175 heartbeat IPC: 3.57797 cumulative IPC: 3.57752 (Simulation time: 0 hr 8 min 40 sec) 

Warmup complete CPU 0 instructions: 50000004 cycles: 13976176 (Simulation time: 0 hr 8 min 40 sec) 

Cycle: 20000000 FTQ IN: 58187774 FTQ occupancy: 19.4761 DECODE IN: 58187774 DECODE occupancy: 50.8398 ROB IN: 58187774 ROB occupancy: 311.719 ROB OUT: 58187772
Heartbeat_Variant_0 : 1381 0.337158 per_variant_size: 0 1381 0 0 0 0 0 0 0 
Heartbeat_Variant_1 : 1258 0.307129 per_variant_size: 0 575 683 0 0 0 0 0 0 
Heartbeat_Variant_2 : 1358 0.331543 per_variant_size: 0 515 380 344 119 0 0 0 0 
Heartbeat_Variant_3 : 0 0 per_variant_size: 0 0 0 0 0 0 0 0 0 
Heartbeat_Variant_0_evicts 0 : 5585 1 : 40 2 : 41 3 : 0 
Heartbeat_Variant_1_evicts 0 : 41 1 : 0 2 : 293 3 : 0 
Heartbeat_Variant_2_evicts 0 : 43 1 : 295 2 : 0 3 : 0 
Heartbeat_Variant_3_evicts 0 : 0 1 : 0 2 : 0 3 : 0 
Heartbeat CPU 0 instructions: 60000000 cycles: 21330216 heartbeat IPC: 1.3598 cumulative IPC: 1.3598 (Simulation time: 0 hr 10 min 24 sec) 
Heartbeat_Variant_0 : 1384 0.337891 per_variant_size: 0 1384 0 0 0 0 0 0 0 
Heartbeat_Variant_1 : 1263 0.30835 per_variant_size: 0 574 689 0 0 0 0 0 0 
Heartbeat_Variant_2 : 1358 0.331543 per_variant_size: 0 506 395 342 115 0 0 0 0 
Heartbeat_Variant_3 : 0 0 per_variant_size: 0 0 0 0 0 0 0 0 0 
Heartbeat_Variant_0_evicts 0 : 5642 1 : 69 2 : 65 3 : 0 
Heartbeat_Variant_1_evicts 0 : 71 1 : 0 2 : 301 3 : 0 
Heartbeat_Variant_2_evicts 0 : 64 1 : 300 2 : 0 3 : 0 
Heartbeat_Variant_3_evicts 0 : 0 1 : 0 2 : 0 3 : 0 
Heartbeat CPU 0 instructions: 70000000 cycles: 28755018 heartbeat IPC: 1.34684 cumulative IPC: 1.35329 (Simulation time: 0 hr 12 min 15 sec) 
Cycle: 30000000 FTQ IN: 13520405 FTQ occupancy: 11.6281 DECODE IN: 13520386 DECODE occupancy: 30.0286 ROB IN: 13520383 ROB occupancy: 227.632 ROB OUT: 13520160
Heartbeat_Variant_0 : 1384 0.337891 per_variant_size: 0 1384 0 0 0 0 0 0 0 
Heartbeat_Variant_1 : 1263 0.30835 per_variant_size: 0 572 691 0 0 0 0 0 0 
Heartbeat_Variant_2 : 1359 0.331787 per_variant_size: 0 508 395 344 112 0 0 0 0 
Heartbeat_Variant_3 : 0 0 per_variant_size: 0 0 0 0 0 0 0 0 0 
Heartbeat_Variant_0_evicts 0 : 5609 1 : 2 2 : 1 3 : 0 
Heartbeat_Variant_1_evicts 0 : 1 1 : 0 2 : 245 3 : 0 
Heartbeat_Variant_2_evicts 0 : 2 1 : 244 2 : 0 3 : 0 
Heartbeat_Variant_3_evicts 0 : 0 1 : 0 2 : 0 3 : 0 
Heartbeat CPU 0 instructions: 80000002 cycles: 36063557 heartbeat IPC: 1.36826 cumulative IPC: 1.35824 (Simulation time: 0 hr 14 min 2 sec) 
Cycle: 40000000 FTQ IN: 13661161 FTQ occupancy: 11.5306 DECODE IN: 13661065 DECODE occupancy: 29.9103 ROB IN: 13661008 ROB occupancy: 227.368 ROB OUT: 13660881
Heartbeat_Variant_0 : 1378 0.336426 per_variant_size: 0 1378 0 0 0 0 0 0 0 
Heartbeat_Variant_1 : 1269 0.309814 per_variant_size: 0 582 687 0 0 0 0 0 0 
Heartbeat_Variant_2 : 1377 0.336182 per_variant_size: 0 536 382 351 108 0 0 0 0 
Heartbeat_Variant_3 : 0 0 per_variant_size: 0 0 0 0 0 0 0 0 0 
Heartbeat_Variant_0_evicts 0 : 5717 1 : 133 2 : 165 3 : 0 
Heartbeat_Variant_1_evicts 0 : 145 1 : 0 2 : 358 3 : 0 
Heartbeat_Variant_2_evicts 0 : 160 1 : 370 2 : 0 3 : 0 
Heartbeat_Variant_3_evicts 0 : 0 1 : 0 2 : 0 3 : 0 
Heartbeat CPU 0 instructions: 90000000 cycles: 43496135 heartbeat IPC: 1.34543 cumulative IPC: 1.35502 (Simulation time: 0 hr 15 min 54 sec) 
Cycle: 50000000 FTQ IN: 13542896 FTQ occupancy: 11.6833 DECODE IN: 13542913 DECODE occupancy: 30.2868 ROB IN: 13542923 ROB occupancy: 229.324 ROB OUT: 13542927
*** Reached end of trace for Core: 0 Repeating trace: ./micro_traces/srv514.trace.gz
Heartbeat_Variant_0 : 1379 0.33667 per_variant_size: 0 1379 0 0 0 0 0 0 0 
Heartbeat_Variant_1 : 1272 0.310547 per_variant_size: 0 579 693 0 0 0 0 0 0 
Heartbeat_Variant_2 : 1375 0.335693 per_variant_size: 0 529 386 357 103 0 0 0 0 
Heartbeat_Variant_3 : 0 0 per_variant_size: 0 0 0 0 0 0 0 0 0 
Heartbeat_Variant_0_evicts 0 : 5593 1 : 18 2 : 17 3 : 0 
Heartbeat_Variant_1_evicts 0 : 16 1 : 0 2 : 263 3 : 0 
Heartbeat_Variant_2_evicts 0 : 18 1 : 258 2 : 0 3 : 0 
Heartbeat_Variant_3_evicts 0 : 0 1 : 0 2 : 0 3 : 0 
Heartbeat CPU 0 instructions: 100000002 cycles: 50808077 heartbeat IPC: 1.36763 cumulative IPC: 1.35752 (Simulation time: 0 hr 17 min 31 sec) 
Finished CPU 0 instructions: 50000002 cycles: 36831902 cumulative IPC: 1.35752 (Simulation time: 0 hr 17 min 31 sec) 

ChampSim completed all CPUs

Region of Interest Statistics

CPU 0 cumulative IPC: 1.35752 instructions: 50000002 cycles: 36831902
 Fetch stage stalled: 57.1147  Sim cycles: 36831902 fetch stall cycle: 21036447
 Empty decode stage: 40.9241  Sim cycles: 36831902 fetch stall cycle: 15073130
ITLB TOTAL     ACCESS:    6875676  HIT:    6372742  MISS:     502934  HIT %:    92.6853  MISS %:    7.31468   MPKI: 10.0587
ITLB LOAD TRANSLATION INSTRUCTION	ACCESS:    5660409  HIT:    5180932  MISS:     479477  HIT %:    91.5293  MISS %:    8.47071  MPKI: 9.58954
ITLB TRANSLATION FROM L1D PREFETCHER INSTRUCTION	ACCESS:    1215267  HIT:    1191810  MISS:      23457  HIT %:    98.0698  MISS %:    1.93019  MPKI: 0.46914

ITLB AVERAGE MISS LATENCY: 70578.5 cycles
ITLB RQ	ACCESS:   10145861	FORWARD:          0	MERGED:    2777328	TO_CACHE:    7368533

DTLB TOTAL     ACCESS:    8943235  HIT:    8471048  MISS:     472187  HIT %:    94.7202  MISS %:    5.27982   MPKI: 9.44374
DTLB LOAD TRANSLATION DATA	ACCESS:    8943235  HIT:    8471048  MISS:     472187  HIT %:    94.7202  MISS %:    5.27982  MPKI: 9.44374

DTLB AVERAGE MISS LATENCY: 9.35718 cycles
DTLB RQ	ACCESS:   13298674	FORWARD:          0	MERGED:    4318682	TO_CACHE:    8979992

STLB TOTAL     ACCESS:    1232423  HIT:    1230175  MISS:       2248  HIT %:    99.8176  MISS %:   0.182405   MPKI: 0.04496
STLB LOAD TRANSLATION INSTRUCTION	ACCESS:     478374  HIT:     478118  MISS:        256  HIT %:    99.9465  MISS %:  0.0535146  MPKI: 0.00512
STLB TRANSLATION FROM L1D PREFETCHER INSTRUCTION	ACCESS:      24560  HIT:      24482  MISS:         78  HIT %:    99.6824  MISS %:    0.31759  MPKI: 0.00156
STLB LOAD TRANSLATION DATA	ACCESS:     472187  HIT:     470283  MISS:       1904  HIT %:    99.5968  MISS %:    0.40323  MPKI: 0.03808
STLB TRANSLATION FROM L1D PREFETCHER DATA	ACCESS:     257302  HIT:     257292  MISS:         10  HIT %:    99.9961  MISS %: 0.00388648  MPKI: 0.0002

STLB AVERAGE MISS LATENCY: 72.5529 cycles
STLB RQ	ACCESS:    1425648	FORWARD:          0	MERGED:     146767	TO_CACHE:    1278881

STLB Hit, L1D data hit: 0
STLB Hit, L2C data hit: 0
STLB Hit, LLC data hit: 0
STLB Hit, LLC data miss: 0
STLB STLB hints to L2: 0
L1D TOTAL     ACCESS:   13043462  HIT:   11883746  MISS:    1159716  HIT %:    91.1088  MISS %:    8.89117   MPKI: 23.1943
L1D LOAD DATA	ACCESS:    6555211  HIT:    5789423  MISS:     765788  HIT %:    88.3179  MISS %:    11.6821  MPKI: 15.3158
L1D RFO DATA	ACCESS:    6149717  HIT:    5860919  MISS:     288798  HIT %:    95.3039  MISS %:    4.69612  MPKI: 5.77596
L1D PREFETCH DATA	ACCESS:     338534  HIT:     233404  MISS:     105130  HIT %:    68.9455  MISS %:    31.0545  MPKI: 2.1026

L1D PREFETCH  REQUESTED:     808574  ISSUED:     808574  USEFUL:      48501  USELESS:      70961
L1D USEFUL LOAD PREFETCHES:      48501 PREFETCH ISSUED TO LOWER LEVEL:     119581  ACCURACY: 40.5591
 TIMELY PREFETCHES:      48501 LATE PREFETCHES: 14342 DROPPED PREFETCHES: 6
L1D AVERAGE MISS LATENCY: 405848 cycles
L1D RQ	ACCESS:   10677904	FORWARD:          0	MERGED:    3921039	TO_CACHE:    6593859
L1D WQ	ACCESS:    6901403	FORWARD:     163372	MERGED:     196588	TO_CACHE:    6704815
L1D PQ	ACCESS:     404470	FORWARD:          0	MERGED:          0	TO_CACHE:     404104

L1D UNIQUE REGIONS ACCESSED: 0
L1D REGIONS CONFLICTS: 0
L1D Cross Page Prefetch Requests: 5931
L1D Same Page Prefetch Requests: 819840
L1D ROI Sum of L1D PQ occupancy: 5137940
L1D PREFETCHES PUSHED FROM L2C: 0
L1I TOTAL     ACCESS:    8758634  HIT:    5467509  MISS:    3291125  HIT %:    62.4242  MISS %:    37.5758   MPKI: 65.8225
L1I LOAD INSTRUCTION	ACCESS:    6539082  HIT:    4432655  MISS:    2106427  HIT %:    67.7871  MISS %:    32.2129  MPKI: 42.1285
L1I PREFETCH INSTRUCTION	ACCESS:    2219552  HIT:    1034854  MISS:    1184698  HIT %:    46.6245  MISS %:    53.3755  MPKI: 23.694

L1I PREFETCH  REQUESTED:    3934746  ISSUED:    3930265  USEFUL:     922110  USELESS:     487713
L1I USEFUL LOAD PREFETCHES:     922110 PREFETCH ISSUED TO LOWER LEVEL:    1409829  ACCURACY: 65.4058
 TIMELY PREFETCHES:     922110 LATE PREFETCHES: 225131 DROPPED PREFETCHES: 105725
L1I AVERAGE MISS LATENCY: 2.20735e+06 cycles
L1I RQ	ACCESS:    9498813	FORWARD:          0	MERGED:    2750294	TO_CACHE:    6748519
L1I PQ	ACCESS:    3930265	FORWARD:          0	MERGED:     532923	TO_CACHE:    3397342

L1BTB TOTAL     ACCESS:    5681161  HIT:    2078184  MISS:    3602977  HIT %:    36.5803  MISS %:    63.4197   MPKI: 72.0595
L1BTB BRANCH_DIRECT_JUMP	ACCESS:     545086  HIT:     144166  MISS:     400920	AVERAGE STALL: 49.5057
L1BTB BRANCH_INDIRECT	ACCESS:     181892  HIT:      65660  MISS:     116232	AVERAGE STALL: 106.391
L1BTB BRANCH_CONDITIONAL	ACCESS:    2737889  HIT:    1454265  MISS:    1283624	AVERAGE STALL: 60.5363
L1BTB BRANCH_DIRECT_CALL	ACCESS:     937389  HIT:     104298  MISS:     833091	AVERAGE STALL: 53.4291
L1BTB BRANCH_INDIRECT_CALL	ACCESS:     170769  HIT:      21331  MISS:     149438	AVERAGE STALL: 125.029
L1BTB BRANCH_RETURN	ACCESS:    1108136  HIT:     288464  MISS:     819672	AVERAGE STALL: 47.9131
L1BTB BRANCH_OTHER ACCESS:          0  HIT:          0  MISS:          0	AVERAGE STALL: -nan
L1BTB TOTAL ROB OCCUPANCY AT BTB MISS: 5.05445

L2BTB TOTAL     ACCESS:    3577675  HIT:    3471550  MISS:     106125  HIT %:    97.0337  MISS %:    2.96631   MPKI: 2.1225
L2BTB BRANCH_DIRECT_JUMP	ACCESS:     396759  HIT:     390176  MISS:       6583	AVERAGE STALL: 49.5057
L2BTB BRANCH_INDIRECT	ACCESS:     106012  HIT:     103359  MISS:       2653	AVERAGE STALL: 106.391
L2BTB BRANCH_CONDITIONAL	ACCESS:    1283624  HIT:    1263008  MISS:      20616	AVERAGE STALL: 60.5363
L2BTB BRANCH_DIRECT_CALL	ACCESS:     833091  HIT:     831741  MISS:       1350	AVERAGE STALL: 53.4291
L2BTB BRANCH_INDIRECT_CALL	ACCESS:     139918  HIT:     129744  MISS:      10174	AVERAGE STALL: 125.029
L2BTB BRANCH_RETURN	ACCESS:     818271  HIT:     753522  MISS:      64749	AVERAGE STALL: 47.9131
L2BTB BRANCH_OTHER ACCESS:          0  HIT:          0  MISS:          0	AVERAGE STALL: -nan
L2BTB TOTAL ROB OCCUPANCY AT BTB MISS: 171.6

L2C TOTAL     ACCESS:    5744620  HIT:    4799565  MISS:     945055  HIT %:    83.5489  MISS %:    16.4511   MPKI: 18.9011
L2C LOAD INSTRUCTION	ACCESS:    1881298  HIT:    1606053  MISS:     275245  HIT %:    85.3694  MISS %:    14.6306  MPKI: 5.5049
L2C PREFETCH INSTRUCTION	ACCESS:    1409829  HIT:    1199885  MISS:     209944  HIT %:    85.1085  MISS %:    14.8915  MPKI: 4.19888
L2C LOAD TRANSLATION INSTRUCTION	ACCESS:        287  HIT:         90  MISS:        197  HIT %:    31.3589  MISS %:    68.6411  MPKI: 0.00394
L2C TRANSLATION FROM L1D PREFETCHER INSTRUCTION	ACCESS:      67116  HIT:      43944  MISS:      23172  HIT %:    65.4747  MISS %:    34.5253  MPKI: 0.46344
L2C LOAD DATA	ACCESS:     751401  HIT:     621285  MISS:     130116  HIT %:    82.6835  MISS %:    17.3165  MPKI: 2.60232
L2C RFO DATA	ACCESS:     288678  HIT:     212106  MISS:      76572  HIT %:    73.4749  MISS %:    26.5251  MPKI: 1.53144
L2C PREFETCH DATA	ACCESS:     818407  HIT:     621918  MISS:     196489  HIT %:    75.9913  MISS %:    24.0087  MPKI: 3.92978
L2C WRITEBACK DATA	ACCESS:     525588  HIT:     493775  MISS:      31813  HIT %:    93.9472  MISS %:    6.05284  MPKI: 0.63626
L2C LOAD TRANSLATION DATA	ACCESS:       1995  HIT:        494  MISS:       1501  HIT %:    24.7619  MISS %:    75.2381  MPKI: 0.03002
L2C TRANSLATION FROM L1D PREFETCHER DATA	ACCESS:         21  HIT:         15  MISS:          6  HIT %:    71.4286  MISS %:    28.5714  MPKI: 0.00012

L2C PREFETCH  REQUESTED:    1488100  ISSUED:    1488100  USEFUL:      36013  USELESS:     396567
L2C USEFUL LOAD PREFETCHES:      36013 PREFETCH ISSUED TO LOWER LEVEL:     408589  ACCURACY: 8.81399
 TIMELY PREFETCHES:      36013 LATE PREFETCHES: 2156 DROPPED PREFETCHES: 0
L2C AVERAGE MISS LATENCY: 34.42 cycles
L2C RQ	ACCESS:    2990853	FORWARD:          0	MERGED:          0	TO_CACHE:    2990797
L2C WQ	ACCESS:     525588	FORWARD:         56	MERGED:          0	TO_CACHE:     525588
L2C PQ	ACCESS:    3017510	FORWARD:          0	MERGED:     773193	TO_CACHE:    2244317

L2C Dense regions hint from L2: 0
PSCL5 TOTAL     ACCESS:      97356  HIT:      48678  MISS:      48678  HIT %:         50  MISS %:         50   MPKI: 0.97356
PSCL5 LOAD TRANSLATION INSTRUCTION	ACCESS:       4312  HIT:       2156  MISS:       2156  HIT %:         50  MISS %:         50  MPKI: 0.04312
PSCL5 TRANSLATION FROM L1D PREFETCHER INSTRUCTION	ACCESS:      93044  HIT:      46522  MISS:      46522  HIT %:         50  MISS %:         50  MPKI: 0.93044


PSCL4 TOTAL     ACCESS:      72143  HIT:      36068  MISS:      36075  HIT %:    49.9951  MISS %:    50.0049   MPKI: 0.7215
PSCL4 LOAD TRANSLATION INSTRUCTION	ACCESS:       2993  HIT:       1713  MISS:       1280  HIT %:    57.2335  MISS %:    42.7665  MPKI: 0.0256
PSCL4 TRANSLATION FROM L1D PREFETCHER INSTRUCTION	ACCESS:      52891  HIT:      34355  MISS:      18536  HIT %:    64.9543  MISS %:    35.0457  MPKI: 0.37072
PSCL4 LOAD TRANSLATION DATA	ACCESS:        440  HIT:          0  MISS:        440  HIT %:          0  MISS %:        100  MPKI: 0.0088
PSCL4 TRANSLATION FROM L1D PREFETCHER DATA	ACCESS:      15819  HIT:          0  MISS:      15819  HIT %:          0  MISS %:        100  MPKI: 0.31638


PSCL3 TOTAL     ACCESS:      87323  HIT:      43655  MISS:      43668  HIT %:    49.9926  MISS %:    50.0074   MPKI: 0.87336
PSCL3 LOAD TRANSLATION INSTRUCTION	ACCESS:       2989  HIT:       2094  MISS:        895  HIT %:    70.0569  MISS %:    29.9431  MPKI: 0.0179
PSCL3 TRANSLATION FROM L1D PREFETCHER INSTRUCTION	ACCESS:      60478  HIT:      41561  MISS:      18917  HIT %:    68.7209  MISS %:    31.2791  MPKI: 0.37834
PSCL3 LOAD TRANSLATION DATA	ACCESS:       1212  HIT:          0  MISS:       1212  HIT %:          0  MISS %:        100  MPKI: 0.02424
PSCL3 TRANSLATION FROM L1D PREFETCHER DATA	ACCESS:      22644  HIT:          0  MISS:      22644  HIT %:          0  MISS %:        100  MPKI: 0.45288


PSCL2 TOTAL     ACCESS:      61091  HIT:      30488  MISS:      30603  HIT %:    49.9059  MISS %:    50.0941   MPKI: 0.61206
PSCL2 LOAD TRANSLATION INSTRUCTION	ACCESS:       2316  HIT:       2048  MISS:        268  HIT %:    88.4283  MISS %:    11.5717  MPKI: 0.00536
PSCL2 TRANSLATION FROM L1D PREFETCHER INSTRUCTION	ACCESS:      53565  HIT:      28440  MISS:      25125  HIT %:    53.0944  MISS %:    46.9056  MPKI: 0.5025
PSCL2 LOAD TRANSLATION DATA	ACCESS:       1895  HIT:          0  MISS:       1895  HIT %:          0  MISS %:        100  MPKI: 0.0379
PSCL2 TRANSLATION FROM L1D PREFETCHER DATA	ACCESS:       3315  HIT:          0  MISS:       3315  HIT %:          0  MISS %:        100  MPKI: 0.0663


LLC TOTAL     ACCESS:    1033302  HIT:    1001328  MISS:      31974  HIT %:    96.9056  MISS %:    3.09435   MPKI: 0.63948
LLC LOAD INSTRUCTION	ACCESS:     274006  HIT:     273433  MISS:        573  HIT %:    99.7909  MISS %:    0.20912  MPKI: 0.01146
LLC PREFETCH INSTRUCTION	ACCESS:     208704  HIT:     207284  MISS:       1420  HIT %:    99.3196  MISS %:   0.680389  MPKI: 0.0284
LLC LOAD TRANSLATION INSTRUCTION	ACCESS:        197  HIT:        191  MISS:          6  HIT %:    96.9543  MISS %:    3.04569  MPKI: 0.00012
LLC TRANSLATION FROM L1D PREFETCHER INSTRUCTION	ACCESS:      23172  HIT:      23053  MISS:        119  HIT %:    99.4864  MISS %:   0.513551  MPKI: 0.00238
LLC LOAD DATA	ACCESS:     129352  HIT:     125341  MISS:       4011  HIT %:    96.8992  MISS %:    3.10084  MPKI: 0.08022
LLC RFO DATA	ACCESS:      76399  HIT:      62929  MISS:      13470  HIT %:    82.3689  MISS %:    17.6311  MPKI: 0.2694
LLC PREFETCH DATA	ACCESS:     199881  HIT:     187923  MISS:      11958  HIT %:    94.0174  MISS %:    5.98256  MPKI: 0.23916
LLC WRITEBACK DATA	ACCESS:     120084  HIT:     119787  MISS:        297  HIT %:    99.7527  MISS %:   0.247327  MPKI: 0.00594
LLC LOAD TRANSLATION DATA	ACCESS:       1501  HIT:       1382  MISS:        119  HIT %:     92.072  MISS %:    7.92805  MPKI: 0.00238
LLC TRANSLATION FROM L1D PREFETCHER DATA	ACCESS:          6  HIT:          5  MISS:          1  HIT %:    83.3333  MISS %:    16.6667  MPKI: 2e-05

LLC AVERAGE MISS LATENCY: 159.495 cycles
LLC RQ	ACCESS:     504653	FORWARD:          0	MERGED:          0	TO_CACHE:     504633
LLC WQ	ACCESS:     120084	FORWARD:         24	MERGED:          0	TO_CACHE:     120084
LLC PQ	ACCESS:     408589	FORWARD:          0	MERGED:          0	TO_CACHE:     408585

LLC Dense regions hint to LLC: 0

RAW hits: 1926184
Loads Generated: 12604088
Loads sent to L1D: 10677904
Stores Generated: 6901384
Stores sent to L1D: 6901403
Major fault: 0 Minor fault: 2600
Allocated PAGES: 2600
I-Shadow cache 408 bytes
Touched + WorthPF tables 12288 bytes 
MMA filter 42 bytes 
FNL filter 272 bytes 
TOTAL PREFETCHER STORAGE SIZE: 19922 bytes
CPU 0 L1I next line prefetcher final stats

stream: 
stream:times selected: 1258609
stream:pref_filled: 125310
stream:pref_useful: 27623
stream:pref_late: 10701
stream:misses: 10813
stream:misses_by_poll: 0

CS: 
CS:times selected: 197948
CS:pref_filled: 71344
CS:pref_useful: 47691
CS:pref_late: 13140
CS:misses: 28038
CS:misses_by_poll: 6

CPLX: 
CPLX:times selected: 1059557
CPLX:pref_filled: 24441
CPLX:pref_useful: 7192
CPLX:pref_late: 4818
CPLX:misses: 131795
CPLX:misses_by_poll: 2

NL_L1: 
NL:times selected: 12852
NL:pref_filled: 1061
NL:pref_useful: 232
NL:pref_late: 546
NL:misses: 2090
NL:misses_by_poll: 0

total selections: 2528966
total_filled: 105130
total_useful: 48501
total_late: 31655
total_polluted: 8
total_misses_after_warmup: 804436
conflicts: 5483972

test: 120645

DRAM Statistics
 CHANNEL 0
 RQ ROW_BUFFER_HIT:      10444  ROW_BUFFER_MISS:      21225
 DBUS_CONGESTED:         11
 WQ ROW_BUFFER_HIT:       1516  ROW_BUFFER_MISS:      13328  FULL:          0

 AVG_CONGESTED_CYCLE: 4

CPU 0 Branch Prediction Accuracy: 99.8227% MPKI: 0.3247 Average ROB Occupancy at Mispredict: 185.786
Branch types
NOT_BRANCH: 40841967 81.6839%
BRANCH_DIRECT_JUMP: 545086 1.09017%
BRANCH_INDIRECT: 181892 0.363784%
BRANCH_CONDITIONAL: 6214596 12.4292%
BRANCH_DIRECT_CALL: 937389 1.87478%
BRANCH_INDIRECT_CALL: 170769 0.341538%
BRANCH_RETURN: 1108136 2.21627%
BRANCH_OTHER: 0 0%

DRAM PAGES: 1048576
Allocated PAGES: 2600
Average_ROB_Occupancy: 229.033
Average_Decode_Occupancy: 29.9741
Average_FTQ_Occupancy: 11.5595
Indirect max targets: 14 Average targets: 1.14478
Branch_type:  BRANCH_DIRECT_JUMP:  Count Percentage: 3.32705 6.00621 4.2378 7.9044 3.31511 6.01944 1.18464 68.0054 
Branch_type:  BRANCH_INDIRECT:  Count Percentage: 6.14169 3.48153 8.18425 9.67574 3.33826 2.80288 3.06906 63.3066 
Branch_type:  BRANCH_CONDITIONAL:  Count Percentage: 26.0831 2.72406 1.6215 4.56803 2.01565 3.53613 0.919638 58.5319 
Branch_type:  BRANCH_DIRECT_CALL:  Count Percentage: 0.847597 1.23517 0.745458 3.7102 3.21163 2.62085 0.834622 86.7945 
Branch_type:  BRANCH_INDIRECT_CALL:  Count Percentage: 9.5113 0 2.98331 0 1.28367 1.70462 3.28056 81.2365 
Branch_type:  BRANCH_RETURN:  Count Percentage: 8.21507 1.23954 1.20248 3.67014 4.41065 3.49654 1.25485 76.5107 
Branch_type:  BRANCH_DIRECT_JUMP:  Total Count: 36224 65394 46140 86061 36094 65538 12898 740424 
Branch_type:  BRANCH_INDIRECT:  Total Count: 22335 12661 29763 35187 12140 10193 11161 230222 
Branch_type:  BRANCH_CONDITIONAL:  Total Count: 3239237 338298 201372 567300 250322 439149 114209 7269020 
Branch_type:  BRANCH_DIRECT_CALL:  Total Count: 15875 23134 13962 69490 60152 49087 15632 1625611 
Branch_type:  BRANCH_INDIRECT_CALL:  Total Count: 32446 0 10177 0 4379 5815 11191 277123 
Branch_type:  BRANCH_RETURN:  Total Count: 181951 27454 26633 81288 97689 77443 27793 1694594 
Number of unique branch instructions: 10054
Upper 32 bits: 
aaaa
ffff
ffff0000
Unique upper 32 bits: 3
Unique upper 36 bits: 3
Unique upper 40 bits: 5
Unique upper 44 bits: 32
Unique upper 48 bits: 157
Variant_0 : 1379 0.33667
Variant_1 : 1272 0.310547
Variant_2 : 1375 0.335693
Variant_3 : 0 0
Offset_3 4136
Offset_4 251
Offset_5 460
Offset_6 515
Offset_7 583
Offset_8 514
Offset_9 482
Offset_10 381
Offset_11 314
Offset_12 272
Offset_13 215
Offset_14 229
Offset_15 192
Offset_16 224
Offset_17 151
Offset_18 126
Offset_19 240
Offset_20 140
Offset_21 241
Offset_22 397
Offset_23 241
Offset_24 333
Offset_25 88
Offset_47 82
Offset_64 1
decode_dispatch_called: 24301267 65.9789
Dispatch_width: 0 12915395 53.147 35.0658
Dispatch_width: 1 841144 3.46132 2.28374
Dispatch_width: 2 786665 3.23714 2.13583
Dispatch_width: 3 472449 1.94413 1.28272
Dispatch_width: 4 4677163 19.2466 12.6987
Dispatch_width: 5 191238 0.786947 0.519218
Dispatch_width: 6 4417213 18.1769 11.9929
Empty_decode_cycles: 12530635 34.0211
ROB_full_cycles: 7541191 20.4746
Starvation_cycles_per_kilo_instr: 248.735
Starvation_cycles_per_kilo_instr_3: 200.051
Starvation_cycles_per_kilo_instr_0: 179.048
Branch_type_1  (3,1)  (4,9)  (5,37)  (6,71)  (7,114)  (8,130)  (9,127)  (10,99)  (11,70)  (12,43)  (13,5)  (14,2)  (15,3)  (16,4)  (18,1)  (19,4)  (20,2)  (21,1)  (22,3)  (23,2)  (24,10)  (25,12) 
Branch_type_2  (3,1)  (5,1)  (8,3)  (9,3)  (12,1)  (13,1)  (14,1)  (16,3)  (17,2)  (20,2)  (21,2)  (23,5)  (24,1)  (47,38) 
Branch_type_3  (3,4134)  (4,242)  (5,418)  (6,429)  (7,440)  (8,320)  (9,267)  (10,156)  (11,127)  (12,50)  (13,4)  (64,1) 
Branch_type_4  (6,3)  (7,8)  (8,25)  (9,52)  (10,60)  (11,59)  (12,97)  (13,95)  (14,101)  (15,90)  (16,100)  (17,67)  (18,57)  (19,118)  (20,73)  (21,127)  (22,211)  (23,136)  (24,194)  (25,72) 
Branch_type_5  (8,2)  (9,1)  (10,3)  (11,5)  (12,3)  (13,14)  (14,16)  (15,11)  (16,20)  (17,12)  (18,16)  (19,12)  (20,10)  (21,13)  (22,42)  (23,26)  (24,37) 
Branch_type_6  (5,4)  (6,12)  (7,21)  (8,34)  (9,32)  (10,63)  (11,53)  (12,78)  (13,96)  (14,109)  (15,88)  (16,97)  (17,70)  (18,52)  (19,106)  (20,53)  (21,98)  (22,141)  (23,72)  (24,91)  (25,4)  (47,44) 
Unique trigger count: 
Variant_0_evicts_0 : 0
Variant_0_evicts_1 : 0
Variant_0_evicts_2 : 0
Variant_0_evicts_3 : 0
Variant_1_evicts_0 : 0
Variant_1_evicts_1 : 0
Variant_1_evicts_2 : 0
Variant_1_evicts_3 : 0
Variant_2_evicts_0 : 0
Variant_2_evicts_1 : 0
Variant_2_evicts_2 : 0
Variant_2_evicts_3 : 0
Variant_3_evicts_0 : 0
Variant_3_evicts_1 : 0
Variant_3_evicts_2 : 0
Variant_3_evicts_3 : 0
BTB PER SET UNIQUE ADDR: 15 13 10 16 9 15 6 12 11 14 10 18 13 13 9 7 5 10 13 10 13 11 11 9 12 16 9 13 13 9 14 11 10 10 6 12 10 13 8 7 8 13 11 15 8 8 8 8 16 9 14 15 12 10 7 6 9 10 7 10 9 10 10 10 15 12 8 12 13 10 5 8 11 11 9 10 7 13 9 16 10 8 8 13 6 15 8 8 9 16 6 4 16 8 10 13 9 8 8 16 14 16 16 9 12 9 11 12 10 9 10 14 12 12 8 5 14 13 12 6 12 7 7 9 14 11 7 11 16 10 8 12 11 12 8 9 8 13 12 15 10 11 11 9 10 7 12 10 7 10 14 15 11 12 11 10 21 12 11 9 13 10 7 13 9 8 11 10 12 10 11 12 12 8 12 8 11 14 10 6 8 7 7 8 19 12 5 12 15 13 11 10 10 15 12 8 11 14 10 15 13 10 10 8 10 10 15 11 11 10 10 13 9 14 11 11 10 13 13 22 6 16 9 6 10 10 18 8 9 14 8 7 8 14 10 10 5 12 12 6 9 10 14 9 6 11 8 9 9 9 18 8 13 10 13 12 10 6 8 8 7 11 6 9 13 8 8 10 8 11 8 13 8 7 9 7 10 10 12 8 9 8 10 10 15 9 10 19 15 10 13 9 11 19 6 14 9 15 10 10 7 9 11 15 10 15 10 12 17 11 8 15 8 16 12 6 14 9 9 11 6 12 12 12 10 13 12 11 7 7 11 11 7 12 10 11 13 11 7 13 9 9 5 12 11 9 13 13 8 11 10 6 9 16 12 16 11 15 7 11 12 10 8 11 13 15 7 8 10 11 8 10 15 12 9 12 11 17 11 8 10 10 11 8 9 10 16 11 9 10 18 7 15 15 8 5 10 10 14 13 8 6 11 10 12 11 13 12 13 11 9 6 10 13 8 9 13 11 14 11 8 10 9 10 12 12 8 11 10 8 14 11 10 13 9 11 14 10 6 10 13 8 8 12 17 7 10 12 14 11 13 13 11 10 13 14 13 15 9 15 8 13 13 13 18 10 8 13 11 15 16 13 9 9 14 18 12 14 8 14 9 15 10 15 8 12 20 10 11 12 10 14 15 7 10 16 11 8 14 12 12 17 10 19 6 13 10 18 12 9 10 16 7 16 8 11 10 13 9 10 6 6 9 9 13 10 15 7 7 16 10 15 13 10 13 12 11 14 16 16 15 11 9 13 18 19 9 14 10 10 11 10 9 11 10 11 13 9 12 14 8 17 10 10 13 8 8 10 10 14 8 9 17 11 9 18 15 14 11 11 12 8 5 7 12 12 14 9 20 10 11 14 10 13 17 10 9 9 11 11 15 9 9 8 10 14 11 9 11 10 15 14 10 12 6 17 10 12 12 12 16 16 7 9 9 13 8 16 9 16 10 13 11 9 11 9 13 17 9 15 7 14 9 20 12 13 13 12 11 7 9 11 7 14 10 10 10 17 10 10 10 6 15 15 12 13 8 13 12 14 16 13 9 15 13 8 15 11 12 14 13 13 12 15 11 12 8 11 14 16 12 11 14 8 10 8 10 10 10 15 7 12 14 12 8 9 9 10 7 8 9 12 9 7 7 9 10 11 7 13 11 11 9 11 11 10 9 9 6 11 10 9 14 10 8 10 13 12 16 13 12 10 10 8 12 16 13 10 14 11 13 9 10 14 10 10 15 9 9 8 8 5 7 12 8 13 6 13 14 11 8 19 7 7 8 10 12 10 17 13 7 15 7 12 13 14 12 9 10 6 4 8 8 11 15 14 12 9 14 8 15 9 15 13 24 11 15 12 9 9 12 13 11 16 9 17 16 15 5 13 8 14 8 14 13 11 13 10 9 16 10 13 9 12 10 11 11 13 14 8 13 10 13 14 13 17 8 12 9 9 7 8 13 12 14 13 13 13 17 10 14 6 10 9 18 12 14 13 16 11 6 9 14 13 15 6 10 7 9 11 15 9 15 15 14 9 10 12 10 14 10 10 11 10 11 7 14 5 10 7 13 6 15 13 6 14 11 11 15 16 10 11 7 11 10 9 18 14 10 6 7 17 13 10 8 7 10 8 6 7 16 11 13 12 8 15 9 11 10 10 9 19 11 11 11 16 11 14 12 15 11 11 8 14 11 12 9 11 16 10 13 8 13 20 7 6 12 11 7 14 13 15 17 9 16 9 10 13 14 18 10 13 10 10 11 17 14 12 13 11 11 14 9 15 12 9 8 13 14 12 17 14 9 10 16 14 7 14 8 17 13 11 9 8 10 12 3 7 6 10 14 18 12 9 
BTB PER SET COUNT: 2257 567 2418 1175 2299 398 749 543 3912 2100 2195 2559 1736 1112 3746 3243 6 1931 81 22 1411 170 3337 212 3979 556 9 881 234 1453 6905 926 11 1230 270 888 3160 102 1055 687 1497 1855 30 2061 277 47 15 11 3055 1641 50 2787 258 307 821 217 2271 2926 10 18 15 1450 93 771 2072 2874 613 1069 21 105 1918 3731 375 2599 724 206 271 5082 256 670 953 1948 2998 849 737 1312 8 9 30 2733 24 9 2089 3730 728 3512 631 9 875 11017 1104 3426 3214 490 8079 87 1276 59 3806 1202 2290 25 1521 2446 774 6 1914 729 3957 2656 1162 3887 2274 2071 3682 2510 10 15 4373 6332 784 844 17 1431 587 28 2605 13 3388 1538 11 20 28 941 4455 3312 1615 535 65 2807 4077 5926 3618 49 2272 4781 317 6060 139 13 2571 1816 268 2932 1326 8 622 1493 409 1865 353 874 65 33 3303 1429 3015 3692 2101 1169 1865 95 168 9 3234 4892 3063 718 2278 3161 910 2807 745 2438 975 7184 2124 4657 1262 4308 5155 239 664 55 4190 17 1995 2089 19 718 1987 1045 4172 1996 1690 2209 2728 2064 2878 212 14 948 13 5567 959 3145 654 3242 1925 1279 235 531 512 2157 1014 24939 995 4794 172 1156 1266 3893 783 1480 7 7907 1860 5167 203 34 1729 20 2546 2231 19 1120 6670 9 390 14 11 2888 8 2340 3403 1130 10 4208 702 2514 1776 3116 1953 3265 896 31 18 4743 1874 796 25 1141 3136 3344 6261 179 1383 2303 8461 1913 1263 791 42 1220 10 807 4166 3274 5385 4813 2973 1494 4189 36 1869 537 36 1273 1105 537 212 6099 117 2230 676 3007 1633 22 726 142 839 7178 149 801 11771 5915 2015 1173 9 990 878 3204 11 125 96 882 2637 4272 20 836 1180 2455 2380 2565 1255 128 4362 2889 713 1957 589 1757 1704 29 692 12642 17 7315 385 734 27 1310 529 966 6458 628 3755 1216 520 6160 20 2625 270 1926 25 2168 3774 2672 21 1802 1355 1314 3350 1040 2648 61 1775 250 227 1079 507 274 499 483 1013 1139 2518 72 3443 3062 364 748 1304 510 95 844 17 61 92 29 19 623 3393 49 511 124 1025 2772 5430 4325 8 23 1611 359 1799 510 15 3449 20 1977 31 21 1226 568 517 21 2524 497 544 933 2232 1831 3667 235 6358 2416 1969 15 132 16 1754 50 1243 4974 1466 258 784 3888 266 4852 10 4824 3001 2099 725 3728 16334 56 8776 3024 699 38 647 1843 149 2436 286 2384 997 857 13 3896 3311 896 1747 49 958 159 4880 1518 1889 889 4313 10 2387 3065 7805 185 2930 1425 21 8980 3042 1668 953 492 1626 2219 9618 1052 2617 7133 684 8718 1072 3116 337 4083 100 217 1852 11 19 1471 1500 1048 2065 123 10 4376 20 714 1719 942 272 1484 5311 1366 390 756 522 4474 1655 342 1709 5550 988 1704 514 109 3915 1367 1454 7327 135 519 472 1256 86 438 59 1895 903 36 1545 57 92 549 17 1652 829 166 3968 39 3195 11895 3134 3242 1881 1486 400 10 12 3235 1009 58 4328 1151 5962 674 263 5254 1281 3437 3051 1960 604 217 567 5756 1682 434 1678 159 1306 6440 2481 4769 539 16 3317 1961 52 1741 1533 2462 1958 191 786 1826 4395 28 13 1488 2062 622 10 8411 1948 5752 689 104 1938 6076 1805 339 4639 2023 156 760 1542 3217 3538 3929 2878 24 4781 27 1858 19 2227 2549 1409 2009 282 1343 14 2236 2968 4873 1636 6 2362 1074 471 1311 26 1815 7294 164 1973 305 2768 1390 417 75 5214 921 16 2223 115 1649 3002 1680 2669 278 21 469 2462 3881 4587 723 5845 11 1081 17 966 24 19 803 181 660 2785 2803 244 415 1293 3277 2309 1605 2092 19 518 588 3180 155 541 2202 8 56 1238 4457 11 606 5017 1756 992 11 7 216 425 314 29 834 8 4933 5335 1001 1411 6962 1745 1134 2571 750 15 4181 3095 2659 116 696 1491 54 12 4242 2851 567 457 1797 67 64 18 2043 795 2054 2972 876 6 4199 62 1719 297 896 2878 1433 1925 25 4378 1249 375 267 169 4330 1135 576 2869 487 1525 1382 4129 6 1606 1958 1062 5803 1055 5435 110 860 565 1814 33 20 868 473 1697 1365 3454 799 248 3406 2381 3835 772 1330 2366 496 1501 2774 470 2385 1082 4773 243 853 238 1631 3350 87 10 898 247 2154 1463 527 1701 549 1139 4173 3788 413 1105 15 1867 1465 2053 1619 13 1320 2966 1411 3166 1556 7146 1010 4716 661 2398 129 855 2758 3167 5587 5176 405 3286 586 1695 643 7019 1162 6 416 711 4226 3785 1369 3209 2826 1802 215 2623 2864 3119 4636 3198 5356 2677 1808 1244 1261 253 717 1805 4189 466 9 1845 5 1204 65 4284 6 2735 561 9 1089 724 2225 1895 1162 1452 983 976 2202 3485 311 4899 1490 533 192 3025 2830 1019 1076 22 2124 3481 10 7 74 486 160 2543 3033 1504 4079 3349 975 12 211 4475 3251 2465 2964 3969 2035 846 1537 446 546 1930 1270 5636 3759 3662 2599 1538 39 2289 774 1413 172 3958 1606 1147 499 1000 2358 1248 2012 198 2524 30 2246 5657 1101 12 3090 2423 5420 13 2735 1203 1038 570 4382 765 3285 1901 1498 2309 1540 11 332 861 3891 540 1667 22 116 867 2375 222 17 46 2502 378 2780 15 6434 750 21 1279 781 407 2223 4 7 1464 14 928 6310 943 687 
To predecode: 1184698
Predecoding something: 742822
Predecode request dropped: 0
sizeofblock_0 0
sizeofblock_1 311978
sizeofblock_2 444794
sizeofblock_3 784205
sizeofblock_4 220921
sizeofblock_5 0
sizeofblock_6 0
sizeofblock_7 0
sizeofblock_8 0
Variant_0 Correct: 1599854 Incorrect: 0 Accuracy: 1
Variant_1 Correct: 2072940 Incorrect: 0 Accuracy: 1
Variant_2 Correct: 5006284 Incorrect: 0 Accuracy: 1
Variant_3 Correct: 0 Incorrect: 0 Accuracy: -nan
