
*** ChampSim Multicore Out-of-Order Simulator ***

Warmup Instructions: 50000000
Simulation Instructions: 50000000
Number of CPUs: 1
LLC sets: 2048
LLC ways: 16
Off-chip DRAM Size: 4096 MB Channels: 1 Width: 64-bit Data Rate: 6400 MT/s
CPU 0 runs ./micro_traces/srv563.trace.gz
.gz
ITLB has LRU replacement policy
DTLB has LRU replacement policy
STLB has LRU replacement policy
FDIP Prefetcher at L1I
L1I has LRU replacement policy
L1D has LRU replacement policy
Initialize SRRIP state for L2C
Initialize DRRIP state for LLC
Heartbeat_Variant_0 : 1049 0.256104 per_variant_size: 0 1049 0 0 0 0 0 0 0 
Heartbeat_Variant_1 : 2233 0.545166 per_variant_size: 0 451 1782 0 0 0 0 0 0 
Heartbeat_Variant_2 : 0 0 per_variant_size: 0 0 0 0 0 0 0 0 0 
Heartbeat_Variant_3 : 0 0 per_variant_size: 0 0 0 0 0 0 0 0 0 
Heartbeat_Variant_0_evicts 0 : 21647 1 : 18229 2 : 0 3 : 0 
Heartbeat_Variant_1_evicts 0 : 18283 1 : 0 2 : 0 3 : 0 
Heartbeat_Variant_2_evicts 0 : 0 1 : 0 2 : 0 3 : 0 
Heartbeat_Variant_3_evicts 0 : 0 1 : 0 2 : 0 3 : 0 
Heartbeat CPU 0 instructions: 10000000 cycles: 2797838 heartbeat IPC: 3.57419 cumulative IPC: 3.57419 (Simulation time: 0 hr 2 min 19 sec) 
Heartbeat_Variant_0 : 1073 0.261963 per_variant_size: 0 1073 0 0 0 0 0 0 0 
Heartbeat_Variant_1 : 2282 0.557129 per_variant_size: 0 436 1846 0 0 0 0 0 0 
Heartbeat_Variant_2 : 0 0 per_variant_size: 0 0 0 0 0 0 0 0 0 
Heartbeat_Variant_3 : 0 0 per_variant_size: 0 0 0 0 0 0 0 0 0 
Heartbeat_Variant_0_evicts 0 : 21827 1 : 18331 2 : 0 3 : 0 
Heartbeat_Variant_1_evicts 0 : 18323 1 : 0 2 : 0 3 : 0 
Heartbeat_Variant_2_evicts 0 : 0 1 : 0 2 : 0 3 : 0 
Heartbeat_Variant_3_evicts 0 : 0 1 : 0 2 : 0 3 : 0 
Heartbeat CPU 0 instructions: 20000000 cycles: 5594645 heartbeat IPC: 3.57551 cumulative IPC: 3.57485 (Simulation time: 0 hr 4 min 33 sec) 
Heartbeat_Variant_0 : 1091 0.266357 per_variant_size: 0 1091 0 0 0 0 0 0 0 
Heartbeat_Variant_1 : 2333 0.56958 per_variant_size: 0 429 1904 0 0 0 0 0 0 
Heartbeat_Variant_2 : 0 0 per_variant_size: 0 0 0 0 0 0 0 0 0 
Heartbeat_Variant_3 : 0 0 per_variant_size: 0 0 0 0 0 0 0 0 0 
Heartbeat_Variant_0_evicts 0 : 21907 1 : 18650 2 : 0 3 : 0 
Heartbeat_Variant_1_evicts 0 : 18649 1 : 0 2 : 0 3 : 0 
Heartbeat_Variant_2_evicts 0 : 0 1 : 0 2 : 0 3 : 0 
Heartbeat_Variant_3_evicts 0 : 0 1 : 0 2 : 0 3 : 0 
Heartbeat CPU 0 instructions: 30000002 cycles: 8391327 heartbeat IPC: 3.57567 cumulative IPC: 3.57512 (Simulation time: 0 hr 6 min 51 sec) 
Heartbeat_Variant_0 : 1083 0.264404 per_variant_size: 0 1083 0 0 0 0 0 0 0 
Heartbeat_Variant_1 : 2342 0.571777 per_variant_size: 0 427 1915 0 0 0 0 0 0 
Heartbeat_Variant_2 : 0 0 per_variant_size: 0 0 0 0 0 0 0 0 0 
Heartbeat_Variant_3 : 0 0 per_variant_size: 0 0 0 0 0 0 0 0 0 
Heartbeat_Variant_0_evicts 0 : 21897 1 : 18681 2 : 0 3 : 0 
Heartbeat_Variant_1_evicts 0 : 18689 1 : 0 2 : 0 3 : 0 
Heartbeat_Variant_2_evicts 0 : 0 1 : 0 2 : 0 3 : 0 
Heartbeat_Variant_3_evicts 0 : 0 1 : 0 2 : 0 3 : 0 
Heartbeat CPU 0 instructions: 40000000 cycles: 11187438 heartbeat IPC: 3.5764 cumulative IPC: 3.57544 (Simulation time: 0 hr 9 min 2 sec) 
Heartbeat_Variant_0 : 1091 0.266357 per_variant_size: 0 1091 0 0 0 0 0 0 0 
Heartbeat_Variant_1 : 2334 0.569824 per_variant_size: 0 418 1916 0 0 0 0 0 0 
Heartbeat_Variant_2 : 0 0 per_variant_size: 0 0 0 0 0 0 0 0 0 
Heartbeat_Variant_3 : 0 0 per_variant_size: 0 0 0 0 0 0 0 0 0 
Heartbeat_Variant_0_evicts 0 : 22067 1 : 18646 2 : 0 3 : 0 
Heartbeat_Variant_1_evicts 0 : 18638 1 : 0 2 : 0 3 : 0 
Heartbeat_Variant_2_evicts 0 : 0 1 : 0 2 : 0 3 : 0 
Heartbeat_Variant_3_evicts 0 : 0 1 : 0 2 : 0 3 : 0 
Heartbeat CPU 0 instructions: 50000003 cycles: 13983414 heartbeat IPC: 3.57657 cumulative IPC: 3.57566 (Simulation time: 0 hr 10 min 58 sec) 

Warmup complete CPU 0 instructions: 50000003 cycles: 13983414 (Simulation time: 0 hr 10 min 58 sec) 

Cycle: 20000000 FTQ IN: 56948321 FTQ occupancy: 18.1792 DECODE IN: 56948282 DECODE occupancy: 46.5892 ROB IN: 56948268 ROB occupancy: 281.644 ROB OUT: 56948249
Heartbeat_Variant_0 : 1077 0.262939 per_variant_size: 0 1077 0 0 0 0 0 0 0 
Heartbeat_Variant_1 : 2351 0.573975 per_variant_size: 0 425 1926 0 0 0 0 0 0 
Heartbeat_Variant_2 : 0 0 per_variant_size: 0 0 0 0 0 0 0 0 0 
Heartbeat_Variant_3 : 0 0 per_variant_size: 0 0 0 0 0 0 0 0 0 
Heartbeat_Variant_0_evicts 0 : 22175 1 : 18555 2 : 0 3 : 0 
Heartbeat_Variant_1_evicts 0 : 18569 1 : 0 2 : 0 3 : 0 
Heartbeat_Variant_2_evicts 0 : 0 1 : 0 2 : 0 3 : 0 
Heartbeat_Variant_3_evicts 0 : 0 1 : 0 2 : 0 3 : 0 
Heartbeat CPU 0 instructions: 60000000 cycles: 22759973 heartbeat IPC: 1.1394 cumulative IPC: 1.1394 (Simulation time: 0 hr 12 min 56 sec) 
Cycle: 30000000 FTQ IN: 11422565 FTQ occupancy: 7.16559 DECODE IN: 11422556 DECODE occupancy: 15.6901 ROB IN: 11422556 ROB occupancy: 128.365 ROB OUT: 11422549
Heartbeat_Variant_0 : 1098 0.268066 per_variant_size: 0 1098 0 0 0 0 0 0 0 
Heartbeat_Variant_1 : 2347 0.572998 per_variant_size: 0 438 1909 0 0 0 0 0 0 
Heartbeat_Variant_2 : 0 0 per_variant_size: 0 0 0 0 0 0 0 0 0 
Heartbeat_Variant_3 : 0 0 per_variant_size: 0 0 0 0 0 0 0 0 0 
Heartbeat_Variant_0_evicts 0 : 22070 1 : 18382 2 : 0 3 : 0 
Heartbeat_Variant_1_evicts 0 : 18364 1 : 0 2 : 0 3 : 0 
Heartbeat_Variant_2_evicts 0 : 0 1 : 0 2 : 0 3 : 0 
Heartbeat_Variant_3_evicts 0 : 0 1 : 0 2 : 0 3 : 0 
Heartbeat CPU 0 instructions: 70000003 cycles: 31433992 heartbeat IPC: 1.15287 cumulative IPC: 1.14609 (Simulation time: 0 hr 14 min 56 sec) 
Cycle: 40000000 FTQ IN: 11380220 FTQ occupancy: 7.09285 DECODE IN: 11380191 DECODE occupancy: 15.5488 ROB IN: 11380188 ROB occupancy: 127.623 ROB OUT: 11380082
Heartbeat_Variant_0 : 1075 0.262451 per_variant_size: 0 1075 0 0 0 0 0 0 0 
Heartbeat_Variant_1 : 2370 0.578613 per_variant_size: 0 442 1928 0 0 0 0 0 0 
Heartbeat_Variant_2 : 0 0 per_variant_size: 0 0 0 0 0 0 0 0 0 
Heartbeat_Variant_3 : 0 0 per_variant_size: 0 0 0 0 0 0 0 0 0 
Heartbeat_Variant_0_evicts 0 : 22183 1 : 18658 2 : 0 3 : 0 
Heartbeat_Variant_1_evicts 0 : 18681 1 : 0 2 : 0 3 : 0 
Heartbeat_Variant_2_evicts 0 : 0 1 : 0 2 : 0 3 : 0 
Heartbeat_Variant_3_evicts 0 : 0 1 : 0 2 : 0 3 : 0 
Heartbeat CPU 0 instructions: 80000003 cycles: 40219668 heartbeat IPC: 1.13822 cumulative IPC: 1.14346 (Simulation time: 0 hr 16 min 51 sec) 
Heartbeat_Variant_0 : 1094 0.26709 per_variant_size: 0 1094 0 0 0 0 0 0 0 
Heartbeat_Variant_1 : 2351 0.573975 per_variant_size: 0 429 1922 0 0 0 0 0 0 
Heartbeat_Variant_2 : 0 0 per_variant_size: 0 0 0 0 0 0 0 0 0 
Heartbeat_Variant_3 : 0 0 per_variant_size: 0 0 0 0 0 0 0 0 0 
Heartbeat_Variant_0_evicts 0 : 22184 1 : 18674 2 : 0 3 : 0 
Heartbeat_Variant_1_evicts 0 : 18655 1 : 0 2 : 0 3 : 0 
Heartbeat_Variant_2_evicts 0 : 0 1 : 0 2 : 0 3 : 0 
Heartbeat_Variant_3_evicts 0 : 0 1 : 0 2 : 0 3 : 0 
Heartbeat CPU 0 instructions: 90000000 cycles: 48889530 heartbeat IPC: 1.15342 cumulative IPC: 1.14593 (Simulation time: 0 hr 18 min 53 sec) 
Cycle: 50000000 FTQ IN: 11529177 FTQ occupancy: 7.03355 DECODE IN: 11529243 DECODE occupancy: 15.4869 ROB IN: 11529260 ROB occupancy: 127.548 ROB OUT: 11529352
Heartbeat_Variant_0 : 1075 0.262451 per_variant_size: 0 1075 0 0 0 0 0 0 0 
Heartbeat_Variant_1 : 2405 0.587158 per_variant_size: 0 442 1963 0 0 0 0 0 0 
Heartbeat_Variant_2 : 0 0 per_variant_size: 0 0 0 0 0 0 0 0 0 
Heartbeat_Variant_3 : 0 0 per_variant_size: 0 0 0 0 0 0 0 0 0 
Heartbeat_Variant_0_evicts 0 : 22223 1 : 19029 2 : 0 3 : 0 
Heartbeat_Variant_1_evicts 0 : 19054 1 : 0 2 : 0 3 : 0 
Heartbeat_Variant_2_evicts 0 : 0 1 : 0 2 : 0 3 : 0 
Heartbeat_Variant_3_evicts 0 : 0 1 : 0 2 : 0 3 : 0 
Heartbeat CPU 0 instructions: 100000000 cycles: 57623082 heartbeat IPC: 1.14501 cumulative IPC: 1.14575 (Simulation time: 0 hr 20 min 33 sec) 
Finished CPU 0 instructions: 50000001 cycles: 43639685 cumulative IPC: 1.14575 (Simulation time: 0 hr 20 min 33 sec) 

ChampSim completed all CPUs

Region of Interest Statistics

CPU 0 cumulative IPC: 1.14575 instructions: 50000001 cycles: 43639685
 Fetch stage stalled: 69.855  Sim cycles: 43639685 fetch stall cycle: 30484502
 Empty decode stage: 58.0392  Sim cycles: 43639685 fetch stall cycle: 25328128
ITLB TOTAL     ACCESS:    5610523  HIT:    5116678  MISS:     493845  HIT %:    91.1979  MISS %:    8.80212   MPKI: 9.8769
ITLB LOAD TRANSLATION INSTRUCTION	ACCESS:    5508181  HIT:    5014336  MISS:     493845  HIT %:    91.0343  MISS %:    8.96566  MPKI: 9.8769
ITLB TRANSLATION FROM L1D PREFETCHER INSTRUCTION	ACCESS:     102342  HIT:     102342  MISS:          0  HIT %:        100  MISS %:          0  MPKI: 0

ITLB AVERAGE MISS LATENCY: 9.04499 cycles
ITLB RQ	ACCESS:    7446427	FORWARD:          0	MERGED:    1342865	TO_CACHE:    6103562

DTLB TOTAL     ACCESS:    9294286  HIT:    8821703  MISS:     472583  HIT %:    94.9153  MISS %:    5.08466   MPKI: 9.45166
DTLB LOAD TRANSLATION DATA	ACCESS:    9294286  HIT:    8821703  MISS:     472583  HIT %:    94.9153  MISS %:    5.08466  MPKI: 9.45166

DTLB AVERAGE MISS LATENCY: 9.32314 cycles
DTLB RQ	ACCESS:   13578807	FORWARD:          0	MERGED:    4249895	TO_CACHE:    9328912

STLB TOTAL     ACCESS:    1215392  HIT:    1213349  MISS:       2043  HIT %:    99.8319  MISS %:   0.168094   MPKI: 0.04086
STLB LOAD TRANSLATION INSTRUCTION	ACCESS:     493845  HIT:     493594  MISS:        251  HIT %:    99.9492  MISS %:  0.0508257  MPKI: 0.00502
STLB LOAD TRANSLATION DATA	ACCESS:     472369  HIT:     470612  MISS:       1757  HIT %:     99.628  MISS %:   0.371955  MPKI: 0.03514
STLB TRANSLATION FROM L1D PREFETCHER DATA	ACCESS:     249178  HIT:     249143  MISS:         35  HIT %:     99.986  MISS %:  0.0140462  MPKI: 0.0007

STLB AVERAGE MISS LATENCY: 73.4547 cycles
STLB RQ	ACCESS:    1338765	FORWARD:          0	MERGED:     123336	TO_CACHE:    1215429

STLB Hit, L1D data hit: 0
STLB Hit, L2C data hit: 0
STLB Hit, LLC data hit: 0
STLB Hit, LLC data miss: 0
STLB STLB hints to L2: 0
L1D TOTAL     ACCESS:   13339157  HIT:   12221360  MISS:    1117797  HIT %:    91.6202  MISS %:    8.37982   MPKI: 22.3559
L1D LOAD DATA	ACCESS:    6770789  HIT:    6035329  MISS:     735460  HIT %:    89.1378  MISS %:    10.8622  MPKI: 14.7092
L1D RFO DATA	ACCESS:    6237983  HIT:    5950647  MISS:     287336  HIT %:    95.3938  MISS %:    4.60623  MPKI: 5.74672
L1D PREFETCH DATA	ACCESS:     330385  HIT:     235384  MISS:      95001  HIT %:    71.2454  MISS %:    28.7546  MPKI: 1.90002

L1D PREFETCH  REQUESTED:     745021  ISSUED:     745021  USEFUL:      35294  USELESS:      68542
L1D USEFUL LOAD PREFETCHES:      35294 PREFETCH ISSUED TO LOWER LEVEL:     103819  ACCURACY: 33.9957
 TIMELY PREFETCHES:      35294 LATE PREFETCHES: 8788 DROPPED PREFETCHES: 8
L1D AVERAGE MISS LATENCY: 284456 cycles
L1D RQ	ACCESS:   10868865	FORWARD:          0	MERGED:    3900884	TO_CACHE:    6802713
L1D WQ	ACCESS:    6950443	FORWARD:     165615	MERGED:     174349	TO_CACHE:    6776094
L1D PQ	ACCESS:     372684	FORWARD:          0	MERGED:          0	TO_CACHE:     372337

L1D UNIQUE REGIONS ACCESSED: 0
L1D REGIONS CONFLICTS: 0
L1D Cross Page Prefetch Requests: 7026
L1D Same Page Prefetch Requests: 752041
L1D ROI Sum of L1D PQ occupancy: 4732258
L1D PREFETCHES PUSHED FROM L2C: 0
L1I TOTAL     ACCESS:    6939171  HIT:    4174675  MISS:    2764496  HIT %:     60.161  MISS %:     39.839   MPKI: 55.2899
L1I LOAD INSTRUCTION	ACCESS:    6449856  HIT:    3685360  MISS:    2764496  HIT %:    57.1386  MISS %:    42.8614  MPKI: 55.2899
L1I PREFETCH INSTRUCTION	ACCESS:     489315  HIT:     489315  MISS:          0  HIT %:        100  MISS %:          0  MPKI: 0

L1I PREFETCH  REQUESTED:    1095395  ISSUED:    1095395  USEFUL:          0  USELESS:          0
L1I USEFUL LOAD PREFETCHES:          0 PREFETCH ISSUED TO LOWER LEVEL:          0  ACCURACY: -nan
 TIMELY PREFETCHES:          0 LATE PREFETCHES: 0 DROPPED PREFETCHES: 0
L1I AVERAGE MISS LATENCY: 17.0714 cycles
L1I RQ	ACCESS:    9458851	FORWARD:          0	MERGED:    2793666	TO_CACHE:    6665185
L1I PQ	ACCESS:    1095395	FORWARD:          0	MERGED:     314153	TO_CACHE:     781242

L1BTB TOTAL     ACCESS:    5669583  HIT:    2040569  MISS:    3629014  HIT %:    35.9915  MISS %:    64.0085   MPKI: 72.5803
L1BTB BRANCH_DIRECT_JUMP	ACCESS:     548588 HIT:     144273 MISS:     404315 AVERAGE STALL: 35.4859 AVERAGE FETCH STALL: 18.1824 AVERAGE FETCH QUEUE STALL: 8.98202 AVERAGE DECODE STALL: 7.52397 AVERAGE EXECUTE STALL: 4.00112e+14
L1BTB BRANCH_INDIRECT	ACCESS:     182965 HIT:      66049 MISS:     116916 AVERAGE STALL: 91.3759 AVERAGE FETCH STALL: 14.6306 AVERAGE FETCH QUEUE STALL: 10.3928 AVERAGE DECODE STALL: 7.35666 AVERAGE EXECUTE STALL: 58.0545
L1BTB BRANCH_CONDITIONAL	ACCESS:    2710087 HIT:    1416747 MISS:    1293340 AVERAGE STALL: 36.1825 AVERAGE FETCH STALL: 21.8972 AVERAGE FETCH QUEUE STALL: 6.67125 AVERAGE DECODE STALL: 6.87124 AVERAGE EXECUTE STALL: 1.65997e+14
L1BTB BRANCH_DIRECT_CALL	ACCESS:     942631 HIT:     104140 MISS:     838491 AVERAGE STALL: 38.0873 AVERAGE FETCH STALL: 21.1156 AVERAGE FETCH QUEUE STALL: 8.07935 AVERAGE DECODE STALL: 8.13382 AVERAGE EXECUTE STALL: 1.07762e+14
L1BTB BRANCH_INDIRECT_CALL	ACCESS:     171337 HIT:      20857 MISS:     150480 AVERAGE STALL: 115.099 AVERAGE FETCH STALL: 17.4269 AVERAGE FETCH QUEUE STALL: 6.69817 AVERAGE DECODE STALL: 6.83862 AVERAGE EXECUTE STALL: 83.6045
L1BTB BRANCH_RETURN	ACCESS:    1113975 HIT:     288503 MISS:     825472 AVERAGE STALL: 37.2432 AVERAGE FETCH STALL: 18.1926 AVERAGE FETCH QUEUE STALL: 5.79427 AVERAGE DECODE STALL: 6.36481 AVERAGE EXECUTE STALL: 1.92675e+14
L1BTB BRANCH_OTHER ACCESS:          0 HIT:          0 MISS:          0 AVERAGE STALL: -nan AVERAGE FETCH STALL: -nan AVERAGE FETCH QUEUE STALL: -nan AVERAGE DECODE STALL: -nan AVERAGE EXECUTE STALL: -nan
L1BTB TOTAL ROB OCCUPANCY AT BTB MISS: 13.7705

L2BTB TOTAL     ACCESS:    3603571  HIT:    3140823  MISS:     462748  HIT %:    87.1586  MISS %:    12.8414   MPKI: 9.25496
L2BTB BRANCH_DIRECT_JUMP	ACCESS:     400138 HIT:     358194 MISS:      41944 AVERAGE STALL: 35.4859 AVERAGE FETCH STALL: 18.1824 AVERAGE FETCH QUEUE STALL: 8.98202 AVERAGE DECODE STALL: 7.52397 AVERAGE EXECUTE STALL: 4.00112e+14
L2BTB BRANCH_INDIRECT	ACCESS:     106627 HIT:      96995 MISS:       9632 AVERAGE STALL: 91.3759 AVERAGE FETCH STALL: 14.6306 AVERAGE FETCH QUEUE STALL: 10.3928 AVERAGE DECODE STALL: 7.35666 AVERAGE EXECUTE STALL: 58.0545
L2BTB BRANCH_CONDITIONAL	ACCESS:    1293340 HIT:    1181649 MISS:     111691 AVERAGE STALL: 36.1825 AVERAGE FETCH STALL: 21.8972 AVERAGE FETCH QUEUE STALL: 6.67125 AVERAGE DECODE STALL: 6.87124 AVERAGE EXECUTE STALL: 1.65997e+14
L2BTB BRANCH_DIRECT_CALL	ACCESS:     838491 HIT:     667270 MISS:     171221 AVERAGE STALL: 38.0873 AVERAGE FETCH STALL: 21.1156 AVERAGE FETCH QUEUE STALL: 8.07935 AVERAGE DECODE STALL: 8.13382 AVERAGE EXECUTE STALL: 1.07762e+14
L2BTB BRANCH_INDIRECT_CALL	ACCESS:     140919 HIT:     107015 MISS:      33904 AVERAGE STALL: 115.099 AVERAGE FETCH STALL: 17.4269 AVERAGE FETCH QUEUE STALL: 6.69817 AVERAGE DECODE STALL: 6.83862 AVERAGE EXECUTE STALL: 83.6045
L2BTB BRANCH_RETURN	ACCESS:     824056 HIT:     729700 MISS:      94356 AVERAGE STALL: 37.2432 AVERAGE FETCH STALL: 18.1926 AVERAGE FETCH QUEUE STALL: 5.79427 AVERAGE DECODE STALL: 6.36481 AVERAGE EXECUTE STALL: 1.92675e+14
L2BTB BRANCH_OTHER ACCESS:          0 HIT:          0 MISS:          0 AVERAGE STALL: -nan AVERAGE FETCH STALL: -nan AVERAGE FETCH QUEUE STALL: -nan AVERAGE DECODE STALL: -nan AVERAGE EXECUTE STALL: -nan
L2BTB TOTAL ROB OCCUPANCY AT BTB MISS: 107.993

L2C TOTAL     ACCESS:    4484033  HIT:    4034578  MISS:     449455  HIT %:    89.9765  MISS %:    10.0235   MPKI: 8.9891
L2C LOAD INSTRUCTION	ACCESS:    2764496  HIT:    2520923  MISS:     243573  HIT %:    91.1892  MISS %:    8.81076  MPKI: 4.87146
L2C LOAD TRANSLATION INSTRUCTION	ACCESS:        285  HIT:         66  MISS:        219  HIT %:    23.1579  MISS %:    76.8421  MPKI: 0.00438
L2C LOAD DATA	ACCESS:     726641  HIT:     659532  MISS:      67109  HIT %:    90.7645  MISS %:    9.23551  MPKI: 1.34218
L2C RFO DATA	ACCESS:     287286  HIT:     233874  MISS:      53412  HIT %:    81.4081  MISS %:    18.5919  MPKI: 1.06824
L2C PREFETCH DATA	ACCESS:     181265  HIT:     111737  MISS:      69528  HIT %:    61.6429  MISS %:    38.3571  MPKI: 1.39056
L2C WRITEBACK DATA	ACCESS:     522174  HIT:     507978  MISS:      14196  HIT %:    97.2814  MISS %:    2.71863  MPKI: 0.28392
L2C LOAD TRANSLATION DATA	ACCESS:       1827  HIT:        428  MISS:       1399  HIT %:    23.4264  MISS %:    76.5736  MPKI: 0.02798
L2C TRANSLATION FROM L1D PREFETCHER DATA	ACCESS:         59  HIT:         40  MISS:         19  HIT %:    67.7966  MISS %:    32.2034  MPKI: 0.00038

L2C PREFETCH  REQUESTED:      84715  ISSUED:      84715  USEFUL:       7925  USELESS:      61656
L2C USEFUL LOAD PREFETCHES:       7925 PREFETCH ISSUED TO LOWER LEVEL:      70040  ACCURACY: 11.315
 TIMELY PREFETCHES:       7925 LATE PREFETCHES: 512 DROPPED PREFETCHES: 0
L2C AVERAGE MISS LATENCY: 39.7475 cycles
L2C RQ	ACCESS:    3780647	FORWARD:          0	MERGED:          0	TO_CACHE:    3780596
L2C WQ	ACCESS:     522174	FORWARD:         51	MERGED:          0	TO_CACHE:     522174
L2C PQ	ACCESS:     188534	FORWARD:          0	MERGED:       3490	TO_CACHE:     185044

L2C Dense regions hint from L2: 0
PSCL5 TOTAL     ACCESS:       4114  HIT:       2057  MISS:       2057  HIT %:         50  MISS %:         50   MPKI: 0.04114
PSCL5 LOAD TRANSLATION INSTRUCTION	ACCESS:       3996  HIT:       1998  MISS:       1998  HIT %:         50  MISS %:         50  MPKI: 0.03996
PSCL5 TRANSLATION FROM L1D PREFETCHER INSTRUCTION	ACCESS:        118  HIT:         59  MISS:         59  HIT %:         50  MISS %:         50  MPKI: 0.00118


PSCL4 TOTAL     ACCESS:       3930  HIT:       1960  MISS:       1970  HIT %:    49.8728  MISS %:    50.1272   MPKI: 0.0394
PSCL4 LOAD TRANSLATION INSTRUCTION	ACCESS:       2347  HIT:       1908  MISS:        439  HIT %:    81.2953  MISS %:    18.7047  MPKI: 0.00878
PSCL4 TRANSLATION FROM L1D PREFETCHER INSTRUCTION	ACCESS:         58  HIT:         52  MISS:          6  HIT %:    89.6552  MISS %:    10.3448  MPKI: 0.00012
PSCL4 LOAD TRANSLATION DATA	ACCESS:       1479  HIT:          0  MISS:       1479  HIT %:          0  MISS %:        100  MPKI: 0.02958
PSCL4 TRANSLATION FROM L1D PREFETCHER DATA	ACCESS:         46  HIT:          0  MISS:         46  HIT %:          0  MISS %:        100  MPKI: 0.00092


PSCL3 TOTAL     ACCESS:       4000  HIT:       1995  MISS:       2005  HIT %:     49.875  MISS %:     50.125   MPKI: 0.0401
PSCL3 LOAD TRANSLATION INSTRUCTION	ACCESS:       2382  HIT:       1943  MISS:        439  HIT %:    81.5701  MISS %:    18.4299  MPKI: 0.00878
PSCL3 TRANSLATION FROM L1D PREFETCHER INSTRUCTION	ACCESS:         58  HIT:         52  MISS:          6  HIT %:    89.6552  MISS %:    10.3448  MPKI: 0.00012
PSCL3 LOAD TRANSLATION DATA	ACCESS:       1514  HIT:          0  MISS:       1514  HIT %:          0  MISS %:        100  MPKI: 0.03028
PSCL3 TRANSLATION FROM L1D PREFETCHER DATA	ACCESS:         46  HIT:          0  MISS:         46  HIT %:          0  MISS %:        100  MPKI: 0.00092


PSCL2 TOTAL     ACCESS:       4019  HIT:       1962  MISS:       2057  HIT %:    48.8181  MISS %:    51.1819   MPKI: 0.04114
PSCL2 LOAD TRANSLATION INSTRUCTION	ACCESS:       2154  HIT:       1903  MISS:        251  HIT %:    88.3473  MISS %:    11.6527  MPKI: 0.00502
PSCL2 TRANSLATION FROM L1D PREFETCHER INSTRUCTION	ACCESS:         59  HIT:         59  MISS:          0  HIT %:        100  MISS %:          0  MPKI: 0
PSCL2 LOAD TRANSLATION DATA	ACCESS:       1747  HIT:          0  MISS:       1747  HIT %:          0  MISS %:        100  MPKI: 0.03494
PSCL2 TRANSLATION FROM L1D PREFETCHER DATA	ACCESS:         59  HIT:          0  MISS:         59  HIT %:          0  MISS %:        100  MPKI: 0.00118


LLC TOTAL     ACCESS:     510353  HIT:     480489  MISS:      29864  HIT %:    94.1484  MISS %:    5.85164   MPKI: 0.59728
LLC LOAD INSTRUCTION	ACCESS:     243574  HIT:     242696  MISS:        878  HIT %:    99.6395  MISS %:   0.360465  MPKI: 0.01756
LLC LOAD TRANSLATION INSTRUCTION	ACCESS:        219  HIT:        196  MISS:         23  HIT %:    89.4977  MISS %:    10.5023  MPKI: 0.00046
LLC LOAD DATA	ACCESS:      66655  HIT:      63240  MISS:       3415  HIT %:    94.8766  MISS %:     5.1234  MPKI: 0.0683
LLC RFO DATA	ACCESS:      53354  HIT:      37934  MISS:      15420  HIT %:    71.0987  MISS %:    28.9013  MPKI: 0.3084
LLC PREFETCH DATA	ACCESS:      70040  HIT:      60319  MISS:       9721  HIT %:    86.1208  MISS %:    13.8792  MPKI: 0.19442
LLC WRITEBACK DATA	ACCESS:      75093  HIT:      74759  MISS:        334  HIT %:    99.5552  MISS %:   0.444782  MPKI: 0.00668
LLC LOAD TRANSLATION DATA	ACCESS:       1399  HIT:       1326  MISS:         73  HIT %:     94.782  MISS %:    5.21801  MPKI: 0.00146
LLC TRANSLATION FROM L1D PREFETCHER DATA	ACCESS:         19  HIT:         19  MISS:          0  HIT %:        100  MISS %:          0  MPKI: 0

LLC AVERAGE MISS LATENCY: 159.51 cycles
LLC RQ	ACCESS:     365221	FORWARD:          0	MERGED:          0	TO_CACHE:     365221
LLC WQ	ACCESS:      75093	FORWARD:          0	MERGED:          0	TO_CACHE:      75093
LLC PQ	ACCESS:      70040	FORWARD:          0	MERGED:          0	TO_CACHE:      70040

LLC Dense regions hint to LLC: 0

RAW hits: 1771680
Loads Generated: 12640543
Loads sent to L1D: 10868865
Stores Generated: 6950429
Stores sent to L1D: 6950443
Major fault: 0 Minor fault: 2546
Allocated PAGES: 2546

stream: 
stream:times selected: 1186246
stream:pref_filled: 123151
stream:pref_useful: 24703
stream:pref_late: 6717
stream:misses: 8156
stream:misses_by_poll: 0

CS: 
CS:times selected: 177739
CS:pref_filled: 59274
CS:pref_useful: 35956
CS:pref_late: 7848
CS:misses: 17725
CS:misses_by_poll: 5

CPLX: 
CPLX:times selected: 1007466
CPLX:pref_filled: 19692
CPLX:pref_useful: 4428
CPLX:pref_late: 3084
CPLX:misses: 92942
CPLX:misses_by_poll: 1

NL_L1: 
NL:times selected: 21440
NL:pref_filled: 674
NL:pref_useful: 262
NL:pref_late: 369
NL:misses: 1902
NL:misses_by_poll: 0

total selections: 2392891
total_filled: 95001
total_useful: 35294
total_late: 19403
total_polluted: 6
total_misses_after_warmup: 767386
conflicts: 5627746

test: 118183

DRAM Statistics
 CHANNEL 0
 RQ ROW_BUFFER_HIT:      11157  ROW_BUFFER_MISS:      18347
 DBUS_CONGESTED:         12
 WQ ROW_BUFFER_HIT:       1545  ROW_BUFFER_MISS:      12801  FULL:          0

 AVG_CONGESTED_CYCLE: 5

CPU 0 Branch Prediction Accuracy: 99.8245% MPKI: 0.32086 Average ROB Occupancy at Mispredict: 136.675
Branch types
NOT_BRANCH: 40858291 81.7166%
BRANCH_DIRECT_JUMP: 548588 1.09718%
BRANCH_INDIRECT: 182965 0.36593%
BRANCH_CONDITIONAL: 6181812 12.3636%
BRANCH_DIRECT_CALL: 942631 1.88526%
BRANCH_INDIRECT_CALL: 171337 0.342674%
BRANCH_RETURN: 1113975 2.22795%
BRANCH_OTHER: 0 0%

DRAM PAGES: 1048576
Allocated PAGES: 2546
Average_ROB_Occupancy: 128.624
Average_Decode_Occupancy: 15.5534
Average_FTQ_Occupancy: 7.08705
Indirect max targets: 14 Average targets: 1.14966
Branch_type:  BRANCH_DIRECT_JUMP:  Count Percentage: 2.90188 6.71545 4.01451 9.10763 1.69594 5.97479 1.21898 68.3708 
Branch_type:  BRANCH_INDIRECT:  Count Percentage: 11.769 3.45274 2.54579 0 1.33799 9.66651 5.88967 65.3383 
Branch_type:  BRANCH_CONDITIONAL:  Count Percentage: 21.0906 3.22782 1.77466 5.4371 1.17557 12.8984 1.2358 53.1601 
Branch_type:  BRANCH_DIRECT_CALL:  Count Percentage: 0.259583 1.77361 1.43084 4.70999 2.16542 2.99894 0.705795 85.9558 
Branch_type:  BRANCH_INDIRECT_CALL:  Count Percentage: 9.55558 0 2.99514 8.70266 0 2.6605 1.28405 74.8021 
Branch_type:  BRANCH_RETURN:  Count Percentage: 3.90657 1.38011 1.41195 6.33894 2.79834 12.8648 1.89923 69.4001 
Branch_type:  BRANCH_DIRECT_JUMP:  Total Count: 31814 73623 44012 99849 18593 65503 13364 749565 
Branch_type:  BRANCH_INDIRECT:  Total Count: 43030 12624 9308 0 4892 35343 21534 238892 
Branch_type:  BRANCH_CONDITIONAL:  Total Count: 2606333 398887 219309 671906 145275 1593953 152718 6569418 
Branch_type:  BRANCH_DIRECT_CALL:  Total Count: 4896 33452 26987 88835 40842 56563 13312 1621212 
Branch_type:  BRANCH_INDIRECT_CALL:  Total Count: 32781 0 10275 29855 0 9127 4405 256613 
Branch_type:  BRANCH_RETURN:  Total Count: 87115 30776 31486 141356 62402 286879 42352 1547595 
Number of unique branch instructions: 9917
Upper 32 bits: 
aaaa
ffff
ffff0000
Unique upper 32 bits: 3
Unique upper 36 bits: 3
Unique upper 40 bits: 5
Unique upper 44 bits: 32
Unique upper 48 bits: 154
Variant_0 : 1075 0.262451
Variant_1 : 2405 0.587158
Variant_2 : 0 0
Variant_3 : 0 0
Offset_3 4073
Offset_4 249
Offset_5 451
Offset_6 503
Offset_7 585
Offset_8 509
Offset_9 468
Offset_10 385
Offset_11 315
Offset_12 288
Offset_13 201
Offset_14 230
Offset_15 189
Offset_16 223
Offset_17 143
Offset_18 126
Offset_19 240
Offset_20 142
Offset_21 235
Offset_22 392
Offset_23 241
Offset_24 327
Offset_25 88
Offset_47 80
decode_dispatch_called: 20049808 45.944
Dispatch_width: 0 9975319 49.7527 22.8584
Dispatch_width: 1 553349 2.75987 1.26799
Dispatch_width: 2 663488 3.3092 1.52038
Dispatch_width: 3 416335 2.0765 0.954028
Dispatch_width: 4 1736475 8.66081 3.97912
Dispatch_width: 5 304632 1.51938 0.698062
Dispatch_width: 6 6400210 31.9216 14.666
Empty_decode_cycles: 23589877 54.056
ROB_full_cycles: 2591763 5.939
Starvation_cycles_per_kilo_instr: 346.477
Starvation_cycles_per_kilo_instr_3: 326.066
Starvation_cycles_per_kilo_instr_0: 309.734
Branch_type_1  (3,1)  (4,9)  (5,37)  (6,69)  (7,114)  (8,127)  (9,123)  (10,98)  (11,70)  (12,51)  (13,5)  (14,2)  (15,3)  (16,4)  (18,1)  (19,4)  (20,2)  (21,1)  (22,3)  (23,2)  (24,10)  (25,12) 
Branch_type_2  (3,1)  (5,1)  (8,3)  (9,3)  (12,1)  (13,1)  (14,1)  (16,3)  (17,2)  (20,2)  (21,2)  (23,5)  (24,1)  (47,36) 
Branch_type_3  (3,4071)  (4,240)  (5,409)  (6,418)  (7,439)  (8,317)  (9,256)  (10,156)  (11,130)  (12,58)  (13,4) 
Branch_type_4  (6,4)  (7,8)  (8,26)  (9,54)  (10,62)  (11,59)  (12,99)  (13,87)  (14,102)  (15,89)  (16,100)  (17,64)  (18,57)  (19,116)  (20,74)  (21,124)  (22,209)  (23,136)  (24,188)  (25,72) 
Branch_type_5  (8,2)  (9,1)  (10,3)  (11,5)  (12,3)  (13,14)  (14,16)  (15,11)  (16,20)  (17,11)  (18,16)  (19,12)  (20,10)  (21,13)  (22,42)  (23,26)  (24,37) 
Branch_type_6  (5,4)  (6,12)  (7,24)  (8,34)  (9,31)  (10,66)  (11,51)  (12,76)  (13,90)  (14,109)  (15,86)  (16,96)  (17,66)  (18,52)  (19,108)  (20,54)  (21,95)  (22,138)  (23,72)  (24,91)  (25,4)  (47,44) 
Unique trigger count: 
Variant_0_evicts_0 : 0
Variant_0_evicts_1 : 0
Variant_0_evicts_2 : 0
Variant_0_evicts_3 : 0
Variant_1_evicts_0 : 0
Variant_1_evicts_1 : 0
Variant_1_evicts_2 : 0
Variant_1_evicts_3 : 0
Variant_2_evicts_0 : 0
Variant_2_evicts_1 : 0
Variant_2_evicts_2 : 0
Variant_2_evicts_3 : 0
Variant_3_evicts_0 : 0
Variant_3_evicts_1 : 0
Variant_3_evicts_2 : 0
Variant_3_evicts_3 : 0
BTB PER SET UNIQUE ADDR: 4 7 6 4 3 3 7 9 10 2 5 2 8 5 3 4 6 4 8 8 5 8 7 8 8 11 1 7 6 5 9 10 6 4 7 4 4 6 7 3 7 5 6 10 9 7 6 11 11 6 5 3 13 2 2 7 5 5 8 8 4 10 5 8 6 10 7 7 5 7 6 2 6 4 6 7 6 14 6 4 9 7 7 6 6 7 7 8 8 11 10 8 9 6 7 4 11 7 4 6 8 5 9 9 5 8 6 8 7 5 7 4 4 8 6 11 3 8 6 2 7 8 4 2 6 4 4 6 10 7 10 3 11 5 8 5 5 2 6 7 8 7 6 7 3 10 3 8 10 6 6 11 6 10 5 8 6 8 7 10 10 6 10 5 10 5 3 4 12 5 4 3 7 6 3 2 5 6 9 4 6 6 8 6 6 11 5 5 6 8 5 8 6 6 6 10 11 3 9 6 4 6 9 3 8 4 5 7 6 2 3 6 9 9 6 6 4 9 8 6 6 2 6 6 6 8 13 7 2 9 14 8 4 3 6 8 9 6 3 4 5 3 9 7 14 10 1 5 5 5 9 10 6 6 5 11 4 6 9 5 8 5 7 4 9 14 6 4 7 5 7 6 4 8 10 7 6 3 4 8 7 4 9 5 9 9 7 7 8 4 5 7 4 11 6 4 5 10 5 6 6 6 4 4 7 4 6 4 10 9 6 3 8 3 6 4 9 14 7 2 6 11 5 8 5 5 5 9 3 0 7 2 5 7 9 5 7 8 7 1 6 6 2 8 6 6 3 8 9 4 4 10 9 6 8 7 7 2 7 5 6 10 6 8 10 8 4 3 4 5 7 4 7 5 7 4 11 6 5 10 10 7 7 13 6 4 8 5 5 3 9 6 8 4 7 4 6 5 2 9 6 4 6 6 5 6 7 4 4 3 4 4 9 4 2 5 9 4 2 6 2 5 5 7 10 6 4 2 4 8 3 4 14 5 8 10 6 6 6 4 4 6 8 3 6 8 4 6 5 4 6 3 5 1 9 3 5 7 10 5 5 4 6 11 6 5 13 4 6 7 2 6 8 8 5 3 9 5 2 3 5 2 3 4 3 7 8 3 6 2 10 5 4 8 2 11 4 7 5 4 11 3 4 4 2 5 5 3 3 6 8 3 5 9 3 3 2 10 5 8 6 4 7 4 11 8 4 8 9 7 5 6 4 8 4 8 4 1 6 4 4 8 9 3 8 5 9 13 12 11 5 8 7 7 2 6 8 3 5 3 10 4 8 4 5 5 9 8 9 7 7 4 9 11 6 7 7 11 3 9 12 5 1 6 4 3 3 13 7 5 7 7 3 5 4 5 7 5 4 4 8 5 9 9 7 5 4 9 8 5 8 6 6 6 8 4 7 5 5 7 8 6 9 4 5 10 7 8 4 6 8 7 6 6 7 5 5 4 5 3 10 8 4 5 2 3 6 7 8 6 8 4 11 3 5 2 10 5 6 8 11 3 6 11 7 8 7 5 5 10 7 6 6 6 11 9 6 6 8 6 7 11 8 6 8 8 7 8 8 6 3 7 3 4 4 6 10 7 7 6 3 10 4 5 6 9 4 4 5 5 7 7 6 6 5 7 10 6 1 8 4 3 5 3 4 1 4 9 2 11 7 10 7 3 6 7 6 3 6 4 4 8 5 10 4 3 5 3 5 6 6 3 5 6 2 5 4 10 9 4 4 6 6 7 7 6 14 6 6 3 10 7 0 5 7 5 6 10 3 3 7 5 4 6 10 9 9 6 3 8 3 9 4 6 6 12 11 4 5 5 12 4 9 3 8 6 7 9 4 5 3 5 6 3 4 7 1 5 5 10 6 4 9 4 5 4 5 3 7 6 7 3 7 4 10 5 4 4 6 4 5 4 6 5 4 8 8 5 5 4 8 7 6 8 5 10 7 4 8 5 7 7 4 4 14 5 5 8 9 8 4 6 6 10 7 2 2 5 7 4 5 6 5 6 9 5 7 4 4 8 8 4 5 7 6 3 9 11 4 3 12 8 4 5 8 6 5 11 6 8 9 6 4 3 2 7 5 3 7 6 8 6 10 6 8 8 7 4 5 10 5 4 10 10 5 8 10 10 2 9 8 8 4 4 6 7 9 7 7 3 9 2 13 8 3 6 9 11 6 9 5 7 10 5 3 8 10 8 8 4 2 6 3 9 11 6 7 5 4 7 11 6 4 6 5 6 4 3 8 6 8 7 7 11 5 9 7 11 5 6 3 4 6 4 6 6 7 4 5 5 8 3 9 6 10 4 9 4 3 6 10 6 14 5 
BTB PER SET COUNT: 4 7 6 4 3 3 7 2131 5404 4 5 2 1475 5 3 5 6 4 33 3433 5 8 7 91 4903 2475 1 7 1473 5 3921 825 1473 5 11 6 2939 6 10 3 23 5 8 2718 3926 11 6 4405 4110 6 5 5 10288 2 2 1476 7 5 993 1450 4 2991 5 33 6 1242 398 20 5 497 737 2 6 4 7 7 494 6871 10 4 895 8 739 6 497 10 7 458 8073 2132 1748 512 2945 6 7 4 2211 8 4 6 17 5 19 2925 5 22 6 1965 1961 5 1961 5 4 1695 6 4586 3 9 6 2 8 26 6 2 498 4 4 7 7476 12 2007 3 8818 5 2939 5 5 2 6 1961 17 12 7 7 5 831 3 8 1241 2449 6 6984 6 9996 5 936 7 1965 8 1372 4774 7 4514 5 1008 2942 3 4 10522 5 4 3 12 153 3 2 5 494 2488 4 6 6 5392 6 6 6871 5 5 2942 17 5 3966 6 6 6 31 1006 3 21 7 4 6 11 3 9 4 5 3388 6 2 3 10 90 18 6 6 5 590 11 6 6 2 6 6 6 1962 5540 3247 2 3918 8245 984 4 3 13 2450 2939 6 3 4 5 3 6363 7 7596 3817 1 5 5 5 23 4057 6 6 5 3021 4 6 1407 5 2450 5 7 4 2219 6967 1962 4 1968 5 1715 6 4 1961 996 739 6 3 6 2452 8 4 1230 5 2789 2943 7 495 26 6 5 7 492 2471 2935 4 7 3985 5 6 6 6 4 4 10 4 6 4 4303 1596 7 3 2137 3 6 8 991 3910 1479 2 6 1077 5 10 5 5 5 1400 3 0 2206 2 7 7 5485 8 1479 11 7 1 6 6 2 2383 985 977 3 10 248 4 4 568 13 984 8 13 11 2 2210 46 7 507 7 1849 1038 1500 4 3 4 6 8 6 14 5 19 4 6132 6 5 2101 2458 2447 7 7547 7 5 35 5 7 3 1488 7 2451 4 7 6 1473 5 3 13 7 5 1471 7 767 6 2941 4 4 2817 4 4 1494 4 1469 5 145 4 2 1521 2 5 5 12 1003 7 6 2 4 18 138 5 6628 5 1721 2132 7 6 6 4 5 7 1376 3 7 20 4 1962 5 4 6 3 5 1 1464 3 5 12 536 5 982 4 25 42 28 5 4025 4 6 8 2 21 1947 985 237 3 26051 5 2 3 5 2 3 493 4 76 1717 378 6 2 1116 5 4 1225 3 3911 4 24 6 5 3754 18 4 4 2 5 5 3 3 6 23 3 5 26 4 3 2 11255 5 1055 9 1472 7 832 572 1962 4 985 2156 21 5 6 4 18 4 834 6 1 9 4 4 1962 27 6 26 6 51 2236 3184 7828 6 3952 8 8 2 6 1478 3 5 3 5351 4 1968 4 5 5 1969 18 1964 44 2208 6 2448 5670 1471 1473 13 5386 3 4676 10099 43 1 1470 1471 3 6 6455 13 5 7 2451 3 985 982 6 7 5 4 4 1863 9 4779 1025 8 2939 4 2940 8 5 2940 7 6 6 8 4 2566 5 5 7 13 1200 4403 5 1578 991 26 1970 10 1470 1476 1474 6 9 7 5 7 4 5 3 7351 1005 4 5 2 3 8 9 533 6 12 4 8331 3 5 2 1972 5 1474 2939 13214 4 6 5878 7 1482 2954 985 21 1968 986 9 8 8 6733 3094 495 6 2554 6 7 6629 18 985 17622 1373 20 4406 1487 6 3 1230 3 6 4 6 6855 8 7 59 3 3276 4 5 175 4160 4 1472 5 1472 190 7 7 8 984 7 2176 970 1 1962 4 4 5 3 4 1 4 1050 2 6050 1473 3973 988 3 6 7 6 4 6 4 4 1006 5 8326 4 4 981 3 5 984 6 3 5 830 2 5 4 4416 6367 984 4 6 985 13 2950 6 9443 7 12 3 101 7 0 153 7 1473 6 2885 3 3 2448 7 4 6 1952 1774 991 13 688 987 3 1773 4 6 224 6562 3019 4 5 5 4664 6 389 3 1988 2452 7 25 6 6 3 7 6 493 5 7 1 5 7 3264 6 4 507 668 6 5 983 3 1473 156 743 3 494 4 7970 5 4 5 6 4 364 4 6 1475 4 23 1401 5 6 4 3428 1520 9 10 5 8805 32 4 1477 11 8 7 4 4 8910 990 7 1978 2451 8 4 6 6 1470 8 2 3 5 8 4 7 6 5 6 3047 6 1749 4 4 13 8 4 6 10 6 3 24 4049 4 4 5146 2113 100 40 756 6 5 3468 6 9 1965 6 5 3 2 9 5 980 4891 1732 38 6 1968 6 801 1581 8 4 7 1142 5 495 3907 1969 5 986 4842 2864 4 3429 674 17 4 982 6 1476 17 500 8 4 3821 2 7099 8 4 7 2029 8326 14 3429 5 496 7360 5 3 1091 59 735 833 4 2 6 3 746 2494 6 986 5 4 7 2717 7 494 6 5 10 4 3 253 6 3305 11 2450 3005 5 3431 14 5389 5 9 3 4 9 4 6 6 983 5 6 7 2949 3 7341 373 3090 4 1013 7 4 6 1572 7 3568 5 
To predecode: 0
Predecoding something: 0
Predecode request dropped: 0
sizeofblock_0 0
sizeofblock_1 229025
sizeofblock_2 346351
sizeofblock_3 0
sizeofblock_4 0
sizeofblock_5 0
sizeofblock_6 0
sizeofblock_7 0
sizeofblock_8 0
Variant_0 Correct: 0 Incorrect: 0 Accuracy: -nan
Variant_1 Correct: 0 Incorrect: 0 Accuracy: -nan
Variant_2 Correct: 0 Incorrect: 0 Accuracy: -nan
Variant_3 Correct: 0 Incorrect: 0 Accuracy: -nan
