
*** ChampSim Multicore Out-of-Order Simulator ***

Warmup Instructions: 50000000
Simulation Instructions: 50000000
Number of CPUs: 1
LLC sets: 2048
LLC ways: 16
Off-chip DRAM Size: 4096 MB Channels: 1 Width: 64-bit Data Rate: 6400 MT/s
CPU 0 runs ./micro_traces/srv595.trace.gz
.gz
ITLB has LRU replacement policy
DTLB has LRU replacement policy
STLB has LRU replacement policy
CPU 0 L1I next line prefetcher
./conditional/srv595.cond
L1I has LRU replacement policy
L1D has LRU replacement policy
Initialize SRRIP state for L2C
Initialize DRRIP state for LLC
Heartbeat_Variant_0 : 1341 0.327393 per_variant_size: 0 1341 0 0 0 0 0 0 0 
Heartbeat_Variant_1 : 1236 0.301758 per_variant_size: 0 585 651 0 0 0 0 0 0 
Heartbeat_Variant_2 : 1325 0.323486 per_variant_size: 0 521 361 348 95 0 0 0 0 
Heartbeat_Variant_3 : 0 0 per_variant_size: 0 0 0 0 0 0 0 0 0 
Heartbeat_Variant_0_evicts 0 : 5913 1 : 254 2 : 320 3 : 0 
Heartbeat_Variant_1_evicts 0 : 267 1 : 0 2 : 472 3 : 0 
Heartbeat_Variant_2_evicts 0 : 292 1 : 467 2 : 0 3 : 0 
Heartbeat_Variant_3_evicts 0 : 0 1 : 0 2 : 0 3 : 0 
Heartbeat CPU 0 instructions: 10000000 cycles: 2796869 heartbeat IPC: 3.57543 cumulative IPC: 3.57543 (Simulation time: 0 hr 1 min 48 sec) 
Heartbeat_Variant_0 : 1346 0.328613 per_variant_size: 0 1346 0 0 0 0 0 0 0 
Heartbeat_Variant_1 : 1241 0.302979 per_variant_size: 0 577 664 0 0 0 0 0 0 
Heartbeat_Variant_2 : 1331 0.324951 per_variant_size: 0 527 353 364 87 0 0 0 0 
Heartbeat_Variant_3 : 0 0 per_variant_size: 0 0 0 0 0 0 0 0 0 
Heartbeat_Variant_0_evicts 0 : 5598 1 : 46 2 : 40 3 : 0 
Heartbeat_Variant_1_evicts 0 : 45 1 : 0 2 : 271 3 : 0 
Heartbeat_Variant_2_evicts 0 : 40 1 : 272 2 : 0 3 : 0 
Heartbeat_Variant_3_evicts 0 : 0 1 : 0 2 : 0 3 : 0 
Heartbeat CPU 0 instructions: 20000000 cycles: 5593020 heartbeat IPC: 3.57634 cumulative IPC: 3.57589 (Simulation time: 0 hr 3 min 28 sec) 
Heartbeat_Variant_0 : 1352 0.330078 per_variant_size: 0 1352 0 0 0 0 0 0 0 
Heartbeat_Variant_1 : 1250 0.305176 per_variant_size: 0 584 666 0 0 0 0 0 0 
Heartbeat_Variant_2 : 1341 0.327393 per_variant_size: 0 539 357 355 90 0 0 0 0 
Heartbeat_Variant_3 : 0 0 per_variant_size: 0 0 0 0 0 0 0 0 0 
Heartbeat_Variant_0_evicts 0 : 5645 1 : 75 2 : 66 3 : 0 
Heartbeat_Variant_1_evicts 0 : 72 1 : 0 2 : 313 3 : 0 
Heartbeat_Variant_2_evicts 0 : 71 1 : 308 2 : 0 3 : 0 
Heartbeat_Variant_3_evicts 0 : 0 1 : 0 2 : 0 3 : 0 
Heartbeat CPU 0 instructions: 30000002 cycles: 8388680 heartbeat IPC: 3.57697 cumulative IPC: 3.57625 (Simulation time: 0 hr 5 min 10 sec) 
Heartbeat_Variant_0 : 1360 0.332031 per_variant_size: 0 1360 0 0 0 0 0 0 0 
Heartbeat_Variant_1 : 1249 0.304932 per_variant_size: 0 570 679 0 0 0 0 0 0 
Heartbeat_Variant_2 : 1347 0.328857 per_variant_size: 0 539 363 368 77 0 0 0 0 
Heartbeat_Variant_3 : 0 0 per_variant_size: 0 0 0 0 0 0 0 0 0 
Heartbeat_Variant_0_evicts 0 : 5615 1 : 51 2 : 65 3 : 0 
Heartbeat_Variant_1_evicts 0 : 50 1 : 0 2 : 284 3 : 0 
Heartbeat_Variant_2_evicts 0 : 61 1 : 290 2 : 0 3 : 0 
Heartbeat_Variant_3_evicts 0 : 0 1 : 0 2 : 0 3 : 0 
Heartbeat CPU 0 instructions: 40000000 cycles: 11184999 heartbeat IPC: 3.57613 cumulative IPC: 3.57622 (Simulation time: 0 hr 6 min 54 sec) 
Heartbeat_Variant_0 : 1365 0.333252 per_variant_size: 0 1365 0 0 0 0 0 0 0 
Heartbeat_Variant_1 : 1253 0.305908 per_variant_size: 0 575 678 0 0 0 0 0 0 
Heartbeat_Variant_2 : 1347 0.328857 per_variant_size: 0 531 369 359 88 0 0 0 0 
Heartbeat_Variant_3 : 0 0 per_variant_size: 0 0 0 0 0 0 0 0 0 
Heartbeat_Variant_0_evicts 0 : 5625 1 : 19 2 : 19 3 : 0 
Heartbeat_Variant_1_evicts 0 : 18 1 : 0 2 : 251 3 : 0 
Heartbeat_Variant_2_evicts 0 : 17 1 : 252 2 : 0 3 : 0 
Heartbeat_Variant_3_evicts 0 : 0 1 : 0 2 : 0 3 : 0 
Heartbeat CPU 0 instructions: 50000000 cycles: 13981304 heartbeat IPC: 3.57615 cumulative IPC: 3.5762 (Simulation time: 0 hr 8 min 43 sec) 

Warmup complete CPU 0 instructions: 50000004 cycles: 13981305 (Simulation time: 0 hr 8 min 43 sec) 

Cycle: 20000000 FTQ IN: 58170872 FTQ occupancy: 19.376 DECODE IN: 58170872 DECODE occupancy: 50.7807 ROB IN: 58170872 ROB occupancy: 311.991 ROB OUT: 58170843
Heartbeat_Variant_0 : 1381 0.337158 per_variant_size: 0 1381 0 0 0 0 0 0 0 
Heartbeat_Variant_1 : 1248 0.304688 per_variant_size: 0 552 696 0 0 0 0 0 0 
Heartbeat_Variant_2 : 1353 0.330322 per_variant_size: 0 535 355 349 114 0 0 0 0 
Heartbeat_Variant_3 : 0 0 per_variant_size: 0 0 0 0 0 0 0 0 0 
Heartbeat_Variant_0_evicts 0 : 5461 1 : 43 2 : 48 3 : 0 
Heartbeat_Variant_1_evicts 0 : 31 1 : 0 2 : 309 3 : 0 
Heartbeat_Variant_2_evicts 0 : 49 1 : 310 2 : 0 3 : 0 
Heartbeat_Variant_3_evicts 0 : 0 1 : 0 2 : 0 3 : 0 
Heartbeat CPU 0 instructions: 60000001 cycles: 21338492 heartbeat IPC: 1.35922 cumulative IPC: 1.35921 (Simulation time: 0 hr 10 min 34 sec) 
Heartbeat_Variant_0 : 1380 0.336914 per_variant_size: 0 1380 0 0 0 0 0 0 0 
Heartbeat_Variant_1 : 1250 0.305176 per_variant_size: 0 548 702 0 0 0 0 0 0 
Heartbeat_Variant_2 : 1360 0.332031 per_variant_size: 0 529 365 360 106 0 0 0 0 
Heartbeat_Variant_3 : 0 0 per_variant_size: 0 0 0 0 0 0 0 0 0 
Heartbeat_Variant_0_evicts 0 : 5501 1 : 21 2 : 32 3 : 0 
Heartbeat_Variant_1_evicts 0 : 21 1 : 0 2 : 262 3 : 0 
Heartbeat_Variant_2_evicts 0 : 35 1 : 264 2 : 0 3 : 0 
Heartbeat_Variant_3_evicts 0 : 0 1 : 0 2 : 0 3 : 0 
Heartbeat CPU 0 instructions: 70000002 cycles: 28751702 heartbeat IPC: 1.34894 cumulative IPC: 1.35406 (Simulation time: 0 hr 12 min 26 sec) 
Cycle: 30000000 FTQ IN: 13547641 FTQ occupancy: 11.314 DECODE IN: 13547501 DECODE occupancy: 29.9247 ROB IN: 13547441 ROB occupancy: 227.931 ROB OUT: 13547214
Heartbeat_Variant_0 : 1381 0.337158 per_variant_size: 0 1381 0 0 0 0 0 0 0 
Heartbeat_Variant_1 : 1263 0.30835 per_variant_size: 0 562 701 0 0 0 0 0 0 
Heartbeat_Variant_2 : 1357 0.331299 per_variant_size: 0 523 367 359 108 0 0 0 0 
Heartbeat_Variant_3 : 0 0 per_variant_size: 0 0 0 0 0 0 0 0 0 
Heartbeat_Variant_0_evicts 0 : 5695 1 : 37 2 : 38 3 : 0 
Heartbeat_Variant_1_evicts 0 : 39 1 : 0 2 : 287 3 : 0 
Heartbeat_Variant_2_evicts 0 : 39 1 : 278 2 : 0 3 : 0 
Heartbeat_Variant_3_evicts 0 : 0 1 : 0 2 : 0 3 : 0 
Heartbeat CPU 0 instructions: 80000001 cycles: 36060607 heartbeat IPC: 1.36819 cumulative IPC: 1.35874 (Simulation time: 0 hr 14 min 17 sec) 
Cycle: 40000000 FTQ IN: 13677659 FTQ occupancy: 11.2266 DECODE IN: 13677751 DECODE occupancy: 29.898 ROB IN: 13677751 ROB occupancy: 227.295 ROB OUT: 13677655
Heartbeat_Variant_0 : 1386 0.338379 per_variant_size: 0 1386 0 0 0 0 0 0 0 
Heartbeat_Variant_1 : 1262 0.308105 per_variant_size: 0 572 690 0 0 0 0 0 0 
Heartbeat_Variant_2 : 1365 0.333252 per_variant_size: 0 537 357 367 104 0 0 0 0 
Heartbeat_Variant_3 : 0 0 per_variant_size: 0 0 0 0 0 0 0 0 0 
Heartbeat_Variant_0_evicts 0 : 5772 1 : 141 2 : 146 3 : 0 
Heartbeat_Variant_1_evicts 0 : 143 1 : 0 2 : 344 3 : 0 
Heartbeat_Variant_2_evicts 0 : 140 1 : 349 2 : 0 3 : 0 
Heartbeat_Variant_3_evicts 0 : 0 1 : 0 2 : 0 3 : 0 
Heartbeat CPU 0 instructions: 90000003 cycles: 43433601 heartbeat IPC: 1.3563 cumulative IPC: 1.35813 (Simulation time: 0 hr 16 min 3 sec) 
Cycle: 50000000 FTQ IN: 13650354 FTQ occupancy: 11.7087 DECODE IN: 13650366 DECODE occupancy: 30.7261 ROB IN: 13650422 ROB occupancy: 230.769 ROB OUT: 13650611
Heartbeat_Variant_0 : 1402 0.342285 per_variant_size: 0 1402 0 0 0 0 0 0 0 
Heartbeat_Variant_1 : 1279 0.312256 per_variant_size: 0 557 722 0 0 0 0 0 0 
Heartbeat_Variant_2 : 1351 0.329834 per_variant_size: 0 488 380 375 108 0 0 0 0 
Heartbeat_Variant_3 : 0 0 per_variant_size: 0 0 0 0 0 0 0 0 0 
Heartbeat_Variant_0_evicts 0 : 5447 1 : 116 2 : 101 3 : 0 
Heartbeat_Variant_1_evicts 0 : 114 1 : 0 2 : 303 3 : 0 
Heartbeat_Variant_2_evicts 0 : 91 1 : 291 2 : 0 3 : 0 
Heartbeat_Variant_3_evicts 0 : 0 1 : 0 2 : 0 3 : 0 
Heartbeat CPU 0 instructions: 100000002 cycles: 50694461 heartbeat IPC: 1.37725 cumulative IPC: 1.36191 (Simulation time: 0 hr 17 min 59 sec) 
Finished CPU 0 instructions: 50000002 cycles: 36713157 cumulative IPC: 1.36191 (Simulation time: 0 hr 17 min 59 sec) 

ChampSim completed all CPUs

Region of Interest Statistics

CPU 0 cumulative IPC: 1.36191 instructions: 50000002 cycles: 36713157
 Fetch stage stalled: 57.3277  Sim cycles: 36713157 fetch stall cycle: 21046811
 Empty decode stage: 40.397  Sim cycles: 36713157 fetch stall cycle: 14831024
ITLB TOTAL     ACCESS:    6884059  HIT:    6386673  MISS:     497386  HIT %:    92.7748  MISS %:    7.22519   MPKI: 9.94772
ITLB LOAD TRANSLATION INSTRUCTION	ACCESS:    5679473  HIT:    5200574  MISS:     478899  HIT %:    91.5679  MISS %:     8.4321  MPKI: 9.57798
ITLB TRANSLATION FROM L1D PREFETCHER INSTRUCTION	ACCESS:    1204586  HIT:    1186099  MISS:      18487  HIT %:    98.4653  MISS %:    1.53472  MPKI: 0.36974

ITLB AVERAGE MISS LATENCY: 57541.6 cycles
ITLB RQ	ACCESS:   10098852	FORWARD:          0	MERGED:    2742626	TO_CACHE:    7356226

DTLB TOTAL     ACCESS:    8977184  HIT:    8512657  MISS:     464527  HIT %:    94.8255  MISS %:    5.17453   MPKI: 9.29054
DTLB LOAD TRANSLATION DATA	ACCESS:    8977184  HIT:    8512657  MISS:     464527  HIT %:    94.8255  MISS %:    5.17453  MPKI: 9.29054

DTLB AVERAGE MISS LATENCY: 9.33208 cycles
DTLB RQ	ACCESS:   13336514	FORWARD:          0	MERGED:    4323945	TO_CACHE:    9012569

STLB TOTAL     ACCESS:    1208661  HIT:    1206703  MISS:       1958  HIT %:     99.838  MISS %:   0.161997   MPKI: 0.03916
STLB LOAD TRANSLATION INSTRUCTION	ACCESS:     477956  HIT:     477744  MISS:        212  HIT %:    99.9556  MISS %:  0.0443555  MPKI: 0.00424
STLB TRANSLATION FROM L1D PREFETCHER INSTRUCTION	ACCESS:      19430  HIT:      19403  MISS:         27  HIT %:     99.861  MISS %:    0.13896  MPKI: 0.00054
STLB LOAD TRANSLATION DATA	ACCESS:     464527  HIT:     462822  MISS:       1705  HIT %:     99.633  MISS %:    0.36704  MPKI: 0.0341
STLB TRANSLATION FROM L1D PREFETCHER DATA	ACCESS:     246748  HIT:     246734  MISS:         14  HIT %:    99.9943  MISS %:  0.0056738  MPKI: 0.00028

STLB AVERAGE MISS LATENCY: 76.2068 cycles
STLB RQ	ACCESS:    1362787	FORWARD:          0	MERGED:     126925	TO_CACHE:    1235862

STLB Hit, L1D data hit: 0
STLB Hit, L2C data hit: 0
STLB Hit, LLC data hit: 0
STLB Hit, LLC data miss: 0
STLB STLB hints to L2: 0
L1D TOTAL     ACCESS:   13080605  HIT:   11963878  MISS:    1116727  HIT %:    91.4627  MISS %:    8.53727   MPKI: 22.3345
L1D LOAD DATA	ACCESS:    6564086  HIT:    5827193  MISS:     736893  HIT %:    88.7739  MISS %:    11.2261  MPKI: 14.7379
L1D RFO DATA	ACCESS:    6191447  HIT:    5909424  MISS:     282023  HIT %:     95.445  MISS %:    4.55504  MPKI: 5.64046
L1D PREFETCH DATA	ACCESS:     325072  HIT:     227261  MISS:      97811  HIT %:     69.911  MISS %:     30.089  MPKI: 1.95622

L1D PREFETCH  REQUESTED:     747818  ISSUED:     747818  USEFUL:      37934  USELESS:      70134
L1D USEFUL LOAD PREFETCHES:      37934 PREFETCH ISSUED TO LOWER LEVEL:     108121  ACCURACY: 35.0848
 TIMELY PREFETCHES:      37934 LATE PREFETCHES: 10253 DROPPED PREFETCHES: 3
L1D AVERAGE MISS LATENCY: 295168 cycles
L1D RQ	ACCESS:   10692496	FORWARD:          0	MERGED:    3925536	TO_CACHE:    6600941
L1D WQ	ACCESS:    6938863	FORWARD:     166419	MERGED:     203290	TO_CACHE:    6735573
L1D PQ	ACCESS:     374109	FORWARD:          0	MERGED:          0	TO_CACHE:     373709

L1D UNIQUE REGIONS ACCESSED: 0
L1D REGIONS CONFLICTS: 0
L1D Cross Page Prefetch Requests: 5303
L1D Same Page Prefetch Requests: 766497
L1D ROI Sum of L1D PQ occupancy: 4755538
L1D PREFETCHES PUSHED FROM L2C: 0
L1I TOTAL     ACCESS:    8760323  HIT:    5501017  MISS:    3259306  HIT %:    62.7947  MISS %:    37.2053   MPKI: 65.1861
L1I LOAD INSTRUCTION	ACCESS:    6584265  HIT:    4505285  MISS:    2078980  HIT %:     68.425  MISS %:     31.575  MPKI: 41.5796
L1I PREFETCH INSTRUCTION	ACCESS:    2176058  HIT:     995732  MISS:    1180326  HIT %:    45.7585  MISS %:    54.2415  MPKI: 23.6065

L1I PREFETCH  REQUESTED:    3856135  ISSUED:    3853038  USEFUL:     919362  USELESS:     477110
L1I USEFUL LOAD PREFETCHES:     919362 PREFETCH ISSUED TO LOWER LEVEL:    1396462  ACCURACY: 65.8351
 TIMELY PREFETCHES:     919362 LATE PREFETCHES: 216136 DROPPED PREFETCHES: 63524
L1I AVERAGE MISS LATENCY: 2.12394e+06 cycles
L1I RQ	ACCESS:    9508456	FORWARD:          0	MERGED:    2730968	TO_CACHE:    6777488
L1I PQ	ACCESS:    3853038	FORWARD:          0	MERGED:     531674	TO_CACHE:    3321364

L1BTB TOTAL     ACCESS:    5689441  HIT:    2098745  MISS:    3590696  HIT %:    36.8884  MISS %:    63.1116   MPKI: 71.8139
L1BTB BRANCH_DIRECT_JUMP	ACCESS:     544987  HIT:     146583  MISS:     398404	AVERAGE STALL: 49.1519
L1BTB BRANCH_INDIRECT	ACCESS:     180639  HIT:      64635  MISS:     116004	AVERAGE STALL: 101.131
L1BTB BRANCH_CONDITIONAL	ACCESS:    2716056  HIT:    1439783  MISS:    1276273	AVERAGE STALL: 48.3488
L1BTB BRANCH_DIRECT_CALL	ACCESS:     952383  HIT:     118968  MISS:     833415	AVERAGE STALL: 61.3088
L1BTB BRANCH_INDIRECT_CALL	ACCESS:     171493  HIT:      23421  MISS:     148072	AVERAGE STALL: 127.411
L1BTB BRANCH_RETURN	ACCESS:    1123883  HIT:     305355  MISS:     818528	AVERAGE STALL: 48.3052
L1BTB BRANCH_OTHER ACCESS:          0  HIT:          0  MISS:          0	AVERAGE STALL: -nan
L1BTB TOTAL ROB OCCUPANCY AT BTB MISS: 5.23633

L2BTB TOTAL     ACCESS:    3565758  HIT:    3457261  MISS:     108497  HIT %:    96.9573  MISS %:    3.04275   MPKI: 2.16994
L2BTB BRANCH_DIRECT_JUMP	ACCESS:     394340  HIT:     388217  MISS:       6123	AVERAGE STALL: 49.1519
L2BTB BRANCH_INDIRECT	ACCESS:     105885  HIT:     103222  MISS:       2663	AVERAGE STALL: 101.131
L2BTB BRANCH_CONDITIONAL	ACCESS:    1276273  HIT:    1249022  MISS:      27251	AVERAGE STALL: 48.3488
L2BTB BRANCH_DIRECT_CALL	ACCESS:     833415  HIT:     831954  MISS:       1461	AVERAGE STALL: 61.3088
L2BTB BRANCH_INDIRECT_CALL	ACCESS:     138720  HIT:     128699  MISS:      10021	AVERAGE STALL: 127.411
L2BTB BRANCH_RETURN	ACCESS:     817125  HIT:     756147  MISS:      60978	AVERAGE STALL: 48.3052
L2BTB BRANCH_OTHER ACCESS:          0  HIT:          0  MISS:          0	AVERAGE STALL: -nan
L2BTB TOTAL ROB OCCUPANCY AT BTB MISS: 173.296

L2C TOTAL     ACCESS:    5622609  HIT:    4868152  MISS:     754457  HIT %:    86.5817  MISS %:    13.4183   MPKI: 15.0891
L2C LOAD INSTRUCTION	ACCESS:    1862844  HIT:    1642482  MISS:     220362  HIT %:    88.1707  MISS %:    11.8293  MPKI: 4.40724
L2C PREFETCH INSTRUCTION	ACCESS:    1396462  HIT:    1239785  MISS:     156677  HIT %:    88.7804  MISS %:    11.2196  MPKI: 3.13354
L2C LOAD TRANSLATION INSTRUCTION	ACCESS:        246  HIT:         95  MISS:        151  HIT %:    38.6179  MISS %:    61.3821  MPKI: 0.00302
L2C TRANSLATION FROM L1D PREFETCHER INSTRUCTION	ACCESS:      42230  HIT:      29122  MISS:      13108  HIT %:    68.9605  MISS %:    31.0395  MPKI: 0.26216
L2C LOAD DATA	ACCESS:     726598  HIT:     616186  MISS:     110412  HIT %:    84.8043  MISS %:    15.1957  MPKI: 2.20824
L2C RFO DATA	ACCESS:     281928  HIT:     215836  MISS:      66092  HIT %:    76.5571  MISS %:    23.4429  MPKI: 1.32184
L2C PREFETCH DATA	ACCESS:     795150  HIT:     633657  MISS:     161493  HIT %:    79.6902  MISS %:    20.3098  MPKI: 3.22986
L2C WRITEBACK DATA	ACCESS:     515323  HIT:     490550  MISS:      24773  HIT %:    95.1927  MISS %:    4.80728  MPKI: 0.49546
L2C LOAD TRANSLATION DATA	ACCESS:       1802  HIT:        424  MISS:       1378  HIT %:    23.5294  MISS %:    76.4706  MPKI: 0.02756
L2C TRANSLATION FROM L1D PREFETCHER DATA	ACCESS:         26  HIT:         15  MISS:         11  HIT %:    57.6923  MISS %:    42.3077  MPKI: 0.00022

L2C PREFETCH  REQUESTED:    1463709  ISSUED:    1463709  USEFUL:      27728  USELESS:     306073
L2C USEFUL LOAD PREFETCHES:      27728 PREFETCH ISSUED TO LOWER LEVEL:     319755  ACCURACY: 8.67164
 TIMELY PREFETCHES:      27728 LATE PREFETCHES: 1585 DROPPED PREFETCHES: 0
L2C AVERAGE MISS LATENCY: 35.5769 cycles
L2C RQ	ACCESS:    2915754	FORWARD:          0	MERGED:          0	TO_CACHE:    2915674
L2C WQ	ACCESS:     515323	FORWARD:         81	MERGED:          0	TO_CACHE:     515323
L2C PQ	ACCESS:    2968292	FORWARD:          0	MERGED:     763675	TO_CACHE:    2204616

L2C Dense regions hint from L2: 0
PSCL5 TOTAL     ACCESS:      58262  HIT:      29131  MISS:      29131  HIT %:         50  MISS %:         50   MPKI: 0.58262
PSCL5 LOAD TRANSLATION INSTRUCTION	ACCESS:       3826  HIT:       1913  MISS:       1913  HIT %:         50  MISS %:         50  MPKI: 0.03826
PSCL5 TRANSLATION FROM L1D PREFETCHER INSTRUCTION	ACCESS:      54436  HIT:      27218  MISS:      27218  HIT %:         50  MISS %:         50  MPKI: 0.54436


PSCL4 TOTAL     ACCESS:      48548  HIT:      24267  MISS:      24281  HIT %:    49.9856  MISS %:    50.0144   MPKI: 0.48562
PSCL4 LOAD TRANSLATION INSTRUCTION	ACCESS:       2300  HIT:       1690  MISS:        610  HIT %:    73.4783  MISS %:    26.5217  MPKI: 0.0122
PSCL4 TRANSLATION FROM L1D PREFETCHER INSTRUCTION	ACCESS:      30746  HIT:      22577  MISS:       8169  HIT %:    73.4307  MISS %:    26.5693  MPKI: 0.16338
PSCL4 LOAD TRANSLATION DATA	ACCESS:       1094  HIT:          0  MISS:       1094  HIT %:          0  MISS %:        100  MPKI: 0.02188
PSCL4 TRANSLATION FROM L1D PREFETCHER DATA	ACCESS:      14408  HIT:          0  MISS:      14408  HIT %:          0  MISS %:        100  MPKI: 0.28816


PSCL3 TOTAL     ACCESS:      48600  HIT:      24293  MISS:      24307  HIT %:    49.9856  MISS %:    50.0144   MPKI: 0.48614
PSCL3 LOAD TRANSLATION INSTRUCTION	ACCESS:       2326  HIT:       1716  MISS:        610  HIT %:    73.7747  MISS %:    26.2253  MPKI: 0.0122
PSCL3 TRANSLATION FROM L1D PREFETCHER INSTRUCTION	ACCESS:      30746  HIT:      22577  MISS:       8169  HIT %:    73.4307  MISS %:    26.5693  MPKI: 0.16338
PSCL3 LOAD TRANSLATION DATA	ACCESS:       1120  HIT:          0  MISS:       1120  HIT %:          0  MISS %:        100  MPKI: 0.0224
PSCL3 TRANSLATION FROM L1D PREFETCHER DATA	ACCESS:      14408  HIT:          0  MISS:      14408  HIT %:          0  MISS %:        100  MPKI: 0.28816


PSCL2 TOTAL     ACCESS:      35841  HIT:      17860  MISS:      17981  HIT %:    49.8312  MISS %:    50.1688   MPKI: 0.35962
PSCL2 LOAD TRANSLATION INSTRUCTION	ACCESS:       2025  HIT:       1800  MISS:        225  HIT %:    88.8889  MISS %:    11.1111  MPKI: 0.0045
PSCL2 TRANSLATION FROM L1D PREFETCHER INSTRUCTION	ACCESS:      30988  HIT:      16060  MISS:      14928  HIT %:    51.8265  MISS %:    48.1735  MPKI: 0.29856
PSCL2 LOAD TRANSLATION DATA	ACCESS:       1696  HIT:          0  MISS:       1696  HIT %:          0  MISS %:        100  MPKI: 0.03392
PSCL2 TRANSLATION FROM L1D PREFETCHER DATA	ACCESS:       1132  HIT:          0  MISS:       1132  HIT %:          0  MISS %:        100  MPKI: 0.02264


LLC TOTAL     ACCESS:     830715  HIT:     799735  MISS:      30980  HIT %:    96.2707  MISS %:    3.72932   MPKI: 0.6196
LLC LOAD INSTRUCTION	ACCESS:     219575  HIT:     218804  MISS:        771  HIT %:    99.6489  MISS %:   0.351133  MPKI: 0.01542
LLC PREFETCH INSTRUCTION	ACCESS:     156019  HIT:     155012  MISS:       1007  HIT %:    99.3546  MISS %:   0.645434  MPKI: 0.02014
LLC LOAD TRANSLATION INSTRUCTION	ACCESS:        151  HIT:        142  MISS:          9  HIT %:    94.0397  MISS %:    5.96026  MPKI: 0.00018
LLC TRANSLATION FROM L1D PREFETCHER INSTRUCTION	ACCESS:      13108  HIT:      13008  MISS:        100  HIT %:    99.2371  MISS %:   0.762893  MPKI: 0.002
LLC LOAD DATA	ACCESS:     109635  HIT:     105662  MISS:       3973  HIT %:    96.3762  MISS %:    3.62384  MPKI: 0.07946
LLC RFO DATA	ACCESS:      66048  HIT:      52987  MISS:      13061  HIT %:     80.225  MISS %:     19.775  MPKI: 0.26122
LLC PREFETCH DATA	ACCESS:     163735  HIT:     152161  MISS:      11574  HIT %:    92.9313  MISS %:    7.06874  MPKI: 0.23148
LLC WRITEBACK DATA	ACCESS:     101055  HIT:     100656  MISS:        399  HIT %:    99.6052  MISS %:   0.394834  MPKI: 0.00798
LLC LOAD TRANSLATION DATA	ACCESS:       1378  HIT:       1292  MISS:         86  HIT %:    93.7591  MISS %:    6.24093  MPKI: 0.00172
LLC TRANSLATION FROM L1D PREFETCHER DATA	ACCESS:         11  HIT:         11  MISS:          0  HIT %:        100  MISS %:          0  MPKI: 0

LLC AVERAGE MISS LATENCY: 158.774 cycles
LLC RQ	ACCESS:     409929	FORWARD:          0	MERGED:          0	TO_CACHE:     409906
LLC WQ	ACCESS:     101055	FORWARD:         24	MERGED:          0	TO_CACHE:     101055
LLC PQ	ACCESS:     319755	FORWARD:          0	MERGED:          0	TO_CACHE:     319754

LLC Dense regions hint to LLC: 0

RAW hits: 1946566
Loads Generated: 12639062
Loads sent to L1D: 10692496
Stores Generated: 6938851
Stores sent to L1D: 6938863
Major fault: 0 Minor fault: 2579
Allocated PAGES: 2579
I-Shadow cache 408 bytes
Touched + WorthPF tables 12288 bytes 
MMA filter 42 bytes 
FNL filter 272 bytes 
TOTAL PREFETCHER STORAGE SIZE: 19922 bytes
CPU 0 L1I next line prefetcher final stats

stream: 
stream:times selected: 1205333
stream:pref_filled: 122994
stream:pref_useful: 24763
stream:pref_late: 8955
stream:misses: 9382
stream:misses_by_poll: 0

CS: 
CS:times selected: 184620
CS:pref_filled: 61728
CS:pref_useful: 37751
CS:pref_late: 11329
CS:misses: 22629
CS:misses_by_poll: 3

CPLX: 
CPLX:times selected: 1019486
CPLX:pref_filled: 21343
CPLX:pref_useful: 5561
CPLX:pref_late: 3899
CPLX:misses: 107299
CPLX:misses_by_poll: 3

NL_L1: 
NL:times selected: 12539
NL:pref_filled: 732
NL:pref_useful: 166
NL:pref_late: 317
NL:misses: 1172
NL:misses_by_poll: 0

total selections: 2421978
total_filled: 97811
total_useful: 37934
total_late: 26252
total_polluted: 6
total_misses_after_warmup: 773753
conflicts: 5519732

test: 119082

DRAM Statistics
 CHANNEL 0
 RQ ROW_BUFFER_HIT:      10451  ROW_BUFFER_MISS:      20125
 DBUS_CONGESTED:          8
 WQ ROW_BUFFER_HIT:       1487  ROW_BUFFER_MISS:      12427  FULL:          0

 AVG_CONGESTED_CYCLE: 5

CPU 0 Branch Prediction Accuracy: 99.8174% MPKI: 0.33478 Average ROB Occupancy at Mispredict: 180.597
Branch types
NOT_BRANCH: 40832744 81.6655%
BRANCH_DIRECT_JUMP: 544987 1.08997%
BRANCH_INDIRECT: 180639 0.361278%
BRANCH_CONDITIONAL: 6193791 12.3876%
BRANCH_DIRECT_CALL: 952383 1.90477%
BRANCH_INDIRECT_CALL: 171493 0.342986%
BRANCH_RETURN: 1123883 2.24777%
BRANCH_OTHER: 0 0%

DRAM PAGES: 1048576
Allocated PAGES: 2579
Average_ROB_Occupancy: 229.532
Average_Decode_Occupancy: 30.0062
Average_FTQ_Occupancy: 11.3334
Indirect max targets: 14 Average targets: 1.15615
Branch_type:  BRANCH_DIRECT_JUMP:  Count Percentage: 3.63378 5.26104 4.18365 8.70799 7.49331 6.56364 2.32083 61.8358 
Branch_type:  BRANCH_INDIRECT:  Count Percentage: 11.7221 3.41806 2.52583 17.3204 10.9964 3.07697 1.73463 49.2056 
Branch_type:  BRANCH_CONDITIONAL:  Count Percentage: 21.055 9.94396 2.50012 5.60561 3.49616 3.87658 2.82148 50.7011 
Branch_type:  BRANCH_DIRECT_CALL:  Count Percentage: 0.384365 1.75648 0.729812 3.64858 2.9726 3.35173 4.30368 82.8528 
Branch_type:  BRANCH_INDIRECT_CALL:  Count Percentage: 9.49371 0 2.9759 4.53047 0.000292213 2.84177 4.11933 76.0385 
Branch_type:  BRANCH_RETURN:  Count Percentage: 3.90643 7.96822 1.77848 5.53766 5.01063 3.57943 3.87591 68.3432 
Branch_type:  BRANCH_DIRECT_JUMP:  Total Count: 39677 57445 45681 95082 81819 71668 25341 675181 
Branch_type:  BRANCH_INDIRECT:  Total Count: 42580 12416 9175 62916 39944 11177 6301 178738 
Branch_type:  BRANCH_CONDITIONAL:  Total Count: 2606986 1231241 309560 694075 432888 479990 349350 6277708 
Branch_type:  BRANCH_DIRECT_CALL:  Total Count: 7269 33218 13802 69001 56217 63387 81390 1566889 
Branch_type:  BRANCH_INDIRECT_CALL:  Total Count: 32489 0 10184 15504 1 9725 14097 260216 
Branch_type:  BRANCH_RETURN:  Total Count: 87278 178027 39735 123723 111948 79972 86596 1526933 
Number of unique branch instructions: 10196
Upper 32 bits: 
aaaa
ffff
ffff0000
Unique upper 32 bits: 3
Unique upper 36 bits: 3
Unique upper 40 bits: 5
Unique upper 44 bits: 32
Unique upper 48 bits: 155
Variant_0 : 1402 0.342285
Variant_1 : 1279 0.312256
Variant_2 : 1351 0.329834
Variant_3 : 0 0
Offset_3 4207
Offset_4 253
Offset_5 460
Offset_6 521
Offset_7 606
Offset_8 535
Offset_9 482
Offset_10 398
Offset_11 322
Offset_12 283
Offset_13 220
Offset_14 241
Offset_15 193
Offset_16 224
Offset_17 157
Offset_18 124
Offset_19 252
Offset_20 139
Offset_21 235
Offset_22 402
Offset_23 241
Offset_24 341
Offset_25 95
Offset_47 86
Offset_64 1
decode_dispatch_called: 24377880 66.4009
Dispatch_width: 0 12921690 53.0058 35.1963
Dispatch_width: 1 852455 3.49684 2.32193
Dispatch_width: 2 799015 3.27762 2.17637
Dispatch_width: 3 488891 2.00547 1.33165
Dispatch_width: 4 4807724 19.7217 13.0954
Dispatch_width: 5 196682 0.806805 0.535726
Dispatch_width: 6 4311423 17.6858 11.7435
Empty_decode_cycles: 12335277 33.5991
ROB_full_cycles: 7538824 20.5344
Starvation_cycles_per_kilo_instr: 248.629
Starvation_cycles_per_kilo_instr_3: 198.585
Starvation_cycles_per_kilo_instr_0: 177.181
Branch_type_1  (3,1)  (4,9)  (5,38)  (6,74)  (7,119)  (8,130)  (9,127)  (10,100)  (11,69)  (12,43)  (13,9)  (14,2)  (15,3)  (16,4)  (18,1)  (19,4)  (20,2)  (21,1)  (22,3)  (23,2)  (24,10)  (25,13) 
Branch_type_2  (3,1)  (4,1)  (5,1)  (8,3)  (9,3)  (12,1)  (13,1)  (14,1)  (16,3)  (17,2)  (20,2)  (21,2)  (23,5)  (24,1)  (47,40) 
Branch_type_3  (3,4205)  (4,243)  (5,417)  (6,432)  (7,457)  (8,340)  (9,261)  (10,162)  (11,125)  (12,50)  (13,7) 
Branch_type_4  (6,3)  (7,8)  (8,25)  (9,54)  (10,64)  (11,65)  (12,105)  (13,93)  (14,106)  (15,92)  (16,101)  (17,70)  (18,56)  (19,123)  (20,72)  (21,124)  (22,211)  (23,136)  (24,201)  (25,78) 
Branch_type_5  (8,2)  (9,1)  (10,4)  (11,5)  (12,3)  (13,14)  (14,17)  (15,11)  (16,20)  (17,13)  (18,16)  (19,13)  (20,11)  (21,13)  (22,42)  (23,26)  (24,37) 
Branch_type_6  (5,4)  (6,12)  (7,22)  (8,35)  (9,36)  (10,68)  (11,58)  (12,81)  (13,96)  (14,115)  (15,87)  (16,96)  (17,72)  (18,51)  (19,112)  (20,52)  (21,95)  (22,146)  (23,72)  (24,92)  (25,4)  (47,46)  (64,1) 
Unique trigger count: 
Variant_0_evicts_0 : 0
Variant_0_evicts_1 : 0
Variant_0_evicts_2 : 0
Variant_0_evicts_3 : 0
Variant_1_evicts_0 : 0
Variant_1_evicts_1 : 0
Variant_1_evicts_2 : 0
Variant_1_evicts_3 : 0
Variant_2_evicts_0 : 0
Variant_2_evicts_1 : 0
Variant_2_evicts_2 : 0
Variant_2_evicts_3 : 0
Variant_3_evicts_0 : 0
Variant_3_evicts_1 : 0
Variant_3_evicts_2 : 0
Variant_3_evicts_3 : 0
BTB PER SET UNIQUE ADDR: 11 11 10 14 9 9 8 12 8 9 13 15 11 11 5 12 6 9 5 11 9 11 14 9 8 13 11 10 12 6 10 10 15 9 7 10 12 11 8 10 7 9 13 7 7 10 11 7 10 8 12 9 10 10 10 5 8 10 11 8 10 18 6 16 12 9 9 8 12 11 8 11 10 9 11 9 10 12 8 14 12 7 9 9 12 14 10 8 10 16 7 7 12 7 6 11 7 10 11 12 18 16 16 11 10 8 8 15 9 12 7 15 11 8 9 7 10 14 11 12 13 12 10 9 11 10 8 12 12 11 11 11 8 13 11 13 8 11 7 14 9 7 9 10 10 13 14 8 5 10 13 14 12 10 12 12 13 17 14 9 9 10 10 11 12 14 10 10 10 8 12 14 10 13 11 11 12 9 10 11 7 11 11 10 12 17 6 8 9 14 8 9 10 10 14 13 9 12 9 12 11 9 7 8 11 11 8 9 10 10 9 15 11 10 7 12 8 9 10 15 8 14 7 9 11 11 12 15 7 15 9 8 6 13 7 8 12 10 10 7 12 12 15 11 9 11 7 7 11 8 12 10 10 15 12 13 12 8 10 8 11 8 4 13 14 6 6 8 7 13 5 9 7 6 7 9 7 12 6 11 7 10 7 11 12 9 10 15 14 11 10 8 13 14 6 15 9 9 13 15 9 5 12 14 13 15 9 10 13 10 11 13 11 16 9 7 10 7 13 12 6 16 7 12 12 11 15 8 9 7 12 12 7 8 9 7 11 7 6 22 12 9 9 14 13 9 10 5 12 10 11 9 10 7 9 10 11 17 8 8 9 12 7 15 6 9 6 13 10 14 14 10 13 12 7 11 12 16 12 12 11 8 10 9 8 11 16 10 13 12 12 8 13 14 8 7 9 10 11 11 8 14 10 11 19 14 11 13 11 10 7 7 9 15 7 11 12 14 14 15 8 14 12 8 9 10 11 7 10 7 15 8 9 8 12 15 7 7 8 10 14 11 13 14 16 6 9 8 16 7 18 8 14 8 13 15 17 17 10 15 14 7 12 11 13 11 8 10 8 13 8 10 15 5 11 16 4 13 8 12 14 14 11 11 11 13 15 13 15 14 8 18 10 6 8 8 13 14 10 10 12 17 10 23 6 7 13 15 13 10 13 15 11 13 9 9 11 18 7 8 11 7 8 8 12 13 17 8 9 13 9 10 13 12 10 21 9 13 12 12 13 11 14 13 11 13 11 13 9 12 11 12 9 14 10 13 14 9 15 13 13 16 14 8 11 14 10 9 8 17 13 13 18 13 13 11 11 11 11 11 15 11 6 10 16 9 12 10 14 12 9 14 10 8 14 13 8 12 7 11 8 11 4 6 8 7 12 8 10 12 22 11 8 13 5 10 8 10 14 13 15 13 7 7 12 14 11 14 8 15 7 12 15 11 9 9 14 11 9 14 14 10 10 12 9 15 11 9 13 13 6 14 6 12 16 8 12 9 10 10 10 6 13 14 10 12 9 8 12 14 7 11 10 15 15 7 15 18 8 15 13 12 8 13 14 12 9 14 12 11 13 13 12 7 10 11 8 13 7 12 7 14 14 9 6 13 13 11 11 7 10 14 9 8 11 11 11 7 10 14 9 9 14 10 12 9 10 6 10 9 15 15 10 8 5 13 15 15 21 13 8 10 14 12 15 18 14 13 12 9 16 10 10 10 7 12 15 9 10 6 12 7 10 8 10 11 12 9 7 15 11 16 11 5 7 11 13 12 13 16 6 15 10 9 15 10 8 13 8 7 8 6 11 13 16 15 8 9 14 12 13 13 12 16 18 11 11 11 8 13 11 14 11 10 9 16 14 16 8 14 8 12 9 13 15 13 8 13 10 10 11 13 14 10 9 14 14 11 10 12 13 16 8 7 9 15 8 13 9 9 11 12 10 14 13 16 14 6 8 10 10 10 10 7 14 5 12 7 16 7 12 11 11 16 12 7 13 11 10 12 17 8 13 14 14 13 14 10 12 17 14 8 8 12 9 12 12 11 10 8 11 10 7 8 5 9 13 11 6 12 9 10 11 13 14 7 13 13 9 8 12 14 10 9 9 10 7 12 9 9 11 16 17 11 8 13 12 11 14 14 10 14 13 10 14 12 12 10 7 14 9 12 11 14 9 10 11 11 10 10 12 12 9 14 18 10 13 9 7 17 9 14 11 14 13 8 11 10 15 15 10 16 9 10 11 17 10 13 15 12 13 13 10 14 8 10 8 11 16 9 16 18 7 7 14 15 7 17 11 14 8 12 14 4 9 9 4 10 6 6 12 16 10 10 
BTB PER SET COUNT: 989 2775 2880 2643 2685 11 11 875 3399 13 2153 5177 23581 549 501 3707 1206 847 5 755 2039 255 3297 12 2890 1097 1120 146 2948 456 4306 295 151 19 8 1090 1176 3219 17 3566 404 1444 629 806 734 3405 1478 7 1915 9 51 4772 801 859 1986 1027 283 5924 146 10 121 2547 6 784 1169 169 1031 4471 50 651 2356 4353 14 2271 1578 953 373 3061 678 1248 2234 993 642 2224 1678 4116 493 10 2534 3368 1298 823 1042 1393 19 33 3918 180 15 378 655 6836 1959 963 359 42 15 1111 4142 3425 48 164 3286 1839 997 16 2325 7215 4340 1663 1419 3857 14 813 3510 3010 29 13 1708 3922 3906 1552 51 705 425 5011 670 26 1089 398 11 12 61 2412 4760 1844 8744 498 5 23 1334 3162 4179 1494 2604 3616 2249 67 16 750 551 173 36 2929 1571 8105 122 977 12 521 739 1710 14 1017 236 950 182 1143 25 3216 789 2781 2408 20 393 103 582 142 268 3892 168 3095 727 934 5433 7353 172 2817 15 4714 4237 323 2911 414 2515 1571 2078 2533 818 13 19 173 4208 12 2410 3590 3977 15 2482 27 3406 1083 10 4173 15 806 3330 2700 1910 4643 262 324 8 1324 9 282 592 3834 584 10 1034 3814 501 3197 1401 7658 1824 469 253 9 2463 104 39 5740 17 2019 10285 1180 18 14 2189 2919 10 59 2524 3849 10 4068 1316 2613 2423 192 492 3242 791 258 22 19 2048 24 2577 1104 3295 2463 8301 10 2936 4114 10317 4680 2436 390 1816 3636 7 1218 3275 643 553 4348 4528 2904 4599 25 2505 1571 2003 204 2193 1982 5035 6509 1380 4819 842 840 717 12 494 1150 485 8018 11 835 4652 450 3828 394 1042 10 2018 1248 46 2762 72 107 1136 2948 121 3035 45 3938 1951 7901 1029 2438 3284 449 3550 18 1869 76 1515 15 2572 8958 15 2043 2538 7549 40 2181 136 118 9 11 3386 1113 16 4013 2183 1695 29 1909 1346 4552 871 3954 1049 2997 5884 3368 2641 2351 1228 754 946 113 816 973 443 1382 22 4794 17 13 1255 339 3338 968 989 504 2833 3118 940 3483 19 263 1722 952 9 983 3318 544 10 621 880 2609 5364 4251 14 3187 18 11 3075 2000 1096 2481 811 1706 1371 8 2383 1033 1016 34 1482 1330 500 447 3100 278 1033 784 5897 6 387 14 754 13 2472 14 1771 392 3133 2654 1812 3717 530 65 1141 53 2106 2769 20 6418 1327 1528 14 3222 734 286 2136 5 2320 1993 4 1153 791 19 2002 1205 2522 1973 62 1193 307 1472 6102 2918 3147 4721 10636 19 294 3979 7241 3679 111 116 1424 6814 3056 1287 39 290 1035 48 4130 2935 978 2022 2796 5048 1824 1045 1472 666 98 1781 862 13 11 496 1062 4805 1131 24 17 454 1859 14 2314 376 15 2958 671 1257 110 4335 922 3997 2986 71 1671 1175 506 131 75 2071 4282 5145 2106 4466 3584 502 2449 7024 3402 4261 2777 554 1570 976 502 71 140 15 346 440 1702 4308 2406 47 3461 159 1274 891 2276 1483 341 223 8 5877 209 1281 4372 379 2564 2675 506 8133 1168 2157 2577 1708 1915 2642 13 1911 1464 1428 480 444 11 8 1043 6081 425 29 1709 7652 30 4474 652 283 499 196 622 2535 4311 839 10 2558 1666 4295 2227 197 1417 6853 4383 16 1157 2656 1459 1824 1911 1689 11 1910 194 2074 14 179 4380 188 2723 40 4065 1748 278 2319 1315 2152 2926 511 2450 2244 637 1236 646 6 2202 411 2805 3880 13 2719 5827 747 13 325 3373 781 497 70 790 3616 11 3092 2462 1292 187 5271 3249 3552 773 1247 4031 296 2322 991 2198 181 2824 25 845 2395 12 1557 3426 43 1915 632 10 2085 4976 2852 2401 8 1719 36 352 2659 74 78 19 2920 1455 489 129 11 5003 2687 5953 271 2709 6 3985 369 389 2555 1627 1764 2427 5072 3590 1216 1952 11377 4807 2065 3221 349 787 5103 1101 2865 4477 689 1139 2513 5437 3990 4367 821 1557 12 681 6 529 782 1928 139 20 604 751 5926 10 4152 434 8673 1593 5 1323 20 1519 312 2633 668 3422 44 879 374 4653 3627 10 142 819 9 1098 14 1450 3766 3660 3765 122 1025 3476 4741 3432 2128 14 66 470 3496 1963 2219 343 2792 2038 1212 4388 669 13 4474 477 4063 3200 2464 1018 3863 115 2496 5657 2479 754 1891 27 2738 175 2175 1698 1015 1912 744 2339 2757 22 2170 3129 1890 3587 12 1446 279 9 979 2077 15161 339 1042 7450 1466 4500 3039 1471 6 18 428 24 827 5675 7 3206 33 742 1294 3673 1441 1041 515 1400 4447 7081 3211 7108 3345 1729 67 5316 3078 2719 8259 1351 2838 3732 379 1547 2815 5764 1488 703 2677 28 749 2207 18 3664 114 143 18 9 978 5 181 2576 20 1069 2781 14 4164 22 3708 1647 8 293 671 484 810 1453 1964 992 29 15 28 18 84 5348 2258 142 897 4825 3743 11 3171 2996 14 2799 113 2030 3465 1456 1640 1186 58 1381 12 8 3438 1041 1362 1423 8415 3898 91 575 1463 2049 20 2439 355 2227 1384 1859 2417 790 2061 7 3812 615 5318 358 2281 7270 3968 57 986 5030 287 12 530 512 2424 700 4716 1035 3558 1333 997 386 497 13 33 9 1969 11 1477 25 933 2280 4238 7 7 4552 5400 13 6752 23 5034 534 3343 1669 4 655 885 24 15 403 471 1315 62 67 770 
To predecode: 1180326
Predecoding something: 752570
Predecode request dropped: 0
sizeofblock_0 0
sizeofblock_1 305503
sizeofblock_2 407924
sizeofblock_3 841447
sizeofblock_4 231220
sizeofblock_5 0
sizeofblock_6 0
sizeofblock_7 0
sizeofblock_8 0
Variant_0 Correct: 1603812 Incorrect: 0 Accuracy: 1
Variant_1 Correct: 2077053 Incorrect: 0 Accuracy: 1
Variant_2 Correct: 5015753 Incorrect: 0 Accuracy: 1
Variant_3 Correct: 0 Incorrect: 0 Accuracy: -nan
