
*** ChampSim Multicore Out-of-Order Simulator ***

Warmup Instructions: 50000000
Simulation Instructions: 50000000
Number of CPUs: 1
LLC sets: 2048
LLC ways: 16
Off-chip DRAM Size: 4096 MB Channels: 1 Width: 64-bit Data Rate: 6400 MT/s
CPU 0 runs ./micro_traces/srv595.trace.gz
.gz
ITLB has LRU replacement policy
DTLB has LRU replacement policy
STLB has LRU replacement policy
FDIP Prefetcher at L1I
L1I has LRU replacement policy
L1D has LRU replacement policy
Initialize SRRIP state for L2C
Initialize DRRIP state for LLC
Heartbeat CPU 0 instructions: 10000000 cycles: 2796738 heartbeat IPC: 3.57559 cumulative IPC: 3.57559 (Simulation time: 0 hr 1 min 36 sec) 
Heartbeat CPU 0 instructions: 20000000 cycles: 5592656 heartbeat IPC: 3.57664 cumulative IPC: 3.57612 (Simulation time: 0 hr 3 min 8 sec) 
Heartbeat CPU 0 instructions: 30000002 cycles: 8388230 heartbeat IPC: 3.57708 cumulative IPC: 3.57644 (Simulation time: 0 hr 4 min 44 sec) 
Heartbeat CPU 0 instructions: 40000000 cycles: 11184412 heartbeat IPC: 3.5763 cumulative IPC: 3.57641 (Simulation time: 0 hr 6 min 17 sec) 
Heartbeat CPU 0 instructions: 50000000 cycles: 13980542 heartbeat IPC: 3.57637 cumulative IPC: 3.5764 (Simulation time: 0 hr 7 min 50 sec) 

Warmup complete CPU 0 instructions: 50000004 cycles: 13980543 (Simulation time: 0 hr 7 min 50 sec) 

Cycle: 20000000 FTQ IN: 57089598 FTQ occupancy: 18.308 DECODE IN: 57089598 DECODE occupancy: 46.9333 ROB IN: 57089598 ROB occupancy: 283.441 ROB OUT: 57089449
Heartbeat CPU 0 instructions: 60000001 cycles: 22486693 heartbeat IPC: 1.17562 cumulative IPC: 1.17562 (Simulation time: 0 hr 9 min 11 sec) 
Cycle: 30000000 FTQ IN: 11594408 FTQ occupancy: 7.54085 DECODE IN: 11594408 DECODE occupancy: 16.545 ROB IN: 11594404 ROB occupancy: 131.75 ROB OUT: 11594201
Heartbeat CPU 0 instructions: 70000002 cycles: 31124860 heartbeat IPC: 1.15765 cumulative IPC: 1.16657 (Simulation time: 0 hr 10 min 33 sec) 
Heartbeat CPU 0 instructions: 80000002 cycles: 39696298 heartbeat IPC: 1.16667 cumulative IPC: 1.1666 (Simulation time: 0 hr 11 min 56 sec) 
Cycle: 40000000 FTQ IN: 11668875 FTQ occupancy: 7.44018 DECODE IN: 11668863 DECODE occupancy: 16.4187 ROB IN: 11668867 ROB occupancy: 130.113 ROB OUT: 11669164
Heartbeat CPU 0 instructions: 90000003 cycles: 48349277 heartbeat IPC: 1.15567 cumulative IPC: 1.16385 (Simulation time: 0 hr 13 min 21 sec) 
Cycle: 50000000 FTQ IN: 11564610 FTQ occupancy: 7.54548 DECODE IN: 11564570 DECODE occupancy: 16.5885 ROB IN: 11564570 ROB occupancy: 130.086 ROB OUT: 11564489
Heartbeat CPU 0 instructions: 100000002 cycles: 56800660 heartbeat IPC: 1.18324 cumulative IPC: 1.16768 (Simulation time: 0 hr 14 min 53 sec) 
Finished CPU 0 instructions: 50000002 cycles: 42820118 cumulative IPC: 1.16768 (Simulation time: 0 hr 14 min 53 sec) 

ChampSim completed all CPUs

Region of Interest Statistics

CPU 0 cumulative IPC: 1.16768 instructions: 50000002 cycles: 42820118
 Fetch stage stalled: 68.2538  Sim cycles: 42820118 fetch stall cycle: 29226341
 Empty decode stage: 54.9867  Sim cycles: 42820118 fetch stall cycle: 23545377
ITLB TOTAL     ACCESS:    5636786  HIT:    5149878  MISS:     486908  HIT %:     91.362  MISS %:    8.63804   MPKI: 9.73816
ITLB LOAD TRANSLATION INSTRUCTION	ACCESS:    5523738  HIT:    5036830  MISS:     486908  HIT %:    91.1852  MISS %:    8.81483  MPKI: 9.73816
ITLB TRANSLATION FROM L1D PREFETCHER INSTRUCTION	ACCESS:     113048  HIT:     113048  MISS:          0  HIT %:        100  MISS %:          0  MPKI: 0

ITLB AVERAGE MISS LATENCY: 9.04901 cycles
ITLB RQ	ACCESS:    7517614	FORWARD:          0	MERGED:    1396874	TO_CACHE:    6120740

DTLB TOTAL     ACCESS:    9242267  HIT:    8776963  MISS:     465304  HIT %:    94.9655  MISS %:    5.03452   MPKI: 9.30608
DTLB LOAD TRANSLATION DATA	ACCESS:    9242267  HIT:    8776963  MISS:     465304  HIT %:    94.9655  MISS %:    5.03452  MPKI: 9.30608

DTLB AVERAGE MISS LATENCY: 9.30221 cycles
DTLB RQ	ACCESS:   13531271	FORWARD:          0	MERGED:    4255044	TO_CACHE:    9276227

STLB TOTAL     ACCESS:    1199763  HIT:    1197836  MISS:       1927  HIT %:    99.8394  MISS %:   0.160615   MPKI: 0.03854
STLB LOAD TRANSLATION INSTRUCTION	ACCESS:     486908  HIT:     486688  MISS:        220  HIT %:    99.9548  MISS %:  0.0451831  MPKI: 0.0044
STLB LOAD TRANSLATION DATA	ACCESS:     465180  HIT:     463482  MISS:       1698  HIT %:     99.635  MISS %:    0.36502  MPKI: 0.03396
STLB TRANSLATION FROM L1D PREFETCHER DATA	ACCESS:     247675  HIT:     247666  MISS:          9  HIT %:    99.9964  MISS %: 0.00363379  MPKI: 0.00018

STLB AVERAGE MISS LATENCY: 74.4141 cycles
STLB RQ	ACCESS:    1325651	FORWARD:          0	MERGED:     125849	TO_CACHE:    1199802

STLB Hit, L1D data hit: 0
STLB Hit, L2C data hit: 0
STLB Hit, LLC data hit: 0
STLB Hit, LLC data miss: 0
STLB STLB hints to L2: 0
L1D TOTAL     ACCESS:   13298427  HIT:   12183255  MISS:    1115172  HIT %:    91.6143  MISS %:    8.38574   MPKI: 22.3034
L1D LOAD DATA	ACCESS:    6741489  HIT:    6005895  MISS:     735594  HIT %:    89.0886  MISS %:    10.9114  MPKI: 14.7119
L1D RFO DATA	ACCESS:    6232184  HIT:    5949683  MISS:     282501  HIT %:    95.4671  MISS %:    4.53294  MPKI: 5.65002
L1D PREFETCH DATA	ACCESS:     324754  HIT:     227677  MISS:      97077  HIT %:    70.1075  MISS %:    29.8925  MPKI: 1.94154

L1D PREFETCH  REQUESTED:     747179  ISSUED:     747179  USEFUL:      37483  USELESS:      69118
L1D USEFUL LOAD PREFETCHES:      37483 PREFETCH ISSUED TO LOWER LEVEL:     106649  ACCURACY: 35.1461
 TIMELY PREFETCHES:      37483 LATE PREFETCHES: 9523 DROPPED PREFETCHES: 4
L1D AVERAGE MISS LATENCY: 298778 cycles
L1D RQ	ACCESS:   10836544	FORWARD:          0	MERGED:    3896788	TO_CACHE:    6775611
L1D WQ	ACCESS:    6938863	FORWARD:     164446	MERGED:     183203	TO_CACHE:    6755660
L1D PQ	ACCESS:     373740	FORWARD:          0	MERGED:          0	TO_CACHE:     373439

L1D UNIQUE REGIONS ACCESSED: 0
L1D REGIONS CONFLICTS: 0
L1D Cross Page Prefetch Requests: 6299
L1D Same Page Prefetch Requests: 765994
L1D ROI Sum of L1D PQ occupancy: 4743893
L1D PREFETCHES PUSHED FROM L2C: 0
L1I TOTAL     ACCESS:    6965328  HIT:    4242948  MISS:    2722380  HIT %:    60.9153  MISS %:    39.0847   MPKI: 54.4476
L1I LOAD INSTRUCTION	ACCESS:    6437704  HIT:    3715324  MISS:    2722380  HIT %:    57.7119  MISS %:    42.2881  MPKI: 54.4476
L1I PREFETCH INSTRUCTION	ACCESS:     527624  HIT:     527624  MISS:          0  HIT %:        100  MISS %:          0  MPKI: 0

L1I PREFETCH  REQUESTED:    1187351  ISSUED:    1187351  USEFUL:          0  USELESS:          0
L1I USEFUL LOAD PREFETCHES:          0 PREFETCH ISSUED TO LOWER LEVEL:          0  ACCURACY: -nan
 TIMELY PREFETCHES:          0 LATE PREFETCHES: 0 DROPPED PREFETCHES: 0
L1I AVERAGE MISS LATENCY: 17.2002 cycles
L1I RQ	ACCESS:    9489865	FORWARD:          0	MERGED:    2825029	TO_CACHE:    6664836
L1I PQ	ACCESS:    1187351	FORWARD:          0	MERGED:     334573	TO_CACHE:     852778

L1BTB TOTAL     ACCESS:    5689381  HIT:    2098689  MISS:    3590692  HIT %:    36.8878  MISS %:    63.1122   MPKI: 71.8138
L1BTB BRANCH_DIRECT_JUMP	ACCESS:     544985  HIT:     146581  MISS:     398404	AVERAGE STALL: 36.391
L1BTB BRANCH_INDIRECT	ACCESS:     180638  HIT:      64639  MISS:     115999	AVERAGE STALL: 107.069
L1BTB BRANCH_CONDITIONAL	ACCESS:    2716014  HIT:    1439737  MISS:    1276277	AVERAGE STALL: 40.2363
L1BTB BRANCH_DIRECT_CALL	ACCESS:     952377  HIT:     118967  MISS:     833410	AVERAGE STALL: 39.6677
L1BTB BRANCH_INDIRECT_CALL	ACCESS:     171492  HIT:      23421  MISS:     148071	AVERAGE STALL: 116.621
L1BTB BRANCH_RETURN	ACCESS:    1123875  HIT:     305344  MISS:     818531	AVERAGE STALL: 38.7416
L1BTB BRANCH_OTHER ACCESS:          0  HIT:          0  MISS:          0	AVERAGE STALL: -nan
L1BTB TOTAL ROB OCCUPANCY AT BTB MISS: 11.8643

L2BTB1 TOTAL     ACCESS:    3565747  HIT:    3166250  MISS:     399497  HIT %:    88.7963  MISS %:    11.2037   MPKI: 7.98994
L2BTB1 BRANCH_DIRECT_JUMP	ACCESS:     394340  HIT:     358258  MISS:      36082	AVERAGE STALL: 36.391
L2BTB1 BRANCH_INDIRECT	ACCESS:     105874  HIT:      83871  MISS:      22003	AVERAGE STALL: 107.069
L2BTB1 BRANCH_CONDITIONAL	ACCESS:    1276277  HIT:    1168305  MISS:     107972	AVERAGE STALL: 40.2363
L2BTB1 BRANCH_DIRECT_CALL	ACCESS:     833410  HIT:     721685  MISS:     111725	AVERAGE STALL: 39.6677
L2BTB1 BRANCH_INDIRECT_CALL	ACCESS:     138718  HIT:     114798  MISS:      23920	AVERAGE STALL: 116.621
L2BTB1 BRANCH_RETURN	ACCESS:     817128  HIT:     719333  MISS:      97795	AVERAGE STALL: 38.7416
L2BTB1 BRANCH_OTHER ACCESS:          0  HIT:          0  MISS:          0	AVERAGE STALL: -nan
L2BTB1 TOTAL ROB OCCUPANCY AT BTB MISS: 106.637

L2C TOTAL     ACCESS:    4441619  HIT:    3974280  MISS:     467339  HIT %:    89.4782  MISS %:    10.5218   MPKI: 9.34678
L2C LOAD INSTRUCTION	ACCESS:    2722380  HIT:    2471919  MISS:     250461  HIT %:    90.7999  MISS %:    9.20007  MPKI: 5.00922
L2C LOAD TRANSLATION INSTRUCTION	ACCESS:        260  HIT:         80  MISS:        180  HIT %:    30.7692  MISS %:    69.2308  MPKI: 0.0036
L2C LOAD DATA	ACCESS:     726049  HIT:     650346  MISS:      75703  HIT %:    89.5733  MISS %:    10.4267  MPKI: 1.51406
L2C RFO DATA	ACCESS:     282422  HIT:     229071  MISS:      53351  HIT %:    81.1095  MISS %:    18.8905  MPKI: 1.06702
L2C PREFETCH DATA	ACCESS:     193779  HIT:     123501  MISS:      70278  HIT %:    63.7329  MISS %:    36.2671  MPKI: 1.40556
L2C WRITEBACK DATA	ACCESS:     514920  HIT:     498811  MISS:      16109  HIT %:    96.8716  MISS %:    3.12845  MPKI: 0.32218
L2C LOAD TRANSLATION DATA	ACCESS:       1792  HIT:        540  MISS:       1252  HIT %:    30.1339  MISS %:    69.8661  MPKI: 0.02504
L2C TRANSLATION FROM L1D PREFETCHER DATA	ACCESS:         17  HIT:         12  MISS:          5  HIT %:    70.5882  MISS %:    29.4118  MPKI: 0.0001

L2C PREFETCH  REQUESTED:      93897  ISSUED:      93897  USEFUL:       8347  USELESS:      62354
L2C USEFUL LOAD PREFETCHES:       8347 PREFETCH ISSUED TO LOWER LEVEL:      70632  ACCURACY: 11.8176
 TIMELY PREFETCHES:       8347 LATE PREFETCHES: 354 DROPPED PREFETCHES: 0
L2C AVERAGE MISS LATENCY: 38.51 cycles
L2C RQ	ACCESS:    3732972	FORWARD:          0	MERGED:          0	TO_CACHE:    3732920
L2C WQ	ACCESS:     514920	FORWARD:         54	MERGED:          0	TO_CACHE:     514920
L2C PQ	ACCESS:     200546	FORWARD:          0	MERGED:       3538	TO_CACHE:     197006

L2C Dense regions hint from L2: 0
PSCL5 TOTAL     ACCESS:       3870  HIT:       1935  MISS:       1935  HIT %:         50  MISS %:         50   MPKI: 0.0387
PSCL5 LOAD TRANSLATION INSTRUCTION	ACCESS:       3836  HIT:       1918  MISS:       1918  HIT %:         50  MISS %:         50  MPKI: 0.03836
PSCL5 TRANSLATION FROM L1D PREFETCHER INSTRUCTION	ACCESS:         34  HIT:         17  MISS:         17  HIT %:         50  MISS %:         50  MPKI: 0.00034


PSCL4 TOTAL     ACCESS:       3059  HIT:       1523  MISS:       1536  HIT %:    49.7875  MISS %:    50.2125   MPKI: 0.03072
PSCL4 LOAD TRANSLATION INSTRUCTION	ACCESS:       2744  HIT:       1508  MISS:       1236  HIT %:    54.9563  MISS %:    45.0437  MPKI: 0.02472
PSCL4 TRANSLATION FROM L1D PREFETCHER INSTRUCTION	ACCESS:         30  HIT:         15  MISS:         15  HIT %:         50  MISS %:         50  MPKI: 0.0003
PSCL4 LOAD TRANSLATION DATA	ACCESS:        285  HIT:          0  MISS:        285  HIT %:          0  MISS %:        100  MPKI: 0.0057


PSCL3 TOTAL     ACCESS:       3091  HIT:       1539  MISS:       1552  HIT %:    49.7897  MISS %:    50.2103   MPKI: 0.03104
PSCL3 LOAD TRANSLATION INSTRUCTION	ACCESS:       2760  HIT:       1524  MISS:       1236  HIT %:    55.2174  MISS %:    44.7826  MPKI: 0.02472
PSCL3 TRANSLATION FROM L1D PREFETCHER INSTRUCTION	ACCESS:         30  HIT:         15  MISS:         15  HIT %:         50  MISS %:         50  MPKI: 0.0003
PSCL3 LOAD TRANSLATION DATA	ACCESS:        301  HIT:          0  MISS:        301  HIT %:          0  MISS %:        100  MPKI: 0.00602


PSCL2 TOTAL     ACCESS:       3758  HIT:       1823  MISS:       1935  HIT %:    48.5098  MISS %:    51.4902   MPKI: 0.0387
PSCL2 LOAD TRANSLATION INSTRUCTION	ACCESS:       2027  HIT:       1806  MISS:        221  HIT %:    89.0972  MISS %:    10.9028  MPKI: 0.00442
PSCL2 TRANSLATION FROM L1D PREFETCHER INSTRUCTION	ACCESS:         17  HIT:         17  MISS:          0  HIT %:        100  MISS %:          0  MPKI: 0
PSCL2 LOAD TRANSLATION DATA	ACCESS:       1697  HIT:          0  MISS:       1697  HIT %:          0  MISS %:        100  MPKI: 0.03394
PSCL2 TRANSLATION FROM L1D PREFETCHER DATA	ACCESS:         17  HIT:          0  MISS:         17  HIT %:          0  MISS %:        100  MPKI: 0.00034


LLC TOTAL     ACCESS:     527980  HIT:     499990  MISS:      27990  HIT %:    94.6987  MISS %:    5.30134   MPKI: 0.5598
LLC LOAD INSTRUCTION	ACCESS:     250461  HIT:     249488  MISS:        973  HIT %:    99.6115  MISS %:   0.388484  MPKI: 0.01946
LLC LOAD TRANSLATION INSTRUCTION	ACCESS:        180  HIT:        147  MISS:         33  HIT %:    81.6667  MISS %:    18.3333  MPKI: 0.00066
LLC LOAD DATA	ACCESS:      75368  HIT:      71818  MISS:       3550  HIT %:    95.2898  MISS %:    4.71022  MPKI: 0.071
LLC RFO DATA	ACCESS:      53330  HIT:      40343  MISS:      12987  HIT %:    75.6479  MISS %:    24.3521  MPKI: 0.25974
LLC PREFETCH DATA	ACCESS:      70632  HIT:      60598  MISS:      10034  HIT %:     85.794  MISS %:     14.206  MPKI: 0.20068
LLC WRITEBACK DATA	ACCESS:      76752  HIT:      76412  MISS:        340  HIT %:     99.557  MISS %:   0.442985  MPKI: 0.0068
LLC LOAD TRANSLATION DATA	ACCESS:       1252  HIT:       1179  MISS:         73  HIT %:    94.1693  MISS %:    5.83067  MPKI: 0.00146
LLC TRANSLATION FROM L1D PREFETCHER DATA	ACCESS:          5  HIT:          5  MISS:          0  HIT %:        100  MISS %:          0  MPKI: 0

LLC AVERAGE MISS LATENCY: 158.247 cycles
LLC RQ	ACCESS:     380598	FORWARD:          0	MERGED:          0	TO_CACHE:     380596
LLC WQ	ACCESS:      76752	FORWARD:          2	MERGED:          0	TO_CACHE:      76752
LLC PQ	ACCESS:      70632	FORWARD:          0	MERGED:          0	TO_CACHE:      70632

LLC Dense regions hint to LLC: 0

RAW hits: 1802518
Loads Generated: 12639062
Loads sent to L1D: 10836544
Stores Generated: 6938851
Stores sent to L1D: 6938863
Major fault: 0 Minor fault: 2579
Allocated PAGES: 2579

stream: 
stream:times selected: 1205574
stream:pref_filled: 124599
stream:pref_useful: 26125
stream:pref_late: 7520
stream:misses: 9188
stream:misses_by_poll: 0

CS: 
CS:times selected: 184800
CS:pref_filled: 65407
CS:pref_useful: 41301
CS:pref_late: 7460
CS:misses: 18731
CS:misses_by_poll: 2

CPLX: 
CPLX:times selected: 1019622
CPLX:pref_filled: 21878
CPLX:pref_useful: 6302
CPLX:pref_late: 3120
CPLX:misses: 104630
CPLX:misses_by_poll: 1

NL_L1: 
NL:times selected: 16554
NL:pref_filled: 968
NL:pref_useful: 338
NL:pref_late: 272
NL:misses: 1428
NL:misses_by_poll: 0

total selections: 2426550
total_filled: 97077
total_useful: 37483
total_late: 19980
total_polluted: 3
total_misses_after_warmup: 769721
conflicts: 5603517

test: 118016

DRAM Statistics
 CHANNEL 0
 RQ ROW_BUFFER_HIT:       9918  ROW_BUFFER_MISS:      17726
 DBUS_CONGESTED:         10
 WQ ROW_BUFFER_HIT:       1419  ROW_BUFFER_MISS:      12007  FULL:          0

 AVG_CONGESTED_CYCLE: 5

CPU 0 Branch Prediction Accuracy: 99.8174% MPKI: 0.33478 Average ROB Occupancy at Mispredict: 145.027
Branch types
NOT_BRANCH: 40832551 81.6651%
BRANCH_DIRECT_JUMP: 544985 1.08997%
BRANCH_INDIRECT: 180638 0.361276%
BRANCH_CONDITIONAL: 6193745 12.3875%
BRANCH_DIRECT_CALL: 952377 1.90475%
BRANCH_INDIRECT_CALL: 171492 0.342984%
BRANCH_RETURN: 1123875 2.24775%
BRANCH_OTHER: 0 0%

DRAM PAGES: 1048576
Allocated PAGES: 2579
Average_ROB_Occupancy: 133.955
Average_Decode_Occupancy: 16.8666
Average_FTQ_Occupancy: 7.60835
Indirect max targets: 14 Average targets: 1.15615
Branch_type:  BRANCH_DIRECT_JUMP:  Count Percentage: 3.63378 5.26105 4.18366 8.708 2.39593 6.56365 2.32083 66.9331 
Branch_type:  BRANCH_INDIRECT:  Count Percentage: 11.7221 3.41807 2.52584 17.3205 3.33521 3.07698 1.73464 56.8667 
Branch_type:  BRANCH_CONDITIONAL:  Count Percentage: 21.0549 9.944 2.50013 5.60563 2.37235 4.21447 2.82149 51.4871 
Branch_type:  BRANCH_DIRECT_CALL:  Count Percentage: 0.384366 1.75648 0.729814 3.64859 2.97261 3.35174 4.30369 82.8527 
Branch_type:  BRANCH_INDIRECT_CALL:  Count Percentage: 9.49374 0 2.97591 4.53049 0.000292214 2.84178 4.11934 76.0385 
Branch_type:  BRANCH_RETURN:  Count Percentage: 3.90645 7.96825 1.77849 5.53768 3.76501 4.20432 3.87592 68.9639 
Branch_type:  BRANCH_DIRECT_JUMP:  Total Count: 39677 57445 45681 95082 26161 71668 25341 730837 
Branch_type:  BRANCH_INDIRECT:  Total Count: 42580 12416 9175 62916 12115 11177 6301 206566 
Branch_type:  BRANCH_CONDITIONAL:  Total Count: 2606960 1231241 309560 694075 293738 521825 349350 6375003 
Branch_type:  BRANCH_DIRECT_CALL:  Total Count: 7269 33218 13802 69001 56217 63387 81390 1566883 
Branch_type:  BRANCH_INDIRECT_CALL:  Total Count: 32489 0 10184 15504 1 9725 14097 260215 
Branch_type:  BRANCH_RETURN:  Total Count: 87278 178027 39735 123723 84118 93933 86596 1540794 
Number of unique branch instructions: 10196
Upper 32 bits: 
aaaa
ffff
ffff0000
Unique upper 32 bits: 3
Unique upper 36 bits: 3
Unique upper 40 bits: 5
Unique upper 44 bits: 32
Unique upper 48 bits: 155
Offset_3 4207
Offset_4 253
Offset_5 460
Offset_6 521
Offset_7 606
Offset_8 535
Offset_9 482
Offset_10 398
Offset_11 322
Offset_12 283
Offset_13 220
Offset_14 241
Offset_15 193
Offset_16 224
Offset_17 157
Offset_18 124
Offset_19 252
Offset_20 139
Offset_21 235
Offset_22 402
Offset_23 241
Offset_24 341
Offset_25 95
Offset_47 86
Offset_64 1
decode_dispatch_called: 20319524 47.4532
Dispatch_width: 0 10178217 50.0908 23.7697
Dispatch_width: 1 545417 2.6842 1.27374
Dispatch_width: 2 664127 3.26842 1.55097
Dispatch_width: 3 421965 2.07665 0.985436
Dispatch_width: 4 1957175 9.63199 4.57069
Dispatch_width: 5 284202 1.39866 0.663711
Dispatch_width: 6 6268421 30.8493 14.639
Empty_decode_cycles: 22500594 52.5468
ROB_full_cycles: 2798559 6.53562
Starvation_cycles_per_kilo_instr: 337.531
Starvation_cycles_per_kilo_instr_3: 315.118
Starvation_cycles_per_kilo_instr_0: 298.803
Branch_type_1  (3,1)  (4,9)  (5,38)  (6,74)  (7,119)  (8,130)  (9,127)  (10,100)  (11,69)  (12,43)  (13,9)  (14,2)  (15,3)  (16,4)  (18,1)  (19,4)  (20,2)  (21,1)  (22,3)  (23,2)  (24,10)  (25,13) 
Branch_type_2  (3,1)  (4,1)  (5,1)  (8,3)  (9,3)  (12,1)  (13,1)  (14,1)  (16,3)  (17,2)  (20,2)  (21,2)  (23,5)  (24,1)  (47,40) 
Branch_type_3  (3,4205)  (4,243)  (5,417)  (6,432)  (7,457)  (8,340)  (9,261)  (10,162)  (11,125)  (12,50)  (13,7) 
Branch_type_4  (6,3)  (7,8)  (8,25)  (9,54)  (10,64)  (11,65)  (12,105)  (13,93)  (14,106)  (15,92)  (16,101)  (17,70)  (18,56)  (19,123)  (20,72)  (21,124)  (22,211)  (23,136)  (24,201)  (25,78) 
Branch_type_5  (8,2)  (9,1)  (10,4)  (11,5)  (12,3)  (13,14)  (14,17)  (15,11)  (16,20)  (17,13)  (18,16)  (19,13)  (20,11)  (21,13)  (22,42)  (23,26)  (24,37) 
Branch_type_6  (5,4)  (6,12)  (7,22)  (8,35)  (9,36)  (10,68)  (11,58)  (12,81)  (13,96)  (14,115)  (15,87)  (16,96)  (17,72)  (18,51)  (19,112)  (20,52)  (21,95)  (22,146)  (23,72)  (24,92)  (25,4)  (47,46)  (64,1) 
Unique trigger count: 
L2BTB1 768 4
L2BTB2 768 4
L2BTB3 768 4
L2BTB4 112 4
