
*** ChampSim Multicore Out-of-Order Simulator ***

Warmup Instructions: 50000000
Simulation Instructions: 50000000
Number of CPUs: 1
LLC sets: 2048
LLC ways: 16
Off-chip DRAM Size: 4096 MB Channels: 1 Width: 64-bit Data Rate: 6400 MT/s
CPU 0 runs ./micro_traces/srv553.trace.gz
.gz
ITLB has LRU replacement policy
DTLB has LRU replacement policy
STLB has LRU replacement policy
FDIP Prefetcher at L1I
L1I has LRU replacement policy
L1D has LRU replacement policy
Initialize SRRIP state for L2C
Initialize DRRIP state for LLC
Heartbeat_Variant_0 : 1047 0.255615 per_variant_size: 0 1047 0 0 0 0 0 0 0 
Heartbeat_Variant_1 : 2237 0.546143 per_variant_size: 0 478 1759 0 0 0 0 0 0 
Heartbeat_Variant_2 : 0 0 per_variant_size: 0 0 0 0 0 0 0 0 0 
Heartbeat_Variant_3 : 0 0 per_variant_size: 0 0 0 0 0 0 0 0 0 
Heartbeat_Variant_0_evicts 0 : 21555 1 : 18464 2 : 0 3 : 0 
Heartbeat_Variant_1_evicts 0 : 18536 1 : 0 2 : 0 3 : 0 
Heartbeat_Variant_2_evicts 0 : 0 1 : 0 2 : 0 3 : 0 
Heartbeat_Variant_3_evicts 0 : 0 1 : 0 2 : 0 3 : 0 
Heartbeat CPU 0 instructions: 10000003 cycles: 2796135 heartbeat IPC: 3.57637 cumulative IPC: 3.57637 (Simulation time: 0 hr 2 min 22 sec) 
Heartbeat_Variant_0 : 1105 0.269775 per_variant_size: 0 1105 0 0 0 0 0 0 0 
Heartbeat_Variant_1 : 2320 0.566406 per_variant_size: 0 412 1908 0 0 0 0 0 0 
Heartbeat_Variant_2 : 0 0 per_variant_size: 0 0 0 0 0 0 0 0 0 
Heartbeat_Variant_3 : 0 0 per_variant_size: 0 0 0 0 0 0 0 0 0 
Heartbeat_Variant_0_evicts 0 : 21511 1 : 18266 2 : 0 3 : 0 
Heartbeat_Variant_1_evicts 0 : 18243 1 : 0 2 : 0 3 : 0 
Heartbeat_Variant_2_evicts 0 : 0 1 : 0 2 : 0 3 : 0 
Heartbeat_Variant_3_evicts 0 : 0 1 : 0 2 : 0 3 : 0 
Heartbeat CPU 0 instructions: 20000000 cycles: 5592412 heartbeat IPC: 3.57618 cumulative IPC: 3.57627 (Simulation time: 0 hr 4 min 13 sec) 
Heartbeat_Variant_0 : 1091 0.266357 per_variant_size: 0 1091 0 0 0 0 0 0 0 
Heartbeat_Variant_1 : 2337 0.570557 per_variant_size: 0 427 1910 0 0 0 0 0 0 
Heartbeat_Variant_2 : 0 0 per_variant_size: 0 0 0 0 0 0 0 0 0 
Heartbeat_Variant_3 : 0 0 per_variant_size: 0 0 0 0 0 0 0 0 0 
Heartbeat_Variant_0_evicts 0 : 21609 1 : 18090 2 : 0 3 : 0 
Heartbeat_Variant_1_evicts 0 : 18104 1 : 0 2 : 0 3 : 0 
Heartbeat_Variant_2_evicts 0 : 0 1 : 0 2 : 0 3 : 0 
Heartbeat_Variant_3_evicts 0 : 0 1 : 0 2 : 0 3 : 0 
Heartbeat CPU 0 instructions: 30000000 cycles: 8386698 heartbeat IPC: 3.57873 cumulative IPC: 3.57709 (Simulation time: 0 hr 6 min 24 sec) 
Heartbeat_Variant_0 : 1097 0.267822 per_variant_size: 0 1097 0 0 0 0 0 0 0 
Heartbeat_Variant_1 : 2331 0.569092 per_variant_size: 0 433 1898 0 0 0 0 0 0 
Heartbeat_Variant_2 : 0 0 per_variant_size: 0 0 0 0 0 0 0 0 0 
Heartbeat_Variant_3 : 0 0 per_variant_size: 0 0 0 0 0 0 0 0 0 
Heartbeat_Variant_0_evicts 0 : 21829 1 : 18468 2 : 0 3 : 0 
Heartbeat_Variant_1_evicts 0 : 18462 1 : 0 2 : 0 3 : 0 
Heartbeat_Variant_2_evicts 0 : 0 1 : 0 2 : 0 3 : 0 
Heartbeat_Variant_3_evicts 0 : 0 1 : 0 2 : 0 3 : 0 
Heartbeat CPU 0 instructions: 40000001 cycles: 11182784 heartbeat IPC: 3.57643 cumulative IPC: 3.57693 (Simulation time: 0 hr 8 min 20 sec) 
Heartbeat_Variant_0 : 1098 0.268066 per_variant_size: 0 1098 0 0 0 0 0 0 0 
Heartbeat_Variant_1 : 2330 0.568848 per_variant_size: 0 431 1899 0 0 0 0 0 0 
Heartbeat_Variant_2 : 0 0 per_variant_size: 0 0 0 0 0 0 0 0 0 
Heartbeat_Variant_3 : 0 0 per_variant_size: 0 0 0 0 0 0 0 0 0 
Heartbeat_Variant_0_evicts 0 : 21815 1 : 18281 2 : 0 3 : 0 
Heartbeat_Variant_1_evicts 0 : 18280 1 : 0 2 : 0 3 : 0 
Heartbeat_Variant_2_evicts 0 : 0 1 : 0 2 : 0 3 : 0 
Heartbeat_Variant_3_evicts 0 : 0 1 : 0 2 : 0 3 : 0 
Heartbeat CPU 0 instructions: 50000002 cycles: 13977595 heartbeat IPC: 3.57806 cumulative IPC: 3.57715 (Simulation time: 0 hr 10 min 28 sec) 

Warmup complete CPU 0 instructions: 50000002 cycles: 13977595 (Simulation time: 0 hr 10 min 28 sec) 

Cycle: 20000000 FTQ IN: 56781747 FTQ occupancy: 18.2788 DECODE IN: 56781735 DECODE occupancy: 46.737 ROB IN: 56781735 ROB occupancy: 283.032 ROB OUT: 56781706
Heartbeat_Variant_0 : 1087 0.265381 per_variant_size: 0 1087 0 0 0 0 0 0 0 
Heartbeat_Variant_1 : 2349 0.573486 per_variant_size: 0 439 1910 0 0 0 0 0 0 
Heartbeat_Variant_2 : 0 0 per_variant_size: 0 0 0 0 0 0 0 0 0 
Heartbeat_Variant_3 : 0 0 per_variant_size: 0 0 0 0 0 0 0 0 0 
Heartbeat_Variant_0_evicts 0 : 21919 1 : 18492 2 : 0 3 : 0 
Heartbeat_Variant_1_evicts 0 : 18503 1 : 0 2 : 0 3 : 0 
Heartbeat_Variant_2_evicts 0 : 0 1 : 0 2 : 0 3 : 0 
Heartbeat_Variant_3_evicts 0 : 0 1 : 0 2 : 0 3 : 0 
Heartbeat CPU 0 instructions: 60000003 cycles: 22836643 heartbeat IPC: 1.12879 cumulative IPC: 1.12879 (Simulation time: 0 hr 12 min 19 sec) 
Cycle: 30000000 FTQ IN: 11354781 FTQ occupancy: 7.04377 DECODE IN: 11354654 DECODE occupancy: 15.2214 ROB IN: 11354594 ROB occupancy: 127.203 ROB OUT: 11354275
Heartbeat_Variant_0 : 1079 0.263428 per_variant_size: 0 1079 0 0 0 0 0 0 0 
Heartbeat_Variant_1 : 2381 0.581299 per_variant_size: 0 455 1926 0 0 0 0 0 0 
Heartbeat_Variant_2 : 0 0 per_variant_size: 0 0 0 0 0 0 0 0 0 
Heartbeat_Variant_3 : 0 0 per_variant_size: 0 0 0 0 0 0 0 0 0 
Heartbeat_Variant_0_evicts 0 : 21565 1 : 18609 2 : 0 3 : 0 
Heartbeat_Variant_1_evicts 0 : 18621 1 : 0 2 : 0 3 : 0 
Heartbeat_Variant_2_evicts 0 : 0 1 : 0 2 : 0 3 : 0 
Heartbeat_Variant_3_evicts 0 : 0 1 : 0 2 : 0 3 : 0 
Heartbeat CPU 0 instructions: 70000003 cycles: 31625368 heartbeat IPC: 1.13782 cumulative IPC: 1.13329 (Simulation time: 0 hr 14 min 16 sec) 
Cycle: 40000000 FTQ IN: 11261770 FTQ occupancy: 7.09801 DECODE IN: 11261906 DECODE occupancy: 15.2532 ROB IN: 11261966 ROB occupancy: 126.464 ROB OUT: 11262308
Heartbeat_Variant_0 : 1083 0.264404 per_variant_size: 0 1083 0 0 0 0 0 0 0 
Heartbeat_Variant_1 : 2377 0.580322 per_variant_size: 0 440 1937 0 0 0 0 0 0 
Heartbeat_Variant_2 : 0 0 per_variant_size: 0 0 0 0 0 0 0 0 0 
Heartbeat_Variant_3 : 0 0 per_variant_size: 0 0 0 0 0 0 0 0 0 
Heartbeat_Variant_0_evicts 0 : 21877 1 : 19462 2 : 0 3 : 0 
Heartbeat_Variant_1_evicts 0 : 19458 1 : 0 2 : 0 3 : 0 
Heartbeat_Variant_2_evicts 0 : 0 1 : 0 2 : 0 3 : 0 
Heartbeat_Variant_3_evicts 0 : 0 1 : 0 2 : 0 3 : 0 
Heartbeat CPU 0 instructions: 80000001 cycles: 40531980 heartbeat IPC: 1.12276 cumulative IPC: 1.12976 (Simulation time: 0 hr 16 min 11 sec) 
Heartbeat_Variant_0 : 1106 0.27002 per_variant_size: 0 1106 0 0 0 0 0 0 0 
Heartbeat_Variant_1 : 2354 0.574707 per_variant_size: 0 435 1919 0 0 0 0 0 0 
Heartbeat_Variant_2 : 0 0 per_variant_size: 0 0 0 0 0 0 0 0 0 
Heartbeat_Variant_3 : 0 0 per_variant_size: 0 0 0 0 0 0 0 0 0 
Heartbeat_Variant_0_evicts 0 : 21779 1 : 19307 2 : 0 3 : 0 
Heartbeat_Variant_1_evicts 0 : 19284 1 : 0 2 : 0 3 : 0 
Heartbeat_Variant_2_evicts 0 : 0 1 : 0 2 : 0 3 : 0 
Heartbeat_Variant_3_evicts 0 : 0 1 : 0 2 : 0 3 : 0 
Heartbeat CPU 0 instructions: 90000000 cycles: 49307106 heartbeat IPC: 1.13958 cumulative IPC: 1.1322 (Simulation time: 0 hr 18 min 4 sec) 
Cycle: 50000000 FTQ IN: 11402945 FTQ occupancy: 7.00038 DECODE IN: 11402940 DECODE occupancy: 15.1574 ROB IN: 11402940 ROB occupancy: 127.615 ROB OUT: 11402933
Heartbeat_Variant_0 : 1086 0.265137 per_variant_size: 0 1086 0 0 0 0 0 0 0 
Heartbeat_Variant_1 : 2374 0.57959 per_variant_size: 0 435 1939 0 0 0 0 0 0 
Heartbeat_Variant_2 : 0 0 per_variant_size: 0 0 0 0 0 0 0 0 0 
Heartbeat_Variant_3 : 0 0 per_variant_size: 0 0 0 0 0 0 0 0 0 
Heartbeat_Variant_0_evicts 0 : 22076 1 : 19323 2 : 0 3 : 0 
Heartbeat_Variant_1_evicts 0 : 19343 1 : 0 2 : 0 3 : 0 
Heartbeat_Variant_2_evicts 0 : 0 1 : 0 2 : 0 3 : 0 
Heartbeat_Variant_3_evicts 0 : 0 1 : 0 2 : 0 3 : 0 
Heartbeat CPU 0 instructions: 100000000 cycles: 58232013 heartbeat IPC: 1.12046 cumulative IPC: 1.12983 (Simulation time: 0 hr 19 min 56 sec) 
Finished CPU 0 instructions: 50000002 cycles: 44254419 cumulative IPC: 1.12983 (Simulation time: 0 hr 19 min 56 sec) 

ChampSim completed all CPUs

Region of Interest Statistics

CPU 0 cumulative IPC: 1.12983 instructions: 50000002 cycles: 44254419
 Fetch stage stalled: 70.0262  Sim cycles: 44254419 fetch stall cycle: 30989680
 Empty decode stage: 58.6299  Sim cycles: 44254419 fetch stall cycle: 25946337
ITLB TOTAL     ACCESS:    5608747  HIT:    5121131  MISS:     487616  HIT %:    91.3062  MISS %:    8.69385   MPKI: 9.75232
ITLB LOAD TRANSLATION INSTRUCTION	ACCESS:    5502034  HIT:    5014418  MISS:     487616  HIT %:    91.1375  MISS %:    8.86247  MPKI: 9.75232
ITLB TRANSLATION FROM L1D PREFETCHER INSTRUCTION	ACCESS:     106713  HIT:     106713  MISS:          0  HIT %:        100  MISS %:          0  MPKI: 0

ITLB AVERAGE MISS LATENCY: 9.04675 cycles
ITLB RQ	ACCESS:    7432131	FORWARD:          0	MERGED:    1333960	TO_CACHE:    6098171

DTLB TOTAL     ACCESS:    9272288  HIT:    8800449  MISS:     471839  HIT %:    94.9113  MISS %:     5.0887   MPKI: 9.43678
DTLB LOAD TRANSLATION DATA	ACCESS:    9272288  HIT:    8800449  MISS:     471839  HIT %:    94.9113  MISS %:     5.0887  MPKI: 9.43678

DTLB AVERAGE MISS LATENCY: 9.317 cycles
DTLB RQ	ACCESS:   13538957	FORWARD:          0	MERGED:    4231236	TO_CACHE:    9307721

STLB TOTAL     ACCESS:    1218556  HIT:    1216411  MISS:       2145  HIT %:     99.824  MISS %:   0.176028   MPKI: 0.0429
STLB LOAD TRANSLATION INSTRUCTION	ACCESS:     487616  HIT:     487353  MISS:        263  HIT %:    99.9461  MISS %:  0.0539359  MPKI: 0.00526
STLB LOAD TRANSLATION DATA	ACCESS:     471772  HIT:     469905  MISS:       1867  HIT %:    99.6043  MISS %:   0.395742  MPKI: 0.03734
STLB TRANSLATION FROM L1D PREFETCHER DATA	ACCESS:     259168  HIT:     259153  MISS:         15  HIT %:    99.9942  MISS %: 0.00578775  MPKI: 0.0003

STLB AVERAGE MISS LATENCY: 67.8657 cycles
STLB RQ	ACCESS:    1364873	FORWARD:          0	MERGED:     146280	TO_CACHE:    1218593

STLB Hit, L1D data hit: 0
STLB Hit, L2C data hit: 0
STLB Hit, LLC data hit: 0
STLB Hit, LLC data miss: 0
STLB STLB hints to L2: 0
L1D TOTAL     ACCESS:   13307522  HIT:   12154897  MISS:    1152625  HIT %:    91.3385  MISS %:    8.66145   MPKI: 23.0525
L1D LOAD DATA	ACCESS:    6777621  HIT:    6019772  MISS:     757849  HIT %:    88.8184  MISS %:    11.1816  MPKI: 15.157
L1D RFO DATA	ACCESS:    6187040  HIT:    5897382  MISS:     289658  HIT %:    95.3183  MISS %:    4.68169  MPKI: 5.79316
L1D PREFETCH DATA	ACCESS:     342861  HIT:     237743  MISS:     105118  HIT %:    69.3409  MISS %:    30.6591  MPKI: 2.10236

L1D PREFETCH  REQUESTED:     811170  ISSUED:     811170  USEFUL:      48438  USELESS:      69322
L1D USEFUL LOAD PREFETCHES:      48438 PREFETCH ISSUED TO LOWER LEVEL:     117774  ACCURACY: 41.1279
 TIMELY PREFETCHES:      48438 LATE PREFETCHES: 12614 DROPPED PREFETCHES: 4
L1D AVERAGE MISS LATENCY: 395834 cycles
L1D RQ	ACCESS:   10860165	FORWARD:          0	MERGED:    3887224	TO_CACHE:    6809679
L1D WQ	ACCESS:    6902088	FORWARD:     163596	MERGED:     172810	TO_CACHE:    6729278
L1D PQ	ACCESS:     405752	FORWARD:          0	MERGED:          0	TO_CACHE:     405418

L1D UNIQUE REGIONS ACCESSED: 0
L1D REGIONS CONFLICTS: 0
L1D Cross Page Prefetch Requests: 6225
L1D Same Page Prefetch Requests: 817331
L1D ROI Sum of L1D PQ occupancy: 5153386
L1D PREFETCHES PUSHED FROM L2C: 0
L1I TOTAL     ACCESS:    6922387  HIT:    4189779  MISS:    2732608  HIT %:    60.5251  MISS %:    39.4749   MPKI: 54.6522
L1I LOAD INSTRUCTION	ACCESS:    6426192  HIT:    3693584  MISS:    2732608  HIT %:     57.477  MISS %:     42.523  MPKI: 54.6522
L1I PREFETCH INSTRUCTION	ACCESS:     496195  HIT:     496195  MISS:          0  HIT %:        100  MISS %:          0  MPKI: 0

L1I PREFETCH  REQUESTED:    1099663  ISSUED:    1099663  USEFUL:          0  USELESS:          0
L1I USEFUL LOAD PREFETCHES:          0 PREFETCH ISSUED TO LOWER LEVEL:          0  ACCURACY: -nan
 TIMELY PREFETCHES:          0 LATE PREFETCHES: 0 DROPPED PREFETCHES: 0
L1I AVERAGE MISS LATENCY: 17.7539 cycles
L1I RQ	ACCESS:    9460869	FORWARD:          0	MERGED:    2812146	TO_CACHE:    6648723
L1I PQ	ACCESS:    1099663	FORWARD:          0	MERGED:     316255	TO_CACHE:     783408

L1BTB TOTAL     ACCESS:    5679563  HIT:    2086962  MISS:    3592601  HIT %:    36.7451  MISS %:    63.2549   MPKI: 71.852
L1BTB BRANCH_DIRECT_JUMP	ACCESS:     545897 HIT:     145056 MISS:     400841 AVERAGE STALL: 36.8443 AVERAGE FETCH STALL: 19.0978 AVERAGE FETCH QUEUE STALL: 8.87 AVERAGE DECODE STALL: 8.08479 AVERAGE EXECUTE STALL: 3.90813e+14
L1BTB BRANCH_INDIRECT	ACCESS:     182492 HIT:      66217 MISS:     116275 AVERAGE STALL: 92.5979 AVERAGE FETCH STALL: 15.7707 AVERAGE FETCH QUEUE STALL: 7.32344 AVERAGE DECODE STALL: 7.20612 AVERAGE EXECUTE STALL: 61.3587
L1BTB BRANCH_CONDITIONAL	ACCESS:    2745442 HIT:    1464224 MISS:    1281218 AVERAGE STALL: 37.3411 AVERAGE FETCH STALL: 22.2787 AVERAGE FETCH QUEUE STALL: 7.04018 AVERAGE DECODE STALL: 7.27703 AVERAGE EXECUTE STALL: 1.62823e+14
L1BTB BRANCH_DIRECT_CALL	ACCESS:     933080 HIT:     103403 MISS:     829677 AVERAGE STALL: 38.8145 AVERAGE FETCH STALL: 22.5119 AVERAGE FETCH QUEUE STALL: 7.83753 AVERAGE DECODE STALL: 7.70331 AVERAGE EXECUTE STALL: 1.07485e+14
L1BTB BRANCH_INDIRECT_CALL	ACCESS:     169785 HIT:      20867 MISS:     148918 AVERAGE STALL: 116.743 AVERAGE FETCH STALL: 18.7508 AVERAGE FETCH QUEUE STALL: 8.16079 AVERAGE DECODE STALL: 7.16343 AVERAGE EXECUTE STALL: 82.1437
L1BTB BRANCH_RETURN	ACCESS:    1102867 HIT:     287195 MISS:     815672 AVERAGE STALL: 37.7666 AVERAGE FETCH STALL: 19.2394 AVERAGE FETCH QUEUE STALL: 5.51076 AVERAGE DECODE STALL: 6.26152 AVERAGE EXECUTE STALL: 1.95867e+14
L1BTB BRANCH_OTHER ACCESS:          0 HIT:          0 MISS:          0 AVERAGE STALL: -nan AVERAGE FETCH STALL: -nan AVERAGE FETCH QUEUE STALL: -nan AVERAGE DECODE STALL: -nan AVERAGE EXECUTE STALL: -nan
L1BTB TOTAL ROB OCCUPANCY AT BTB MISS: 13.7365

L2BTB TOTAL     ACCESS:    3567177  HIT:    3102781  MISS:     464396  HIT %:    86.9814  MISS %:    13.0186   MPKI: 9.28792
L2BTB BRANCH_DIRECT_JUMP	ACCESS:     396599 HIT:     353630 MISS:      42969 AVERAGE STALL: 36.8443 AVERAGE FETCH STALL: 19.0978 AVERAGE FETCH QUEUE STALL: 8.87 AVERAGE DECODE STALL: 8.08479 AVERAGE EXECUTE STALL: 3.90813e+14
L2BTB BRANCH_INDIRECT	ACCESS:     106071 HIT:      96893 MISS:       9178 AVERAGE STALL: 92.5979 AVERAGE FETCH STALL: 15.7707 AVERAGE FETCH QUEUE STALL: 7.32344 AVERAGE DECODE STALL: 7.20612 AVERAGE EXECUTE STALL: 61.3587
L2BTB BRANCH_CONDITIONAL	ACCESS:    1281218 HIT:    1167389 MISS:     113829 AVERAGE STALL: 37.3411 AVERAGE FETCH STALL: 22.2787 AVERAGE FETCH QUEUE STALL: 7.04018 AVERAGE DECODE STALL: 7.27703 AVERAGE EXECUTE STALL: 1.62823e+14
L2BTB BRANCH_DIRECT_CALL	ACCESS:     829677 HIT:     658020 MISS:     171657 AVERAGE STALL: 38.8145 AVERAGE FETCH STALL: 22.5119 AVERAGE FETCH QUEUE STALL: 7.83753 AVERAGE DECODE STALL: 7.70331 AVERAGE EXECUTE STALL: 1.07485e+14
L2BTB BRANCH_INDIRECT_CALL	ACCESS:     139326 HIT:     105379 MISS:      33947 AVERAGE STALL: 116.743 AVERAGE FETCH STALL: 18.7508 AVERAGE FETCH QUEUE STALL: 8.16079 AVERAGE DECODE STALL: 7.16343 AVERAGE EXECUTE STALL: 82.1437
L2BTB BRANCH_RETURN	ACCESS:     814286 HIT:     721470 MISS:      92816 AVERAGE STALL: 37.7666 AVERAGE FETCH STALL: 19.2394 AVERAGE FETCH QUEUE STALL: 5.51076 AVERAGE DECODE STALL: 6.26152 AVERAGE EXECUTE STALL: 1.95867e+14
L2BTB BRANCH_OTHER ACCESS:          0 HIT:          0 MISS:          0 AVERAGE STALL: -nan AVERAGE FETCH STALL: -nan AVERAGE FETCH QUEUE STALL: -nan AVERAGE DECODE STALL: -nan AVERAGE EXECUTE STALL: -nan
L2BTB TOTAL ROB OCCUPANCY AT BTB MISS: 106.267

L2C TOTAL     ACCESS:    4508179  HIT:    3947636  MISS:     560543  HIT %:    87.5661  MISS %:    12.4339   MPKI: 11.2109
L2C LOAD INSTRUCTION	ACCESS:    2732608  HIT:    2430226  MISS:     302382  HIT %:    88.9343  MISS %:    11.0657  MPKI: 6.04764
L2C LOAD TRANSLATION INSTRUCTION	ACCESS:        291  HIT:         69  MISS:        222  HIT %:    23.7113  MISS %:    76.2887  MPKI: 0.00444
L2C LOAD DATA	ACCESS:     745186  HIT:     651034  MISS:      94152  HIT %:    87.3653  MISS %:    12.6347  MPKI: 1.88304
L2C RFO DATA	ACCESS:     289599  HIT:     230180  MISS:      59419  HIT %:    79.4823  MISS %:    20.5177  MPKI: 1.18838
L2C PREFETCH DATA	ACCESS:     214856  HIT:     129042  MISS:      85814  HIT %:    60.0598  MISS %:    39.9402  MPKI: 1.71628
L2C WRITEBACK DATA	ACCESS:     523676  HIT:     506380  MISS:      17296  HIT %:    96.6972  MISS %:    3.30281  MPKI: 0.34592
L2C LOAD TRANSLATION DATA	ACCESS:       1937  HIT:        687  MISS:       1250  HIT %:    35.4672  MISS %:    64.5328  MPKI: 0.025
L2C TRANSLATION FROM L1D PREFETCHER DATA	ACCESS:         26  HIT:         18  MISS:          8  HIT %:    69.2308  MISS %:    30.7692  MPKI: 0.00016

L2C PREFETCH  REQUESTED:     104700  ISSUED:     104700  USEFUL:       9344  USELESS:      76976
L2C USEFUL LOAD PREFETCHES:       9344 PREFETCH ISSUED TO LOWER LEVEL:      86164  ACCURACY: 10.8444
 TIMELY PREFETCHES:       9344 LATE PREFETCHES: 350 DROPPED PREFETCHES: 0
L2C AVERAGE MISS LATENCY: 37.8025 cycles
L2C RQ	ACCESS:    3769716	FORWARD:          0	MERGED:          0	TO_CACHE:    3769650
L2C WQ	ACCESS:     523676	FORWARD:         67	MERGED:          0	TO_CACHE:     523676
L2C PQ	ACCESS:     222474	FORWARD:          0	MERGED:       3464	TO_CACHE:     219009

L2C Dense regions hint from L2: 0
PSCL5 TOTAL     ACCESS:       4302  HIT:       2151  MISS:       2151  HIT %:         50  MISS %:         50   MPKI: 0.04302
PSCL5 LOAD TRANSLATION INSTRUCTION	ACCESS:       4250  HIT:       2125  MISS:       2125  HIT %:         50  MISS %:         50  MPKI: 0.0425
PSCL5 TRANSLATION FROM L1D PREFETCHER INSTRUCTION	ACCESS:         52  HIT:         26  MISS:         26  HIT %:         50  MISS %:         50  MPKI: 0.00052


PSCL4 TOTAL     ACCESS:       4156  HIT:       2075  MISS:       2081  HIT %:    49.9278  MISS %:    50.0722   MPKI: 0.04162
PSCL4 LOAD TRANSLATION INSTRUCTION	ACCESS:       2944  HIT:       2053  MISS:        891  HIT %:    69.7351  MISS %:    30.2649  MPKI: 0.01782
PSCL4 TRANSLATION FROM L1D PREFETCHER INSTRUCTION	ACCESS:         35  HIT:         22  MISS:         13  HIT %:    62.8571  MISS %:    37.1429  MPKI: 0.00026
PSCL4 LOAD TRANSLATION DATA	ACCESS:       1168  HIT:          0  MISS:       1168  HIT %:          0  MISS %:        100  MPKI: 0.02336
PSCL4 TRANSLATION FROM L1D PREFETCHER DATA	ACCESS:          9  HIT:          0  MISS:          9  HIT %:          0  MISS %:        100  MPKI: 0.00018


PSCL3 TOTAL     ACCESS:       4244  HIT:       2119  MISS:       2125  HIT %:    49.9293  MISS %:    50.0707   MPKI: 0.0425
PSCL3 LOAD TRANSLATION INSTRUCTION	ACCESS:       2988  HIT:       2097  MISS:        891  HIT %:    70.1807  MISS %:    29.8193  MPKI: 0.01782
PSCL3 TRANSLATION FROM L1D PREFETCHER INSTRUCTION	ACCESS:         35  HIT:         22  MISS:         13  HIT %:    62.8571  MISS %:    37.1429  MPKI: 0.00026
PSCL3 LOAD TRANSLATION DATA	ACCESS:       1212  HIT:          0  MISS:       1212  HIT %:          0  MISS %:        100  MPKI: 0.02424
PSCL3 TRANSLATION FROM L1D PREFETCHER DATA	ACCESS:          9  HIT:          0  MISS:          9  HIT %:          0  MISS %:        100  MPKI: 0.00018


PSCL2 TOTAL     ACCESS:       4211  HIT:       2060  MISS:       2151  HIT %:    48.9195  MISS %:    51.0805   MPKI: 0.04302
PSCL2 LOAD TRANSLATION INSTRUCTION	ACCESS:       2295  HIT:       2034  MISS:        261  HIT %:    88.6275  MISS %:    11.3725  MPKI: 0.00522
PSCL2 TRANSLATION FROM L1D PREFETCHER INSTRUCTION	ACCESS:         26  HIT:         26  MISS:          0  HIT %:        100  MISS %:          0  MPKI: 0
PSCL2 LOAD TRANSLATION DATA	ACCESS:       1864  HIT:          0  MISS:       1864  HIT %:          0  MISS %:        100  MPKI: 0.03728
PSCL2 TRANSLATION FROM L1D PREFETCHER DATA	ACCESS:         26  HIT:          0  MISS:         26  HIT %:          0  MISS %:        100  MPKI: 0.00052


LLC TOTAL     ACCESS:     626189  HIT:     595858  MISS:      30331  HIT %:    95.1563  MISS %:    4.84375   MPKI: 0.60662
LLC LOAD INSTRUCTION	ACCESS:     302382  HIT:     301438  MISS:        944  HIT %:    99.6878  MISS %:   0.312188  MPKI: 0.01888
LLC LOAD TRANSLATION INSTRUCTION	ACCESS:        222  HIT:        204  MISS:         18  HIT %:    91.8919  MISS %:    8.10811  MPKI: 0.00036
LLC LOAD DATA	ACCESS:      93842  HIT:      90288  MISS:       3554  HIT %:    96.2128  MISS %:    3.78722  MPKI: 0.07108
LLC RFO DATA	ACCESS:      59371  HIT:      43993  MISS:      15378  HIT %:    74.0985  MISS %:    25.9015  MPKI: 0.30756
LLC PREFETCH DATA	ACCESS:      86164  HIT:      76197  MISS:       9967  HIT %:    88.4325  MISS %:    11.5675  MPKI: 0.19934
LLC WRITEBACK DATA	ACCESS:      82950  HIT:      82549  MISS:        401  HIT %:    99.5166  MISS %:   0.483424  MPKI: 0.00802
LLC LOAD TRANSLATION DATA	ACCESS:       1250  HIT:       1181  MISS:         69  HIT %:      94.48  MISS %:       5.52  MPKI: 0.00138
LLC TRANSLATION FROM L1D PREFETCHER DATA	ACCESS:          8  HIT:          8  MISS:          0  HIT %:        100  MISS %:          0  MPKI: 0

LLC AVERAGE MISS LATENCY: 159.609 cycles
LLC RQ	ACCESS:     457083	FORWARD:          0	MERGED:          0	TO_CACHE:     457075
LLC WQ	ACCESS:      82950	FORWARD:          8	MERGED:          0	TO_CACHE:      82950
LLC PQ	ACCESS:      86164	FORWARD:          0	MERGED:          0	TO_CACHE:      86164

LLC Dense regions hint to LLC: 0

RAW hits: 1753027
Loads Generated: 12613193
Loads sent to L1D: 10860165
Stores Generated: 6902078
Stores sent to L1D: 6902088
Major fault: 0 Minor fault: 2519
Allocated PAGES: 2519

stream: 
stream:times selected: 1259060
stream:pref_filled: 126323
stream:pref_useful: 28779
stream:pref_late: 9254
stream:misses: 10411
stream:misses_by_poll: 0

CS: 
CS:times selected: 195737
CS:pref_filled: 73631
CS:pref_useful: 50227
CS:pref_late: 9198
CS:misses: 23858
CS:misses_by_poll: 7

CPLX: 
CPLX:times selected: 1062194
CPLX:pref_filled: 24321
CPLX:pref_useful: 7342
CPLX:pref_late: 3950
CPLX:misses: 128291
CPLX:misses_by_poll: 0

NL_L1: 
NL:times selected: 13073
NL:pref_filled: 1373
NL:pref_useful: 352
NL:pref_late: 400
NL:misses: 2072
NL:misses_by_poll: 0

total selections: 2530064
total_filled: 105118
total_useful: 48438
total_late: 25055
total_polluted: 7
total_misses_after_warmup: 789909
conflicts: 5589530

test: 120311

DRAM Statistics
 CHANNEL 0
 RQ ROW_BUFFER_HIT:      11138  ROW_BUFFER_MISS:      18774
 DBUS_CONGESTED:         11
 WQ ROW_BUFFER_HIT:       1437  ROW_BUFFER_MISS:      13184  FULL:          0

 AVG_CONGESTED_CYCLE: 5

CPU 0 Branch Prediction Accuracy: 99.8159% MPKI: 0.33676 Average ROB Occupancy at Mispredict: 143.262
Branch types
NOT_BRANCH: 40852244 81.7045%
BRANCH_DIRECT_JUMP: 545897 1.09179%
BRANCH_INDIRECT: 182492 0.364984%
BRANCH_CONDITIONAL: 6213382 12.4268%
BRANCH_DIRECT_CALL: 933080 1.86616%
BRANCH_INDIRECT_CALL: 169785 0.33957%
BRANCH_RETURN: 1102867 2.20573%
BRANCH_OTHER: 0 0%

DRAM PAGES: 1048576
Allocated PAGES: 2519
Average_ROB_Occupancy: 128.437
Average_Decode_Occupancy: 15.2989
Average_FTQ_Occupancy: 7.09095
Indirect max targets: 14 Average targets: 1.14966
Branch_type:  BRANCH_DIRECT_JUMP:  Count Percentage: 3.34064 6.03018 5.05481 3.7701 7.05164 12.6717 1.71966 60.3613 
Branch_type:  BRANCH_INDIRECT:  Count Percentage: 13.7595 3.48771 2.61448 3.70074 9.68449 19.2475 3.18064 44.325 
Branch_type:  BRANCH_CONDITIONAL:  Count Percentage: 22.3692 3.02308 1.73763 2.83677 4.69583 15.0909 0.984972 49.2616 
Branch_type:  BRANCH_DIRECT_CALL:  Count Percentage: 0.709739 1.25073 1.05329 2.19371 4.41696 4.87799 0.889676 84.6079 
Branch_type:  BRANCH_INDIRECT_CALL:  Count Percentage: 9.52131 0 2.982 4.24485 0 5.40074 0.999289 76.8518 
Branch_type:  BRANCH_RETURN:  Count Percentage: 4.44096 1.39665 1.94875 3.31218 7.13352 15.8582 1.38575 64.524 
Branch_type:  BRANCH_DIRECT_JUMP:  Total Count: 36459 65812 55167 41146 76960 138296 18768 658769 
Branch_type:  BRANCH_INDIRECT:  Total Count: 50186 12721 9536 13498 35323 70203 11601 161670 
Branch_type:  BRANCH_CONDITIONAL:  Total Count: 2778771 375535 215853 352392 583329 1874629 122356 6119419 
Branch_type:  BRANCH_DIRECT_CALL:  Total Count: 13261 23369 19680 40988 82528 91142 16623 1580843 
Branch_type:  BRANCH_INDIRECT_CALL:  Total Count: 32405 0 10149 14447 0 18381 3401 261559 
Branch_type:  BRANCH_RETURN:  Total Count: 98126 30860 43059 73185 157620 350398 30619 1425702 
Number of unique branch instructions: 9864
Upper 32 bits: 
aaaa
ffff
ffff0000
Unique upper 32 bits: 3
Unique upper 36 bits: 3
Unique upper 40 bits: 5
Unique upper 44 bits: 32
Unique upper 48 bits: 154
Variant_0 : 1086 0.265137
Variant_1 : 2374 0.57959
Variant_2 : 0 0
Variant_3 : 0 0
Offset_3 4071
Offset_4 244
Offset_5 452
Offset_6 498
Offset_7 576
Offset_8 505
Offset_9 468
Offset_10 377
Offset_11 318
Offset_12 271
Offset_13 199
Offset_14 227
Offset_15 184
Offset_16 224
Offset_17 142
Offset_18 121
Offset_19 234
Offset_20 137
Offset_21 235
Offset_22 393
Offset_23 241
Offset_24 326
Offset_25 88
Offset_47 80
Offset_64 2
decode_dispatch_called: 20035357 45.2731
Dispatch_width: 0 9938335 49.604 22.4573
Dispatch_width: 1 561421 2.80215 1.26862
Dispatch_width: 2 658505 3.28671 1.488
Dispatch_width: 3 420147 2.09703 0.94939
Dispatch_width: 4 1789660 8.93251 4.04403
Dispatch_width: 5 301395 1.50432 0.681051
Dispatch_width: 6 6365894 31.7733 14.3848
Empty_decode_cycles: 24219062 54.7269
ROB_full_cycles: 2654932 5.99925
Starvation_cycles_per_kilo_instr: 352.336
Starvation_cycles_per_kilo_instr_3: 331.425
Starvation_cycles_per_kilo_instr_0: 315.025
Branch_type_1  (3,1)  (4,9)  (5,37)  (6,68)  (7,113)  (8,129)  (9,124)  (10,97)  (11,70)  (12,44)  (13,5)  (14,2)  (15,3)  (16,4)  (18,1)  (19,4)  (20,2)  (21,1)  (22,3)  (23,2)  (24,10)  (25,12) 
Branch_type_2  (3,1)  (5,1)  (8,3)  (9,3)  (12,1)  (13,1)  (14,1)  (16,3)  (17,2)  (20,2)  (21,2)  (23,5)  (24,1)  (47,36) 
Branch_type_3  (3,4069)  (4,235)  (5,410)  (6,415)  (7,434)  (8,313)  (9,258)  (10,153)  (11,133)  (12,51)  (13,4)  (64,1) 
Branch_type_4  (6,3)  (7,8)  (8,25)  (9,51)  (10,60)  (11,59)  (12,96)  (13,86)  (14,100)  (15,86)  (16,100)  (17,63)  (18,55)  (19,115)  (20,71)  (21,124)  (22,209)  (23,136)  (24,187)  (25,72)  (64,1) 
Branch_type_5  (8,2)  (9,1)  (10,3)  (11,5)  (12,3)  (13,14)  (14,16)  (15,11)  (16,20)  (17,11)  (18,16)  (19,12)  (20,10)  (21,13)  (22,42)  (23,26)  (24,37) 
Branch_type_6  (5,4)  (6,12)  (7,21)  (8,33)  (9,31)  (10,64)  (11,51)  (12,76)  (13,89)  (14,108)  (15,84)  (16,97)  (17,66)  (18,49)  (19,103)  (20,52)  (21,95)  (22,139)  (23,72)  (24,91)  (25,4)  (47,44) 
Unique trigger count: 
Variant_0_evicts_0 : 0
Variant_0_evicts_1 : 0
Variant_0_evicts_2 : 0
Variant_0_evicts_3 : 0
Variant_1_evicts_0 : 0
Variant_1_evicts_1 : 0
Variant_1_evicts_2 : 0
Variant_1_evicts_3 : 0
Variant_2_evicts_0 : 0
Variant_2_evicts_1 : 0
Variant_2_evicts_2 : 0
Variant_2_evicts_3 : 0
Variant_3_evicts_0 : 0
Variant_3_evicts_1 : 0
Variant_3_evicts_2 : 0
Variant_3_evicts_3 : 0
BTB PER SET UNIQUE ADDR: 4 7 6 4 3 3 7 9 10 2 5 2 8 5 4 4 6 4 8 8 4 8 7 8 8 11 1 7 6 5 9 10 6 4 7 4 4 6 7 3 7 5 6 10 9 7 6 11 11 6 5 3 13 2 2 7 5 5 8 8 4 10 5 8 6 9 8 7 5 7 6 2 6 4 6 7 6 13 6 4 9 6 7 6 6 8 7 8 8 10 10 8 9 6 7 4 10 7 4 6 8 5 9 9 5 8 6 8 7 5 7 4 4 8 6 11 3 7 6 2 7 8 4 2 6 4 4 6 10 6 10 3 11 4 8 5 5 2 6 7 8 7 6 7 3 10 3 8 10 6 7 11 6 10 4 8 6 8 6 10 9 6 10 5 9 5 3 4 12 5 4 3 7 6 3 2 5 5 9 4 6 6 8 6 6 10 5 5 6 8 5 8 6 6 6 10 10 3 9 5 4 6 9 3 8 4 5 7 6 2 3 6 9 9 6 6 4 9 8 6 6 2 6 6 6 8 13 7 2 9 14 8 4 2 6 8 9 5 3 4 5 3 9 7 15 10 2 5 5 5 9 10 6 6 5 12 4 6 9 5 8 5 7 4 9 14 6 4 7 5 7 6 4 8 10 7 5 3 4 8 7 4 10 5 9 9 7 7 8 4 5 7 4 10 6 4 6 10 5 6 6 6 4 4 6 5 6 4 11 9 6 3 8 3 6 4 9 14 7 3 6 10 5 7 5 5 5 9 3 2 7 2 6 7 10 5 6 7 7 1 6 6 2 8 6 6 3 7 8 5 4 10 9 7 8 7 7 2 7 5 6 9 6 8 10 8 4 3 4 4 7 4 6 5 7 4 11 6 5 10 9 7 6 12 6 4 8 5 5 3 9 5 8 4 7 4 5 5 2 8 6 4 6 6 5 6 7 4 4 3 4 3 9 4 2 5 8 4 2 6 2 5 5 7 9 6 3 2 4 7 3 4 14 5 8 11 6 6 6 4 4 6 8 3 6 8 4 6 5 4 6 3 4 1 9 3 4 7 9 5 4 4 7 11 5 5 10 3 6 6 2 6 8 7 4 3 9 5 2 3 5 2 3 4 3 7 8 3 6 2 9 4 4 8 1 10 4 7 5 4 11 3 3 3 2 5 5 3 2 6 7 3 5 9 3 3 2 10 5 8 6 5 7 4 11 8 4 9 9 7 5 6 4 8 4 8 4 1 6 4 4 8 9 3 8 5 9 13 12 11 5 8 7 7 2 6 8 3 5 3 10 4 8 4 5 5 9 8 9 7 8 4 9 12 7 7 7 10 3 9 12 5 1 6 4 3 3 14 7 5 7 7 3 5 4 5 6 5 4 4 9 5 9 9 7 5 4 9 7 5 8 6 6 5 8 4 7 5 5 7 8 6 9 3 5 9 7 8 4 6 8 7 6 6 7 5 5 4 5 3 10 8 4 5 2 3 6 7 8 6 7 4 10 3 5 2 10 5 6 8 11 3 6 11 7 8 7 5 5 10 7 6 6 6 11 9 6 6 8 6 7 11 8 6 8 8 7 8 8 6 3 7 3 4 4 6 10 7 7 6 3 10 4 5 6 9 3 4 5 5 7 7 6 5 5 7 10 6 1 8 4 3 5 3 4 1 3 9 2 11 7 9 7 2 6 7 6 3 6 4 4 8 5 10 4 3 5 3 6 6 6 3 4 6 2 5 4 10 9 4 4 6 6 7 7 6 14 5 6 3 9 6 0 5 7 5 6 10 3 3 7 5 4 6 11 9 9 6 3 8 3 9 4 6 6 12 11 4 5 4 12 4 8 3 7 6 7 9 4 5 3 4 6 3 4 6 1 5 5 11 6 4 9 4 5 4 5 3 7 6 7 3 7 4 10 5 4 4 6 4 5 4 6 5 4 8 8 5 5 4 8 7 6 8 5 10 7 4 7 5 6 7 4 4 14 5 5 8 9 8 4 6 6 10 7 2 2 5 7 4 5 6 5 6 9 5 7 4 4 7 8 3 5 7 6 3 9 11 4 3 12 8 5 5 9 6 5 11 6 8 9 6 4 3 2 7 5 3 7 6 8 6 10 6 8 8 7 4 5 10 5 4 10 10 5 8 10 11 2 8 8 8 4 4 6 7 9 6 7 3 9 4 13 7 3 5 9 11 6 10 5 6 10 5 3 8 10 8 8 4 2 5 3 8 10 6 7 5 4 7 11 6 4 6 5 6 4 3 8 6 8 7 7 11 4 9 6 11 5 6 3 4 5 4 6 6 7 4 5 4 8 3 9 5 10 4 9 4 3 6 10 6 14 5 
BTB PER SET COUNT: 4 7 6 4 3 3 7 2026 5312 2 5 2 1513 5 4 7 6 4 58 3465 4 8 9 939 4806 3006 1 10 1835 5 5468 1209 1511 5 12 7 2904 6 11 5 27 5 8 2780 2931 9 6 4521 4171 6 5 5 10104 2 2 1511 6 5 1018 2134 4 2984 5 20 6 1246 479 22 5 704 702 2 6 4 6 7 508 6874 34 4 887 6 937 6 512 16 7 264 8041 2206 1780 468 3021 6 8 6 2677 7 4 6 20 5 23 2984 5 26 6 2015 2012 5 2012 5 4 990 6 4521 3 7 6 2 7 28 4 2 509 4 4 6 7168 21 2055 4 8554 6 2938 5 5 2 6 1935 14 15 7 8 3 881 3 8 1704 2512 7 6428 6 9957 4 986 6 2015 6 1467 4735 7 3377 5 1027 3350 3 4 7258 5 4 3 13 116 3 2 5 506 2160 4 6 6 5359 6 6 6762 5 5 2849 22 5 2795 8 6 6 37 973 3 22 5 4 8 13 6 11 6 5 3274 7 2 3 7 128 20 6 6 4 260 10 6 7 2 6 6 7 2021 5640 3230 2 3854 8196 914 4 2 15 2477 3016 5 3 4 5 3 6362 7 7406 3053 2 5 5 5 404 4101 6 6 8 3019 5 6 2279 5 2204 5 7 6 2185 6913 953 4 2022 5 1743 6 4 2012 1028 705 5 3 6 2519 8 4 1265 5 2907 3017 7 472 22 4 5 7 506 2529 3013 4 9 4075 5 6 6 7 4 4 6 5 6 4 4290 1597 8 3 2116 3 8 8 1016 4149 2016 4 6 1418 6 7 5 6 5 1182 4 3 2207 2 6 7 5428 5 1514 16 7 1 6 6 2 2439 1009 770 3 9 314 5 5 989 27 1510 8 26 9 2 2116 50 8 684 6 1907 957 555 4 3 4 4 7 8 6 5 22 4 5831 6 5 2155 2519 2514 6 6457 9 4 39 5 6 3 1406 7 2513 5 7 6 1454 7 2 13 6 4 1510 6 695 6 2906 5 5 2726 4 3 1475 4 1449 5 135 4 2 1510 2 5 5 15 1022 9 5 2 4 398 130 4 6647 6 1581 2186 7 6 6 7 4 6 1346 3 10 25 4 1955 5 4 6 3 5 1 1601 3 4 33 758 5 1007 4 29 48 35 5 3465 3 6 6 2 23 2021 516 117 3 25382 5 2 3 5 2 3 506 3 125 1687 390 6 2 2036 4 4 1175 1 4947 4 27 5 5 2954 15 3 3 2 5 5 4 2 6 16 3 5 24 4 3 2 11156 5 1278 8 1454 7 754 170 2013 4 1014 1040 18 5 6 4 21 4 824 4 1 8 4 5 2013 36 6 33 6 53 2551 3116 7992 5 3832 9 9 3 6 1409 3 5 3 5133 5 2015 4 5 7 1027 20 2016 46 3265 7 2440 5519 1512 1512 8 5412 3 4436 9966 56 1 1510 1456 3 3 6636 19 5 11 2513 3 952 1897 7 6 5 6 4 1689 7 4739 1018 8 3011 4 2935 8 5 3019 8 6 6 8 4 2520 7 5 7 13 896 4447 3 1525 1019 34 1361 18 1509 1516 1456 7 12 7 5 6 4 5 3 7259 1021 4 5 2 3 8 9 1192 8 7 4 8211 3 5 2 1024 5 2012 3018 12792 3 6 6347 7 1707 2918 1009 24 2019 1011 6 7 10 6902 3117 509 6 2553 6 7 6521 28 1009 17405 1525 26 4464 1470 6 3 1248 4 7 4 6 6810 7 7 59 3 3089 4 5 165 4177 3 1454 5 1454 122 7 8 5 1009 7 2073 981 1 2013 4 3 5 3 4 1 3 1029 2 6028 1510 4028 955 2 10 7 6 3 6 4 5 935 5 8165 4 3 1009 3 8 1010 6 3 4 893 2 7 4 4220 6194 953 4 6 954 17 2785 7 9251 5 11 3 283 6 0 196 7 1455 6 2554 4 3 2508 5 4 6 1834 1839 1017 15 716 1012 3 1798 4 6 392 7030 3140 6 5 4 4389 5 1729 5 2030 2408 7 27 5 7 3 6 6 450 5 7 3 5 8 2930 6 4 479 677 6 4 953 3 1516 55 702 3 471 4 7746 6 4 4 6 4 462 4 8 1455 4 15 1030 6 5 4 3520 1566 7 10 5 8761 37 4 1510 8 6 7 4 4 8711 960 7 2023 3516 10 4 6 6 1574 7 2 4 5 9 4 5 6 6 8 3139 9 1691 4 4 7 12 3 6 13 6 4 34 4010 4 3 5238 1900 102 62 724 8 6 3363 6 12 2126 6 4 3 4 7 5 1006 5021 2010 37 6 2020 6 1046 1600 9 4 5 1140 5 508 3947 1916 5 1017 4871 2839 2 3515 24 11 4 951 6 1510 19 514 8 3 3700 4 7059 7 3 5 2056 8320 10 3521 5 509 7315 5 3 936 55 708 42 5 2 5 3 769 2567 6 955 5 4 7 2724 9 506 7 5 12 5 4 275 6 3023 11 2514 3088 5 3519 6 5492 9 8 3 4 7 4 12 6 2011 4 6 4 3036 3 7151 386 2967 6 1087 7 3 6 1502 6 3483 5 
To predecode: 0
Predecoding something: 0
Predecode request dropped: 0
sizeofblock_0 0
sizeofblock_1 236173
sizeofblock_2 337127
sizeofblock_3 0
sizeofblock_4 0
sizeofblock_5 0
sizeofblock_6 0
sizeofblock_7 0
sizeofblock_8 0
Variant_0 Correct: 0 Incorrect: 0 Accuracy: -nan
Variant_1 Correct: 0 Incorrect: 0 Accuracy: -nan
Variant_2 Correct: 0 Incorrect: 0 Accuracy: -nan
Variant_3 Correct: 0 Incorrect: 0 Accuracy: -nan
