
*** ChampSim Multicore Out-of-Order Simulator ***

Warmup Instructions: 50000000
Simulation Instructions: 50000000
Number of CPUs: 1
LLC sets: 2048
LLC ways: 16
Off-chip DRAM Size: 4096 MB Channels: 1 Width: 64-bit Data Rate: 6400 MT/s
CPU 0 runs ./micro_traces/srv522.trace.gz
.gz
ITLB has LRU replacement policy
DTLB has LRU replacement policy
STLB has LRU replacement policy
FDIP Prefetcher at L1I
L1I has LRU replacement policy
L1D has LRU replacement policy
Initialize SRRIP state for L2C
Initialize DRRIP state for LLC
Heartbeat_Variant_0 : 1334 0.325684 per_variant_size: 0 1334 0 0 0 0 0 0 0 
Heartbeat_Variant_1 : 1238 0.302246 per_variant_size: 0 606 632 0 0 0 0 0 0 
Heartbeat_Variant_2 : 1326 0.32373 per_variant_size: 0 527 381 218 200 0 0 0 0 
Heartbeat_Variant_3 : 0 0 per_variant_size: 0 0 0 0 0 0 0 0 0 
Heartbeat_Variant_0_evicts 0 : 5793 1 : 300 2 : 322 3 : 0 
Heartbeat_Variant_1_evicts 0 : 292 1 : 0 2 : 489 3 : 0 
Heartbeat_Variant_2_evicts 0 : 300 1 : 474 2 : 0 3 : 0 
Heartbeat_Variant_3_evicts 0 : 0 1 : 0 2 : 0 3 : 0 
Heartbeat CPU 0 instructions: 10000000 cycles: 2798055 heartbeat IPC: 3.57391 cumulative IPC: 3.57391 (Simulation time: 0 hr 1 min 39 sec) 
Heartbeat_Variant_0 : 1337 0.326416 per_variant_size: 0 1337 0 0 0 0 0 0 0 
Heartbeat_Variant_1 : 1240 0.302734 per_variant_size: 0 588 652 0 0 0 0 0 0 
Heartbeat_Variant_2 : 1336 0.326172 per_variant_size: 0 528 384 220 204 0 0 0 0 
Heartbeat_Variant_3 : 0 0 per_variant_size: 0 0 0 0 0 0 0 0 0 
Heartbeat_Variant_0_evicts 0 : 5684 1 : 27 2 : 24 3 : 0 
Heartbeat_Variant_1_evicts 0 : 29 1 : 0 2 : 222 3 : 0 
Heartbeat_Variant_2_evicts 0 : 22 1 : 228 2 : 0 3 : 0 
Heartbeat_Variant_3_evicts 0 : 0 1 : 0 2 : 0 3 : 0 
Heartbeat CPU 0 instructions: 20000000 cycles: 5594828 heartbeat IPC: 3.57555 cumulative IPC: 3.57473 (Simulation time: 0 hr 3 min 18 sec) 
Heartbeat_Variant_0 : 1377 0.336182 per_variant_size: 0 1377 0 0 0 0 0 0 0 
Heartbeat_Variant_1 : 1267 0.309326 per_variant_size: 0 581 686 0 0 0 0 0 0 
Heartbeat_Variant_2 : 1356 0.331055 per_variant_size: 0 506 392 245 213 0 0 0 0 
Heartbeat_Variant_3 : 0 0 per_variant_size: 0 0 0 0 0 0 0 0 0 
Heartbeat_Variant_0_evicts 0 : 5720 1 : 198 2 : 216 3 : 0 
Heartbeat_Variant_1_evicts 0 : 193 1 : 0 2 : 363 3 : 0 
Heartbeat_Variant_2_evicts 0 : 207 1 : 353 2 : 0 3 : 0 
Heartbeat_Variant_3_evicts 0 : 0 1 : 0 2 : 0 3 : 0 
Heartbeat CPU 0 instructions: 30000000 cycles: 8391415 heartbeat IPC: 3.57579 cumulative IPC: 3.57508 (Simulation time: 0 hr 5 min 0 sec) 
Heartbeat_Variant_0 : 1377 0.336182 per_variant_size: 0 1377 0 0 0 0 0 0 0 
Heartbeat_Variant_1 : 1275 0.311279 per_variant_size: 0 582 693 0 0 0 0 0 0 
Heartbeat_Variant_2 : 1360 0.332031 per_variant_size: 0 508 397 247 208 0 0 0 0 
Heartbeat_Variant_3 : 0 0 per_variant_size: 0 0 0 0 0 0 0 0 0 
Heartbeat_Variant_0_evicts 0 : 5685 1 : 45 2 : 54 3 : 0 
Heartbeat_Variant_1_evicts 0 : 48 1 : 0 2 : 239 3 : 0 
Heartbeat_Variant_2_evicts 0 : 52 1 : 240 2 : 0 3 : 0 
Heartbeat_Variant_3_evicts 0 : 0 1 : 0 2 : 0 3 : 0 
Heartbeat CPU 0 instructions: 40000002 cycles: 11188049 heartbeat IPC: 3.57573 cumulative IPC: 3.57524 (Simulation time: 0 hr 6 min 40 sec) 
Heartbeat_Variant_0 : 1387 0.338623 per_variant_size: 0 1387 0 0 0 0 0 0 0 
Heartbeat_Variant_1 : 1269 0.309814 per_variant_size: 0 569 700 0 0 0 0 0 0 
Heartbeat_Variant_2 : 1373 0.335205 per_variant_size: 0 523 393 262 195 0 0 0 0 
Heartbeat_Variant_3 : 0 0 per_variant_size: 0 0 0 0 0 0 0 0 0 
Heartbeat_Variant_0_evicts 0 : 5604 1 : 145 2 : 132 3 : 0 
Heartbeat_Variant_1_evicts 0 : 146 1 : 0 2 : 354 3 : 0 
Heartbeat_Variant_2_evicts 0 : 124 1 : 365 2 : 0 3 : 0 
Heartbeat_Variant_3_evicts 0 : 0 1 : 0 2 : 0 3 : 0 
Heartbeat CPU 0 instructions: 50000000 cycles: 13984556 heartbeat IPC: 3.57589 cumulative IPC: 3.57537 (Simulation time: 0 hr 8 min 20 sec) 

Warmup complete CPU 0 instructions: 50000004 cycles: 13984557 (Simulation time: 0 hr 8 min 20 sec) 

Cycle: 20000000 FTQ IN: 58364874 FTQ occupancy: 20.4633 DECODE IN: 58364735 DECODE occupancy: 53.1765 ROB IN: 58364675 ROB occupancy: 317.341 ROB OUT: 58364327
Heartbeat_Variant_0 : 1387 0.338623 per_variant_size: 0 1387 0 0 0 0 0 0 0 
Heartbeat_Variant_1 : 1270 0.310059 per_variant_size: 0 571 699 0 0 0 0 0 0 
Heartbeat_Variant_2 : 1378 0.336426 per_variant_size: 0 524 393 265 196 0 0 0 0 
Heartbeat_Variant_3 : 0 0 per_variant_size: 0 0 0 0 0 0 0 0 0 
Heartbeat_Variant_0_evicts 0 : 5610 1 : 58 2 : 52 3 : 0 
Heartbeat_Variant_1_evicts 0 : 57 1 : 0 2 : 240 3 : 0 
Heartbeat_Variant_2_evicts 0 : 54 1 : 239 2 : 0 3 : 0 
Heartbeat_Variant_3_evicts 0 : 0 1 : 0 2 : 0 3 : 0 
Heartbeat CPU 0 instructions: 60000000 cycles: 21174946 heartbeat IPC: 1.39075 cumulative IPC: 1.39074 (Simulation time: 0 hr 10 min 15 sec) 
Heartbeat_Variant_0 : 1386 0.338379 per_variant_size: 0 1386 0 0 0 0 0 0 0 
Heartbeat_Variant_1 : 1287 0.314209 per_variant_size: 0 567 720 0 0 0 0 0 0 
Heartbeat_Variant_2 : 1380 0.336914 per_variant_size: 0 523 384 270 203 0 0 0 0 
Heartbeat_Variant_3 : 0 0 per_variant_size: 0 0 0 0 0 0 0 0 0 
Heartbeat_Variant_0_evicts 0 : 5630 1 : 101 2 : 100 3 : 0 
Heartbeat_Variant_1_evicts 0 : 113 1 : 0 2 : 298 3 : 0 
Heartbeat_Variant_2_evicts 0 : 90 1 : 301 2 : 0 3 : 0 
Heartbeat_Variant_3_evicts 0 : 0 1 : 0 2 : 0 3 : 0 
Heartbeat CPU 0 instructions: 70000003 cycles: 28463869 heartbeat IPC: 1.37195 cumulative IPC: 1.38128 (Simulation time: 0 hr 12 min 13 sec) 
Cycle: 30000000 FTQ IN: 13756672 FTQ occupancy: 14.8126 DECODE IN: 13756742 DECODE occupancy: 37.5989 ROB IN: 13756742 ROB occupancy: 246.76 ROB OUT: 13756742
Heartbeat_Variant_0 : 1394 0.340332 per_variant_size: 0 1394 0 0 0 0 0 0 0 
Heartbeat_Variant_1 : 1282 0.312988 per_variant_size: 0 565 717 0 0 0 0 0 0 
Heartbeat_Variant_2 : 1377 0.336182 per_variant_size: 0 517 386 277 197 0 0 0 0 
Heartbeat_Variant_3 : 0 0 per_variant_size: 0 0 0 0 0 0 0 0 0 
Heartbeat_Variant_0_evicts 0 : 5611 1 : 58 2 : 57 3 : 0 
Heartbeat_Variant_1_evicts 0 : 48 1 : 0 2 : 243 3 : 0 
Heartbeat_Variant_2_evicts 0 : 59 1 : 238 2 : 0 3 : 0 
Heartbeat_Variant_3_evicts 0 : 0 1 : 0 2 : 0 3 : 0 
Heartbeat CPU 0 instructions: 80000001 cycles: 35637823 heartbeat IPC: 1.39393 cumulative IPC: 1.38547 (Simulation time: 0 hr 14 min 11 sec) 
Cycle: 40000000 FTQ IN: 13966890 FTQ occupancy: 15.0498 DECODE IN: 13966820 DECODE occupancy: 38.5895 ROB IN: 13966820 ROB occupancy: 249.813 ROB OUT: 13966816
Heartbeat_Variant_0 : 1390 0.339355 per_variant_size: 0 1390 0 0 0 0 0 0 0 
Heartbeat_Variant_1 : 1291 0.315186 per_variant_size: 0 581 710 0 0 0 0 0 0 
Heartbeat_Variant_2 : 1375 0.335693 per_variant_size: 0 511 388 278 198 0 0 0 0 
Heartbeat_Variant_3 : 0 0 per_variant_size: 0 0 0 0 0 0 0 0 0 
Heartbeat_Variant_0_evicts 0 : 5572 1 : 30 2 : 13 3 : 0 
Heartbeat_Variant_1_evicts 0 : 32 1 : 0 2 : 215 3 : 0 
Heartbeat_Variant_2_evicts 0 : 15 1 : 211 2 : 0 3 : 0 
Heartbeat_Variant_3_evicts 0 : 0 1 : 0 2 : 0 3 : 0 
Heartbeat CPU 0 instructions: 90000003 cycles: 42787195 heartbeat IPC: 1.39872 cumulative IPC: 1.38876 (Simulation time: 0 hr 16 min 5 sec) 
Cycle: 50000000 FTQ IN: 13855885 FTQ occupancy: 14.9106 DECODE IN: 13855891 DECODE occupancy: 37.8788 ROB IN: 13855891 ROB occupancy: 245.881 ROB OUT: 13855891
Heartbeat_Variant_0 : 1391 0.3396 per_variant_size: 0 1391 0 0 0 0 0 0 0 
Heartbeat_Variant_1 : 1294 0.315918 per_variant_size: 0 605 689 0 0 0 0 0 0 
Heartbeat_Variant_2 : 1376 0.335938 per_variant_size: 0 502 420 249 205 0 0 0 0 
Heartbeat_Variant_3 : 0 0 per_variant_size: 0 0 0 0 0 0 0 0 0 
Heartbeat_Variant_0_evicts 0 : 5841 1 : 147 2 : 160 3 : 0 
Heartbeat_Variant_1_evicts 0 : 149 1 : 0 2 : 341 3 : 0 
Heartbeat_Variant_2_evicts 0 : 157 1 : 343 2 : 0 3 : 0 
Heartbeat_Variant_3_evicts 0 : 0 1 : 0 2 : 0 3 : 0 
Heartbeat CPU 0 instructions: 100000001 cycles: 50040553 heartbeat IPC: 1.37867 cumulative IPC: 1.38673 (Simulation time: 0 hr 17 min 58 sec) 
Finished CPU 0 instructions: 50000000 cycles: 36056012 cumulative IPC: 1.38673 (Simulation time: 0 hr 17 min 58 sec) 

ChampSim completed all CPUs

Region of Interest Statistics

CPU 0 cumulative IPC: 1.38673 instructions: 50000000 cycles: 36056012
 Fetch stage stalled: 46.2763  Sim cycles: 36056012 fetch stall cycle: 16685397
 Empty decode stage: 25.4236  Sim cycles: 36056012 fetch stall cycle: 9166720
ITLB TOTAL     ACCESS:    5842870  HIT:    5347594  MISS:     495276  HIT %:    91.5234  MISS %:    8.47659   MPKI: 9.90552
ITLB LOAD TRANSLATION INSTRUCTION	ACCESS:    5709380  HIT:    5214104  MISS:     495276  HIT %:    91.3252  MISS %:    8.67478  MPKI: 9.90552
ITLB TRANSLATION FROM L1D PREFETCHER INSTRUCTION	ACCESS:     133490  HIT:     133490  MISS:          0  HIT %:        100  MISS %:          0  MPKI: 0

ITLB AVERAGE MISS LATENCY: 9.06322 cycles
ITLB RQ	ACCESS:    7946037	FORWARD:          0	MERGED:    1619179	TO_CACHE:    6326858

DTLB TOTAL     ACCESS:    8964668  HIT:    8488113  MISS:     476555  HIT %:    94.6841  MISS %:    5.31592   MPKI: 9.5311
DTLB LOAD TRANSLATION DATA	ACCESS:    8964668  HIT:    8488113  MISS:     476555  HIT %:    94.6841  MISS %:    5.31592  MPKI: 9.5311

DTLB AVERAGE MISS LATENCY: 9.31596 cycles
DTLB RQ	ACCESS:   13338763	FORWARD:          0	MERGED:    4337308	TO_CACHE:    9001455

STLB TOTAL     ACCESS:    1218780  HIT:    1216526  MISS:       2254  HIT %:    99.8151  MISS %:   0.184939   MPKI: 0.04508
STLB LOAD TRANSLATION INSTRUCTION	ACCESS:     495276  HIT:     494887  MISS:        389  HIT %:    99.9215  MISS %:  0.0785421  MPKI: 0.00778
STLB LOAD TRANSLATION DATA	ACCESS:     476555  HIT:     474719  MISS:       1836  HIT %:    99.6147  MISS %:   0.385265  MPKI: 0.03672
STLB TRANSLATION FROM L1D PREFETCHER DATA	ACCESS:     246949  HIT:     246920  MISS:         29  HIT %:    99.9883  MISS %:  0.0117433  MPKI: 0.00058

STLB AVERAGE MISS LATENCY: 67.496 cycles
STLB RQ	ACCESS:    1337067	FORWARD:          0	MERGED:     118246	TO_CACHE:    1218821

STLB Hit, L1D data hit: 0
STLB Hit, L2C data hit: 0
STLB Hit, LLC data hit: 0
STLB Hit, LLC data miss: 0
STLB STLB hints to L2: 0
L1D TOTAL     ACCESS:   13084625  HIT:   11971574  MISS:    1113051  HIT %:    91.4934  MISS %:    8.50656   MPKI: 22.261
L1D LOAD DATA	ACCESS:    6550738  HIT:    5817704  MISS:     733034  HIT %:    88.8099  MISS %:    11.1901  MPKI: 14.6607
L1D RFO DATA	ACCESS:    6207234  HIT:    5921624  MISS:     285610  HIT %:    95.3988  MISS %:    4.60124  MPKI: 5.7122
L1D PREFETCH DATA	ACCESS:     326653  HIT:     232246  MISS:      94407  HIT %:    71.0987  MISS %:    28.9013  MPKI: 1.88814

L1D PREFETCH  REQUESTED:     730831  ISSUED:     730831  USEFUL:      32486  USELESS:      69307
L1D USEFUL LOAD PREFETCHES:      32486 PREFETCH ISSUED TO LOWER LEVEL:     101883  ACCURACY: 31.8856
 TIMELY PREFETCHES:      32486 LATE PREFETCHES: 7397 DROPPED PREFETCHES: 14
L1D AVERAGE MISS LATENCY: 218443 cycles
L1D RQ	ACCESS:   10687460	FORWARD:          0	MERGED:    3935636	TO_CACHE:    6587132
L1D WQ	ACCESS:    6949977	FORWARD:     165051	MERGED:     198346	TO_CACHE:    6751631
L1D PQ	ACCESS:     365595	FORWARD:          0	MERGED:          0	TO_CACHE:     365236

L1D UNIQUE REGIONS ACCESSED: 0
L1D REGIONS CONFLICTS: 0
L1D Cross Page Prefetch Requests: 5808
L1D Same Page Prefetch Requests: 744265
L1D ROI Sum of L1D PQ occupancy: 4637855
L1D PREFETCHES PUSHED FROM L2C: 0
L1I TOTAL     ACCESS:    7116311  HIT:    4346794  MISS:    2769517  HIT %:    61.0821  MISS %:    38.9179   MPKI: 55.3903
L1I LOAD INSTRUCTION	ACCESS:    6457086  HIT:    3687569  MISS:    2769517  HIT %:    57.1089  MISS %:    42.8911  MPKI: 55.3903
L1I PREFETCH INSTRUCTION	ACCESS:     659225  HIT:     659225  MISS:          0  HIT %:        100  MISS %:          0  MPKI: 0

L1I PREFETCH  REQUESTED:    1610558  ISSUED:    1610558  USEFUL:          0  USELESS:          0
L1I USEFUL LOAD PREFETCHES:          0 PREFETCH ISSUED TO LOWER LEVEL:          0  ACCURACY: -nan
 TIMELY PREFETCHES:          0 LATE PREFETCHES: 0 DROPPED PREFETCHES: 0
L1I AVERAGE MISS LATENCY: 17.5983 cycles
L1I RQ	ACCESS:    9568128	FORWARD:          0	MERGED:    2808100	TO_CACHE:    6760028
L1I PQ	ACCESS:    1610558	FORWARD:          0	MERGED:     424549	TO_CACHE:    1186009

L1BTB TOTAL     ACCESS:    5671019  HIT:    2036487  MISS:    3634532  HIT %:    35.9104  MISS %:    64.0896   MPKI: 72.6906
L1BTB BRANCH_DIRECT_JUMP	ACCESS:     548633  HIT:     144292  MISS:     404341	AVERAGE STALL: 63.1873
L1BTB BRANCH_INDIRECT	ACCESS:     182809  HIT:      65967  MISS:     116842	AVERAGE STALL: 113.687
L1BTB BRANCH_CONDITIONAL	ACCESS:    2704636  HIT:    1409801  MISS:    1294835	AVERAGE STALL: 56.3351
L1BTB BRANCH_DIRECT_CALL	ACCESS:     945728  HIT:     104962  MISS:     840766	AVERAGE STALL: 84.6218
L1BTB BRANCH_INDIRECT_CALL	ACCESS:     171744  HIT:      21262  MISS:     150482	AVERAGE STALL: 144.585
L1BTB BRANCH_RETURN	ACCESS:    1117469  HIT:     290203  MISS:     827266	AVERAGE STALL: 52.0662
L1BTB BRANCH_OTHER ACCESS:          0  HIT:          0  MISS:          0	AVERAGE STALL: -nan
L1BTB TOTAL ROB OCCUPANCY AT BTB MISS: 2.66254

L2BTB TOTAL     ACCESS:    3609126  HIT:    3542109  MISS:      67017  HIT %:    98.1431  MISS %:    1.85688   MPKI: 1.34034
L2BTB BRANCH_DIRECT_JUMP	ACCESS:     400164  HIT:     396337  MISS:       3827	AVERAGE STALL: 63.1873
L2BTB BRANCH_INDIRECT	ACCESS:     106587  HIT:     103851  MISS:       2736	AVERAGE STALL: 113.687
L2BTB BRANCH_CONDITIONAL	ACCESS:    1294833  HIT:    1290569  MISS:       4264	AVERAGE STALL: 56.3351
L2BTB BRANCH_DIRECT_CALL	ACCESS:     840765  HIT:     839124  MISS:       1641	AVERAGE STALL: 84.6218
L2BTB BRANCH_INDIRECT_CALL	ACCESS:     140955  HIT:     130880  MISS:      10075	AVERAGE STALL: 144.585
L2BTB BRANCH_RETURN	ACCESS:     825822  HIT:     781348  MISS:      44474	AVERAGE STALL: 52.0662
L2BTB BRANCH_OTHER ACCESS:          0  HIT:          0  MISS:          0	AVERAGE STALL: -nan
L2BTB TOTAL ROB OCCUPANCY AT BTB MISS: 144.397

L2C TOTAL     ACCESS:    4495725  HIT:    3965517  MISS:     530208  HIT %:    88.2064  MISS %:    11.7936   MPKI: 10.6042
L2C LOAD INSTRUCTION	ACCESS:    2769517  HIT:    2478048  MISS:     291469  HIT %:    89.4758  MISS %:    10.5242  MPKI: 5.82938
L2C LOAD TRANSLATION INSTRUCTION	ACCESS:        427  HIT:        144  MISS:        283  HIT %:    33.7237  MISS %:    66.2763  MPKI: 0.00566
L2C LOAD DATA	ACCESS:     725620  HIT:     641732  MISS:      83888  HIT %:    88.4391  MISS %:    11.5609  MPKI: 1.67776
L2C RFO DATA	ACCESS:     285511  HIT:     229145  MISS:      56366  HIT %:    80.2579  MISS %:    19.7421  MPKI: 1.12732
L2C PREFETCH DATA	ACCESS:     190441  HIT:     111682  MISS:      78759  HIT %:    58.6439  MISS %:    41.3561  MPKI: 1.57518
L2C WRITEBACK DATA	ACCESS:     522235  HIT:     504152  MISS:      18083  HIT %:    96.5374  MISS %:    3.46262  MPKI: 0.36166
L2C LOAD TRANSLATION DATA	ACCESS:       1919  HIT:        572  MISS:       1347  HIT %:    29.8072  MISS %:    70.1928  MPKI: 0.02694
L2C TRANSLATION FROM L1D PREFETCHER DATA	ACCESS:         55  HIT:         42  MISS:         13  HIT %:    76.3636  MISS %:    23.6364  MPKI: 0.00026

L2C PREFETCH  REQUESTED:      97912  ISSUED:      97912  USEFUL:       9295  USELESS:      69967
L2C USEFUL LOAD PREFETCHES:       9295 PREFETCH ISSUED TO LOWER LEVEL:      79288  ACCURACY: 11.7231
 TIMELY PREFETCHES:       9295 LATE PREFETCHES: 529 DROPPED PREFETCHES: 0
L2C AVERAGE MISS LATENCY: 37.3366 cycles
L2C RQ	ACCESS:    3783086	FORWARD:          0	MERGED:          0	TO_CACHE:    3783049
L2C WQ	ACCESS:     522235	FORWARD:         38	MERGED:          0	TO_CACHE:     522235
L2C PQ	ACCESS:     199795	FORWARD:          0	MERGED:       4438	TO_CACHE:     195356

L2C Dense regions hint from L2: 0
PSCL5 TOTAL     ACCESS:       4540  HIT:       2270  MISS:       2270  HIT %:         50  MISS %:         50   MPKI: 0.0454
PSCL5 LOAD TRANSLATION INSTRUCTION	ACCESS:       4430  HIT:       2215  MISS:       2215  HIT %:         50  MISS %:         50  MPKI: 0.0443
PSCL5 TRANSLATION FROM L1D PREFETCHER INSTRUCTION	ACCESS:        110  HIT:         55  MISS:         55  HIT %:         50  MISS %:         50  MPKI: 0.0011


PSCL4 TOTAL     ACCESS:       4001  HIT:       1995  MISS:       2006  HIT %:    49.8625  MISS %:    50.1375   MPKI: 0.04012
PSCL4 LOAD TRANSLATION INSTRUCTION	ACCESS:       2240  HIT:       1941  MISS:        299  HIT %:    86.6518  MISS %:    13.3482  MPKI: 0.00598
PSCL4 TRANSLATION FROM L1D PREFETCHER INSTRUCTION	ACCESS:         59  HIT:         54  MISS:          5  HIT %:    91.5254  MISS %:    8.47458  MPKI: 0.0001
PSCL4 LOAD TRANSLATION DATA	ACCESS:       1653  HIT:          0  MISS:       1653  HIT %:          0  MISS %:        100  MPKI: 0.03306
PSCL4 TRANSLATION FROM L1D PREFETCHER DATA	ACCESS:         49  HIT:          0  MISS:         49  HIT %:          0  MISS %:        100  MPKI: 0.00098


PSCL3 TOTAL     ACCESS:       4095  HIT:       2042  MISS:       2053  HIT %:    49.8657  MISS %:    50.1343   MPKI: 0.04106
PSCL3 LOAD TRANSLATION INSTRUCTION	ACCESS:       2287  HIT:       1988  MISS:        299  HIT %:    86.9261  MISS %:    13.0739  MPKI: 0.00598
PSCL3 TRANSLATION FROM L1D PREFETCHER INSTRUCTION	ACCESS:         59  HIT:         54  MISS:          5  HIT %:    91.5254  MISS %:    8.47458  MPKI: 0.0001
PSCL3 LOAD TRANSLATION DATA	ACCESS:       1700  HIT:          0  MISS:       1700  HIT %:          0  MISS %:        100  MPKI: 0.034
PSCL3 TRANSLATION FROM L1D PREFETCHER DATA	ACCESS:         49  HIT:          0  MISS:         49  HIT %:          0  MISS %:        100  MPKI: 0.00098


PSCL2 TOTAL     ACCESS:       4429  HIT:       2159  MISS:       2270  HIT %:    48.7469  MISS %:    51.2531   MPKI: 0.0454
PSCL2 LOAD TRANSLATION INSTRUCTION	ACCESS:       2492  HIT:       2104  MISS:        388  HIT %:    84.4302  MISS %:    15.5698  MPKI: 0.00776
PSCL2 TRANSLATION FROM L1D PREFETCHER INSTRUCTION	ACCESS:         55  HIT:         55  MISS:          0  HIT %:        100  MISS %:          0  MPKI: 0
PSCL2 LOAD TRANSLATION DATA	ACCESS:       1827  HIT:          0  MISS:       1827  HIT %:          0  MISS %:        100  MPKI: 0.03654
PSCL2 TRANSLATION FROM L1D PREFETCHER DATA	ACCESS:         55  HIT:          0  MISS:         55  HIT %:          0  MISS %:        100  MPKI: 0.0011


LLC TOTAL     ACCESS:     594157  HIT:     566101  MISS:      28056  HIT %:     95.278  MISS %:    4.72198   MPKI: 0.56112
LLC LOAD INSTRUCTION	ACCESS:     291469  HIT:     290599  MISS:        870  HIT %:    99.7015  MISS %:   0.298488  MPKI: 0.0174
LLC LOAD TRANSLATION INSTRUCTION	ACCESS:        283  HIT:        252  MISS:         31  HIT %:    89.0459  MISS %:    10.9541  MPKI: 0.00062
LLC LOAD DATA	ACCESS:      83459  HIT:      80014  MISS:       3445  HIT %:    95.8722  MISS %:    4.12778  MPKI: 0.0689
LLC RFO DATA	ACCESS:      56264  HIT:      42906  MISS:      13358  HIT %:    76.2584  MISS %:    23.7416  MPKI: 0.26716
LLC PREFETCH DATA	ACCESS:      79288  HIT:      69399  MISS:       9889  HIT %:    87.5277  MISS %:    12.4723  MPKI: 0.19778
LLC WRITEBACK DATA	ACCESS:      82034  HIT:      81641  MISS:        393  HIT %:    99.5209  MISS %:    0.47907  MPKI: 0.00786
LLC LOAD TRANSLATION DATA	ACCESS:       1347  HIT:       1277  MISS:         70  HIT %:    94.8033  MISS %:    5.19673  MPKI: 0.0014
LLC TRANSLATION FROM L1D PREFETCHER DATA	ACCESS:         13  HIT:         13  MISS:          0  HIT %:        100  MISS %:          0  MPKI: 0

LLC AVERAGE MISS LATENCY: 156.452 cycles
LLC RQ	ACCESS:     432837	FORWARD:          0	MERGED:          0	TO_CACHE:     432835
LLC WQ	ACCESS:      82034	FORWARD:          2	MERGED:          0	TO_CACHE:      82034
LLC PQ	ACCESS:      79288	FORWARD:          0	MERGED:          0	TO_CACHE:      79288

LLC Dense regions hint to LLC: 0

RAW hits: 1946762
Loads Generated: 12634222
Loads sent to L1D: 10687460
Stores Generated: 6949969
Stores sent to L1D: 6949977
Major fault: 0 Minor fault: 2589
Allocated PAGES: 2589

stream: 
stream:times selected: 1181655
stream:pref_filled: 121271
stream:pref_useful: 23227
stream:pref_late: 6378
stream:misses: 6963
stream:misses_by_poll: 0

CS: 
CS:times selected: 177877
CS:pref_filled: 59089
CS:pref_useful: 36198
CS:pref_late: 6582
CS:misses: 15457
CS:misses_by_poll: 1

CPLX: 
CPLX:times selected: 1002630
CPLX:pref_filled: 20050
CPLX:pref_useful: 4872
CPLX:pref_late: 2923
CPLX:misses: 91063
CPLX:misses_by_poll: 0

NL_L1: 
NL:times selected: 19701
NL:pref_filled: 625
NL:pref_useful: 232
NL:pref_late: 167
NL:misses: 1055
NL:misses_by_poll: 0

total selections: 2381863
total_filled: 94407
total_useful: 32486
total_late: 17356
total_polluted: 1
total_misses_after_warmup: 769434
conflicts: 5520007

test: 115218

DRAM Statistics
 CHANNEL 0
 RQ ROW_BUFFER_HIT:      10164  ROW_BUFFER_MISS:      17489
 DBUS_CONGESTED:         22
 WQ ROW_BUFFER_HIT:       1331  ROW_BUFFER_MISS:      11962  FULL:          0

 AVG_CONGESTED_CYCLE: 6

CPU 0 Branch Prediction Accuracy: 99.8133% MPKI: 0.34156 Average ROB Occupancy at Mispredict: 191.367
Branch types
NOT_BRANCH: 40853438 81.7069%
BRANCH_DIRECT_JUMP: 548633 1.09727%
BRANCH_INDIRECT: 182809 0.365618%
BRANCH_CONDITIONAL: 6180114 12.3602%
BRANCH_DIRECT_CALL: 945728 1.89146%
BRANCH_INDIRECT_CALL: 171744 0.343488%
BRANCH_RETURN: 1117469 2.23494%
BRANCH_OTHER: 0 0%

DRAM PAGES: 1048576
Allocated PAGES: 2589
Average_ROB_Occupancy: 248.211
Average_Decode_Occupancy: 37.8635
Average_FTQ_Occupancy: 14.8586
Indirect max targets: 14 Average targets: 1.15254
Branch_type:  BRANCH_DIRECT_JUMP:  Count Percentage: 3.80171 5.84206 4.26478 14.1927 1.69945 6.57648 1.31489 62.308 
Branch_type:  BRANCH_INDIRECT:  Count Percentage: 14.4151 0.811765 12.2283 23.3133 1.33778 14.5438 1.06655 32.2835 
Branch_type:  BRANCH_CONDITIONAL:  Count Percentage: 21.771 2.62914 2.44199 8.1502 1.47801 5.01978 0.731695 57.7782 
Branch_type:  BRANCH_DIRECT_CALL:  Count Percentage: 0.260877 1.77745 1.43673 4.62128 2.60797 3.19275 0.771941 85.331 
Branch_type:  BRANCH_INDIRECT_CALL:  Count Percentage: 9.5173 0.575809 2.98244 4.83511 0 4.06299 0 78.0263 
Branch_type:  BRANCH_RETURN:  Count Percentage: 3.64707 1.30738 3.52652 8.73829 2.84405 5.74929 1.27976 72.9076 
Branch_type:  BRANCH_DIRECT_JUMP:  Total Count: 41640 63988 46712 155452 18614 72032 14402 682458 
Branch_type:  BRANCH_INDIRECT:  Total Count: 52616 2963 44634 85095 4883 53086 3893 117837 
Branch_type:  BRANCH_CONDITIONAL:  Total Count: 2688593 324683 301571 1006501 182526 619913 90360 7135261 
Branch_type:  BRANCH_DIRECT_CALL:  Total Count: 4930 33590 27151 87332 49285 60336 14588 1612569 
Branch_type:  BRANCH_INDIRECT_CALL:  Total Count: 32677 1977 10240 16601 0 13950 0 267898 
Branch_type:  BRANCH_RETURN:  Total Count: 81473 29206 78780 195207 63534 128435 28589 1628704 
Number of unique branch instructions: 10211
Upper 32 bits: 
aaaa
ffff
ffff0000
Unique upper 32 bits: 3
Unique upper 36 bits: 3
Unique upper 40 bits: 5
Unique upper 44 bits: 32
Unique upper 48 bits: 154
Variant_0 : 1391 0.3396
Variant_1 : 1294 0.315918
Variant_2 : 1376 0.335938
Variant_3 : 0 0
Offset_3 4217
Offset_4 260
Offset_5 466
Offset_6 527
Offset_7 613
Offset_8 535
Offset_9 488
Offset_10 397
Offset_11 331
Offset_12 295
Offset_13 215
Offset_14 234
Offset_15 195
Offset_16 228
Offset_17 156
Offset_18 126
Offset_19 247
Offset_20 144
Offset_21 236
Offset_22 403
Offset_23 245
Offset_24 335
Offset_25 88
Offset_47 82
Offset_64 16
decode_dispatch_called: 26281382 72.8904
Dispatch_width: 0 14177794 53.9462 39.3216
Dispatch_width: 1 1026246 3.90484 2.84625
Dispatch_width: 2 831908 3.16539 2.30727
Dispatch_width: 3 494841 1.88286 1.37242
Dispatch_width: 4 6286072 23.9183 17.4342
Dispatch_width: 5 105999 0.403324 0.293984
Dispatch_width: 6 3358522 12.7791 9.31474
Empty_decode_cycles: 9774630 27.1096
ROB_full_cycles: 9979055 27.6765
Starvation_cycles_per_kilo_instr: 227.184
Starvation_cycles_per_kilo_instr_3: 163.264
Starvation_cycles_per_kilo_instr_0: 139.734
Branch_type_1  (3,1)  (4,9)  (5,37)  (6,72)  (7,118)  (8,138)  (9,127)  (10,102)  (11,74)  (12,51)  (13,5)  (14,2)  (15,3)  (16,4)  (18,1)  (19,4)  (20,2)  (21,1)  (22,3)  (23,2)  (24,10)  (25,12) 
Branch_type_2  (3,1)  (5,1)  (8,3)  (9,3)  (12,1)  (13,1)  (14,1)  (16,3)  (17,2)  (20,2)  (21,2)  (23,5)  (24,1)  (47,37) 
Branch_type_3  (3,4215)  (4,251)  (5,424)  (6,438)  (7,461)  (8,328)  (9,269)  (10,162)  (11,136)  (12,58)  (13,4)  (24,2)  (64,9) 
Branch_type_4  (6,4)  (7,8)  (8,30)  (9,54)  (10,63)  (11,62)  (12,104)  (13,94)  (14,103)  (15,93)  (16,102)  (17,72)  (18,57)  (19,121)  (20,74)  (21,124)  (22,215)  (23,138)  (24,193)  (25,72)  (64,3) 
Branch_type_5  (8,2)  (9,1)  (10,3)  (11,5)  (12,3)  (13,14)  (14,16)  (15,11)  (16,20)  (17,11)  (18,16)  (19,12)  (20,11)  (21,13)  (22,42)  (23,26)  (24,37) 
Branch_type_6  (5,4)  (6,13)  (7,26)  (8,34)  (9,34)  (10,67)  (11,54)  (12,78)  (13,97)  (14,112)  (15,88)  (16,99)  (17,71)  (18,52)  (19,110)  (20,55)  (21,96)  (22,143)  (23,74)  (24,92)  (25,4)  (47,45)  (64,4) 
Unique trigger count: 
Variant_0_evicts_0 : 0
Variant_0_evicts_1 : 0
Variant_0_evicts_2 : 0
Variant_0_evicts_3 : 0
Variant_1_evicts_0 : 0
Variant_1_evicts_1 : 0
Variant_1_evicts_2 : 0
Variant_1_evicts_3 : 0
Variant_2_evicts_0 : 0
Variant_2_evicts_1 : 0
Variant_2_evicts_2 : 0
Variant_2_evicts_3 : 0
Variant_3_evicts_0 : 0
Variant_3_evicts_1 : 0
Variant_3_evicts_2 : 0
Variant_3_evicts_3 : 0
BTB PER SET UNIQUE ADDR: 11 13 9 13 11 14 9 9 9 15 10 20 11 13 9 9 6 12 10 13 9 13 12 11 13 12 13 14 12 10 16 15 12 10 10 11 15 10 9 14 9 9 10 20 13 9 9 7 12 9 14 11 9 16 15 4 12 11 12 11 12 12 15 14 17 8 15 9 16 13 13 13 13 8 10 7 10 14 10 9 13 11 8 19 10 13 15 13 9 19 8 10 16 9 6 17 9 13 15 17 19 17 12 10 11 14 14 11 9 7 12 12 13 13 14 6 12 11 14 11 10 9 11 9 11 11 7 11 22 13 9 16 10 13 10 18 8 12 11 12 12 14 14 12 13 13 15 11 6 12 5 12 12 11 10 16 16 15 13 15 15 10 17 18 10 14 13 9 13 8 11 11 11 12 15 11 9 12 11 11 10 10 11 13 13 12 5 11 15 14 11 11 12 14 14 11 8 8 12 18 11 14 11 10 10 10 12 9 12 14 11 12 16 11 14 15 10 16 13 22 8 10 10 11 11 16 15 12 10 14 6 8 17 15 9 13 13 14 13 8 12 12 15 16 8 11 11 11 11 8 20 13 11 9 13 13 9 10 11 14 12 11 4 11 15 6 10 11 7 11 10 13 10 10 10 12 11 13 12 10 13 14 7 11 14 8 11 14 20 9 12 9 10 15 6 15 15 14 12 11 9 13 9 17 12 14 11 8 14 13 15 18 6 19 7 9 21 10 8 15 12 15 7 12 14 15 9 11 10 7 13 11 7 12 11 12 10 10 7 17 9 12 5 16 15 12 13 10 14 9 15 10 12 13 10 15 8 15 13 11 14 16 12 17 11 10 8 13 13 15 10 3 16 13 10 16 13 15 12 16 16 12 9 12 11 12 13 9 14 14 11 8 8 14 8 10 16 11 14 5 8 10 11 13 14 12 12 11 14 9 12 7 8 17 14 13 10 18 22 13 12 15 12 10 18 16 13 12 10 10 15 16 12 7 15 14 20 10 9 13 14 7 11 17 19 11 11 14 14 15 13 16 15 11 18 16 19 12 12 16 9 13 10 17 20 10 8 12 14 14 12 12 16 9 17 18 13 14 7 19 13 12 11 14 9 11 13 14 11 13 15 12 9 9 11 9 14 12 12 11 8 16 17 19 10 7 9 17 11 14 14 12 16 9 12 17 16 11 11 10 6 11 14 9 6 15 20 9 7 16 12 19 11 7 10 11 10 14 18 16 11 10 15 17 17 15 13 10 9 14 15 11 13 11 15 11 11 8 9 15 14 13 10 13 8 15 6 9 11 15 15 16 17 17 13 15 14 11 13 12 10 13 7 14 13 8 11 12 11 13 7 17 13 13 16 10 5 16 10 10 14 9 9 11 9 18 17 12 9 11 16 12 11 11 3 20 10 16 15 12 22 18 8 8 12 13 9 20 7 14 8 13 13 14 13 14 12 16 12 17 12 12 17 12 12 11 18 15 19 17 9 10 9 12 19 14 10 8 8 11 16 7 13 15 11 10 11 11 12 10 13 10 13 19 19 8 13 14 15 17 14 12 12 14 14 15 9 14 19 11 10 13 13 5 9 12 9 15 12 19 10 10 13 15 7 18 10 11 8 8 10 13 10 12 14 9 15 13 11 15 13 10 14 15 16 12 12 11 10 14 17 8 12 9 10 13 12 15 12 14 10 13 13 14 16 14 14 11 13 7 13 11 14 12 8 13 17 11 10 9 9 8 8 16 11 11 11 15 12 10 10 18 11 9 12 9 15 10 16 11 5 13 15 9 16 14 9 12 13 10 7 9 15 14 14 11 14 11 15 10 15 15 15 12 20 11 14 14 14 13 12 11 9 17 11 13 15 16 7 11 13 18 11 16 16 11 10 14 13 13 8 16 10 10 14 12 11 17 12 9 10 12 13 9 12 19 11 19 14 8 12 10 13 15 16 20 14 11 12 18 11 17 10 12 17 10 12 9 16 6 10 13 15 11 14 6 14 14 9 14 17 9 12 18 15 16 13 8 15 15 11 12 9 10 12 16 18 12 12 8 14 13 13 14 9 15 8 12 12 16 14 13 11 14 14 11 21 12 15 10 12 11 10 8 13 8 10 20 12 11 16 21 18 11 15 16 9 9 13 15 11 16 14 18 8 9 8 12 12 13 11 11 7 16 9 16 9 9 18 10 15 10 11 13 11 14 13 12 8 14 12 15 12 11 14 11 18 19 19 20 12 16 12 11 12 19 13 13 15 12 11 12 5 10 13 11 8 13 15 13 15 17 10 14 11 18 7 15 6 17 12 12 14 8 11 14 9 7 5 9 11 19 13 8 
BTB PER SET COUNT: 20 15 1952 29 12 16 9 10 1005 28 12 31 20433 1568 9 15 1593 12 26 19 9 14 755 21 20 17 18 645 17 966 466 409 21 14 17 616 76 13 9 495 14 10 12 47 373 13 11 7 885 10 16 171 12 21 88 5 52 18 23 15 17 23 252 27 25 9 22 1499 23 16 33 645 21 12 14 9 13 15 12 12 785 14 43 114 17 13 22 14 12 53 11 814 25 16 25 27 48 914 23 17 29 20 29 15 1510 19 24 14 904 9 16 17 580 29 26 323 20 16 1332 427 17 10 23 10 13 18 10 12 38 651 18 20 19 21 16 22 540 16 28 20 26 18 18 88 101 255 54 14 8 207 6 155 1696 14 14 21 808 18 53 25 18 10 30 18 17 21 23 14 23 1799 21 11 14 17 24 15 14 17 13 749 11 188 1745 21 26 665 8 16 95 337 13 11 16 23 26 11 8 8 14 48 14 17 15 13 13 12 13 12 20 1994 16 13 19 17 29 82 14 33 2707 31 38 14 14 14 12 39 21 25 394 24 11 15 23 20 999 24 557 452 19 10 1274 13 23 275 10 915 318 11 15 9 34 20 12 15 21 24 9 51 14 19 909 16 4 20 20 9 10 13 9 16 12 16 12 12 914 15 16 19 17 42 15 23 975 12 17 9 13 19 31 12 13 14 14 380 7 19 17 23 14 17 9 14 12 25 17 21 204 10 311 31 93 25 7 22 1471 13 28 17 12 33 15 3170 7 21 18 23 15 12 14 9 14 14 10 13 15 19 13 281 8 24 11 213 5 32 247 18 49 18 20 12 136 77 16 27 13 17 14 27 523 14 24 26 17 33 13 17 13 18 16 24 23 3 26 470 113 25 20 22 27 1488 432 20 9 16 16 18 20 13 18 22 245 9 8 179 8 13 22 17 18 5 11 18 13 18 19 13 19 512 21 12 14 8 8 24 24 15 14 70 302 18 16 31 19 14 33 22 60 26 16 16 63 22 18 9 90 19 33 10 11 20 23 9 77 33 2442 14 62 15 15 22 45 21 21 15 294 22 29 12 19 20 9 16 10 23 45 56 15494 17 23 23 14 17 22 11 29 27 13 19 13 24 17 405 15 42 14 14 160 23 14 16 61 15 958 9 12 18 42 16 16 29 13 23 20 44 16 8 10 37 23 19 267 15 40 499 22 33 24 15 12 21 6 18 27 17 10 23 405 9 8 466 41 139 14 9 18 21 1391 562 24 496 15 15 25 23 25 25 21 16 10 1739 23 17 713 29 21 15 41 10 14 22 16 22 13 23 9 22 142 19 12 23 1453 60 24 33 2459 19 19 18 15 17 14 19 10 4308 14 10 308 13 21 15 12 26 23 13 32 14 5 986 66 13 15 10 14 18 13 27 28 2065 9 15 28 1451 20 12 4 28 118 29 36 374 35 29 10 432 12 14 13 33 7 19 25 21 18 23 17 24 19 998 16 30 16 21 25 19 81 87 272 24 233 21 11 14 10 12 25 26 14 9 9 12 431 7 44 30 206 13 21 980 1477 13 23 13 32 27 991 10 16 18 27 29 29 18 14 614 1976 19 12 15 53 14 15 17 15 5 1949 17 13 2356 14 39 766 23 15 17 9 279 20 18 9 9 459 22 166 12 289 118 43 20 20 181 21 1518 27 1712 776 18 15 13 13 25 38 12 29 16 21 54 16 24 23 37 14 23 21 91 80 26 564 19 14 7 913 15 44 546 1068 16 24 13 12 11 17 12 9 29 24 15 20 941 14 73 11 26 14 18 14 15 24 545 22 15 5 19 438 9 45 23 12 13 16 11 16 81 31 29 1105 12 20 13 25 18 26 22 28 261 32 17 20 19 29 52 15 3724 16 23 16 64 24 1486 11 852 18 29 21 49 811 11 14 22 26 20 9 25 16 10 42 1793 22 435 962 14 16 981 15 14 515 28 17 26 16 8 20 321 28 21 1440 29 15 17 18 34 16 30 11 17 24 12 14 11 34 6 29 26 20 13 20 7 21 26 2960 18 28 11 149 28 506 1804 14 12 26 248 15 15 652 4152 14 21 44 18 1942 9 39 20 22 833 14 22 8 15 25 152 293 41 22 22 21 14 48 890 19 12 20 999 1153 9 24 17 19 27 17 109 24 35 161 20 24 22 24 10 516 16 12 1475 15 26 11 9 12 18 24 19 14 954 1485 1542 13 20 137 12 148 17 19 22 519 17 15 23 15 21 16 24 73 31 17 15 483 13 26 25 238 499 14 18 18 16 17 428 475 242 22 18 11 38 7 16 21 18 10 522 29 14 21 1485 16 24 15 547 9 21 11 85 445 18 21 10 17 21 13 20 6 11 778 63 14 9 
To predecode: 0
Predecoding something: 0
Predecode request dropped: 0
sizeofblock_0 0
sizeofblock_1 39015
sizeofblock_2 34781
sizeofblock_3 44890
sizeofblock_4 23101
sizeofblock_5 0
sizeofblock_6 0
sizeofblock_7 0
sizeofblock_8 0
Variant_0 Correct: 1611872 Incorrect: 0 Accuracy: 1
Variant_1 Correct: 2090921 Incorrect: 0 Accuracy: 1
Variant_2 Correct: 3650554 Incorrect: 0 Accuracy: 1
Variant_3 Correct: 0 Incorrect: 0 Accuracy: -nan
