
*** ChampSim Multicore Out-of-Order Simulator ***

Warmup Instructions: 50000000
Simulation Instructions: 50000000
Number of CPUs: 1
LLC sets: 2048
LLC ways: 16
Off-chip DRAM Size: 4096 MB Channels: 1 Width: 64-bit Data Rate: 6400 MT/s
CPU 0 runs ./micro_traces/srv563.trace.gz
.gz
ITLB has LRU replacement policy
DTLB has LRU replacement policy
STLB has LRU replacement policy
FDIP Prefetcher at L1I
L1I has LRU replacement policy
L1D has LRU replacement policy
Initialize SRRIP state for L2C
Initialize DRRIP state for LLC
Heartbeat_Variant_0 : 1296 0.316406 per_variant_size: 0 1296 0 0 0 0 0 0 0 
Heartbeat_Variant_1 : 1056 0.257812 per_variant_size: 0 341 715 0 0 0 0 0 0 
Heartbeat_Variant_2 : 991 0.241943 per_variant_size: 0 289 190 151 361 0 0 0 0 
Heartbeat_Variant_3 : 0 0 per_variant_size: 0 0 0 0 0 0 0 0 0 
Heartbeat_Variant_0_evicts 0 : 5585 1 : 0 2 : 2 3 : 0 
Heartbeat_Variant_1_evicts 0 : 0 1 : 0 2 : 200 3 : 0 
Heartbeat_Variant_2_evicts 0 : 3 1 : 196 2 : 0 3 : 0 
Heartbeat_Variant_3_evicts 0 : 0 1 : 0 2 : 0 3 : 0 
Heartbeat CPU 0 instructions: 10000000 cycles: 2797841 heartbeat IPC: 3.57418 cumulative IPC: 3.57418 (Simulation time: 0 hr 1 min 58 sec) 
Heartbeat_Variant_0 : 1334 0.325684 per_variant_size: 0 1334 0 0 0 0 0 0 0 
Heartbeat_Variant_1 : 1098 0.268066 per_variant_size: 0 343 755 0 0 0 0 0 0 
Heartbeat_Variant_2 : 1014 0.247559 per_variant_size: 0 281 171 180 382 0 0 0 0 
Heartbeat_Variant_3 : 0 0 per_variant_size: 0 0 0 0 0 0 0 0 0 
Heartbeat_Variant_0_evicts 0 : 5600 1 : 1 2 : 0 3 : 0 
Heartbeat_Variant_1_evicts 0 : 2 1 : 0 2 : 197 3 : 0 
Heartbeat_Variant_2_evicts 0 : 1 1 : 197 2 : 0 3 : 0 
Heartbeat_Variant_3_evicts 0 : 0 1 : 0 2 : 0 3 : 0 
Heartbeat CPU 0 instructions: 20000000 cycles: 5594605 heartbeat IPC: 3.57556 cumulative IPC: 3.57487 (Simulation time: 0 hr 4 min 4 sec) 
Heartbeat_Variant_0 : 1378 0.336426 per_variant_size: 0 1378 0 0 0 0 0 0 0 
Heartbeat_Variant_1 : 1141 0.278564 per_variant_size: 0 341 800 0 0 0 0 0 0 
Heartbeat_Variant_2 : 1049 0.256104 per_variant_size: 0 286 172 179 412 0 0 0 0 
Heartbeat_Variant_3 : 0 0 per_variant_size: 0 0 0 0 0 0 0 0 0 
Heartbeat_Variant_0_evicts 0 : 5535 1 : 4 2 : 5 3 : 0 
Heartbeat_Variant_1_evicts 0 : 2 1 : 0 2 : 199 3 : 0 
Heartbeat_Variant_2_evicts 0 : 9 1 : 197 2 : 0 3 : 0 
Heartbeat_Variant_3_evicts 0 : 0 1 : 0 2 : 0 3 : 0 
Heartbeat CPU 0 instructions: 30000002 cycles: 8391292 heartbeat IPC: 3.57566 cumulative IPC: 3.57513 (Simulation time: 0 hr 6 min 4 sec) 
Heartbeat_Variant_0 : 1380 0.336914 per_variant_size: 0 1380 0 0 0 0 0 0 0 
Heartbeat_Variant_1 : 1141 0.278564 per_variant_size: 0 345 796 0 0 0 0 0 0 
Heartbeat_Variant_2 : 1052 0.256836 per_variant_size: 0 289 172 172 419 0 0 0 0 
Heartbeat_Variant_3 : 0 0 per_variant_size: 0 0 0 0 0 0 0 0 0 
Heartbeat_Variant_0_evicts 0 : 5560 1 : 0 2 : 0 3 : 0 
Heartbeat_Variant_1_evicts 0 : 0 1 : 0 2 : 194 3 : 0 
Heartbeat_Variant_2_evicts 0 : 0 1 : 195 2 : 0 3 : 0 
Heartbeat_Variant_3_evicts 0 : 0 1 : 0 2 : 0 3 : 0 
Heartbeat CPU 0 instructions: 40000000 cycles: 11187366 heartbeat IPC: 3.57644 cumulative IPC: 3.57546 (Simulation time: 0 hr 8 min 1 sec) 
Heartbeat_Variant_0 : 1381 0.337158 per_variant_size: 0 1381 0 0 0 0 0 0 0 
Heartbeat_Variant_1 : 1144 0.279297 per_variant_size: 0 345 799 0 0 0 0 0 0 
Heartbeat_Variant_2 : 1053 0.25708 per_variant_size: 0 290 172 177 414 0 0 0 0 
Heartbeat_Variant_3 : 0 0 per_variant_size: 0 0 0 0 0 0 0 0 0 
Heartbeat_Variant_0_evicts 0 : 5580 1 : 0 2 : 1 3 : 0 
Heartbeat_Variant_1_evicts 0 : 2 1 : 0 2 : 197 3 : 0 
Heartbeat_Variant_2_evicts 0 : 1 1 : 198 2 : 0 3 : 0 
Heartbeat_Variant_3_evicts 0 : 0 1 : 0 2 : 0 3 : 0 
Heartbeat CPU 0 instructions: 50000003 cycles: 13983392 heartbeat IPC: 3.57651 cumulative IPC: 3.57567 (Simulation time: 0 hr 10 min 2 sec) 

Warmup complete CPU 0 instructions: 50000003 cycles: 13983392 (Simulation time: 0 hr 10 min 2 sec) 

Cycle: 20000000 FTQ IN: 58261737 FTQ occupancy: 20.0005 DECODE IN: 58261737 DECODE occupancy: 52.1243 ROB IN: 58261737 ROB occupancy: 313.311 ROB OUT: 58261722
Heartbeat_Variant_0 : 1381 0.337158 per_variant_size: 0 1381 0 0 0 0 0 0 0 
Heartbeat_Variant_1 : 1145 0.279541 per_variant_size: 0 350 795 0 0 0 0 0 0 
Heartbeat_Variant_2 : 1053 0.25708 per_variant_size: 0 290 172 181 410 0 0 0 0 
Heartbeat_Variant_3 : 0 0 per_variant_size: 0 0 0 0 0 0 0 0 0 
Heartbeat_Variant_0_evicts 0 : 5603 1 : 0 2 : 0 3 : 0 
Heartbeat_Variant_1_evicts 0 : 0 1 : 0 2 : 196 3 : 0 
Heartbeat_Variant_2_evicts 0 : 0 1 : 196 2 : 0 3 : 0 
Heartbeat_Variant_3_evicts 0 : 0 1 : 0 2 : 0 3 : 0 
Heartbeat CPU 0 instructions: 60000000 cycles: 21251380 heartbeat IPC: 1.3759 cumulative IPC: 1.3759 (Simulation time: 0 hr 12 min 9 sec) 
Heartbeat_Variant_0 : 1392 0.339844 per_variant_size: 0 1392 0 0 0 0 0 0 0 
Heartbeat_Variant_1 : 1153 0.281494 per_variant_size: 0 348 805 0 0 0 0 0 0 
Heartbeat_Variant_2 : 1065 0.26001 per_variant_size: 0 295 173 188 409 0 0 0 0 
Heartbeat_Variant_3 : 0 0 per_variant_size: 0 0 0 0 0 0 0 0 0 
Heartbeat_Variant_0_evicts 0 : 5541 1 : 2 2 : 1 3 : 0 
Heartbeat_Variant_1_evicts 0 : 1 1 : 0 2 : 195 3 : 0 
Heartbeat_Variant_2_evicts 0 : 2 1 : 195 2 : 0 3 : 0 
Heartbeat_Variant_3_evicts 0 : 0 1 : 0 2 : 0 3 : 0 
Heartbeat CPU 0 instructions: 70000003 cycles: 28450148 heartbeat IPC: 1.38913 cumulative IPC: 1.38248 (Simulation time: 0 hr 14 min 9 sec) 
Cycle: 30000000 FTQ IN: 13895113 FTQ occupancy: 12.8908 DECODE IN: 13895052 DECODE occupancy: 33.5856 ROB IN: 13894992 ROB occupancy: 231.764 ROB OUT: 13894659
Heartbeat_Variant_0 : 1393 0.340088 per_variant_size: 0 1393 0 0 0 0 0 0 0 
Heartbeat_Variant_1 : 1153 0.281494 per_variant_size: 0 348 805 0 0 0 0 0 0 
Heartbeat_Variant_2 : 1065 0.26001 per_variant_size: 0 294 174 179 418 0 0 0 0 
Heartbeat_Variant_3 : 0 0 per_variant_size: 0 0 0 0 0 0 0 0 0 
Heartbeat_Variant_0_evicts 0 : 5576 1 : 0 2 : 0 3 : 0 
Heartbeat_Variant_1_evicts 0 : 0 1 : 0 2 : 195 3 : 0 
Heartbeat_Variant_2_evicts 0 : 0 1 : 195 2 : 0 3 : 0 
Heartbeat_Variant_3_evicts 0 : 0 1 : 0 2 : 0 3 : 0 
Heartbeat CPU 0 instructions: 80000003 cycles: 35711531 heartbeat IPC: 1.37715 cumulative IPC: 1.3807 (Simulation time: 0 hr 16 min 20 sec) 
Cycle: 40000000 FTQ IN: 13830515 FTQ occupancy: 13.011 DECODE IN: 13830472 DECODE occupancy: 33.6959 ROB IN: 13830532 ROB occupancy: 232.902 ROB OUT: 13830662
Heartbeat_Variant_0 : 1393 0.340088 per_variant_size: 0 1393 0 0 0 0 0 0 0 
Heartbeat_Variant_1 : 1153 0.281494 per_variant_size: 0 349 804 0 0 0 0 0 0 
Heartbeat_Variant_2 : 1065 0.26001 per_variant_size: 0 294 174 190 407 0 0 0 0 
Heartbeat_Variant_3 : 0 0 per_variant_size: 0 0 0 0 0 0 0 0 0 
Heartbeat_Variant_0_evicts 0 : 5583 1 : 0 2 : 0 3 : 0 
Heartbeat_Variant_1_evicts 0 : 0 1 : 0 2 : 196 3 : 0 
Heartbeat_Variant_2_evicts 0 : 0 1 : 196 2 : 0 3 : 0 
Heartbeat_Variant_3_evicts 0 : 0 1 : 0 2 : 0 3 : 0 
Heartbeat CPU 0 instructions: 90000000 cycles: 42883513 heartbeat IPC: 1.39431 cumulative IPC: 1.38408 (Simulation time: 0 hr 18 min 37 sec) 
Cycle: 50000000 FTQ IN: 13947211 FTQ occupancy: 12.9284 DECODE IN: 13947192 DECODE occupancy: 33.8134 ROB IN: 13947132 ROB occupancy: 232.573 ROB OUT: 13946998
Heartbeat_Variant_0 : 1409 0.343994 per_variant_size: 0 1409 0 0 0 0 0 0 0 
Heartbeat_Variant_1 : 1183 0.288818 per_variant_size: 0 344 839 0 0 0 0 0 0 
Heartbeat_Variant_2 : 1075 0.262451 per_variant_size: 0 286 178 183 428 0 0 0 0 
Heartbeat_Variant_3 : 0 0 per_variant_size: 0 0 0 0 0 0 0 0 0 
Heartbeat_Variant_0_evicts 0 : 5693 1 : 4 2 : 3 3 : 0 
Heartbeat_Variant_1_evicts 0 : 4 1 : 0 2 : 201 3 : 0 
Heartbeat_Variant_2_evicts 0 : 3 1 : 199 2 : 0 3 : 0 
Heartbeat_Variant_3_evicts 0 : 0 1 : 0 2 : 0 3 : 0 
Heartbeat CPU 0 instructions: 100000000 cycles: 50101234 heartbeat IPC: 1.38548 cumulative IPC: 1.38436 (Simulation time: 0 hr 20 min 57 sec) 
Finished CPU 0 instructions: 50000001 cycles: 36117843 cumulative IPC: 1.38436 (Simulation time: 0 hr 20 min 57 sec) 

ChampSim completed all CPUs

Region of Interest Statistics

CPU 0 cumulative IPC: 1.38436 instructions: 50000001 cycles: 36117843
 Fetch stage stalled: 53.6946  Sim cycles: 36117843 fetch stall cycle: 19393349
 Empty decode stage: 35.2692  Sim cycles: 36117843 fetch stall cycle: 12738457
ITLB TOTAL     ACCESS:    5873001  HIT:    5379057  MISS:     493944  HIT %:    91.5896  MISS %:    8.41042   MPKI: 9.87888
ITLB LOAD TRANSLATION INSTRUCTION	ACCESS:    5751854  HIT:    5257910  MISS:     493944  HIT %:    91.4124  MISS %:    8.58756  MPKI: 9.87888
ITLB TRANSLATION FROM L1D PREFETCHER INSTRUCTION	ACCESS:     121147  HIT:     121147  MISS:          0  HIT %:        100  MISS %:          0  MPKI: 0

ITLB AVERAGE MISS LATENCY: 9.05286 cycles
ITLB RQ	ACCESS:    8006540	FORWARD:          0	MERGED:    1688661	TO_CACHE:    6317879

DTLB TOTAL     ACCESS:    8979406  HIT:    8507341  MISS:     472065  HIT %:    94.7428  MISS %:     5.2572   MPKI: 9.4413
DTLB LOAD TRANSLATION DATA	ACCESS:    8979406  HIT:    8507341  MISS:     472065  HIT %:    94.7428  MISS %:     5.2572  MPKI: 9.4413

DTLB AVERAGE MISS LATENCY: 9.33077 cycles
DTLB RQ	ACCESS:   13348197	FORWARD:          0	MERGED:    4331523	TO_CACHE:    9016674

STLB TOTAL     ACCESS:    1215656  HIT:    1213614  MISS:       2042  HIT %:     99.832  MISS %:   0.167975   MPKI: 0.04084
STLB LOAD TRANSLATION INSTRUCTION	ACCESS:     493944  HIT:     493694  MISS:        250  HIT %:    99.9494  MISS %:   0.050613  MPKI: 0.005
STLB LOAD TRANSLATION DATA	ACCESS:     472065  HIT:     470304  MISS:       1761  HIT %:     99.627  MISS %:   0.373042  MPKI: 0.03522
STLB TRANSLATION FROM L1D PREFETCHER DATA	ACCESS:     249647  HIT:     249616  MISS:         31  HIT %:    99.9876  MISS %:  0.0124175  MPKI: 0.00062

STLB AVERAGE MISS LATENCY: 73.379 cycles
STLB RQ	ACCESS:    1337180	FORWARD:          0	MERGED:     121486	TO_CACHE:    1215694

STLB Hit, L1D data hit: 0
STLB Hit, L2C data hit: 0
STLB Hit, LLC data hit: 0
STLB Hit, LLC data miss: 0
STLB STLB hints to L2: 0
L1D TOTAL     ACCESS:   13094905  HIT:   11975819  MISS:    1119086  HIT %:     91.454  MISS %:    8.54597   MPKI: 22.3817
L1D LOAD DATA	ACCESS:    6560201  HIT:    5823913  MISS:     736288  HIT %:    88.7764  MISS %:    11.2236  MPKI: 14.7258
L1D RFO DATA	ACCESS:    6205708  HIT:    5918246  MISS:     287462  HIT %:    95.3678  MISS %:    4.63222  MPKI: 5.74924
L1D PREFETCH DATA	ACCESS:     328996  HIT:     233660  MISS:      95336  HIT %:    71.0221  MISS %:    28.9779  MPKI: 1.90672

L1D PREFETCH  REQUESTED:     742761  ISSUED:     742761  USEFUL:      35365  USELESS:      69038
L1D USEFUL LOAD PREFETCHES:      35365 PREFETCH ISSUED TO LOWER LEVEL:     104389  ACCURACY: 33.8781
 TIMELY PREFETCHES:      35365 LATE PREFETCHES: 9022 DROPPED PREFETCHES: 7
L1D AVERAGE MISS LATENCY: 260985 cycles
L1D RQ	ACCESS:   10703115	FORWARD:          0	MERGED:    3943763	TO_CACHE:    6594490
L1D WQ	ACCESS:    6950443	FORWARD:     165283	MERGED:     196736	TO_CACHE:    6753707
L1D PQ	ACCESS:     371591	FORWARD:          0	MERGED:          0	TO_CACHE:     371170

L1D UNIQUE REGIONS ACCESSED: 0
L1D REGIONS CONFLICTS: 0
L1D Cross Page Prefetch Requests: 6975
L1D Same Page Prefetch Requests: 750784
L1D ROI Sum of L1D PQ occupancy: 4723293
L1D PREFETCHES PUSHED FROM L2C: 0
L1I TOTAL     ACCESS:    7175648  HIT:    4412062  MISS:    2763586  HIT %:    61.4866  MISS %:    38.5134   MPKI: 55.2717
L1I LOAD INSTRUCTION	ACCESS:    6514083  HIT:    3750497  MISS:    2763586  HIT %:    57.5752  MISS %:    42.4248  MPKI: 55.2717
L1I PREFETCH INSTRUCTION	ACCESS:     661565  HIT:     661565  MISS:          0  HIT %:        100  MISS %:          0  MPKI: 0

L1I PREFETCH  REQUESTED:    1598580  ISSUED:    1598580  USEFUL:          0  USELESS:          0
L1I USEFUL LOAD PREFETCHES:          0 PREFETCH ISSUED TO LOWER LEVEL:          0  ACCURACY: -nan
 TIMELY PREFETCHES:          0 LATE PREFETCHES: 0 DROPPED PREFETCHES: 0
L1I AVERAGE MISS LATENCY: 17.0379 cycles
L1I RQ	ACCESS:    9506968	FORWARD:          0	MERGED:    2672355	TO_CACHE:    6834613
L1I PQ	ACCESS:    1598580	FORWARD:          0	MERGED:     426653	TO_CACHE:    1171927

L1BTB TOTAL     ACCESS:    5669598  HIT:    2040596  MISS:    3629002  HIT %:    35.9919  MISS %:    64.0081   MPKI: 72.58
L1BTB BRANCH_DIRECT_JUMP	ACCESS:     548589  HIT:     144271  MISS:     404318	AVERAGE STALL: 45.5294
L1BTB BRANCH_INDIRECT	ACCESS:     182966  HIT:      66049  MISS:     116917	AVERAGE STALL: 100.894
L1BTB BRANCH_CONDITIONAL	ACCESS:    2710093  HIT:    1416770  MISS:    1293323	AVERAGE STALL: 60.9336
L1BTB BRANCH_DIRECT_CALL	ACCESS:     942635  HIT:     104142  MISS:     838493	AVERAGE STALL: 73.3973
L1BTB BRANCH_INDIRECT_CALL	ACCESS:     171337  HIT:      20857  MISS:     150480	AVERAGE STALL: 131.701
L1BTB BRANCH_RETURN	ACCESS:    1113978  HIT:     288507  MISS:     825471	AVERAGE STALL: 46.1475
L1BTB BRANCH_OTHER ACCESS:          0  HIT:          0  MISS:          0	AVERAGE STALL: -nan
L1BTB TOTAL ROB OCCUPANCY AT BTB MISS: 2.74863

L2BTB TOTAL     ACCESS:    3603555  HIT:    3533827  MISS:      69728  HIT %:     98.065  MISS %:    1.93498   MPKI: 1.39456
L2BTB BRANCH_DIRECT_JUMP	ACCESS:     400141  HIT:     395400  MISS:       4741	AVERAGE STALL: 45.5294
L2BTB BRANCH_INDIRECT	ACCESS:     106624  HIT:     103940  MISS:       2684	AVERAGE STALL: 100.894
L2BTB BRANCH_CONDITIONAL	ACCESS:    1293323  HIT:    1287260  MISS:       6063	AVERAGE STALL: 60.9336
L2BTB BRANCH_DIRECT_CALL	ACCESS:     838493  HIT:     837580  MISS:        913	AVERAGE STALL: 73.3973
L2BTB BRANCH_INDIRECT_CALL	ACCESS:     140919  HIT:     130604  MISS:      10315	AVERAGE STALL: 131.701
L2BTB BRANCH_RETURN	ACCESS:     824055  HIT:     779043  MISS:      45012	AVERAGE STALL: 46.1475
L2BTB BRANCH_OTHER ACCESS:          0  HIT:          0  MISS:          0	AVERAGE STALL: -nan
L2BTB TOTAL ROB OCCUPANCY AT BTB MISS: 143.053

L2C TOTAL     ACCESS:    4484949  HIT:    4033329  MISS:     451620  HIT %:    89.9303  MISS %:    10.0697   MPKI: 9.0324
L2C LOAD INSTRUCTION	ACCESS:    2763588  HIT:    2518594  MISS:     244994  HIT %:    91.1349  MISS %:    8.86507  MPKI: 4.89988
L2C LOAD TRANSLATION INSTRUCTION	ACCESS:        282  HIT:         69  MISS:        213  HIT %:    24.4681  MISS %:    75.5319  MPKI: 0.00426
L2C LOAD DATA	ACCESS:     727237  HIT:     659628  MISS:      67609  HIT %:    90.7033  MISS %:    9.29669  MPKI: 1.35218
L2C RFO DATA	ACCESS:     287401  HIT:     233874  MISS:      53527  HIT %:    81.3755  MISS %:    18.6245  MPKI: 1.07054
L2C PREFETCH DATA	ACCESS:     181986  HIT:     112368  MISS:      69618  HIT %:    61.7454  MISS %:    38.2546  MPKI: 1.39236
L2C WRITEBACK DATA	ACCESS:     522576  HIT:     508331  MISS:      14245  HIT %:    97.2741  MISS %:    2.72592  MPKI: 0.2849
L2C LOAD TRANSLATION DATA	ACCESS:       1825  HIT:        430  MISS:       1395  HIT %:    23.5616  MISS %:    76.4384  MPKI: 0.0279
L2C TRANSLATION FROM L1D PREFETCHER DATA	ACCESS:         54  HIT:         35  MISS:         19  HIT %:    64.8148  MISS %:    35.1852  MPKI: 0.00038

L2C PREFETCH  REQUESTED:      85078  ISSUED:      85078  USEFUL:       7796  USELESS:      61942
L2C USEFUL LOAD PREFETCHES:       7796 PREFETCH ISSUED TO LOWER LEVEL:      70128  ACCURACY: 11.1168
 TIMELY PREFETCHES:       7796 LATE PREFETCHES: 509 DROPPED PREFETCHES: 0
L2C AVERAGE MISS LATENCY: 39.7864 cycles
L2C RQ	ACCESS:    3780448	FORWARD:          0	MERGED:          0	TO_CACHE:    3780389
L2C WQ	ACCESS:     522576	FORWARD:         59	MERGED:          0	TO_CACHE:     522576
L2C PQ	ACCESS:     189467	FORWARD:          0	MERGED:       3511	TO_CACHE:     185956

L2C Dense regions hint from L2: 0
PSCL5 TOTAL     ACCESS:       4114  HIT:       2057  MISS:       2057  HIT %:         50  MISS %:         50   MPKI: 0.04114
PSCL5 LOAD TRANSLATION INSTRUCTION	ACCESS:       4006  HIT:       2003  MISS:       2003  HIT %:         50  MISS %:         50  MPKI: 0.04006
PSCL5 TRANSLATION FROM L1D PREFETCHER INSTRUCTION	ACCESS:        108  HIT:         54  MISS:         54  HIT %:         50  MISS %:         50  MPKI: 0.00108


PSCL4 TOTAL     ACCESS:       3828  HIT:       1911  MISS:       1917  HIT %:    49.9216  MISS %:    50.0784   MPKI: 0.03834
PSCL4 LOAD TRANSLATION INSTRUCTION	ACCESS:       2313  HIT:       1871  MISS:        442  HIT %:    80.8906  MISS %:    19.1094  MPKI: 0.00884
PSCL4 TRANSLATION FROM L1D PREFETCHER INSTRUCTION	ACCESS:         44  HIT:         40  MISS:          4  HIT %:    90.9091  MISS %:    9.09091  MPKI: 8e-05
PSCL4 LOAD TRANSLATION DATA	ACCESS:       1435  HIT:          0  MISS:       1435  HIT %:          0  MISS %:        100  MPKI: 0.0287
PSCL4 TRANSLATION FROM L1D PREFETCHER DATA	ACCESS:         36  HIT:          0  MISS:         36  HIT %:          0  MISS %:        100  MPKI: 0.00072


PSCL3 TOTAL     ACCESS:       3896  HIT:       1945  MISS:       1951  HIT %:     49.923  MISS %:     50.077   MPKI: 0.03902
PSCL3 LOAD TRANSLATION INSTRUCTION	ACCESS:       2347  HIT:       1905  MISS:        442  HIT %:    81.1674  MISS %:    18.8326  MPKI: 0.00884
PSCL3 TRANSLATION FROM L1D PREFETCHER INSTRUCTION	ACCESS:         44  HIT:         40  MISS:          4  HIT %:    90.9091  MISS %:    9.09091  MPKI: 8e-05
PSCL3 LOAD TRANSLATION DATA	ACCESS:       1469  HIT:          0  MISS:       1469  HIT %:          0  MISS %:        100  MPKI: 0.02938
PSCL3 TRANSLATION FROM L1D PREFETCHER DATA	ACCESS:         36  HIT:          0  MISS:         36  HIT %:          0  MISS %:        100  MPKI: 0.00072


PSCL2 TOTAL     ACCESS:       4018  HIT:       1962  MISS:       2056  HIT %:    48.8303  MISS %:    51.1697   MPKI: 0.04112
PSCL2 LOAD TRANSLATION INSTRUCTION	ACCESS:       2158  HIT:       1908  MISS:        250  HIT %:    88.4152  MISS %:    11.5848  MPKI: 0.005
PSCL2 TRANSLATION FROM L1D PREFETCHER INSTRUCTION	ACCESS:         54  HIT:         54  MISS:          0  HIT %:        100  MISS %:          0  MPKI: 0
PSCL2 LOAD TRANSLATION DATA	ACCESS:       1752  HIT:          0  MISS:       1752  HIT %:          0  MISS %:        100  MPKI: 0.03504
PSCL2 TRANSLATION FROM L1D PREFETCHER DATA	ACCESS:         54  HIT:          0  MISS:         54  HIT %:          0  MISS %:        100  MPKI: 0.00108


LLC TOTAL     ACCESS:     512104  HIT:     482178  MISS:      29926  HIT %:    94.1563  MISS %:    5.84373   MPKI: 0.59852
LLC LOAD INSTRUCTION	ACCESS:     244994  HIT:     244131  MISS:        863  HIT %:    99.6477  MISS %:   0.352254  MPKI: 0.01726
LLC LOAD TRANSLATION INSTRUCTION	ACCESS:        213  HIT:        186  MISS:         27  HIT %:    87.3239  MISS %:    12.6761  MPKI: 0.00054
LLC LOAD DATA	ACCESS:      67168  HIT:      63745  MISS:       3423  HIT %:    94.9038  MISS %:    5.09618  MPKI: 0.06846
LLC RFO DATA	ACCESS:      53455  HIT:      37999  MISS:      15456  HIT %:     71.086  MISS %:     28.914  MPKI: 0.30912
LLC PREFETCH DATA	ACCESS:      70127  HIT:      60401  MISS:       9726  HIT %:    86.1309  MISS %:    13.8691  MPKI: 0.19452
LLC WRITEBACK DATA	ACCESS:      74733  HIT:      74365  MISS:        368  HIT %:    99.5076  MISS %:    0.49242  MPKI: 0.00736
LLC LOAD TRANSLATION DATA	ACCESS:       1395  HIT:       1332  MISS:         63  HIT %:    95.4839  MISS %:    4.51613  MPKI: 0.00126
LLC TRANSLATION FROM L1D PREFETCHER DATA	ACCESS:         19  HIT:         19  MISS:          0  HIT %:        100  MISS %:          0  MPKI: 0

LLC AVERAGE MISS LATENCY: 160.634 cycles
LLC RQ	ACCESS:     367249	FORWARD:          0	MERGED:          0	TO_CACHE:     367245
LLC WQ	ACCESS:      74734	FORWARD:          4	MERGED:          0	TO_CACHE:      74734
LLC PQ	ACCESS:      70128	FORWARD:          0	MERGED:          0	TO_CACHE:      70128

LLC Dense regions hint to LLC: 0

RAW hits: 1937434
Loads Generated: 12640547
Loads sent to L1D: 10703115
Stores Generated: 6950437
Stores sent to L1D: 6950443
Major fault: 0 Minor fault: 2546
Allocated PAGES: 2546

stream: 
stream:times selected: 1188264
stream:pref_filled: 123824
stream:pref_useful: 24919
stream:pref_late: 6914
stream:misses: 7997
stream:misses_by_poll: 0

CS: 
CS:times selected: 179783
CS:pref_filled: 59005
CS:pref_useful: 35541
CS:pref_late: 7958
CS:misses: 17723
CS:misses_by_poll: 7

CPLX: 
CPLX:times selected: 1007345
CPLX:pref_filled: 19605
CPLX:pref_useful: 4568
CPLX:pref_late: 3049
CPLX:misses: 93494
CPLX:misses_by_poll: 0

NL_L1: 
NL:times selected: 21262
NL:pref_filled: 669
NL:pref_useful: 276
NL:pref_late: 349
NL:misses: 1866
NL:misses_by_poll: 0

total selections: 2396654
total_filled: 95336
total_useful: 35365
total_late: 19685
total_polluted: 7
total_misses_after_warmup: 770579
conflicts: 5523950

test: 117971

DRAM Statistics
 CHANNEL 0
 RQ ROW_BUFFER_HIT:      11064  ROW_BUFFER_MISS:      18470
 DBUS_CONGESTED:         15
 WQ ROW_BUFFER_HIT:       1598  ROW_BUFFER_MISS:      12560  FULL:          0

 AVG_CONGESTED_CYCLE: 5

CPU 0 Branch Prediction Accuracy: 99.8245% MPKI: 0.32086 Average ROB Occupancy at Mispredict: 180.924
Branch types
NOT_BRANCH: 40858425 81.7168%
BRANCH_DIRECT_JUMP: 548589 1.09718%
BRANCH_INDIRECT: 182966 0.365932%
BRANCH_CONDITIONAL: 6181834 12.3637%
BRANCH_DIRECT_CALL: 942635 1.88527%
BRANCH_INDIRECT_CALL: 171337 0.342674%
BRANCH_RETURN: 1113978 2.22796%
BRANCH_OTHER: 0 0%

DRAM PAGES: 1048576
Allocated PAGES: 2546
Average_ROB_Occupancy: 233.597
Average_Decode_Occupancy: 33.7218
Average_FTQ_Occupancy: 12.9732
Indirect max targets: 14 Average targets: 1.14966
Branch_type:  BRANCH_DIRECT_JUMP:  Count Percentage: 2.90188 6.71544 4.01451 9.10762 1.69594 5.97478 1.21898 68.3708 
Branch_type:  BRANCH_INDIRECT:  Count Percentage: 11.7689 3.45273 2.54578 0 1.33799 9.66649 5.88966 65.3384 
Branch_type:  BRANCH_CONDITIONAL:  Count Percentage: 20.8143 3.22781 1.77466 5.43709 1.17557 12.8983 1.14078 53.5314 
Branch_type:  BRANCH_DIRECT_CALL:  Count Percentage: 0.259583 1.7736 1.43083 4.70998 2.16542 2.99893 0.705794 85.9559 
Branch_type:  BRANCH_INDIRECT_CALL:  Count Percentage: 9.55558 0 2.99514 8.70266 0 2.6605 1.28405 74.8021 
Branch_type:  BRANCH_RETURN:  Count Percentage: 3.90657 1.38011 1.41195 6.33894 2.79834 12.8647 1.63595 69.6634 
Branch_type:  BRANCH_DIRECT_JUMP:  Total Count: 31814 73623 44012 99849 18593 65503 13364 749566 
Branch_type:  BRANCH_INDIRECT:  Total Count: 43030 12624 9308 0 4892 35343 21534 238893 
Branch_type:  BRANCH_CONDITIONAL:  Total Count: 2572197 398887 219309 671906 145275 1593953 140976 6615318 
Branch_type:  BRANCH_DIRECT_CALL:  Total Count: 4896 33452 26987 88835 40842 56563 13312 1621216 
Branch_type:  BRANCH_INDIRECT_CALL:  Total Count: 32781 0 10275 29855 0 9127 4405 256613 
Branch_type:  BRANCH_RETURN:  Total Count: 87115 30776 31486 141356 62402 286879 36481 1553469 
Number of unique branch instructions: 9917
Upper 32 bits: 
aaaa
ffff
ffff0000
Unique upper 32 bits: 3
Unique upper 36 bits: 3
Unique upper 40 bits: 5
Unique upper 44 bits: 32
Unique upper 48 bits: 154
Variant_0 : 1409 0.343994
Variant_1 : 1183 0.288818
Variant_2 : 1075 0.262451
Variant_3 : 0 0
Offset_3 4073
Offset_4 249
Offset_5 451
Offset_6 503
Offset_7 585
Offset_8 509
Offset_9 468
Offset_10 385
Offset_11 315
Offset_12 288
Offset_13 201
Offset_14 230
Offset_15 189
Offset_16 223
Offset_17 143
Offset_18 126
Offset_19 240
Offset_20 142
Offset_21 235
Offset_22 392
Offset_23 241
Offset_24 327
Offset_25 88
Offset_47 80
decode_dispatch_called: 25262566 69.9448
Dispatch_width: 0 13610212 53.875 37.6828
Dispatch_width: 1 920188 3.6425 2.54774
Dispatch_width: 2 784732 3.1063 2.1727
Dispatch_width: 3 479591 1.89843 1.32785
Dispatch_width: 4 5290832 20.9434 14.6488
Dispatch_width: 5 154049 0.609792 0.426518
Dispatch_width: 6 4022962 15.9246 11.1384
Empty_decode_cycles: 10855277 30.0552
ROB_full_cycles: 8443761 23.3784
Starvation_cycles_per_kilo_instr: 236.511
Starvation_cycles_per_kilo_instr_3: 182.062
Starvation_cycles_per_kilo_instr_0: 160.217
Branch_type_1  (3,1)  (4,9)  (5,37)  (6,69)  (7,114)  (8,127)  (9,123)  (10,98)  (11,70)  (12,51)  (13,5)  (14,2)  (15,3)  (16,4)  (18,1)  (19,4)  (20,2)  (21,1)  (22,3)  (23,2)  (24,10)  (25,12) 
Branch_type_2  (3,1)  (5,1)  (8,3)  (9,3)  (12,1)  (13,1)  (14,1)  (16,3)  (17,2)  (20,2)  (21,2)  (23,5)  (24,1)  (47,36) 
Branch_type_3  (3,4071)  (4,240)  (5,409)  (6,418)  (7,439)  (8,317)  (9,256)  (10,156)  (11,130)  (12,58)  (13,4) 
Branch_type_4  (6,4)  (7,8)  (8,26)  (9,54)  (10,62)  (11,59)  (12,99)  (13,87)  (14,102)  (15,89)  (16,100)  (17,64)  (18,57)  (19,116)  (20,74)  (21,124)  (22,209)  (23,136)  (24,188)  (25,72) 
Branch_type_5  (8,2)  (9,1)  (10,3)  (11,5)  (12,3)  (13,14)  (14,16)  (15,11)  (16,20)  (17,11)  (18,16)  (19,12)  (20,10)  (21,13)  (22,42)  (23,26)  (24,37) 
Branch_type_6  (5,4)  (6,12)  (7,24)  (8,34)  (9,31)  (10,66)  (11,51)  (12,76)  (13,90)  (14,109)  (15,86)  (16,96)  (17,66)  (18,52)  (19,108)  (20,54)  (21,95)  (22,138)  (23,72)  (24,91)  (25,4)  (47,44) 
Unique trigger count: 
Variant_0_evicts_0 : 0
Variant_0_evicts_1 : 0
Variant_0_evicts_2 : 0
Variant_0_evicts_3 : 0
Variant_1_evicts_0 : 0
Variant_1_evicts_1 : 0
Variant_1_evicts_2 : 0
Variant_1_evicts_3 : 0
Variant_2_evicts_0 : 0
Variant_2_evicts_1 : 0
Variant_2_evicts_2 : 0
Variant_2_evicts_3 : 0
Variant_3_evicts_0 : 0
Variant_3_evicts_1 : 0
Variant_3_evicts_2 : 0
Variant_3_evicts_3 : 0
BTB PER SET UNIQUE ADDR: 17 16 19 11 15 12 15 10 14 11 17 12 13 12 11 13 12 11 13 11 14 9 11 16 14 14 9 15 9 12 14 13 12 14 13 12 10 16 16 15 10 19 12 11 18 16 12 12 12 11 12 14 15 14 15 15 13 14 10 14 14 12 13 13 15 11 16 9 13 12 15 12 11 16 15 10 13 11 11 9 16 16 14 14 10 12 14 16 15 13 19 14 10 11 11 10 16 12 15 13 13 15 8 14 16 14 9 12 12 14 11 9 10 14 12 9 13 8 17 13 9 13 13 18 12 17 13 13 14 12 16 8 15 15 16 18 13 18 14 14 13 15 15 14 12 15 8 10 13 17 12 18 12 11 8 12 14 11 8 10 14 11 12 14 11 12 12 15 18 14 17 13 11 15 8 12 12 12 8 11 11 17 13 12 11 15 10 10 13 12 9 7 9 14 16 12 11 18 12 11 10 12 18 14 10 13 15 17 15 17 10 16 18 15 9 8 14 9 14 13 16 11 13 14 11 13 11 12 10 16 11 11 22 17 16 12 11 12 9 13 17 12 15 12 8 9 14 10 11 15 11 10 15 16 8 15 13 16 15 12 17 8 12 13 14 11 11 12 8 13 12 12 16 13 10 16 15 17 12 13 17 8 13 10 11 12 10 12 13 11 13 12 12 20 14 15 9 8 13 18 13 14 17 16 14 10 14 9 11 10 14 9 11 14 16 14 10 13 12 7 10 10 16 12 17 12 13 15 15 14 12 13 13 8 11 14 12 17 9 12 10 11 10 9 11 15 12 16 14 9 13 14 10 15 10 12 13 11 14 12 13 16 10 15 12 15 11 12 9 12 16 11 10 12 11 9 14 9 11 9 16 8 10 18 13 12 13 11 11 16 11 14 12 12 12 11 16 13 14 12 10 14 17 12 16 13 12 9 12 8 14 13 14 12 15 17 15 16 14 10 12 13 17 15 12 13 11 15 14 14 12 12 12 16 12 13 8 11 16 6 13 17 13 12 12 10 14 12 12 9 17 16 13 10 13 12 19 17 13 9 13 15 10 11 18 11 11 13 12 13 13 14 15 14 10 15 7 8 10 13 19 8 18 11 10 9 11 11 11 13 19 12 18 11 12 15 9 15 15 8 16 12 14 13 11 12 15 14 13 16 13 10 
BTB PER SET COUNT: 17 18 752 1012 15 2185 2869 10 44 501 17 15 17 13 11 13 16 14 13 11 14 10 11 21 400 15 9 992 404 12 14 949 2458 992 14 16 12 17 551 18 578 20 1969 12 20 504 15 12 12 11 12 17 20 1000 15 19 381 16 12 15 14 450 13 15 16 11 16 9 230 14 15 20 11 16 15 10 14 11 11 9 17 17 17 993 988 1479 14 34 20 13 23 1481 501 1979 11 10 18 12 16 131 13 19 8 2952 106 14 12 760 12 16 1478 9 1356 2075 13 10 15 8 993 13 9 13 993 19 14 20 13 14 16 13 2950 2943 97 17 505 1975 15 18 15 3040 13 1482 17 15 15 17 1475 11 13 22 12 19 12 11 8 14 14 14 9 11 1480 19 12 1263 11 15 994 16 22 15 270 21 11 18 8 12 12 990 8 11 13 20 16 13 11 21 11 10 14 12 1476 985 9 14 16 991 11 22 12 14 1479 12 18 14 11 197 993 601 25 312 10 506 18 18 11 9 14 1474 14 13 18 12 17 14 13 14 13 999 11 17 1483 13 25 21 16 12 44 767 9 1371 1041 992 15 12 1475 9 16 11 13 1484 11 40 16 16 8 15 992 23 21 51 24 8 12 14 197 13 21 14 8 992 14 12 18 1360 11 17 843 17 14 14 20 8 13 10 11 13 10 13 14 11 14 379 13 1873 14 15 1966 8 13 2949 295 14 42 20 17 989 20565 10 13 13 4415 2943 993 508 18 14 987 1238 14 7 988 10 383 12 30 64 19 131 15 17 12 990 14 9 12 14 12 19 11 12 10 14 11 9 12 15 1480 1485 14 73 14 15 369 15 10 13 503 11 15 13 14 16 377 995 12 3438 1915 14 12 14 420 11 44 131 13 9 2459 9 12 986 16 8 10 288 33 12 23 15 12 16 12 15 12 12 12 499 995 17 15 12 10 17 20 14 17 13 12 9 14692 8 18 14 16 12 1930 19 19 2467 41 10 21 14 18 383 12 14 13 16 20 553 15 988 13 174 12 15 8 12 16 6 13 892 14 1481 16 66 14 17 18 18 19 17 14 988 15 12 1053 22 15 9 15 17 148 11 2952 12 13 2459 16 994 1478 15 16 15 10 9798 7 8 11 14 3444 8 18 13 13 498 11 12 11 13 21 12 20 11 685 15 2943 15 1482 9 1434 19 92 504 14 155 16 16 22 2057 13 10 
To predecode: 0
Predecoding something: 0
Predecode request dropped: 0
sizeofblock_0 0
sizeofblock_1 29336
sizeofblock_2 31910
sizeofblock_3 47487
sizeofblock_4 35325
sizeofblock_5 0
sizeofblock_6 0
sizeofblock_7 0
sizeofblock_8 0
Variant_0 Correct: 1616470 Incorrect: 0 Accuracy: 1
Variant_1 Correct: 2092369 Incorrect: 0 Accuracy: 1
Variant_2 Correct: 3637936 Incorrect: 1514 Accuracy: 0.999584
Variant_3 Correct: 0 Incorrect: 0 Accuracy: -nan
