
*** ChampSim Multicore Out-of-Order Simulator ***

Warmup Instructions: 50000000
Simulation Instructions: 50000000
Number of CPUs: 1
LLC sets: 2048
LLC ways: 16
Off-chip DRAM Size: 4096 MB Channels: 1 Width: 64-bit Data Rate: 6400 MT/s
CPU 0 runs ./micro_traces/srv563.trace.gz
.gz
ITLB has LRU replacement policy
DTLB has LRU replacement policy
STLB has LRU replacement policy
FDIP Prefetcher at L1I
L1I has LRU replacement policy
L1D has LRU replacement policy
Initialize SRRIP state for L2C
Initialize DRRIP state for LLC
Heartbeat CPU 0 instructions: 10000000 cycles: 2797848 heartbeat IPC: 3.57418 cumulative IPC: 3.57418 (Simulation time: 0 hr 1 min 41 sec) 
Heartbeat CPU 0 instructions: 20000000 cycles: 5594760 heartbeat IPC: 3.57537 cumulative IPC: 3.57477 (Simulation time: 0 hr 3 min 16 sec) 
Heartbeat CPU 0 instructions: 30000002 cycles: 8391548 heartbeat IPC: 3.57553 cumulative IPC: 3.57503 (Simulation time: 0 hr 4 min 53 sec) 
Heartbeat CPU 0 instructions: 40000000 cycles: 11187732 heartbeat IPC: 3.5763 cumulative IPC: 3.57534 (Simulation time: 0 hr 6 min 29 sec) 
Heartbeat CPU 0 instructions: 50000003 cycles: 13983841 heartbeat IPC: 3.5764 cumulative IPC: 3.57556 (Simulation time: 0 hr 8 min 6 sec) 

Warmup complete CPU 0 instructions: 50000003 cycles: 13983841 (Simulation time: 0 hr 8 min 6 sec) 

Cycle: 20000000 FTQ IN: 55465412 FTQ occupancy: 17.4344 DECODE IN: 55465394 DECODE occupancy: 44.652 ROB IN: 55465384 ROB occupancy: 266.783 ROB OUT: 55465342
Heartbeat CPU 0 instructions: 60000000 cycles: 25184694 heartbeat IPC: 0.892789 cumulative IPC: 0.892789 (Simulation time: 0 hr 9 min 22 sec) 
Cycle: 30000000 FTQ IN: 8836120 FTQ occupancy: 4.60989 DECODE IN: 8836134 DECODE occupancy: 9.06238 ROB IN: 8836138 ROB occupancy: 76.4355 ROB OUT: 8836115
Heartbeat CPU 0 instructions: 70000003 cycles: 36222212 heartbeat IPC: 0.906001 cumulative IPC: 0.899346 (Simulation time: 0 hr 10 min 38 sec) 
Cycle: 40000000 FTQ IN: 9106164 FTQ occupancy: 4.50519 DECODE IN: 9106159 DECODE occupancy: 8.84831 ROB IN: 9106165 ROB occupancy: 77.8294 ROB OUT: 9106212
Heartbeat CPU 0 instructions: 80000003 cycles: 47480748 heartbeat IPC: 0.888215 cumulative IPC: 0.895605 (Simulation time: 0 hr 11 min 55 sec) 
Cycle: 50000000 FTQ IN: 8833452 FTQ occupancy: 4.60487 DECODE IN: 8833461 DECODE occupancy: 9.03197 ROB IN: 8833415 ROB occupancy: 76.2263 ROB OUT: 8833370
Heartbeat CPU 0 instructions: 90000000 cycles: 58586507 heartbeat IPC: 0.900433 cumulative IPC: 0.896807 (Simulation time: 0 hr 13 min 9 sec) 
Cycle: 60000000 FTQ IN: 9037738 FTQ occupancy: 4.48877 DECODE IN: 9037720 DECODE occupancy: 8.76626 ROB IN: 9037766 ROB occupancy: 75.636 ROB OUT: 9037716
Heartbeat CPU 0 instructions: 100000001 cycles: 69747118 heartbeat IPC: 0.896008 cumulative IPC: 0.896647 (Simulation time: 0 hr 14 min 25 sec) 
Finished CPU 0 instructions: 50000001 cycles: 55763542 cumulative IPC: 0.896643 (Simulation time: 0 hr 14 min 25 sec) 

ChampSim completed all CPUs

Region of Interest Statistics

CPU 0 cumulative IPC: 0.896643 instructions: 50000001 cycles: 55763542
 Fetch stage stalled: 77.9786  Sim cycles: 55763542 fetch stall cycle: 43483610
 Empty decode stage: 67.5164  Sim cycles: 55763542 fetch stall cycle: 37649527
ITLB TOTAL     ACCESS:    5658243  HIT:    5164185  MISS:     494058  HIT %:    91.2683  MISS %:    8.73165   MPKI: 9.88116
ITLB LOAD TRANSLATION INSTRUCTION	ACCESS:    5570160  HIT:    5076102  MISS:     494058  HIT %:    91.1303  MISS %:    8.86973  MPKI: 9.88116
ITLB TRANSLATION FROM L1D PREFETCHER INSTRUCTION	ACCESS:      88083  HIT:      88083  MISS:          0  HIT %:        100  MISS %:          0  MPKI: 0

ITLB AVERAGE MISS LATENCY: 9.04572 cycles
ITLB RQ	ACCESS:    7236243	FORWARD:          0	MERGED:    1136861	TO_CACHE:    6099382

DTLB TOTAL     ACCESS:    9746311  HIT:    9271758  MISS:     474553  HIT %:    95.1309  MISS %:    4.86905   MPKI: 9.49106
DTLB LOAD TRANSLATION DATA	ACCESS:    9746311  HIT:    9271758  MISS:     474553  HIT %:    95.1309  MISS %:    4.86905  MPKI: 9.49106

DTLB AVERAGE MISS LATENCY: 9.309 cycles
DTLB RQ	ACCESS:   13922086	FORWARD:          0	MERGED:    4144563	TO_CACHE:    9777523

STLB TOTAL     ACCESS:    1218854  HIT:    1216811  MISS:       2043  HIT %:    99.8324  MISS %:   0.167616   MPKI: 0.04086
STLB LOAD TRANSLATION INSTRUCTION	ACCESS:     494058  HIT:     493807  MISS:        251  HIT %:    99.9492  MISS %:  0.0508038  MPKI: 0.00502
STLB LOAD TRANSLATION DATA	ACCESS:     474250  HIT:     472488  MISS:       1762  HIT %:    99.6285  MISS %:   0.371534  MPKI: 0.03524
STLB TRANSLATION FROM L1D PREFETCHER DATA	ACCESS:     250546  HIT:     250516  MISS:         30  HIT %:     99.988  MISS %:  0.0119738  MPKI: 0.0006

STLB AVERAGE MISS LATENCY: 73.1082 cycles
STLB RQ	ACCESS:    1340763	FORWARD:          0	MERGED:     121869	TO_CACHE:    1218894

STLB Hit, L1D data hit: 0
STLB Hit, L2C data hit: 0
STLB Hit, LLC data hit: 0
STLB Hit, LLC data miss: 0
STLB STLB hints to L2: 0
L1D TOTAL     ACCESS:   13702195  HIT:   12584602  MISS:    1117593  HIT %:    91.8437  MISS %:    8.15631   MPKI: 22.3519
L1D LOAD DATA	ACCESS:    7092516  HIT:    6358466  MISS:     734050  HIT %:    89.6504  MISS %:    10.3496  MPKI: 14.681
L1D RFO DATA	ACCESS:    6278423  HIT:    5990136  MISS:     288287  HIT %:    95.4083  MISS %:    4.59171  MPKI: 5.76574
L1D PREFETCH DATA	ACCESS:     331256  HIT:     236000  MISS:      95256  HIT %:     71.244  MISS %:     28.756  MPKI: 1.90512

L1D PREFETCH  REQUESTED:     744507  ISSUED:     744507  USEFUL:      34846  USELESS:      68100
L1D USEFUL LOAD PREFETCHES:      34846 PREFETCH ISSUED TO LOWER LEVEL:     103015  ACCURACY: 33.8261
 TIMELY PREFETCHES:      34846 LATE PREFETCHES: 7645 DROPPED PREFETCHES: 5
L1D AVERAGE MISS LATENCY: 297148 cycles
L1D RQ	ACCESS:   11112830	FORWARD:          0	MERGED:    3827945	TO_CACHE:    7121862
L1D WQ	ACCESS:    6950443	FORWARD:     163226	MERGED:     150219	TO_CACHE:    6800224
L1D PQ	ACCESS:     372355	FORWARD:          0	MERGED:          0	TO_CACHE:     372152

L1D UNIQUE REGIONS ACCESSED: 0
L1D REGIONS CONFLICTS: 0
L1D Cross Page Prefetch Requests: 6865
L1D Same Page Prefetch Requests: 752350
L1D ROI Sum of L1D PQ occupancy: 4719619
L1D PREFETCHES PUSHED FROM L2C: 0
L1I TOTAL     ACCESS:    6970843  HIT:    4206527  MISS:    2764316  HIT %:    60.3446  MISS %:    39.6554   MPKI: 55.2863
L1I LOAD INSTRUCTION	ACCESS:    6594926  HIT:    3830610  MISS:    2764316  HIT %:    58.0842  MISS %:    41.9158  MPKI: 55.2863
L1I PREFETCH INSTRUCTION	ACCESS:     375917  HIT:     375917  MISS:          0  HIT %:        100  MISS %:          0  MPKI: 0

L1I PREFETCH  REQUESTED:     726717  ISSUED:     726717  USEFUL:          0  USELESS:          0
L1I USEFUL LOAD PREFETCHES:          0 PREFETCH ISSUED TO LOWER LEVEL:          0  ACCURACY: -nan
 TIMELY PREFETCHES:          0 LATE PREFETCHES: 0 DROPPED PREFETCHES: 0
L1I AVERAGE MISS LATENCY: 16.8177 cycles
L1I RQ	ACCESS:    9444395	FORWARD:          0	MERGED:    2713660	TO_CACHE:    6730735
L1I PQ	ACCESS:     726717	FORWARD:          0	MERGED:     221209	TO_CACHE:     505508

L1BTB TOTAL     ACCESS:    5669524  HIT:    2040521  MISS:    3629003  HIT %:     35.991  MISS %:     64.009   MPKI: 72.5801
L1BTB BRANCH_DIRECT_JUMP	ACCESS:     548585  HIT:     144270  MISS:     404315	AVERAGE STALL: 30.0591
L1BTB BRANCH_INDIRECT	ACCESS:     182965  HIT:      66053  MISS:     116912	AVERAGE STALL: 74.8151
L1BTB BRANCH_CONDITIONAL	ACCESS:    2710035  HIT:    1416697  MISS:    1293338	AVERAGE STALL: 30.8012
L1BTB BRANCH_DIRECT_CALL	ACCESS:     942630  HIT:     104141  MISS:     838489	AVERAGE STALL: 32.1012
L1BTB BRANCH_INDIRECT_CALL	ACCESS:     171337  HIT:      20857  MISS:     150480	AVERAGE STALL: 94.9547
L1BTB BRANCH_RETURN	ACCESS:    1113972  HIT:     288503  MISS:     825469	AVERAGE STALL: 31.9787
L1BTB BRANCH_OTHER ACCESS:          0  HIT:          0  MISS:          0	AVERAGE STALL: -nan
L1BTB TOTAL ROB OCCUPANCY AT BTB MISS: 18.1509

L2BTB TOTAL     ACCESS:    3603545  HIT:    2569753  MISS:    1033792  HIT %:    71.3118  MISS %:    28.6882   MPKI: 20.6758
L2BTB BRANCH_DIRECT_JUMP	ACCESS:     400139  HIT:     283427  MISS:     116712	AVERAGE STALL: 30.0591
L2BTB BRANCH_INDIRECT	ACCESS:     106608  HIT:      93506  MISS:      13102	AVERAGE STALL: 74.8151
L2BTB BRANCH_CONDITIONAL	ACCESS:    1293338  HIT:     920835  MISS:     372503	AVERAGE STALL: 30.8012
L2BTB BRANCH_DIRECT_CALL	ACCESS:     838489  HIT:     570490  MISS:     267999	AVERAGE STALL: 32.1012
L2BTB BRANCH_INDIRECT_CALL	ACCESS:     140918  HIT:      92580  MISS:      48338	AVERAGE STALL: 94.9547
L2BTB BRANCH_RETURN	ACCESS:     824053  HIT:     608915  MISS:     215138	AVERAGE STALL: 31.9787
L2BTB BRANCH_OTHER ACCESS:          0  HIT:          0  MISS:          0	AVERAGE STALL: -nan
L2BTB TOTAL ROB OCCUPANCY AT BTB MISS: 63.7165

L2C TOTAL     ACCESS:    4483505  HIT:    4057821  MISS:     425684  HIT %:    90.5056  MISS %:    9.49445   MPKI: 8.51368
L2C LOAD INSTRUCTION	ACCESS:    2764316  HIT:    2538510  MISS:     225806  HIT %:    91.8314  MISS %:     8.1686  MPKI: 4.51612
L2C LOAD TRANSLATION INSTRUCTION	ACCESS:        285  HIT:         59  MISS:        226  HIT %:    20.7018  MISS %:    79.2982  MPKI: 0.00452
L2C LOAD DATA	ACCESS:     726380  HIT:     662030  MISS:      64350  HIT %:     91.141  MISS %:      8.859  MPKI: 1.287
L2C RFO DATA	ACCESS:     288155  HIT:     237237  MISS:      50918  HIT %:    82.3296  MISS %:    17.6704  MPKI: 1.01836
L2C PREFETCH DATA	ACCESS:     180229  HIT:     111010  MISS:      69219  HIT %:    61.5939  MISS %:    38.4061  MPKI: 1.38438
L2C WRITEBACK DATA	ACCESS:     522258  HIT:     508469  MISS:      13789  HIT %:    97.3597  MISS %:    2.64027  MPKI: 0.27578
L2C LOAD TRANSLATION DATA	ACCESS:       1829  HIT:        469  MISS:       1360  HIT %:    25.6424  MISS %:    74.3576  MPKI: 0.0272
L2C TRANSLATION FROM L1D PREFETCHER DATA	ACCESS:         53  HIT:         37  MISS:         16  HIT %:    69.8113  MISS %:    30.1887  MPKI: 0.00032

L2C PREFETCH  REQUESTED:      84378  ISSUED:      84378  USEFUL:       7355  USELESS:      61880
L2C USEFUL LOAD PREFETCHES:       7355 PREFETCH ISSUED TO LOWER LEVEL:      69714  ACCURACY: 10.5502
 TIMELY PREFETCHES:       7355 LATE PREFETCHES: 495 DROPPED PREFETCHES: 0
L2C AVERAGE MISS LATENCY: 40.1383 cycles
L2C RQ	ACCESS:    3781061	FORWARD:          0	MERGED:          0	TO_CACHE:    3781019
L2C WQ	ACCESS:     522258	FORWARD:         42	MERGED:          0	TO_CACHE:     522258
L2C PQ	ACCESS:     187393	FORWARD:          0	MERGED:       3459	TO_CACHE:     183934

L2C Dense regions hint from L2: 0
PSCL5 TOTAL     ACCESS:       4106  HIT:       2053  MISS:       2053  HIT %:         50  MISS %:         50   MPKI: 0.04106
PSCL5 LOAD TRANSLATION INSTRUCTION	ACCESS:       4000  HIT:       2000  MISS:       2000  HIT %:         50  MISS %:         50  MPKI: 0.04
PSCL5 TRANSLATION FROM L1D PREFETCHER INSTRUCTION	ACCESS:        106  HIT:         53  MISS:         53  HIT %:         50  MISS %:         50  MPKI: 0.00106


PSCL4 TOTAL     ACCESS:       3922  HIT:       1956  MISS:       1966  HIT %:    49.8725  MISS %:    50.1275   MPKI: 0.03932
PSCL4 LOAD TRANSLATION INSTRUCTION	ACCESS:       2352  HIT:       1911  MISS:        441  HIT %:      81.25  MISS %:      18.75  MPKI: 0.00882
PSCL4 TRANSLATION FROM L1D PREFETCHER INSTRUCTION	ACCESS:         49  HIT:         45  MISS:          4  HIT %:    91.8367  MISS %:    8.16327  MPKI: 8e-05
PSCL4 LOAD TRANSLATION DATA	ACCESS:       1480  HIT:          0  MISS:       1480  HIT %:          0  MISS %:        100  MPKI: 0.0296
PSCL4 TRANSLATION FROM L1D PREFETCHER DATA	ACCESS:         41  HIT:          0  MISS:         41  HIT %:          0  MISS %:        100  MPKI: 0.00082


PSCL3 TOTAL     ACCESS:       3992  HIT:       1991  MISS:       2001  HIT %:    49.8747  MISS %:    50.1253   MPKI: 0.04002
PSCL3 LOAD TRANSLATION INSTRUCTION	ACCESS:       2387  HIT:       1946  MISS:        441  HIT %:    81.5249  MISS %:    18.4751  MPKI: 0.00882
PSCL3 TRANSLATION FROM L1D PREFETCHER INSTRUCTION	ACCESS:         49  HIT:         45  MISS:          4  HIT %:    91.8367  MISS %:    8.16327  MPKI: 8e-05
PSCL3 LOAD TRANSLATION DATA	ACCESS:       1515  HIT:          0  MISS:       1515  HIT %:          0  MISS %:        100  MPKI: 0.0303
PSCL3 TRANSLATION FROM L1D PREFETCHER DATA	ACCESS:         41  HIT:          0  MISS:         41  HIT %:          0  MISS %:        100  MPKI: 0.00082


PSCL2 TOTAL     ACCESS:       4011  HIT:       1958  MISS:       2053  HIT %:    48.8158  MISS %:    51.1842   MPKI: 0.04106
PSCL2 LOAD TRANSLATION INSTRUCTION	ACCESS:       2156  HIT:       1905  MISS:        251  HIT %:    88.3581  MISS %:    11.6419  MPKI: 0.00502
PSCL2 TRANSLATION FROM L1D PREFETCHER INSTRUCTION	ACCESS:         53  HIT:         53  MISS:          0  HIT %:        100  MISS %:          0  MPKI: 0
PSCL2 LOAD TRANSLATION DATA	ACCESS:       1749  HIT:          0  MISS:       1749  HIT %:          0  MISS %:        100  MPKI: 0.03498
PSCL2 TRANSLATION FROM L1D PREFETCHER DATA	ACCESS:         53  HIT:          0  MISS:         53  HIT %:          0  MISS %:        100  MPKI: 0.00106


LLC TOTAL     ACCESS:     481958  HIT:     451957  MISS:      30001  HIT %:    93.7752  MISS %:    6.22482   MPKI: 0.60002
LLC LOAD INSTRUCTION	ACCESS:     225806  HIT:     224970  MISS:        836  HIT %:    99.6298  MISS %:   0.370229  MPKI: 0.01672
LLC LOAD TRANSLATION INSTRUCTION	ACCESS:        226  HIT:        185  MISS:         41  HIT %:    81.8584  MISS %:    18.1416  MPKI: 0.00082
LLC LOAD DATA	ACCESS:      63871  HIT:      60372  MISS:       3499  HIT %:    94.5218  MISS %:    5.47823  MPKI: 0.06998
LLC RFO DATA	ACCESS:      50900  HIT:      35457  MISS:      15443  HIT %:    69.6601  MISS %:    30.3399  MPKI: 0.30886
LLC PREFETCH DATA	ACCESS:      69714  HIT:      59993  MISS:       9721  HIT %:    86.0559  MISS %:    13.9441  MPKI: 0.19442
LLC WRITEBACK DATA	ACCESS:      70065  HIT:      69676  MISS:        389  HIT %:    99.4448  MISS %:   0.555199  MPKI: 0.00778
LLC LOAD TRANSLATION DATA	ACCESS:       1360  HIT:       1288  MISS:         72  HIT %:    94.7059  MISS %:    5.29412  MPKI: 0.00144
LLC TRANSLATION FROM L1D PREFETCHER DATA	ACCESS:         16  HIT:         16  MISS:          0  HIT %:        100  MISS %:          0  MPKI: 0

LLC AVERAGE MISS LATENCY: 156.391 cycles
LLC RQ	ACCESS:     342181	FORWARD:          0	MERGED:          0	TO_CACHE:     342179
LLC WQ	ACCESS:      70065	FORWARD:          2	MERGED:          0	TO_CACHE:      70065
LLC PQ	ACCESS:      69714	FORWARD:          0	MERGED:          0	TO_CACHE:      69714

LLC Dense regions hint to LLC: 0

RAW hits: 1527715
Loads Generated: 12640543
Loads sent to L1D: 11112830
Stores Generated: 6950429
Stores sent to L1D: 6950443
Major fault: 0 Minor fault: 2546
Allocated PAGES: 2546

stream: 
stream:times selected: 1186721
stream:pref_filled: 122523
stream:pref_useful: 24691
stream:pref_late: 6715
stream:misses: 8066
stream:misses_by_poll: 0

CS: 
CS:times selected: 178268
CS:pref_filled: 60246
CS:pref_useful: 36632
CS:pref_late: 6842
CS:misses: 16682
CS:misses_by_poll: 4

CPLX: 
CPLX:times selected: 1007373
CPLX:pref_filled: 19867
CPLX:pref_useful: 4695
CPLX:pref_late: 3071
CPLX:misses: 92551
CPLX:misses_by_poll: 0

NL_L1: 
NL:times selected: 21006
NL:pref_filled: 751
NL:pref_useful: 380
NL:pref_late: 287
NL:misses: 1839
NL:misses_by_poll: 0

total selections: 2393368
total_filled: 95256
total_useful: 34846
total_late: 18219
total_polluted: 4
total_misses_after_warmup: 763398
conflicts: 5779178

test: 117552

DRAM Statistics
 CHANNEL 0
 RQ ROW_BUFFER_HIT:      11161  ROW_BUFFER_MISS:      18426
 DBUS_CONGESTED:         10
 WQ ROW_BUFFER_HIT:       1475  ROW_BUFFER_MISS:      12686  FULL:          0

 AVG_CONGESTED_CYCLE: 5

CPU 0 Branch Prediction Accuracy: 99.8245% MPKI: 0.32086 Average ROB Occupancy at Mispredict: 100.796
Branch types
NOT_BRANCH: 40858197 81.7164%
BRANCH_DIRECT_JUMP: 548585 1.09717%
BRANCH_INDIRECT: 182965 0.36593%
BRANCH_CONDITIONAL: 6181800 12.3636%
BRANCH_DIRECT_CALL: 942630 1.88526%
BRANCH_INDIRECT_CALL: 171337 0.342674%
BRANCH_RETURN: 1113972 2.22794%
BRANCH_OTHER: 0 0%

DRAM PAGES: 1048576
Allocated PAGES: 2546
Average_ROB_Occupancy: 77.5811
Average_Decode_Occupancy: 8.98266
Average_FTQ_Occupancy: 4.56677
Indirect max targets: 14 Average targets: 1.14966
Branch_type:  BRANCH_DIRECT_JUMP:  Count Percentage: 2.90189 6.71547 4.01452 9.10765 1.69595 5.97481 1.21899 68.3707 
Branch_type:  BRANCH_INDIRECT:  Count Percentage: 11.769 3.45274 2.54579 0 1.33799 9.66651 5.88967 65.3383 
Branch_type:  BRANCH_CONDITIONAL:  Count Percentage: 21.0906 3.22782 1.77466 5.43711 1.15973 9.03278 5.10134 53.1759 
Branch_type:  BRANCH_DIRECT_CALL:  Count Percentage: 0.259584 1.77361 1.43084 4.70999 2.16542 2.99894 0.705796 85.9558 
Branch_type:  BRANCH_INDIRECT_CALL:  Count Percentage: 9.55558 0 2.99514 8.70266 0 2.6605 1.28405 74.8021 
Branch_type:  BRANCH_RETURN:  Count Percentage: 3.90658 1.38012 1.41195 6.33895 2.79835 9.28713 5.47683 69.4001 
Branch_type:  BRANCH_DIRECT_JUMP:  Total Count: 31814 73623 44012 99849 18593 65503 13364 749562 
Branch_type:  BRANCH_INDIRECT:  Total Count: 43030 12624 9308 0 4892 35343 21534 238892 
Branch_type:  BRANCH_CONDITIONAL:  Total Count: 2606333 398887 219309 671906 143317 1116252 630413 6571370 
Branch_type:  BRANCH_DIRECT_CALL:  Total Count: 4896 33452 26987 88835 40842 56563 13312 1621211 
Branch_type:  BRANCH_INDIRECT_CALL:  Total Count: 32781 0 10275 29855 0 9127 4405 256613 
Branch_type:  BRANCH_RETURN:  Total Count: 87115 30776 31486 141356 62402 207099 122131 1547593 
Number of unique branch instructions: 9917
Upper 32 bits: 
aaaa
ffff
ffff0000
Unique upper 32 bits: 3
Unique upper 36 bits: 3
Unique upper 40 bits: 5
Unique upper 44 bits: 32
Unique upper 48 bits: 154
Offset_3 4073
Offset_4 249
Offset_5 451
Offset_6 503
Offset_7 585
Offset_8 509
Offset_9 468
Offset_10 385
Offset_11 315
Offset_12 288
Offset_13 201
Offset_14 230
Offset_15 189
Offset_16 223
Offset_17 143
Offset_18 126
Offset_19 240
Offset_20 142
Offset_21 235
Offset_22 392
Offset_23 241
Offset_24 327
Offset_25 88
Offset_47 80
decode_dispatch_called: 20152707 36.1396
Dispatch_width: 0 9925054 49.2492 17.7985
Dispatch_width: 1 596235 2.95859 1.06922
Dispatch_width: 2 821647 4.0771 1.47345
Dispatch_width: 3 560933 2.78341 1.00591
Dispatch_width: 4 1496638 7.42649 2.6839
Dispatch_width: 5 422430 2.09615 0.757538
Dispatch_width: 6 6329770 31.409 11.3511
Empty_decode_cycles: 35610835 63.8604
ROB_full_cycles: 1511465 2.71049
Starvation_cycles_per_kilo_instr: 479.223
Starvation_cycles_per_kilo_instr_3: 460.032
Starvation_cycles_per_kilo_instr_0: 440.244
Branch_type_1  (3,1)  (4,9)  (5,37)  (6,69)  (7,114)  (8,127)  (9,123)  (10,98)  (11,70)  (12,51)  (13,5)  (14,2)  (15,3)  (16,4)  (18,1)  (19,4)  (20,2)  (21,1)  (22,3)  (23,2)  (24,10)  (25,12) 
Branch_type_2  (3,1)  (5,1)  (8,3)  (9,3)  (12,1)  (13,1)  (14,1)  (16,3)  (17,2)  (20,2)  (21,2)  (23,5)  (24,1)  (47,36) 
Branch_type_3  (3,4071)  (4,240)  (5,409)  (6,418)  (7,439)  (8,317)  (9,256)  (10,156)  (11,130)  (12,58)  (13,4) 
Branch_type_4  (6,4)  (7,8)  (8,26)  (9,54)  (10,62)  (11,59)  (12,99)  (13,87)  (14,102)  (15,89)  (16,100)  (17,64)  (18,57)  (19,116)  (20,74)  (21,124)  (22,209)  (23,136)  (24,188)  (25,72) 
Branch_type_5  (8,2)  (9,1)  (10,3)  (11,5)  (12,3)  (13,14)  (14,16)  (15,11)  (16,20)  (17,11)  (18,16)  (19,12)  (20,10)  (21,13)  (22,42)  (23,26)  (24,37) 
Branch_type_6  (5,4)  (6,12)  (7,24)  (8,34)  (9,31)  (10,66)  (11,51)  (12,76)  (13,90)  (14,109)  (15,86)  (16,96)  (17,66)  (18,52)  (19,108)  (20,54)  (21,95)  (22,138)  (23,72)  (24,91)  (25,4)  (47,44) 
Unique trigger count: 
BTB PER SET UNIQUE ADDR: 22 25 20 25 26 25 17 24 12 26 19 29 25 20 22 17 20 21 22 27 23 18 23 26 17 24 25 25 24 21 22 24 27 15 17 22 22 25 17 19 21 22 24 29 20 15 26 16 24 22 29 20 23 27 20 11 19 18 17 26 23 31 23 23 23 25 23 16 28 24 21 20 28 19 18 13 14 24 18 32 25 15 22 29 27 22 26 22 16 41 19 15 25 20 14 26 19 20 29 27 35 31 24 19 24 19 22 24 13 17 20 32 24 19 21 14 27 25 23 22 25 17 20 14 24 21 12 24 31 20 19 29 21 30 20 29 14 27 21 33 19 29 21 23 24 23 27 19 17 22 24 26 19 22 17 30 27 28 27 26 26 22 27 26 21 25 27 17 27 18 21 27 24 24 24 21 23 22 22 26 19 23 19 28 35 30 17 25 27 19 24 19 16 30 25 16 17 22 22 24 28 25 19 19 18 22 22 23 20 24 21 27 21 20 24 24 21 26 18 37 13 26 16 22 19 25 30 26 18 31 22 13 23 28 23 29 29 20 20 17 23 23 30 27 20 20 21 21 24 22 28 25 23 18 26 26 19 16 18 21 25 18 10 21 21 13 19 19 19 21 21 23 19 14 16 17 24 27 22 22 16 25 18 17 25 18 19 33 32 27 25 18 25 27 16 28 23 26 24 24 21 20 20 35 22 28 26 21 31 24 22 27 21 35 28 15 29 21 22 29 21 27 16 22 28 27 24 18 21 17 21 30 19 20 23 24 19 19 17 37 25 24 16 26 27 27 19 23 21 23 25 21 27 24 22 28 24 26 18 17 18 30 21 31 22 26 13 22 28 21 24 17 23 26 16 30 23 27 21 25 23 21 18 16 19 22 28 28 27 24 30 13 28 30 16 17 21 18 29 23 21 25 22 24 27 28 25 26 24 23 25 18 17 28 20 21 21 31 37 30 18 25 24 27 28 19 25 20 26 21 28 22 19 22 29 27 25 20 21 25 25 21 17 30 30 20 15 26 28 26 27 37 26 18 27 30 26 28 18 30 17 22 19 28 34 20 23 25 27 26 24 28 26 23 24 35 27 33 16 25 34 27 20 24 17 25 35 30 28 22 19 25 18 18 18 20 26 25 22 26 20 29 18 34 21 20 18 30 29 26 23 33 24 21 20 26 22 30 19 17 16 22 26 14 24 31 36 14 16 32 27 22 25 24 25 29 21 25 27 24 28 19 28 26 27 31 15 26 18 23 24 31 25 23 19 22 23 24 29 24 21 34 21 23 23 30 23 28 24 29 28 26 30 35 23 28 28 29 21 23 27 25 15 25 24 25 20 24 34 29 20 22 24 16 27 18 15 22 24 21 25 22 22 13 23 24 33 20 22 24 31 27 21 16 11 30 16 27 21 25 28 24 19 20 20 32 20 29 17 26 21 29 31 24 22 21 26 29 23 26 22 25 27 34 27 27 21 25 35 18 16 25 18 20 30 23 24 22 26 23 23 16 26 30 22 26 18 21 20 20 26 21 20 25 33 21 25 26 28 31 23 29 22 27 27 21 21 23 25 28 23 24 22 14 16 21 17 26 19 26 14 25 26 34 13 28 21 18 18 13 22 24 17 22 18 19 33 26 18 28 25 24 20 20 19 22 24 23 21 20 25 21 22 22 24 24 24 31 34 20 20 18 23 24 33 30 22 21 22 18 23 20 24 24 18 21 31 21 20 18 25 15 14 23 24 27 17 24 23 27 23 29 19 18 24 18 27 21 23 26 14 26 21 20 23 21 19 24 20 14 19 14 27 27 21 31 20 18 26 23 34 25 32 28 33 21 23 22 24 21 20 35 30 29 19 27 36 31 12 28 24 30 17 27 27 21 21 26 24 26 22 30 27 22 18 27 25 24 24 22 27 23 22 24 25 27 19 36 21 28 24 20 18 20 29 30 31 27 26 27 25 23 19 26 28 17 23 19 30 18 19 29 25 22 24 12 20 21 19 23 28 15 20 29 26 24 31 23 24 21 25 18 22 20 20 28 32 22 20 18 23 20 23 25 14 28 21 27 22 31 20 23 22 24 25 26 34 22 23 26 24 25 19 26 22 20 13 29 18 16 28 31 27 18 22 31 21 21 25 27 17 31 24 21 21 24 23 29 23 27 23 23 18 25 21 25 26 22 28 25 24 24 23 33 29 22 29 24 19 26 24 28 27 22 27 20 33 32 29 32 18 29 26 23 21 31 37 17 27 21 27 26 24 22 23 20 21 22 30 22 31 29 20 23 27 27 17 31 21 26 27 26 25 17 20 23 13 21 10 15 19 29 23 15 
BTB PER SET COUNT: 2312 2499 2800 2120 2797 2034 1877 1830 1627 2191 1229 2612 12121 1853 1907 1138 2137 2370 1733 2267 1858 1694 2223 2240 1103 1927 2104 2035 2154 1871 1850 2527 2087 882 1288 1935 1993 2442 1143 2416 1625 1662 2444 2388 1860 749 2118 1444 2166 1828 2430 1453 1963 2255 1752 952 1506 1512 1470 2101 1758 3080 2028 1969 2459 2262 1721 1560 2276 1945 2566 2084 2575 1440 1265 862 862 2174 1488 2689 2482 1092 1903 2578 2152 1791 2218 2110 1737 3886 1468 1504 2195 1838 746 2177 1567 1540 2223 3709 3723 2734 2174 1691 3575 1418 1764 2327 1588 3176 1811 2697 2381 1563 1737 1115 2093 2495 2540 2010 2324 1378 1733 1115 1780 1620 726 2776 3400 1785 1321 3268 1509 2480 1677 2276 1360 2262 1777 2792 1679 2289 1774 1778 1943 1851 2661 1531 1074 1763 1794 2052 1365 1658 944 2990 2796 2274 2313 2489 2099 1789 2632 2251 1685 2171 1874 1377 2291 1692 1565 2353 2001 1916 2205 1957 1811 1644 1695 2538 1546 2054 1830 2225 2825 3240 1028 2065 2383 2223 1634 1341 1175 2606 2141 1281 1258 1910 1645 1553 2133 2034 1826 1509 1160 2017 1721 1860 1830 2422 1577 2215 1290 3829 1936 2252 1590 2389 1646 3562 1076 2190 1402 1615 1605 2179 2717 2290 1427 3375 1611 642 1801 2238 1426 6273 2284 1633 2193 1167 1980 2002 2888 2733 1791 1948 1350 1811 2151 1546 1804 2021 2040 1592 2122 2427 1557 1384 1403 1669 2240 1422 311 1813 2051 799 1808 1551 2345 1821 1564 1832 1135 840 1506 1256 2044 2366 1888 1914 1007 2302 1462 1776 2047 1542 1333 2732 3030 2449 2029 1167 1868 2532 1144 2898 2353 2110 1774 2306 1576 1503 1942 3011 1949 2702 1927 1788 2832 2271 2589 2198 1377 3156 3049 1369 2616 1700 1700 2714 1559 3099 1075 1620 2724 2457 2324 1377 1657 1058 1660 2816 1248 1458 1898 1785 1363 1789 1092 3471 2058 2819 1200 2084 2480 1910 1457 1767 1805 1961 2303 1839 2424 1840 1686 2593 2091 2596 1535 1363 1287 2946 1479 2869 1895 3005 728 1685 1883 1598 2062 1270 2372 2262 1184 2750 1961 2453 1764 2369 2311 2062 1571 925 1176 1779 2958 2313 2036 2140 2088 968 2237 2361 1421 1231 1407 1471 2985 2110 1614 2036 2203 1626 2183 2289 2159 2204 1483 2135 2093 1391 1486 2638 1605 1862 1747 4360 3420 2622 1339 2108 2327 1974 2495 1722 2630 1405 1674 1927 2673 1990 1420 1632 2682 2307 1856 1573 1812 1870 2795 1449 1359 2789 3020 1918 1361 2064 2355 1820 2505 4017 1835 1699 2570 3175 1995 2656 1371 2161 1331 1853 1534 2359 2932 1928 7007 1893 2675 2195 2023 2098 1981 1827 2014 3004 1845 3229 1281 1902 2688 2429 1679 2233 1462 1837 3288 2558 2654 1953 1670 2197 4634 1154 1006 1782 2703 2670 1610 2259 1492 2862 1345 3354 1463 1292 1225 2803 2759 2017 1939 3312 2741 2510 1765 2554 1428 2769 1218 1411 893 1991 2202 1174 1922 3019 3574 2083 1071 4162 3054 2181 1893 1809 2363 2379 2296 2272 2114 1952 2342 1569 2416 2053 2229 2809 972 2231 1177 2331 1804 2796 2293 2160 1474 1481 1989 1934 2360 2251 1294 2988 1651 2016 2188 2738 1776 2328 1808 2697 2691 2302 3088 2915 2004 2739 2545 2630 1727 1944 2437 2258 1046 3136 2043 2241 1816 2171 3070 2754 1986 1778 2416 1036 1785 1371 1886 2328 1869 1530 1388 1881 1843 1043 2120 2129 2612 2098 1379 1735 3027 2621 2243 1086 779 2629 995 2419 2226 2387 2810 1869 1135 1501 1544 3006 1582 2873 2292 1994 1663 3040 3112 1793 1796 1805 2277 2505 1678 2396 2122 2152 2531 2686 3064 2350 1441 2324 3661 1189 1112 2310 1225 1806 3265 2009 1584 1752 2232 1990 2204 732 2331 2792 6804 2464 1335 1949 2184 1668 1801 1844 1441 2186 2978 2035 2001 2646 2349 2992 2045 2743 1902 2281 2735 2114 1745 2017 2363 2439 1729 2461 2162 982 1425 1669 1649 2408 1610 1871 1415 2404 2502 2890 825 2326 1847 1482 1253 1128 2034 2073 1122 1932 1789 1536 3178 2212 1539 2630 2240 2341 1601 1907 1729 1585 1773 2321 1804 1898 2157 5414 1715 1753 1863 2135 2293 3096 3677 1740 1817 1408 1941 2272 2971 2643 2330 1750 1912 1607 2627 1527 2700 2126 1298 1934 2538 2315 1743 1131 2213 1029 772 1778 2598 2956 1355 2116 1249 2199 1812 2435 1743 1473 2154 1393 2315 1820 1518 2646 1741 2241 1957 1788 1957 1967 1416 2185 1547 1086 1286 1429 2142 2451 1694 2844 1740 1402 1685 2150 3237 2029 2587 2362 2881 1581 1800 1961 1773 1611 1545 5335 2739 2392 1844 2952 2833 2927 1087 2756 1907 2840 1280 2318 2816 1915 1500 2038 2178 2599 2128 2920 2168 2063 1265 2841 2013 1880 2424 1806 2276 2093 2072 1963 2177 2093 1678 3356 1512 5380 2520 1880 1530 1633 2768 2544 2891 2341 2597 2079 2644 1996 1709 2019 2730 1186 1757 1024 2852 1501 1587 2779 2276 1580 1854 936 1686 1975 2589 1958 2125 921 1426 2766 2308 2371 2434 1902 1873 1963 2291 1210 3024 2516 1461 2647 2882 1768 1662 1543 2150 1795 1851 2270 819 2270 1558 2824 1826 2799 1789 1901 1923 2401 2491 2561 3527 2083 2023 2078 2015 2223 1376 2311 1402 1684 715 2603 1279 1172 2306 2759 3061 1499 1741 3287 1985 1691 2410 2328 1244 3227 2059 1500 1948 2034 1923 2428 2140 2306 2189 2418 1840 3596 1567 2064 2285 1717 2055 2296 2156 2122 1761 2709 2512 1491 2823 2171 1473 2215 1996 2801 2386 1768 2742 1477 3331 2355 2688 3331 1931 2315 2308 2134 1524 3269 4097 1465 2459 2163 2205 2677 1855 1885 2416 1829 1468 3174 2356 2198 2570 3077 1651 1684 2244 2167 1472 3171 1747 2477 2480 2374 2289 1347 1372 1903 964 1689 557 1179 1611 2955 2062 1096 
