
*** ChampSim Multicore Out-of-Order Simulator ***

Warmup Instructions: 50000000
Simulation Instructions: 50000000
Number of CPUs: 1
LLC sets: 2048
LLC ways: 16
Off-chip DRAM Size: 4096 MB Channels: 1 Width: 64-bit Data Rate: 6400 MT/s
CPU 0 runs ./micro_traces/srv554.trace.gz
.gz
ITLB has LRU replacement policy
DTLB has LRU replacement policy
STLB has LRU replacement policy
FDIP Prefetcher at L1I
L1I has LRU replacement policy
L1D has LRU replacement policy
Initialize SRRIP state for L2C
Initialize DRRIP state for LLC
Heartbeat_Variant_0 : 1387 0.169312 per_variant_size: 0 1387 0 0 0 0 0 0 0 
Heartbeat_Variant_1 : 1450 0.177002 per_variant_size: 0 950 500 0 0 0 0 0 0 
Heartbeat_Variant_2 : 1543 0.188354 per_variant_size: 0 807 475 222 39 0 0 0 0 
Heartbeat_Variant_3 : 0 0 per_variant_size: 0 0 0 0 0 0 0 0 0 
Heartbeat_Variant_0_evicts 0 : 7337 1 : 634 2 : 1643 3 : 0 
Heartbeat_Variant_1_evicts 0 : 735 1 : 0 2 : 656 3 : 0 
Heartbeat_Variant_2_evicts 0 : 1415 1 : 600 2 : 0 3 : 0 
Heartbeat_Variant_3_evicts 0 : 0 1 : 0 2 : 0 3 : 0 
Heartbeat CPU 0 instructions: 10000001 cycles: 2796985 heartbeat IPC: 3.57528 cumulative IPC: 3.57528 (Simulation time: 0 hr 2 min 0 sec) 
Heartbeat_Variant_0 : 1388 0.169434 per_variant_size: 0 1388 0 0 0 0 0 0 0 
Heartbeat_Variant_1 : 1449 0.17688 per_variant_size: 0 949 500 0 0 0 0 0 0 
Heartbeat_Variant_2 : 1544 0.188477 per_variant_size: 0 807 475 222 40 0 0 0 0 
Heartbeat_Variant_3 : 0 0 per_variant_size: 0 0 0 0 0 0 0 0 0 
Heartbeat_Variant_0_evicts 0 : 7416 1 : 612 2 : 1566 3 : 0 
Heartbeat_Variant_1_evicts 0 : 770 1 : 0 2 : 458 3 : 0 
Heartbeat_Variant_2_evicts 0 : 1407 1 : 618 2 : 0 3 : 0 
Heartbeat_Variant_3_evicts 0 : 0 1 : 0 2 : 0 3 : 0 
Heartbeat CPU 0 instructions: 20000001 cycles: 5594395 heartbeat IPC: 3.57474 cumulative IPC: 3.57501 (Simulation time: 0 hr 3 min 37 sec) 
Heartbeat_Variant_0 : 1382 0.168701 per_variant_size: 0 1382 0 0 0 0 0 0 0 
Heartbeat_Variant_1 : 1454 0.17749 per_variant_size: 0 949 505 0 0 0 0 0 0 
Heartbeat_Variant_2 : 1550 0.189209 per_variant_size: 0 806 479 224 41 0 0 0 0 
Heartbeat_Variant_3 : 0 0 per_variant_size: 0 0 0 0 0 0 0 0 0 
Heartbeat_Variant_0_evicts 0 : 7380 1 : 619 2 : 1561 3 : 0 
Heartbeat_Variant_1_evicts 0 : 776 1 : 0 2 : 463 3 : 0 
Heartbeat_Variant_2_evicts 0 : 1410 1 : 619 2 : 0 3 : 0 
Heartbeat_Variant_3_evicts 0 : 0 1 : 0 2 : 0 3 : 0 
Heartbeat CPU 0 instructions: 30000000 cycles: 8392149 heartbeat IPC: 3.5743 cumulative IPC: 3.57477 (Simulation time: 0 hr 5 min 7 sec) 
Heartbeat_Variant_0 : 1405 0.171509 per_variant_size: 0 1405 0 0 0 0 0 0 0 
Heartbeat_Variant_1 : 1502 0.18335 per_variant_size: 0 975 527 0 0 0 0 0 0 
Heartbeat_Variant_2 : 1562 0.190674 per_variant_size: 0 785 493 240 44 0 0 0 0 
Heartbeat_Variant_3 : 0 0 per_variant_size: 0 0 0 0 0 0 0 0 0 
Heartbeat_Variant_0_evicts 0 : 7293 1 : 636 2 : 1548 3 : 0 
Heartbeat_Variant_1_evicts 0 : 793 1 : 0 2 : 469 3 : 0 
Heartbeat_Variant_2_evicts 0 : 1390 1 : 610 2 : 0 3 : 0 
Heartbeat_Variant_3_evicts 0 : 0 1 : 0 2 : 0 3 : 0 
Heartbeat CPU 0 instructions: 40000002 cycles: 11189315 heartbeat IPC: 3.57505 cumulative IPC: 3.57484 (Simulation time: 0 hr 6 min 43 sec) 
Heartbeat_Variant_0 : 1413 0.172485 per_variant_size: 0 1413 0 0 0 0 0 0 0 
Heartbeat_Variant_1 : 1497 0.182739 per_variant_size: 0 967 530 0 0 0 0 0 0 
Heartbeat_Variant_2 : 1562 0.190674 per_variant_size: 0 783 492 242 45 0 0 0 0 
Heartbeat_Variant_3 : 0 0 per_variant_size: 0 0 0 0 0 0 0 0 0 
Heartbeat_Variant_0_evicts 0 : 7359 1 : 638 2 : 1552 3 : 0 
Heartbeat_Variant_1_evicts 0 : 789 1 : 0 2 : 453 3 : 0 
Heartbeat_Variant_2_evicts 0 : 1393 1 : 610 2 : 0 3 : 0 
Heartbeat_Variant_3_evicts 0 : 0 1 : 0 2 : 0 3 : 0 
Heartbeat CPU 0 instructions: 50000000 cycles: 13986522 heartbeat IPC: 3.57499 cumulative IPC: 3.57487 (Simulation time: 0 hr 8 min 29 sec) 

Warmup complete CPU 0 instructions: 50000003 cycles: 13986523 (Simulation time: 0 hr 8 min 29 sec) 

Cycle: 20000000 FTQ IN: 58083774 FTQ occupancy: 19.1783 DECODE IN: 58083747 DECODE occupancy: 49.6595 ROB IN: 58083732 ROB occupancy: 304.922 ROB OUT: 58083710
Heartbeat_Variant_0 : 1411 0.172241 per_variant_size: 0 1411 0 0 0 0 0 0 0 
Heartbeat_Variant_1 : 1501 0.183228 per_variant_size: 0 972 529 0 0 0 0 0 0 
Heartbeat_Variant_2 : 1566 0.191162 per_variant_size: 0 782 497 244 43 0 0 0 0 
Heartbeat_Variant_3 : 0 0 per_variant_size: 0 0 0 0 0 0 0 0 0 
Heartbeat_Variant_0_evicts 0 : 7393 1 : 547 2 : 1488 3 : 0 
Heartbeat_Variant_1_evicts 0 : 708 1 : 0 2 : 390 3 : 0 
Heartbeat_Variant_2_evicts 0 : 1331 1 : 549 2 : 0 3 : 0 
Heartbeat_Variant_3_evicts 0 : 0 1 : 0 2 : 0 3 : 0 
Heartbeat CPU 0 instructions: 60000001 cycles: 21417555 heartbeat IPC: 1.34571 cumulative IPC: 1.34571 (Simulation time: 0 hr 10 min 10 sec) 
Heartbeat_Variant_0 : 1408 0.171875 per_variant_size: 0 1408 0 0 0 0 0 0 0 
Heartbeat_Variant_1 : 1503 0.183472 per_variant_size: 0 973 530 0 0 0 0 0 0 
Heartbeat_Variant_2 : 1569 0.191528 per_variant_size: 0 783 499 244 43 0 0 0 0 
Heartbeat_Variant_3 : 0 0 per_variant_size: 0 0 0 0 0 0 0 0 0 
Heartbeat_Variant_0_evicts 0 : 7381 1 : 510 2 : 1504 3 : 0 
Heartbeat_Variant_1_evicts 0 : 671 1 : 0 2 : 362 3 : 0 
Heartbeat_Variant_2_evicts 0 : 1346 1 : 521 2 : 0 3 : 0 
Heartbeat_Variant_3_evicts 0 : 0 1 : 0 2 : 0 3 : 0 
Heartbeat CPU 0 instructions: 70000002 cycles: 28914368 heartbeat IPC: 1.3339 cumulative IPC: 1.33978 (Simulation time: 0 hr 11 min 51 sec) 
Cycle: 30000000 FTQ IN: 13386732 FTQ occupancy: 10.5408 DECODE IN: 13386616 DECODE occupancy: 25.808 ROB IN: 13386571 ROB occupancy: 202.938 ROB OUT: 13386241
Heartbeat_Variant_0 : 1415 0.172729 per_variant_size: 0 1415 0 0 0 0 0 0 0 
Heartbeat_Variant_1 : 1509 0.184204 per_variant_size: 0 977 532 0 0 0 0 0 0 
Heartbeat_Variant_2 : 1568 0.191406 per_variant_size: 0 778 502 244 44 0 0 0 0 
Heartbeat_Variant_3 : 0 0 per_variant_size: 0 0 0 0 0 0 0 0 0 
Heartbeat_Variant_0_evicts 0 : 7309 1 : 511 2 : 1478 3 : 0 
Heartbeat_Variant_1_evicts 0 : 666 1 : 0 2 : 353 3 : 0 
Heartbeat_Variant_2_evicts 0 : 1317 1 : 509 2 : 0 3 : 0 
Heartbeat_Variant_3_evicts 0 : 0 1 : 0 2 : 0 3 : 0 
Heartbeat CPU 0 instructions: 80000003 cycles: 36308195 heartbeat IPC: 1.35248 cumulative IPC: 1.34399 (Simulation time: 0 hr 13 min 30 sec) 
Cycle: 40000000 FTQ IN: 13383359 FTQ occupancy: 10.5616 DECODE IN: 13383502 DECODE occupancy: 26.0155 ROB IN: 13383562 ROB occupancy: 204.358 ROB OUT: 13383794
Heartbeat_Variant_0 : 1412 0.172363 per_variant_size: 0 1412 0 0 0 0 0 0 0 
Heartbeat_Variant_1 : 1511 0.184448 per_variant_size: 0 979 532 0 0 0 0 0 0 
Heartbeat_Variant_2 : 1571 0.191772 per_variant_size: 0 783 499 245 44 0 0 0 0 
Heartbeat_Variant_3 : 0 0 per_variant_size: 0 0 0 0 0 0 0 0 0 
Heartbeat_Variant_0_evicts 0 : 7399 1 : 513 2 : 1514 3 : 0 
Heartbeat_Variant_1_evicts 0 : 717 1 : 0 2 : 357 3 : 0 
Heartbeat_Variant_2_evicts 0 : 1313 1 : 559 2 : 0 3 : 0 
Heartbeat_Variant_3_evicts 0 : 0 1 : 0 2 : 0 3 : 0 
Heartbeat CPU 0 instructions: 90000000 cycles: 43816858 heartbeat IPC: 1.33179 cumulative IPC: 1.34092 (Simulation time: 0 hr 15 min 11 sec) 
Cycle: 50000000 FTQ IN: 13500019 FTQ occupancy: 10.373 DECODE IN: 13499952 DECODE occupancy: 25.6348 ROB IN: 13499952 ROB occupancy: 202.954 ROB OUT: 13500054
Heartbeat_Variant_0 : 1411 0.172241 per_variant_size: 0 1411 0 0 0 0 0 0 0 
Heartbeat_Variant_1 : 1512 0.18457 per_variant_size: 0 979 533 0 0 0 0 0 0 
Heartbeat_Variant_2 : 1571 0.191772 per_variant_size: 0 777 506 244 44 0 0 0 0 
Heartbeat_Variant_3 : 0 0 per_variant_size: 0 0 0 0 0 0 0 0 0 
Heartbeat_Variant_0_evicts 0 : 7332 1 : 509 2 : 1525 3 : 0 
Heartbeat_Variant_1_evicts 0 : 714 1 : 0 2 : 358 3 : 0 
Heartbeat_Variant_2_evicts 0 : 1321 1 : 562 2 : 0 3 : 0 
Heartbeat_Variant_3_evicts 0 : 0 1 : 0 2 : 0 3 : 0 
Heartbeat CPU 0 instructions: 100000001 cycles: 51212930 heartbeat IPC: 1.35207 cumulative IPC: 1.34313 (Simulation time: 0 hr 17 min 3 sec) 
Finished CPU 0 instructions: 50000002 cycles: 37226408 cumulative IPC: 1.34313 (Simulation time: 0 hr 17 min 3 sec) 

ChampSim completed all CPUs

Region of Interest Statistics

CPU 0 cumulative IPC: 1.34313 instructions: 50000002 cycles: 37226408
 Fetch stage stalled: 60.6562  Sim cycles: 37226408 fetch stall cycle: 22580135
 Empty decode stage: 47.9241  Sim cycles: 37226408 fetch stall cycle: 17840435
ITLB TOTAL     ACCESS:    5801329  HIT:    5304370  MISS:     496959  HIT %:    91.4337  MISS %:     8.5663   MPKI: 9.93918
ITLB LOAD TRANSLATION INSTRUCTION	ACCESS:    5684417  HIT:    5187458  MISS:     496959  HIT %:    91.2575  MISS %:    8.74248  MPKI: 9.93918
ITLB TRANSLATION FROM L1D PREFETCHER INSTRUCTION	ACCESS:     116912  HIT:     116912  MISS:          0  HIT %:        100  MISS %:          0  MPKI: 0

ITLB AVERAGE MISS LATENCY: 9.0638 cycles
ITLB RQ	ACCESS:    7893100	FORWARD:          0	MERGED:    1640150	TO_CACHE:    6252950

DTLB TOTAL     ACCESS:    9022367  HIT:    8546135  MISS:     476232  HIT %:    94.7217  MISS %:    5.27835   MPKI: 9.52464
DTLB LOAD TRANSLATION DATA	ACCESS:    9022367  HIT:    8546135  MISS:     476232  HIT %:    94.7217  MISS %:    5.27835  MPKI: 9.52464

DTLB AVERAGE MISS LATENCY: 9.31041 cycles
DTLB RQ	ACCESS:   13388427	FORWARD:          0	MERGED:    4328895	TO_CACHE:    9059532

STLB TOTAL     ACCESS:    1217227  HIT:    1214938  MISS:       2289  HIT %:    99.8119  MISS %:    0.18805   MPKI: 0.04578
STLB LOAD TRANSLATION INSTRUCTION	ACCESS:     496959  HIT:     496488  MISS:        471  HIT %:    99.9052  MISS %:  0.0947764  MPKI: 0.00942
STLB LOAD TRANSLATION DATA	ACCESS:     476047  HIT:     474249  MISS:       1798  HIT %:    99.6223  MISS %:   0.377694  MPKI: 0.03596
STLB TRANSLATION FROM L1D PREFETCHER DATA	ACCESS:     244221  HIT:     244201  MISS:         20  HIT %:    99.9918  MISS %:  0.0081893  MPKI: 0.0004

STLB AVERAGE MISS LATENCY: 64.9716 cycles
STLB RQ	ACCESS:    1333061	FORWARD:          0	MERGED:     115797	TO_CACHE:    1217264

STLB Hit, L1D data hit: 0
STLB Hit, L2C data hit: 0
STLB Hit, LLC data hit: 0
STLB Hit, LLC data miss: 0
STLB STLB hints to L2: 0
L1D TOTAL     ACCESS:   13135063  HIT:   12019411  MISS:    1115652  HIT %:    91.5063  MISS %:    8.49369   MPKI: 22.313
L1D LOAD DATA	ACCESS:    6590682  HIT:    5853897  MISS:     736785  HIT %:    88.8208  MISS %:    11.1792  MPKI: 14.7357
L1D RFO DATA	ACCESS:    6223436  HIT:    5937288  MISS:     286148  HIT %:    95.4021  MISS %:    4.59791  MPKI: 5.72296
L1D PREFETCH DATA	ACCESS:     320945  HIT:     228226  MISS:      92719  HIT %:    71.1106  MISS %:    28.8894  MPKI: 1.85438

L1D PREFETCH  REQUESTED:     720127  ISSUED:     720127  USEFUL:      32973  USELESS:      67698
L1D USEFUL LOAD PREFETCHES:      32973 PREFETCH ISSUED TO LOWER LEVEL:     100698  ACCURACY: 32.7444
 TIMELY PREFETCHES:      32973 LATE PREFETCHES: 7923 DROPPED PREFETCHES: 11
L1D AVERAGE MISS LATENCY: 231797 cycles
L1D RQ	ACCESS:   10714007	FORWARD:          0	MERGED:    3924456	TO_CACHE:    6625251
L1D WQ	ACCESS:    6956692	FORWARD:     164687	MERGED:     193516	TO_CACHE:    6763176
L1D PQ	ACCESS:     360257	FORWARD:          0	MERGED:          0	TO_CACHE:     359870

L1D UNIQUE REGIONS ACCESSED: 0
L1D REGIONS CONFLICTS: 0
L1D Cross Page Prefetch Requests: 6058
L1D Same Page Prefetch Requests: 742285
L1D ROI Sum of L1D PQ occupancy: 4565454
L1D PREFETCHES PUSHED FROM L2C: 0
L1I TOTAL     ACCESS:    7126634  HIT:    4351834  MISS:    2774800  HIT %:    61.0644  MISS %:    38.9356   MPKI: 55.496
L1I LOAD INSTRUCTION	ACCESS:    6497610  HIT:    3722810  MISS:    2774800  HIT %:    57.2951  MISS %:    42.7049  MPKI: 55.496
L1I PREFETCH INSTRUCTION	ACCESS:     629024  HIT:     629024  MISS:          0  HIT %:        100  MISS %:          0  MPKI: 0

L1I PREFETCH  REQUESTED:    1490565  ISSUED:    1490565  USEFUL:          0  USELESS:          0
L1I USEFUL LOAD PREFETCHES:          0 PREFETCH ISSUED TO LOWER LEVEL:          0  ACCURACY: -nan
 TIMELY PREFETCHES:          0 LATE PREFETCHES: 0 DROPPED PREFETCHES: 0
L1I AVERAGE MISS LATENCY: 17.4056 cycles
L1I RQ	ACCESS:    9473470	FORWARD:          0	MERGED:    2666814	TO_CACHE:    6806656
L1I PQ	ACCESS:    1490565	FORWARD:          0	MERGED:     404121	TO_CACHE:    1086444

L1BTB TOTAL     ACCESS:    5670482  HIT:    2027484  MISS:    3642998  HIT %:    35.7551  MISS %:    64.2449   MPKI: 72.86
L1BTB BRANCH_DIRECT_JUMP	ACCESS:     547716  HIT:     144138  MISS:     403578	AVERAGE STALL: 47.5233
L1BTB BRANCH_INDIRECT	ACCESS:     182663  HIT:      65644  MISS:     117019	AVERAGE STALL: 95.8185
L1BTB BRANCH_CONDITIONAL	ACCESS:    2696653  HIT:    1400566  MISS:    1296087	AVERAGE STALL: 49.7504
L1BTB BRANCH_DIRECT_CALL	ACCESS:     949517  HIT:     105243  MISS:     844274	AVERAGE STALL: 53.5091
L1BTB BRANCH_INDIRECT_CALL	ACCESS:     172209  HIT:      21144  MISS:     151065	AVERAGE STALL: 120.074
L1BTB BRANCH_RETURN	ACCESS:    1121724  HIT:     290749  MISS:     830975	AVERAGE STALL: 45.1061
L1BTB BRANCH_OTHER ACCESS:          0  HIT:          0  MISS:          0	AVERAGE STALL: -nan
L1BTB TOTAL ROB OCCUPANCY AT BTB MISS: 6.42888

L2BTB TOTAL     ACCESS:    3617671  HIT:    3473068  MISS:     144603  HIT %:    96.0029  MISS %:    3.99713   MPKI: 2.89206
L2BTB BRANCH_DIRECT_JUMP	ACCESS:     399483  HIT:     385684  MISS:      13799	AVERAGE STALL: 47.5233
L2BTB BRANCH_INDIRECT	ACCESS:     106692  HIT:     103512  MISS:       3180	AVERAGE STALL: 95.8185
L2BTB BRANCH_CONDITIONAL	ACCESS:    1296087  HIT:    1243960  MISS:      52127	AVERAGE STALL: 49.7504
L2BTB BRANCH_DIRECT_CALL	ACCESS:     844273  HIT:     825367  MISS:      18906	AVERAGE STALL: 53.5091
L2BTB BRANCH_INDIRECT_CALL	ACCESS:     141577  HIT:     129865  MISS:      11712	AVERAGE STALL: 120.074
L2BTB BRANCH_RETURN	ACCESS:     829559  HIT:     784680  MISS:      44879	AVERAGE STALL: 45.1061
L2BTB BRANCH_OTHER ACCESS:          0  HIT:          0  MISS:          0	AVERAGE STALL: -nan
L2BTB TOTAL ROB OCCUPANCY AT BTB MISS: 161.963

L2C TOTAL     ACCESS:    4507322  HIT:    3985949  MISS:     521373  HIT %:    88.4328  MISS %:    11.5672   MPKI: 10.4275
L2C LOAD INSTRUCTION	ACCESS:    2774800  HIT:    2493864  MISS:     280936  HIT %:    89.8755  MISS %:    10.1245  MPKI: 5.61872
L2C LOAD TRANSLATION INSTRUCTION	ACCESS:        506  HIT:        178  MISS:        328  HIT %:    35.1779  MISS %:    64.8221  MPKI: 0.00656
L2C LOAD DATA	ACCESS:     728829  HIT:     647019  MISS:      81810  HIT %:    88.7751  MISS %:    11.2249  MPKI: 1.6362
L2C RFO DATA	ACCESS:     286059  HIT:     225718  MISS:      60341  HIT %:    78.9061  MISS %:    21.0939  MPKI: 1.20682
L2C PREFETCH DATA	ACCESS:     192394  HIT:     115697  MISS:      76697  HIT %:    60.1355  MISS %:    39.8645  MPKI: 1.53394
L2C WRITEBACK DATA	ACCESS:     522831  HIT:     502865  MISS:      19966  HIT %:    96.1812  MISS %:    3.81882  MPKI: 0.39932
L2C LOAD TRANSLATION DATA	ACCESS:       1861  HIT:        580  MISS:       1281  HIT %:     31.166  MISS %:     68.834  MPKI: 0.02562
L2C TRANSLATION FROM L1D PREFETCHER DATA	ACCESS:         42  HIT:         28  MISS:         14  HIT %:    66.6667  MISS %:    33.3333  MPKI: 0.00028

L2C PREFETCH  REQUESTED:      99355  ISSUED:      99355  USEFUL:       9237  USELESS:      68185
L2C USEFUL LOAD PREFETCHES:       9237 PREFETCH ISSUED TO LOWER LEVEL:      77384  ACCURACY: 11.9366
 TIMELY PREFETCHES:       9237 LATE PREFETCHES: 687 DROPPED PREFETCHES: 0
L2C AVERAGE MISS LATENCY: 36.9452 cycles
L2C RQ	ACCESS:    3792164	FORWARD:          0	MERGED:          0	TO_CACHE:    3792098
L2C WQ	ACCESS:     522831	FORWARD:         66	MERGED:          0	TO_CACHE:     522831
L2C PQ	ACCESS:     200053	FORWARD:          0	MERGED:       3591	TO_CACHE:     196462

L2C Dense regions hint from L2: 0
PSCL5 TOTAL     ACCESS:       4606  HIT:       2303  MISS:       2303  HIT %:         50  MISS %:         50   MPKI: 0.04606
PSCL5 LOAD TRANSLATION INSTRUCTION	ACCESS:       4522  HIT:       2261  MISS:       2261  HIT %:         50  MISS %:         50  MPKI: 0.04522
PSCL5 TRANSLATION FROM L1D PREFETCHER INSTRUCTION	ACCESS:         84  HIT:         42  MISS:         42  HIT %:         50  MISS %:         50  MPKI: 0.00084


PSCL4 TOTAL     ACCESS:       4478  HIT:       2237  MISS:       2241  HIT %:    49.9553  MISS %:    50.0447   MPKI: 0.04482
PSCL4 LOAD TRANSLATION INSTRUCTION	ACCESS:       4267  HIT:       2201  MISS:       2066  HIT %:    51.5819  MISS %:    48.4181  MPKI: 0.04132
PSCL4 TRANSLATION FROM L1D PREFETCHER INSTRUCTION	ACCESS:         72  HIT:         36  MISS:         36  HIT %:         50  MISS %:         50  MPKI: 0.00072
PSCL4 LOAD TRANSLATION DATA	ACCESS:        139  HIT:          0  MISS:        139  HIT %:          0  MISS %:        100  MPKI: 0.00278


PSCL3 TOTAL     ACCESS:       4367  HIT:       2176  MISS:       2191  HIT %:    49.8283  MISS %:    50.1717   MPKI: 0.04382
PSCL3 LOAD TRANSLATION INSTRUCTION	ACCESS:       3096  HIT:       2140  MISS:        956  HIT %:    69.1214  MISS %:    30.8786  MPKI: 0.01912
PSCL3 TRANSLATION FROM L1D PREFETCHER INSTRUCTION	ACCESS:         49  HIT:         36  MISS:         13  HIT %:    73.4694  MISS %:    26.5306  MPKI: 0.00026
PSCL3 LOAD TRANSLATION DATA	ACCESS:       1199  HIT:          0  MISS:       1199  HIT %:          0  MISS %:        100  MPKI: 0.02398
PSCL3 TRANSLATION FROM L1D PREFETCHER DATA	ACCESS:         23  HIT:          0  MISS:         23  HIT %:          0  MISS %:        100  MPKI: 0.00046


PSCL2 TOTAL     ACCESS:       4518  HIT:       2215  MISS:       2303  HIT %:    49.0261  MISS %:    50.9739   MPKI: 0.04606
PSCL2 LOAD TRANSLATION INSTRUCTION	ACCESS:       2644  HIT:       2173  MISS:        471  HIT %:    82.1861  MISS %:    17.8139  MPKI: 0.00942
PSCL2 TRANSLATION FROM L1D PREFETCHER INSTRUCTION	ACCESS:         42  HIT:         42  MISS:          0  HIT %:        100  MISS %:          0  MPKI: 0
PSCL2 LOAD TRANSLATION DATA	ACCESS:       1790  HIT:          0  MISS:       1790  HIT %:          0  MISS %:        100  MPKI: 0.0358
PSCL2 TRANSLATION FROM L1D PREFETCHER DATA	ACCESS:         42  HIT:          0  MISS:         42  HIT %:          0  MISS %:        100  MPKI: 0.00084


LLC TOTAL     ACCESS:     589817  HIT:     562981  MISS:      26836  HIT %:    95.4501  MISS %:    4.54989   MPKI: 0.53672
LLC LOAD INSTRUCTION	ACCESS:     280936  HIT:     280310  MISS:        626  HIT %:    99.7772  MISS %:   0.222827  MPKI: 0.01252
LLC LOAD TRANSLATION INSTRUCTION	ACCESS:        328  HIT:        310  MISS:         18  HIT %:    94.5122  MISS %:     5.4878  MPKI: 0.00036
LLC LOAD DATA	ACCESS:      81212  HIT:      77931  MISS:       3281  HIT %:      95.96  MISS %:    4.04004  MPKI: 0.06562
LLC RFO DATA	ACCESS:      60238  HIT:      47379  MISS:      12859  HIT %:     78.653  MISS %:     21.347  MPKI: 0.25718
LLC PREFETCH DATA	ACCESS:      77383  HIT:      67699  MISS:       9684  HIT %:    87.4856  MISS %:    12.5144  MPKI: 0.19368
LLC WRITEBACK DATA	ACCESS:      88425  HIT:      88128  MISS:        297  HIT %:    99.6641  MISS %:   0.335878  MPKI: 0.00594
LLC LOAD TRANSLATION DATA	ACCESS:       1281  HIT:       1211  MISS:         70  HIT %:    94.5355  MISS %:    5.46448  MPKI: 0.0014
LLC TRANSLATION FROM L1D PREFETCHER DATA	ACCESS:         14  HIT:         13  MISS:          1  HIT %:    92.8571  MISS %:    7.14286  MPKI: 2e-05

LLC AVERAGE MISS LATENCY: 155.835 cycles
LLC RQ	ACCESS:     424023	FORWARD:          0	MERGED:          0	TO_CACHE:     424009
LLC WQ	ACCESS:      88425	FORWARD:         15	MERGED:          0	TO_CACHE:      88425
LLC PQ	ACCESS:      77384	FORWARD:          0	MERGED:          0	TO_CACHE:      77383

LLC Dense regions hint to LLC: 0

RAW hits: 1922132
Loads Generated: 12636139
Loads sent to L1D: 10714007
Stores Generated: 6956688
Stores sent to L1D: 6956692
Major fault: 0 Minor fault: 2586
Allocated PAGES: 2586

stream: 
stream:times selected: 1178497
stream:pref_filled: 120845
stream:pref_useful: 23689
stream:pref_late: 6445
stream:misses: 6680
stream:misses_by_poll: 0

CS: 
CS:times selected: 177272
CS:pref_filled: 57958
CS:pref_useful: 35355
CS:pref_late: 6971
CS:misses: 16184
CS:misses_by_poll: 2

CPLX: 
CPLX:times selected: 1000053
CPLX:pref_filled: 20049
CPLX:pref_useful: 4811
CPLX:pref_late: 2974
CPLX:misses: 91897
CPLX:misses_by_poll: 0

NL_L1: 
NL:times selected: 19935
NL:pref_filled: 627
NL:pref_useful: 240
NL:pref_late: 186
NL:misses: 982
NL:misses_by_poll: 0

total selections: 2375757
total_filled: 92719
total_useful: 32973
total_late: 17817
total_polluted: 2
total_misses_after_warmup: 771354
conflicts: 5543223

test: 115783

DRAM Statistics
 CHANNEL 0
 RQ ROW_BUFFER_HIT:       9844  ROW_BUFFER_MISS:      16680
 DBUS_CONGESTED:          6
 WQ ROW_BUFFER_HIT:       1231  ROW_BUFFER_MISS:      11737  FULL:          0

 AVG_CONGESTED_CYCLE: 6

CPU 0 Branch Prediction Accuracy: 99.8222% MPKI: 0.32532 Average ROB Occupancy at Mispredict: 171.759
Branch types
NOT_BRANCH: 40848764 81.6975%
BRANCH_DIRECT_JUMP: 547716 1.09543%
BRANCH_INDIRECT: 182663 0.365326%
BRANCH_CONDITIONAL: 6177211 12.3544%
BRANCH_DIRECT_CALL: 949517 1.89903%
BRANCH_INDIRECT_CALL: 172209 0.344418%
BRANCH_RETURN: 1121724 2.24345%
BRANCH_OTHER: 0 0%

DRAM PAGES: 1048576
Allocated PAGES: 2586
Average_ROB_Occupancy: 204.643
Average_Decode_Occupancy: 25.7602
Average_FTQ_Occupancy: 10.455
Indirect max targets: 14 Average targets: 1.15541
Branch_type:  BRANCH_DIRECT_JUMP:  Count Percentage: 3.81 6.01417 3.70827 3.2746 7.49856 5.44858 6.51572 63.7301 
Branch_type:  BRANCH_INDIRECT:  Count Percentage: 11.7602 3.41528 2.53817 0 13.0346 2.80977 16.5673 49.8747 
Branch_type:  BRANCH_CONDITIONAL:  Count Percentage: 21.2468 3.00288 2.12476 2.96119 3.44816 4.56296 3.26866 59.3846 
Branch_type:  BRANCH_DIRECT_CALL:  Count Percentage: 0.889787 1.27293 0.73745 2.27172 4.11495 2.8381 0.887194 86.9879 
Branch_type:  BRANCH_INDIRECT_CALL:  Count Percentage: 9.56314 0 2.99793 0.00378785 0 2.32253 0 85.1126 
Branch_type:  BRANCH_RETURN:  Count Percentage: 5.04148 1.42504 2.14382 2.46586 4.19637 5.27515 3.53703 75.9153 
Branch_type:  BRANCH_DIRECT_JUMP:  Total Count: 41758 65916 40643 35890 82185 59717 71413 698489 
Branch_type:  BRANCH_INDIRECT:  Total Count: 43039 12499 9289 0 47703 10283 60632 182528 
Branch_type:  BRANCH_CONDITIONAL:  Total Count: 2624329 370906 262444 365756 425906 563602 403734 7334995 
Branch_type:  BRANCH_DIRECT_CALL:  Total Count: 16816 24057 13937 42933 77768 53637 16767 1643975 
Branch_type:  BRANCH_INDIRECT_CALL:  Total Count: 32821 0 10289 13 0 7971 0 292109 
Branch_type:  BRANCH_RETURN:  Total Count: 112622 31834 47891 55085 93743 117842 79014 1695877 
Number of unique branch instructions: 10076
Upper 32 bits: 
aaaa
ffff
ffff0000
Unique upper 32 bits: 3
Unique upper 36 bits: 3
Unique upper 40 bits: 5
Unique upper 44 bits: 32
Unique upper 48 bits: 155
Variant_0 : 1411 0.172241
Variant_1 : 1512 0.18457
Variant_2 : 1571 0.191772
Variant_3 : 0 0
Offset_3 4161
Offset_4 247
Offset_5 461
Offset_6 511
Offset_7 599
Offset_8 510
Offset_9 465
Offset_10 386
Offset_11 319
Offset_12 283
Offset_13 218
Offset_14 237
Offset_15 190
Offset_16 224
Offset_17 157
Offset_18 122
Offset_19 249
Offset_20 139
Offset_21 235
Offset_22 405
Offset_23 241
Offset_24 331
Offset_25 92
Offset_47 82
Offset_64 2
decode_dispatch_called: 22886248 61.4785
Dispatch_width: 0 12008101 52.4686 32.2569
Dispatch_width: 1 737361 3.22185 1.98075
Dispatch_width: 2 712552 3.11345 1.9141
Dispatch_width: 3 450340 1.96773 1.20973
Dispatch_width: 4 3578939 15.6379 9.61398
Dispatch_width: 5 223035 0.974537 0.599131
Dispatch_width: 6 5175920 22.6159 13.9039
Empty_decode_cycles: 14340160 38.5215
ROB_full_cycles: 5680683 15.2598
Starvation_cycles_per_kilo_instr: 263.698
Starvation_cycles_per_kilo_instr_3: 225.678
Starvation_cycles_per_kilo_instr_0: 206.676
Branch_type_1  (3,1)  (4,9)  (5,37)  (6,71)  (7,118)  (8,129)  (9,122)  (10,99)  (11,69)  (12,43)  (13,8)  (14,2)  (15,3)  (16,4)  (18,1)  (19,4)  (20,2)  (21,1)  (22,3)  (23,2)  (24,10)  (25,12) 
Branch_type_2  (3,1)  (4,1)  (5,1)  (8,3)  (9,3)  (12,1)  (13,1)  (14,1)  (16,3)  (17,2)  (20,2)  (21,2)  (23,5)  (24,1)  (47,37) 
Branch_type_3  (3,4159)  (4,237)  (5,419)  (6,425)  (7,452)  (8,317)  (9,251)  (10,156)  (11,124)  (12,50)  (13,7)  (20,1)  (64,1) 
Branch_type_4  (6,3)  (7,8)  (8,25)  (9,52)  (10,62)  (11,63)  (12,104)  (13,93)  (14,107)  (15,90)  (16,100)  (17,72)  (18,55)  (19,124)  (20,71)  (21,124)  (22,216)  (23,136)  (24,191)  (25,76)  (64,1) 
Branch_type_5  (8,2)  (9,1)  (10,4)  (11,6)  (12,3)  (13,14)  (14,16)  (15,11)  (16,20)  (17,11)  (18,16)  (19,12)  (20,11)  (21,13)  (22,42)  (23,26)  (24,37) 
Branch_type_6  (5,4)  (6,12)  (7,21)  (8,34)  (9,36)  (10,65)  (11,57)  (12,82)  (13,95)  (14,111)  (15,86)  (16,97)  (17,72)  (18,50)  (19,109)  (20,52)  (21,95)  (22,144)  (23,72)  (24,92)  (25,4)  (47,45) 
Unique trigger count: 
Variant_0_evicts_0 : 0
Variant_0_evicts_1 : 0
Variant_0_evicts_2 : 0
Variant_0_evicts_3 : 0
Variant_1_evicts_0 : 0
Variant_1_evicts_1 : 0
Variant_1_evicts_2 : 0
Variant_1_evicts_3 : 0
Variant_2_evicts_0 : 0
Variant_2_evicts_1 : 0
Variant_2_evicts_2 : 0
Variant_2_evicts_3 : 0
Variant_3_evicts_0 : 0
Variant_3_evicts_1 : 0
Variant_3_evicts_2 : 0
Variant_3_evicts_3 : 0
BTB PER SET UNIQUE ADDR: 3 4 3 3 1 0 3 2 4 0 2 0 5 3 1 3 3 2 3 5 3 4 2 3 4 5 1 4 3 2 6 6 4 3 5 2 1 4 5 2 4 4 3 6 6 3 4 3 6 3 3 2 3 2 0 3 4 3 3 3 1 4 2 3 1 4 5 2 3 5 5 1 1 4 2 3 3 6 1 3 2 2 1 4 3 4 2 5 3 3 6 4 3 5 2 0 3 4 2 3 3 3 3 3 2 2 1 2 3 2 2 1 3 6 2 6 2 4 4 1 4 4 2 0 1 2 2 1 5 4 5 2 4 1 5 3 2 1 3 3 3 3 3 2 3 4 2 5 4 3 2 8 3 5 2 0 3 3 3 2 4 5 2 4 5 3 2 2 8 1 3 2 4 2 1 1 3 3 4 1 2 3 6 3 5 5 4 1 2 3 5 2 3 4 4 4 2 3 3 5 3 2 4 1 3 3 2 5 3 1 2 4 5 4 3 2 2 4 4 0 1 2 2 3 3 2 3 3 0 4 7 3 3 1 3 3 3 2 1 3 1 0 6 4 9 7 1 1 3 3 2 2 1 3 2 6 3 5 4 3 4 4 4 2 3 7 3 1 4 2 3 2 2 3 4 2 1 1 2 3 4 2 5 2 5 5 3 3 1 1 0 3 1 5 1 1 5 3 2 2 3 3 1 2 3 2 4 2 7 5 3 1 3 2 5 1 7 6 2 2 3 7 3 4 2 2 1 5 1 1 4 0 2 4 5 2 3 3 5 0 3 0 1 4 3 3 1 2 4 3 2 6 5 3 5 3 2 0 4 1 2 5 2 4 7 4 1 1 2 1 3 2 2 4 4 4 3 3 3 3 5 3 1 4 3 2 5 2 4 1 5 4 4 2 3 1 5 0 1 3 4 2 3 2 2 4 3 2 1 1 1 2 4 4 2 2 5 3 1 3 1 1 3 4 4 5 2 0 2 4 1 2 8 4 5 5 4 3 3 0 2 4 5 3 5 6 2 3 3 2 4 3 2 2 5 0 1 3 7 3 3 3 4 6 1 3 5 2 1 3 0 4 5 2 2 1 3 5 3 1 2 1 2 2 0 4 3 0 6 1 5 2 3 4 0 5 4 3 2 1 5 1 1 1 1 2 3 2 3 3 3 2 4 7 2 2 2 6 4 5 3 5 4 3 6 6 0 7 6 3 5 3 3 6 3 4 1 1 4 1 2 5 6 3 4 2 8 3 5 9 4 6 3 5 1 3 3 1 3 4 8 3 5 2 2 1 4 3 3 7 4 2 3 8 3 2 3 3 1 5 5 2 2 0 1 0 0 9 3 2 5 6 2 1 2 3 4 2 3 1 4 2 4 7 1 4 4 4 2 2 5 2 2 2 2 3 2 0 3 1 5 4 7 2 2 3 2 5 2 3 5 4 3 3 4 3 2 3 2 3 8 1 4 4 0 0 3 4 3 4 3 2 5 2 3 0 5 3 2 3 6 2 5 4 5 4 5 3 1 4 5 4 4 3 5 5 3 3 3 2 3 2 5 2 5 3 5 3 4 3 1 5 2 2 2 3 6 4 5 5 0 6 0 3 3 2 3 1 3 1 3 3 3 1 2 1 7 2 0 3 2 0 1 1 1 1 1 4 2 4 5 4 2 1 2 4 5 3 2 2 1 3 2 4 2 1 4 2 3 2 0 2 1 3 2 2 2 6 4 1 3 3 1 5 4 4 8 2 2 2 4 3 0 3 3 4 4 2 1 3 4 4 0 3 8 6 3 4 0 3 2 4 2 1 4 7 7 2 2 2 5 3 4 3 4 3 3 3 2 3 1 3 4 0 4 3 1 2 0 4 4 2 4 2 2 1 2 2 4 4 3 1 3 2 5 2 2 1 5 2 2 1 3 3 1 4 7 4 5 2 6 2 5 4 4 5 3 2 4 4 2 6 2 1 9 3 3 3 5 3 1 3 3 6 4 0 2 3 5 4 3 4 4 3 5 3 2 2 3 4 4 2 3 4 3 1 6 3 1 1 5 2 1 3 4 5 3 5 3 4 5 4 0 3 1 5 0 1 5 2 6 4 5 3 4 1 3 2 5 7 4 4 9 6 5 4 6 4 1 5 4 2 0 4 4 5 5 5 3 2 6 0 5 4 2 4 6 5 4 2 3 2 4 5 2 6 9 4 6 3 3 3 0 5 6 1 7 5 1 3 7 5 3 4 2 1 2 3 3 2 5 4 2 7 4 5 4 5 3 5 1 3 4 2 2 5 4 3 3 3 5 3 4 3 5 2 5 3 2 4 5 2 10 5 3 3 3 2 2 3 3 7 6 2 3 2 3 2 2 1 3 2 4 4 2 4 5 5 4 6 0 3 3 4 4 4 2 1 3 2 3 1 2 1 4 1 3 3 3 5 2 8 5 3 2 1 9 1 2 4 1 2 6 5 3 6 3 4 5 5 2 5 2 1 1 1 5 0 4 4 3 7 4 1 6 4 6 2 3 4 5 3 5 7 4 4 6 1 4 4 7 4 3 3 4 3 6 6 3 5 5 6 4 3 5 3 1 2 3 5 1 3 2 1 3 4 2 2 5 2 2 5 4 1 5 1 6 3 3 2 3 1 3 5 3 4 3 4 2 6 2 3 6 3 2 3 3 6 2 8 3 5 3 8 6 1 6 1 5 2 1 2 4 3 3 1 3 4 2 1 2 2 4 3 3 3 3 4 2 5 2 5 4 5 0 5 3 2 2 6 9 0 7 0 1 4 5 2 5 1 3 3 4 1 1 2 4 5 3 4 1 4 4 6 5 1 5 4 3 6 10 4 2 6 6 5 1 1 3 5 6 3 2 2 4 3 4 4 5 3 1 4 2 2 6 8 5 3 3 6 1 2 5 2 4 1 3 2 6 8 3 3 3 3 4 4 2 5 5 6 4 2 1 5 3 2 4 3 4 3 4 4 6 3 5 4 4 5 5 3 1 7 4 4 3 3 3 2 3 3 2 2 5 4 3 2 5 1 1 3 3 8 5 2 3 4 2 4 3 3 4 3 2 1 3 2 4 2 5 3 3 4 2 1 2 6 2 4 2 5 2 5 5 1 1 4 4 3 3 3 5 2 3 4 4 5 4 4 4 3 3 2 2 3 5 3 4 1 3 0 7 4 3 6 4 4 5 7 3 2 3 3 1 2 4 1 4 2 4 2 0 5 1 5 1 2 3 3 3 2 4 2 3 2 3 1 5 2 0 3 4 1 1 3 2 4 2 3 7 3 1 2 3 3 2 2 7 2 3 6 3 3 3 3 2 2 3 0 2 2 2 3 2 1 2 0 3 0 4 2 2 3 2 3 2 2 2 4 4 2 6 1 3 4 2 2 4 5 2 2 5 0 1 3 3 1 1 2 3 3 5 3 1 1 6 2 1 4 1 6 1 4 2 3 6 2 2 2 1 3 3 1 0 3 4 2 3 3 1 2 0 5 1 3 3 0 3 2 4 3 4 3 3 4 2 3 2 1 2 3 3 0 2 3 2 3 3 1 3 3 2 9 6 2 2 2 4 1 1 3 4 2 3 0 3 2 3 2 3 4 5 5 7 0 4 1 6 4 4 5 3 7 2 5 8 3 0 6 3 3 3 4 3 3 2 1 1 4 3 2 3 3 2 3 5 3 5 5 6 2 1 5 4 3 3 4 5 3 5 2 5 5 2 6 3 3 3 1 3 6 5 3 2 3 3 3 3 4 2 3 3 2 3 1 3 7 0 2 2 3 3 3 5 4 3 2 5 1 2 2 5 2 4 5 6 1 1 7 2 4 2 3 4 6 2 3 2 3 6 3 5 3 5 3 4 10 3 3 3 5 2 5 4 3 2 3 0 2 2 3 4 3 2 3 3 5 4 2 4 10 0 3 2 4 4 3 3 4 2 6 2 4 1 5 2 3 4 3 3 0 2 5 0 7 2 5 4 1 4 3 2 0 4 2 3 5 3 6 2 3 2 1 4 4 6 1 3 3 0 3 2 5 5 3 2 3 5 2 3 2 6 3 3 1 4 3 0 2 4 1 1 8 2 0 4 2 4 3 2 3 6 3 2 6 1 5 3 5 2 5 4 2 3 2 7 1 4 0 3 3 4 4 3 3 2 1 2 3 0 3 0 3 4 6 2 2 5 2 3 3 3 1 2 2 4 2 4 2 5 3 2 3 1 1 3 2 3 2 3 4 2 1 1 2 2 5 1 4 1 5 4 2 3 1 4 1 2 3 5 2 3 4 4 5 3 3 3 4 4 2 1 3 2 0 2 2 2 2 4 2 5 2 3 3 4 1 2 4 3 2 3 7 3 2 7 6 3 2 4 1 2 5 3 4 4 2 4 1 1 2 4 3 2 4 3 2 5 3 4 8 3 2 0 4 1 0 2 3 0 4 4 6 1 3 3 6 4 0 2 2 4 2 4 1 3 2 8 3 1 2 3 6 2 7 3 4 6 0 1 3 1 4 2 1 0 2 2 4 5 4 1 0 3 4 5 1 1 1 3 5 2 1 5 3 3 3 5 4 0 6 2 6 2 1 2 2 1 2 4 1 3 1 3 2 3 1 4 2 5 2 4 2 1 3 5 4 3 0 
BTB PER SET COUNT: 3 4 3 3 1 0 3 2 5 0 2 0 7 3 1 5 3 2 3 1478 3 4 2 3 4 6 1 4 1472 2 10 11 4 3 6 2 2940 4 8 2 4 4 3 1263 4904 3 4 4 6 3 3 2 3 2 0 3 4 3 4 3 1 4 2 3 1 364 452 2 3 5 936 1 1 4 2 4 492 751 1 3 2 2 1 5 3 5 2 5 3 3 13 497 3 5 3 0 3 4 2 4 3 3 3 3 2 3 1 2 4 2 2 1 4 10 2 7 2 6 4 1 4 4 2 0 1 2 2 1 5 6 982 3 4 1 7 3 2 1 3 3 3 8 3 2 3 963 2 6 4 3 2 74 3 5 2 0 3 5 976 2 5 6 979 4 5 1965 2 2 3435 1 3 2 4 2 1 1 3 3 984 1 2 3 9 3 5 7 4 1 2 4 6 2 3 4 4 6 2 3 4 5 4 2 5 1 4 3 2 1479 3 1 3 5 5 4 3 2 2 5 4 0 1 2 2 3 3 2 5 34 0 4 1167 3 3 1 3 3 3 2 1 3 1 0 9 4 12 11 1 1 3 3 2 2 1 3 2 8 3 5 4 3 4 4 4 2 1472 10 3 1 4 2 3 2 2 3 5 3 1 1 2 3 5 977 11 2 5 1470 3 3 1 1 0 1964 1 5 1 1 12 3 2 2 3 4 1 2 3 2 9 2 1963 5 3 1 3 2 5 1 7 6 2 5 4 7 4 4 2 2 1 7 1 1 981 0 2 4 1964 2 981 3 5 0 3 0 2 981 980 3 1 2 4 6 2 6 5 3 5 5 2 0 4 1 2 5 2 4 10 5 1 1 3 1 4 2 2 4 7 4 3 3 3 4 24 3 1 5 4 2 12 2 4 1 6 4 4 2 4 1 1475 0 1 3 5 2 3 2 2 4 1472 2 1 981 1 2 6 4 982 2 139 3 1 89 1 1 3 4 4 10 6 0 2 6 139 2 2700 5 5 5 5 3 3 0 2 5 8 3 7 27 2 3 3 2 5 3 4 2 5 0 1 3 989 3 3 3 4 9 1 3 5 2 1 4 0 4 2968 490 2 1 3 5 3 1 3 1 2 490 0 8 3 0 6 1 6 2 3 5 0 13 5 3 2 1 5 13 1 2 1 2 4 2 3 4 3 2 4 25 3 2 2 6 4 988 3 1475 4 3 7 8 0 10 6 3 5 3 3 8 3 985 1 1 8 1 3 5 10 6 982 2 16 4 7 23 6 12 5 5 1 3 8 1 3 4 16 1965 6 2 2 1 4 3 3 987 4 3 3 1758 3 2 3 4 1 6 5 39 2 0 1 0 0 2302 3 2 10 7 3 1 982 3 4 2 4 1 4 4 4 7 1 4 4 4 3 2 5 2 2 2 2 3 994 0 3 1 9 492 19 3 2 3 2 5 3 4 493 1473 3 6 4 3 2 3 2 3 1975 1 4 4 0 0 4 4 4 5 3 2 7 2 6 0 5 4 2 4 7825 2 14 4 6 5 2948 980 1 4 994 4 5 5 5 982 3 3 4 2 3 2 7 980 9 4 5 1472 4 3 2 985 2 2 2 3 6 9 14 39 0 7 0 3 3 979 4 1 4 1 3 4 5 1 979 1 1489 2 0 3 2 0 1 1 1 1 1 974 2 4 1966 4 983 1 2 4 7 4 2 2 1 3 2 4 2 1 494 2 3 977 0 3 1 3 2 2 2 6 4 1 3 3 1 5 4 4 18 2 3 2 4 20 0 110 4 7 6 3 1 3 4 40 0 1965 729 10 4 5 0 3 2 1339 3 1 5 8 1088 2 2 2 5 3 4 981 1957 4 3 4 3 6 1 3 4 0 6 6 1 2 0 4 7 2 4 2 3 1 2 2 5 69 3 1 3 2 8 977 3 2 5 2 2 1 3 1476 1 10 2955 4 7 3 9 2 8 6 5 8 4 2 7 7 2 6 3 1 2951 983 3 5 8 7 1 3 3 13 9 0 3 3 6 4 3 4 9 4 8 3 2 2 3 5 5 2 3 4 4 3 8 3 1 1 5 2 1 72 8 5 3 5 3 7 5 4 0 3 1 5 0 1 7 3 11 4 5 3 7 1 3 2 5 983 4 495 2928 1488 5 4 54 7 1 7 5 2 0 984 4 7 5 244 3 2 7 0 7 5 2 4 12 8 6 2 3 493 4 8 5 7 26 8 6 3 3 3 0 366 6 1 989 5 1 3 986 8 492 4 2 3 2 3 3 2 7 980 2 982 5 7 5 1947 3 8 1 4 4 2 2 5 4 4 5 4 1960 3 2454 362 1724 4 10 4 2 4 717 2 2106 9 3 978 3 2 2 3 3 25 6 2 3 1963 4 2 2 3 978 2 4 4 2 4 7 5 4 6 0 3 3 4 1474 365 2 2 4 4 4 1 7 1 6 1 4 3 3 9 2 13 5 3 2 1 1971 1 2 4 1 2 6 99 3 6 3 4 5 6 2 5 2 1 1 1 8 0 980 4 3 10 4 1 6 4 19 2 493 4 7 4 5 585 4 4 10 1 6 5 11 4 3 4 4 3 6 974 3 5 5 1371 7 3 10 6 1 3 6 5 1 3 2 1 3 4 2 2 1739 3 2 6 7 1 5 1 9 3 3 2 4 1 3 6 3 9 3 4 2 8 2 3 6 3 2 3 3 8 2 14 5 981 3 986 9 1 987 1 14 2 1 2 494 978 3 1 3 119 2 1 2 490 7 3 3 3 4 5 2 1469 2 6 4 5 0 9 3 2 2 13 997 0 12 0 1 4 7 4 9 1 3 1217 6 1 1 2 8 4899 3 4 1 4 5 6 5 1 5 4 3 9 17 1978 2 1477 6 5 1 1 4 5 30 4 2 2 4 3 4 4 5 3 1 4 2 2 8 343 7 3 3 7 1 2 5 2 4 1 3 2 8 1488 983 6 3 3 4 8 2 5 6 7 4 2 1 23 3 2 7 3 2942 4 4 4 8 3 5 4 979 5 2443 983 1 2074 4 4 3 4 3 2 3 3 2 2 7 4 4 2 5 1 1 3 3 1963 14 3 3 4 2 4 3 3 4 3 4 1 3 2 9 2 5 4 980 4 2 1 2 6 2 4 2 5 2 8 7 1 1 4 4 983 3 3 14 3 3 44 4 5 6 4 4 3 3 2 3 3 5 3 7 1 3 0 9 4 5 6 6 7 6 2696 4 2 4 3 1 2 5 1 6 4 979 2 0 7 1 6 1 2 4 5 5 2 1473 2 3 1342 4 1 501 2 0 3 4 1 1 1343 3 981 2 3 10 3 1 2 3 3 2 2 3420 3 4 15 5 3 3 3 2 2 4 0 4 978 2 985 2 1 2 0 4 0 4 2 2 3 2 3 977 2 8 14 28 2 2444 1 4 4 2 3 5 983 144 2 20587 0 1 3 3 1 1 2 3 3 270 367 1 1 11 2 1 4 1 11 1 4 2 3 33 2 2 2 1 3 3 1 0 3 4 2 3 3 1 2 0 3929 1 3 5 0 3 449 4 3 4 3 3 5 2 5 2 1 2 5 3 0 2 3 2 3 18 1 989 3 2 19 6 2 2 2 4 1 1 6 987 2 3 0 3 2 3 2 3 6 5 7 9 0 991 1 10 4 4 8 3 7 2 9 4868 3 0 982 1472 3 4 4 3 4 2 1 1 987 3 2 3 3 2 4 5 4 5 5 2945 2930 1 5 5 3 5 7 6 3 8 2 981 8 2 6 3 1237 362 1 1472 15 7 186 8 3 3 3 4 4 2 12 3 2 4 1 3 7 0 3 2 3 3 3 494 4 3 2 6 1 2 3 7 2 1472 9 8 1 1 8 2 982 2 4 4 9 493 3 2 975 6 4 496 5 970 3 1957 6565 3 3 14703 987 2 1952 1476 6 2 977 0 2 2 3 4 3 2 3 3 5 4 2 170 1569 0 2454 2 1473 78 3 3 4 2 6 2 796 1 6 2 3 5 3 1962 0 978 647 0 2435 2 8 4 1 6 4 2 0 4 2 7 5 3 6 2 3 3 1 4 5 8 1 3 541 0 3 2 5 5 1964 2 4 987 2 3 2 749 3 4 1 8 3 0 2 8 1470 1 2772 2 0 4 2 4 3 4 3 6 3 407 6 1 5 3 5 213 979 52 2 3 2 913 1 452 0 5 2942 4 7 3 5 2 1 2 498 0 3 0 3 4 11 2 2 1971 390 3 7 983 1 2 2 4 2 4 2 21 5 978 3 1 1 459 2 3 2 3 8 2 1 1 2 2 5 1 4 1 3928 4 2 3 3 4 1 2 3 5 2 3 979 4 5 3 4 3 4 4 3 1 3 2 0 2 2 2 2 4 14 5 2 5 3 5 1 2 4 3 2 3 18 6 2 1456 17 139 2 4 1 2 8 3 5 5 3 7 1 1 2 4 978 2 6 3 2 7 5 4 21 3 2 0 1963 1 0 2 3 0 5 2942 156 1 3 3 939 4 0 3 2 7 2 4 1 5 2 4261 3 1 2 3 516 6 986 3 4 5149 0 1 3 1 4 2 1 0 2 2 2941 5 4 2 0 3 4 5 1 1 1 3 5 2 1 5 3 3 5 5 4 0 25 2 7 6 1 3 2 1 2 8 1 3 1 5 2 4 1 4 2 392 2 5 2 2 3 1492 4 4 0 
To predecode: 0
Predecoding something: 0
Predecode request dropped: 0
sizeofblock_0 0
sizeofblock_1 110516
sizeofblock_2 81977
sizeofblock_3 63359
sizeofblock_4 4911
sizeofblock_5 0
sizeofblock_6 0
sizeofblock_7 0
sizeofblock_8 0
