
*** ChampSim Multicore Out-of-Order Simulator ***

Warmup Instructions: 50000000
Simulation Instructions: 50000000
Number of CPUs: 1
LLC sets: 2048
LLC ways: 16
Off-chip DRAM Size: 4096 MB Channels: 1 Width: 64-bit Data Rate: 6400 MT/s
CPU 0 runs ./micro_traces/srv640.trace.gz
.gz
ITLB has LRU replacement policy
DTLB has LRU replacement policy
STLB has LRU replacement policy
L1I has LRU replacement policy
L1D has LRU replacement policy
Initialize SRRIP state for L2C
Initialize DRRIP state for LLC
Heartbeat_Variant_0 : 1322 0.322754 per_variant_size: 0 1322 0 0 0 0 0 0 0 
Heartbeat_Variant_1 : 1225 0.299072 per_variant_size: 0 613 612 0 0 0 0 0 0 
Heartbeat_Variant_2 : 1282 0.312988 per_variant_size: 0 529 316 230 207 0 0 0 0 
Heartbeat_Variant_3 : 0 0 per_variant_size: 0 0 0 0 0 0 0 0 0 
Heartbeat_Variant_0_evicts 0 : 5798 1 : 230 2 : 219 3 : 0 
Heartbeat_Variant_1_evicts 0 : 221 1 : 0 2 : 378 3 : 0 
Heartbeat_Variant_2_evicts 0 : 193 1 : 362 2 : 0 3 : 0 
Heartbeat_Variant_3_evicts 0 : 0 1 : 0 2 : 0 3 : 0 
Heartbeat CPU 0 instructions: 10000000 cycles: 2799577 heartbeat IPC: 3.57197 cumulative IPC: 3.57197 (Simulation time: 0 hr 1 min 19 sec) 
Heartbeat_Variant_0 : 1322 0.322754 per_variant_size: 0 1322 0 0 0 0 0 0 0 
Heartbeat_Variant_1 : 1235 0.301514 per_variant_size: 0 613 622 0 0 0 0 0 0 
Heartbeat_Variant_2 : 1284 0.313477 per_variant_size: 0 520 326 220 218 0 0 0 0 
Heartbeat_Variant_3 : 0 0 per_variant_size: 0 0 0 0 0 0 0 0 0 
Heartbeat_Variant_0_evicts 0 : 5721 1 : 9 2 : 5 3 : 0 
Heartbeat_Variant_1_evicts 0 : 11 1 : 0 2 : 208 3 : 0 
Heartbeat_Variant_2_evicts 0 : 5 1 : 205 2 : 0 3 : 0 
Heartbeat_Variant_3_evicts 0 : 0 1 : 0 2 : 0 3 : 0 
Heartbeat CPU 0 instructions: 20000001 cycles: 5598235 heartbeat IPC: 3.57314 cumulative IPC: 3.57255 (Simulation time: 0 hr 2 min 38 sec) 
Heartbeat_Variant_0 : 1359 0.331787 per_variant_size: 0 1359 0 0 0 0 0 0 0 
Heartbeat_Variant_1 : 1263 0.30835 per_variant_size: 0 614 649 0 0 0 0 0 0 
Heartbeat_Variant_2 : 1344 0.328125 per_variant_size: 0 538 364 218 224 0 0 0 0 
Heartbeat_Variant_3 : 0 0 per_variant_size: 0 0 0 0 0 0 0 0 0 
Heartbeat_Variant_0_evicts 0 : 5902 1 : 215 2 : 229 3 : 0 
Heartbeat_Variant_1_evicts 0 : 219 1 : 0 2 : 358 3 : 0 
Heartbeat_Variant_2_evicts 0 : 230 1 : 367 2 : 0 3 : 0 
Heartbeat_Variant_3_evicts 0 : 0 1 : 0 2 : 0 3 : 0 
Heartbeat CPU 0 instructions: 30000003 cycles: 8396734 heartbeat IPC: 3.57334 cumulative IPC: 3.57282 (Simulation time: 0 hr 3 min 56 sec) 
Heartbeat_Variant_0 : 1358 0.331543 per_variant_size: 0 1358 0 0 0 0 0 0 0 
Heartbeat_Variant_1 : 1263 0.30835 per_variant_size: 0 610 653 0 0 0 0 0 0 
Heartbeat_Variant_2 : 1345 0.328369 per_variant_size: 0 540 364 224 217 0 0 0 0 
Heartbeat_Variant_3 : 0 0 per_variant_size: 0 0 0 0 0 0 0 0 0 
Heartbeat_Variant_0_evicts 0 : 5620 1 : 0 2 : 0 3 : 0 
Heartbeat_Variant_1_evicts 0 : 0 1 : 0 2 : 197 3 : 0 
Heartbeat_Variant_2_evicts 0 : 1 1 : 197 2 : 0 3 : 0 
Heartbeat_Variant_3_evicts 0 : 0 1 : 0 2 : 0 3 : 0 
Heartbeat CPU 0 instructions: 40000001 cycles: 11192876 heartbeat IPC: 3.57636 cumulative IPC: 3.5737 (Simulation time: 0 hr 5 min 14 sec) 
Heartbeat_Variant_0 : 1371 0.334717 per_variant_size: 0 1371 0 0 0 0 0 0 0 
Heartbeat_Variant_1 : 1279 0.312256 per_variant_size: 0 621 658 0 0 0 0 0 0 
Heartbeat_Variant_2 : 1342 0.327637 per_variant_size: 0 522 364 232 224 0 0 0 0 
Heartbeat_Variant_3 : 0 0 per_variant_size: 0 0 0 0 0 0 0 0 0 
Heartbeat_Variant_0_evicts 0 : 5781 1 : 112 2 : 101 3 : 0 
Heartbeat_Variant_1_evicts 0 : 124 1 : 0 2 : 290 3 : 0 
Heartbeat_Variant_2_evicts 0 : 84 1 : 296 2 : 0 3 : 0 
Heartbeat_Variant_3_evicts 0 : 0 1 : 0 2 : 0 3 : 0 
Heartbeat CPU 0 instructions: 50000003 cycles: 13989382 heartbeat IPC: 3.57589 cumulative IPC: 3.57414 (Simulation time: 0 hr 6 min 28 sec) 

Warmup complete CPU 0 instructions: 50000003 cycles: 13989382 (Simulation time: 0 hr 6 min 28 sec) 

Cycle: 20000000 FTQ IN: 55188834 FTQ occupancy: 15.7999 DECODE IN: 55188816 DECODE occupancy: 9.47151 ROB IN: 55188804 ROB occupancy: 259.439 ROB OUT: 55188782
Heartbeat_Variant_0 : 1389 0.339111 per_variant_size: 0 1389 0 0 0 0 0 0 0 
Heartbeat_Variant_1 : 1297 0.31665 per_variant_size: 0 573 724 0 0 0 0 0 0 
Heartbeat_Variant_2 : 1366 0.333496 per_variant_size: 0 519 378 268 201 0 0 0 0 
Heartbeat_Variant_3 : 0 0 per_variant_size: 0 0 0 0 0 0 0 0 0 
Heartbeat_Variant_0_evicts 0 : 6052 1 : 405 2 : 401 3 : 0 
Heartbeat_Variant_1_evicts 0 : 407 1 : 0 2 : 582 3 : 0 
Heartbeat_Variant_2_evicts 0 : 393 1 : 588 2 : 0 3 : 0 
Heartbeat_Variant_3_evicts 0 : 0 1 : 0 2 : 0 3 : 0 
Heartbeat CPU 0 instructions: 60000001 cycles: 25325409 heartbeat IPC: 0.882143 cumulative IPC: 0.882143 (Simulation time: 0 hr 7 min 40 sec) 
Cycle: 30000000 FTQ IN: 8994790 FTQ occupancy: 14.8354 DECODE IN: 8994790 DECODE occupancy: 4.94068 ROB IN: 8994802 ROB occupancy: 53.2578 ROB OUT: 8994809
Heartbeat_Variant_0 : 1394 0.340332 per_variant_size: 0 1394 0 0 0 0 0 0 0 
Heartbeat_Variant_1 : 1298 0.316895 per_variant_size: 0 569 729 0 0 0 0 0 0 
Heartbeat_Variant_2 : 1364 0.333008 per_variant_size: 0 512 371 273 208 0 0 0 0 
Heartbeat_Variant_3 : 0 0 per_variant_size: 0 0 0 0 0 0 0 0 0 
Heartbeat_Variant_0_evicts 0 : 5603 1 : 60 2 : 56 3 : 0 
Heartbeat_Variant_1_evicts 0 : 51 1 : 0 2 : 268 3 : 0 
Heartbeat_Variant_2_evicts 0 : 61 1 : 259 2 : 0 3 : 0 
Heartbeat_Variant_3_evicts 0 : 0 1 : 0 2 : 0 3 : 0 
Heartbeat CPU 0 instructions: 70000000 cycles: 36421749 heartbeat IPC: 0.901198 cumulative IPC: 0.891569 (Simulation time: 0 hr 8 min 53 sec) 
Cycle: 40000000 FTQ IN: 8920864 FTQ occupancy: 14.8703 DECODE IN: 8920865 DECODE occupancy: 4.9702 ROB IN: 8920853 ROB occupancy: 55.7012 ROB OUT: 8920816
Heartbeat_Variant_0 : 1403 0.342529 per_variant_size: 0 1403 0 0 0 0 0 0 0 
Heartbeat_Variant_1 : 1298 0.316895 per_variant_size: 0 560 738 0 0 0 0 0 0 
Heartbeat_Variant_2 : 1363 0.332764 per_variant_size: 0 489 381 278 215 0 0 0 0 
Heartbeat_Variant_3 : 0 0 per_variant_size: 0 0 0 0 0 0 0 0 0 
Heartbeat_Variant_0_evicts 0 : 5788 1 : 170 2 : 160 3 : 0 
Heartbeat_Variant_1_evicts 0 : 175 1 : 0 2 : 342 3 : 0 
Heartbeat_Variant_2_evicts 0 : 146 1 : 352 2 : 0 3 : 0 
Heartbeat_Variant_3_evicts 0 : 0 1 : 0 2 : 0 3 : 0 
Heartbeat CPU 0 instructions: 80000000 cycles: 47647858 heartbeat IPC: 0.890781 cumulative IPC: 0.891306 (Simulation time: 0 hr 10 min 5 sec) 
Cycle: 50000000 FTQ IN: 9028513 FTQ occupancy: 14.8981 DECODE IN: 9028519 DECODE occupancy: 4.97422 ROB IN: 9028521 ROB occupancy: 53.6301 ROB OUT: 9028471
Heartbeat_Variant_0 : 1400 0.341797 per_variant_size: 0 1400 0 0 0 0 0 0 0 
Heartbeat_Variant_1 : 1302 0.317871 per_variant_size: 0 564 738 0 0 0 0 0 0 
Heartbeat_Variant_2 : 1365 0.333252 per_variant_size: 0 490 382 280 213 0 0 0 0 
Heartbeat_Variant_3 : 0 0 per_variant_size: 0 0 0 0 0 0 0 0 0 
Heartbeat_Variant_0_evicts 0 : 5621 1 : 12 2 : 17 3 : 0 
Heartbeat_Variant_1_evicts 0 : 14 1 : 0 2 : 213 3 : 0 
Heartbeat_Variant_2_evicts 0 : 19 1 : 213 2 : 0 3 : 0 
Heartbeat_Variant_3_evicts 0 : 0 1 : 0 2 : 0 3 : 0 
Heartbeat CPU 0 instructions: 90000001 cycles: 58646416 heartbeat IPC: 0.90921 cumulative IPC: 0.895716 (Simulation time: 0 hr 11 min 16 sec) 
Cycle: 60000000 FTQ IN: 9108329 FTQ occupancy: 14.9058 DECODE IN: 9108322 DECODE occupancy: 4.98812 ROB IN: 9108320 ROB occupancy: 54.186 ROB OUT: 9108404
Heartbeat_Variant_0 : 1392 0.339844 per_variant_size: 0 1392 0 0 0 0 0 0 0 
Heartbeat_Variant_1 : 1313 0.320557 per_variant_size: 0 577 736 0 0 0 0 0 0 
Heartbeat_Variant_2 : 1365 0.333252 per_variant_size: 0 490 388 284 203 0 0 0 0 
Heartbeat_Variant_3 : 0 0 per_variant_size: 0 0 0 0 0 0 0 0 0 
Heartbeat_Variant_0_evicts 0 : 5735 1 : 123 2 : 133 3 : 0 
Heartbeat_Variant_1_evicts 0 : 122 1 : 0 2 : 308 3 : 0 
Heartbeat_Variant_2_evicts 0 : 142 1 : 296 2 : 0 3 : 0 
Heartbeat_Variant_3_evicts 0 : 0 1 : 0 2 : 0 3 : 0 
Heartbeat CPU 0 instructions: 100000002 cycles: 69840944 heartbeat IPC: 0.893294 cumulative IPC: 0.89523 (Simulation time: 0 hr 12 min 33 sec) 
Finished CPU 0 instructions: 50000003 cycles: 55851563 cumulative IPC: 0.89523 (Simulation time: 0 hr 12 min 33 sec) 

ChampSim completed all CPUs

Region of Interest Statistics

CPU 0 cumulative IPC: 0.89523 instructions: 50000003 cycles: 55851563
 Fetch stage stalled: 27.9542  Sim cycles: 55851563 fetch stall cycle: 15612839
 Empty decode stage: 68.3986  Sim cycles: 55851563 fetch stall cycle: 38201670
ITLB TOTAL     ACCESS:    7341460  HIT:    6846851  MISS:     494609  HIT %:    93.2628  MISS %:     6.7372   MPKI: 9.89218
ITLB LOAD TRANSLATION INSTRUCTION	ACCESS:    7341460  HIT:    6846851  MISS:     494609  HIT %:    93.2628  MISS %:     6.7372  MPKI: 9.89218

ITLB AVERAGE MISS LATENCY: 9.06408 cycles
ITLB RQ	ACCESS:    8467010	FORWARD:          0	MERGED:     925121	TO_CACHE:    7541889

DTLB TOTAL     ACCESS:   10295543  HIT:    9820447  MISS:     475096  HIT %:    95.3854  MISS %:    4.61458   MPKI: 9.50192
DTLB LOAD TRANSLATION DATA	ACCESS:   10295543  HIT:    9820447  MISS:     475096  HIT %:    95.3854  MISS %:    4.61458  MPKI: 9.50192

DTLB AVERAGE MISS LATENCY: 9.34242 cycles
DTLB RQ	ACCESS:   14414754	FORWARD:          0	MERGED:    4088990	TO_CACHE:   10325764

STLB TOTAL     ACCESS:    1229166  HIT:    1226882  MISS:       2284  HIT %:    99.8142  MISS %:   0.185817   MPKI: 0.04568
STLB LOAD TRANSLATION INSTRUCTION	ACCESS:     494609  HIT:     494257  MISS:        352  HIT %:    99.9288  MISS %:  0.0711673  MPKI: 0.00704
STLB LOAD TRANSLATION DATA	ACCESS:     475078  HIT:     473170  MISS:       1908  HIT %:    99.5984  MISS %:   0.401618  MPKI: 0.03816
STLB TRANSLATION FROM L1D PREFETCHER DATA	ACCESS:     259479  HIT:     259455  MISS:         24  HIT %:    99.9908  MISS %:  0.0092493  MPKI: 0.00048

STLB AVERAGE MISS LATENCY: 75.7811 cycles
STLB RQ	ACCESS:    1346729	FORWARD:          0	MERGED:     117528	TO_CACHE:    1229201

STLB Hit, L1D data hit: 0
STLB Hit, L2C data hit: 0
STLB Hit, LLC data hit: 0
STLB Hit, LLC data miss: 0
STLB STLB hints to L2: 0
L1D TOTAL     ACCESS:   14203002  HIT:   13086911  MISS:    1116091  HIT %:    92.1419  MISS %:    7.85813   MPKI: 22.3218
L1D LOAD DATA	ACCESS:    7557235  HIT:    6823725  MISS:     733510  HIT %:    90.2939  MISS %:    9.70606  MPKI: 14.6702
L1D RFO DATA	ACCESS:    6308897  HIT:    6020842  MISS:     288055  HIT %:    95.4341  MISS %:    4.56585  MPKI: 5.7611
L1D PREFETCH DATA	ACCESS:     336870  HIT:     242344  MISS:      94526  HIT %:    71.9399  MISS %:    28.0601  MPKI: 1.89052

L1D PREFETCH  REQUESTED:     754124  ISSUED:     754124  USEFUL:      35038  USELESS:      67696
L1D USEFUL LOAD PREFETCHES:      35038 PREFETCH ISSUED TO LOWER LEVEL:     102834  ACCURACY: 34.0724
 TIMELY PREFETCHES:      35038 LATE PREFETCHES: 8185 DROPPED PREFETCHES: 2
L1D AVERAGE MISS LATENCY: 316234 cycles
L1D RQ	ACCESS:   11400323	FORWARD:          0	MERGED:    3653624	TO_CACHE:    7591622
L1D WQ	ACCESS:    6946346	FORWARD:     155153	MERGED:     123214	TO_CACHE:    6823132
L1D PQ	ACCESS:     377100	FORWARD:          0	MERGED:          0	TO_CACHE:     377024

L1D UNIQUE REGIONS ACCESSED: 0
L1D REGIONS CONFLICTS: 0
L1D Cross Page Prefetch Requests: 7077
L1D Same Page Prefetch Requests: 763475
L1D ROI Sum of L1D PQ occupancy: 4800070
L1D PREFETCHES PUSHED FROM L2C: 0
L1I TOTAL     ACCESS:    7928107  HIT:    5161985  MISS:    2766122  HIT %:    65.1099  MISS %:    34.8901   MPKI: 55.3224
L1I LOAD INSTRUCTION	ACCESS:    7928107  HIT:    5161985  MISS:    2766122  HIT %:    65.1099  MISS %:    34.8901  MPKI: 55.3224

L1I AVERAGE MISS LATENCY: 17.0651 cycles
L1I RQ	ACCESS:   15502282	FORWARD:          0	MERGED:    7035272	TO_CACHE:    8467010

L1BTB TOTAL     ACCESS:    5671004  HIT:    2044170  MISS:    3626834  HIT %:     36.046  MISS %:     63.954   MPKI: 72.5367
L1BTB BRANCH_DIRECT_JUMP	ACCESS:     549176  HIT:     144568  MISS:     404608	AVERAGE STALL: 24.3426
L1BTB BRANCH_INDIRECT	ACCESS:     183034  HIT:      66111  MISS:     116923	AVERAGE STALL: 49.9333
L1BTB BRANCH_CONDITIONAL	ACCESS:    2711999  HIT:    1419560  MISS:    1292439	AVERAGE STALL: 31.8852
L1BTB BRANCH_DIRECT_CALL	ACCESS:     942394  HIT:     104588  MISS:     837806	AVERAGE STALL: 34.3994
L1BTB BRANCH_INDIRECT_CALL	ACCESS:     170999  HIT:      20779  MISS:     150220	AVERAGE STALL: 65.4523
L1BTB BRANCH_RETURN	ACCESS:    1113402  HIT:     288564  MISS:     824838	AVERAGE STALL: 33.0491
L1BTB BRANCH_OTHER ACCESS:          0  HIT:          0  MISS:          0	AVERAGE STALL: -nan
L1BTB TOTAL ROB OCCUPANCY AT BTB MISS: 0.697054

L2BTB TOTAL     ACCESS:    3601351  HIT:    3529679  MISS:      71672  HIT %:    98.0099  MISS %:    1.99014   MPKI: 1.43344
L2BTB BRANCH_DIRECT_JUMP	ACCESS:     400414  HIT:     395304  MISS:       5110	AVERAGE STALL: 24.3426
L2BTB BRANCH_INDIRECT	ACCESS:     106615  HIT:     103818  MISS:       2797	AVERAGE STALL: 49.9333
L2BTB BRANCH_CONDITIONAL	ACCESS:    1292438  HIT:    1286079  MISS:       6359	AVERAGE STALL: 31.8852
L2BTB BRANCH_DIRECT_CALL	ACCESS:     837806  HIT:     834491  MISS:       3315	AVERAGE STALL: 34.3994
L2BTB BRANCH_INDIRECT_CALL	ACCESS:     140651  HIT:     130226  MISS:      10425	AVERAGE STALL: 65.4523
L2BTB BRANCH_RETURN	ACCESS:     823427  HIT:     779761  MISS:      43666	AVERAGE STALL: 33.0491
L2BTB BRANCH_OTHER ACCESS:          0  HIT:          0  MISS:          0	AVERAGE STALL: -nan
L2BTB TOTAL ROB OCCUPANCY AT BTB MISS: 35.2732

L2C TOTAL     ACCESS:    4496561  HIT:    3987758  MISS:     508803  HIT %:    88.6846  MISS %:    11.3154   MPKI: 10.1761
L2C LOAD INSTRUCTION	ACCESS:    2766122  HIT:    2501431  MISS:     264691  HIT %:     90.431  MISS %:    9.56903  MPKI: 5.29382
L2C LOAD TRANSLATION INSTRUCTION	ACCESS:        409  HIT:        115  MISS:        294  HIT %:    28.1174  MISS %:    71.8826  MPKI: 0.00588
L2C LOAD DATA	ACCESS:     725317  HIT:     643709  MISS:      81608  HIT %:    88.7486  MISS %:    11.2514  MPKI: 1.63216
L2C RFO DATA	ACCESS:     287926  HIT:     223326  MISS:      64600  HIT %:    77.5637  MISS %:    22.4363  MPKI: 1.292
L2C PREFETCH DATA	ACCESS:     191857  HIT:     117210  MISS:      74647  HIT %:    61.0924  MISS %:    38.9076  MPKI: 1.49294
L2C WRITEBACK DATA	ACCESS:     522876  HIT:     501476  MISS:      21400  HIT %:    95.9073  MISS %:    4.09275  MPKI: 0.428
L2C LOAD TRANSLATION DATA	ACCESS:       2013  HIT:        466  MISS:       1547  HIT %:    23.1495  MISS %:    76.8505  MPKI: 0.03094
L2C TRANSLATION FROM L1D PREFETCHER DATA	ACCESS:         41  HIT:         25  MISS:         16  HIT %:    60.9756  MISS %:    39.0244  MPKI: 0.00032

L2C PREFETCH  REQUESTED:      97255  ISSUED:      97255  USEFUL:       9400  USELESS:      65687
L2C USEFUL LOAD PREFETCHES:       9400 PREFETCH ISSUED TO LOWER LEVEL:      75040  ACCURACY: 12.5267
 TIMELY PREFETCHES:       9400 LATE PREFETCHES: 393 DROPPED PREFETCHES: 0
L2C AVERAGE MISS LATENCY: 38.2263 cycles
L2C RQ	ACCESS:    3781843	FORWARD:          0	MERGED:          0	TO_CACHE:    3781829
L2C WQ	ACCESS:     522876	FORWARD:         14	MERGED:          0	TO_CACHE:     522876
L2C PQ	ACCESS:     200089	FORWARD:          0	MERGED:       3570	TO_CACHE:     196519

L2C Dense regions hint from L2: 0
PSCL5 TOTAL     ACCESS:       4578  HIT:       2289  MISS:       2289  HIT %:         50  MISS %:         50   MPKI: 0.04578
PSCL5 LOAD TRANSLATION INSTRUCTION	ACCESS:       4496  HIT:       2248  MISS:       2248  HIT %:         50  MISS %:         50  MPKI: 0.04496
PSCL5 TRANSLATION FROM L1D PREFETCHER INSTRUCTION	ACCESS:         82  HIT:         41  MISS:         41  HIT %:         50  MISS %:         50  MPKI: 0.00082


PSCL4 TOTAL     ACCESS:       4249  HIT:       2117  MISS:       2132  HIT %:    49.8235  MISS %:    50.1765   MPKI: 0.04264
PSCL4 LOAD TRANSLATION INSTRUCTION	ACCESS:       2307  HIT:       2077  MISS:        230  HIT %:    90.0303  MISS %:    9.96966  MPKI: 0.0046
PSCL4 TRANSLATION FROM L1D PREFETCHER INSTRUCTION	ACCESS:         45  HIT:         40  MISS:          5  HIT %:    88.8889  MISS %:    11.1111  MPKI: 0.0001
PSCL4 LOAD TRANSLATION DATA	ACCESS:       1862  HIT:          0  MISS:       1862  HIT %:          0  MISS %:        100  MPKI: 0.03724
PSCL4 TRANSLATION FROM L1D PREFETCHER DATA	ACCESS:         35  HIT:          0  MISS:         35  HIT %:          0  MISS %:        100  MPKI: 0.0007


PSCL3 TOTAL     ACCESS:       4357  HIT:       2171  MISS:       2186  HIT %:    49.8279  MISS %:    50.1721   MPKI: 0.04372
PSCL3 LOAD TRANSLATION INSTRUCTION	ACCESS:       2361  HIT:       2131  MISS:        230  HIT %:    90.2584  MISS %:    9.74163  MPKI: 0.0046
PSCL3 TRANSLATION FROM L1D PREFETCHER INSTRUCTION	ACCESS:         45  HIT:         40  MISS:          5  HIT %:    88.8889  MISS %:    11.1111  MPKI: 0.0001
PSCL3 LOAD TRANSLATION DATA	ACCESS:       1916  HIT:          0  MISS:       1916  HIT %:          0  MISS %:        100  MPKI: 0.03832
PSCL3 TRANSLATION FROM L1D PREFETCHER DATA	ACCESS:         35  HIT:          0  MISS:         35  HIT %:          0  MISS %:        100  MPKI: 0.0007


PSCL2 TOTAL     ACCESS:       4429  HIT:       2140  MISS:       2289  HIT %:    48.3179  MISS %:    51.6821   MPKI: 0.04578
PSCL2 LOAD TRANSLATION INSTRUCTION	ACCESS:       2470  HIT:       2099  MISS:        371  HIT %:    84.9798  MISS %:    15.0202  MPKI: 0.00742
PSCL2 TRANSLATION FROM L1D PREFETCHER INSTRUCTION	ACCESS:         41  HIT:         41  MISS:          0  HIT %:        100  MISS %:          0  MPKI: 0
PSCL2 LOAD TRANSLATION DATA	ACCESS:       1877  HIT:          0  MISS:       1877  HIT %:          0  MISS %:        100  MPKI: 0.03754
PSCL2 TRANSLATION FROM L1D PREFETCHER DATA	ACCESS:         41  HIT:          0  MISS:         41  HIT %:          0  MISS %:        100  MPKI: 0.00082


LLC TOTAL     ACCESS:     579704  HIT:     549382  MISS:      30322  HIT %:    94.7694  MISS %:     5.2306   MPKI: 0.60644
LLC LOAD INSTRUCTION	ACCESS:     264691  HIT:     263427  MISS:       1264  HIT %:    99.5225  MISS %:   0.477538  MPKI: 0.02528
LLC LOAD TRANSLATION INSTRUCTION	ACCESS:        294  HIT:        245  MISS:         49  HIT %:    83.3333  MISS %:    16.6667  MPKI: 0.00098
LLC LOAD DATA	ACCESS:      81225  HIT:      77350  MISS:       3875  HIT %:    95.2293  MISS %:     4.7707  MPKI: 0.0775
LLC RFO DATA	ACCESS:      64588  HIT:      50103  MISS:      14485  HIT %:    77.5732  MISS %:    22.4268  MPKI: 0.2897
LLC PREFETCH DATA	ACCESS:      75040  HIT:      64777  MISS:      10263  HIT %:    86.3233  MISS %:    13.6767  MPKI: 0.20526
LLC WRITEBACK DATA	ACCESS:      92303  HIT:      92005  MISS:        298  HIT %:    99.6772  MISS %:    0.32285  MPKI: 0.00596
LLC LOAD TRANSLATION DATA	ACCESS:       1547  HIT:       1459  MISS:         88  HIT %:    94.3116  MISS %:    5.68843  MPKI: 0.00176
LLC TRANSLATION FROM L1D PREFETCHER DATA	ACCESS:         16  HIT:         16  MISS:          0  HIT %:        100  MISS %:          0  MPKI: 0

LLC AVERAGE MISS LATENCY: 157.919 cycles
LLC RQ	ACCESS:     412363	FORWARD:          0	MERGED:          0	TO_CACHE:     412361
LLC WQ	ACCESS:      92303	FORWARD:          2	MERGED:          0	TO_CACHE:      92303
LLC PQ	ACCESS:      75040	FORWARD:          0	MERGED:          0	TO_CACHE:      75040

LLC Dense regions hint to LLC: 0

RAW hits: 1235872
Loads Generated: 12636195
Loads sent to L1D: 11400323
Stores Generated: 6946326
Stores sent to L1D: 6946346
Major fault: 0 Minor fault: 2667
Allocated PAGES: 2667

stream: 
stream:times selected: 1205306
stream:pref_filled: 119840
stream:pref_useful: 24899
stream:pref_late: 6361
stream:misses: 7482
stream:misses_by_poll: 0

CS: 
CS:times selected: 183227
CS:pref_filled: 60560
CS:pref_useful: 37460
CS:pref_late: 6918
CS:misses: 16366
CS:misses_by_poll: 0

CPLX: 
CPLX:times selected: 1020955
CPLX:pref_filled: 22018
CPLX:pref_useful: 5077
CPLX:pref_late: 2983
CPLX:misses: 91135
CPLX:misses_by_poll: 2

NL_L1: 
NL:times selected: 20798
NL:pref_filled: 692
NL:pref_useful: 371
NL:pref_late: 329
NL:misses: 1442
NL:misses_by_poll: 0

total selections: 2430286
total_filled: 94526
total_useful: 35038
total_late: 17838
total_polluted: 2
total_misses_after_warmup: 767897
conflicts: 5960567

test: 121665

DRAM Statistics
 CHANNEL 0
 RQ ROW_BUFFER_HIT:      10937  ROW_BUFFER_MISS:      19082
 DBUS_CONGESTED:          7
 WQ ROW_BUFFER_HIT:       1650  ROW_BUFFER_MISS:      13488  FULL:          0

 AVG_CONGESTED_CYCLE: 5

CPU 0 Branch Prediction Accuracy: 99.805% MPKI: 0.35664 Average ROB Occupancy at Mispredict: 69.8498
Branch types
NOT_BRANCH: 40855590 81.7112%
BRANCH_DIRECT_JUMP: 549176 1.09835%
BRANCH_INDIRECT: 183034 0.366068%
BRANCH_CONDITIONAL: 6185123 12.3702%
BRANCH_DIRECT_CALL: 942394 1.88479%
BRANCH_INDIRECT_CALL: 170999 0.341998%
BRANCH_RETURN: 1113402 2.2268%
BRANCH_OTHER: 0 0%

DRAM PAGES: 1048576
Allocated PAGES: 2667
Average_ROB_Occupancy: 55.2148
Average_Decode_Occupancy: 4.94597
Average_FTQ_Occupancy: 14.8365
Indirect max targets: 14 Average targets: 1.17516
Branch_type:  BRANCH_DIRECT_JUMP:  Count Percentage: 3.35057 5.84879 5.02867 2.13299 8.64463 6.0087 1.68047 67.3052 
Branch_type:  BRANCH_INDIRECT:  Count Percentage: 11.7222 3.48802 2.64166 13.42 3.32718 2.79107 2.1167 60.4932 
Branch_type:  BRANCH_CONDITIONAL:  Count Percentage: 25.9648 2.44914 2.20223 3.66506 2.87948 4.62202 0.982262 57.2351 
Branch_type:  BRANCH_DIRECT_CALL:  Count Percentage: 0.857937 1.24836 0.787888 2.12694 4.44649 2.63485 1.49474 86.4028 
Branch_type:  BRANCH_INDIRECT_CALL:  Count Percentage: 9.54921 0 2.99068 0.000881601 0 1.71178 1.00444 84.743 
Branch_type:  BRANCH_RETURN:  Count Percentage: 8.28348 1.25487 2.19604 2.99829 2.83688 5.08966 1.08642 76.2543 
Branch_type:  BRANCH_DIRECT_JUMP:  Total Count: 36814 64263 55252 23436 94982 66020 18464 739509 
Branch_type:  BRANCH_INDIRECT:  Total Count: 43074 12817 9707 49313 12226 10256 7778 222287 
Branch_type:  BRANCH_CONDITIONAL:  Total Count: 3211793 302954 272412 453361 356186 571735 121504 7079872 
Branch_type:  BRANCH_DIRECT_CALL:  Total Count: 16081 23399 14768 39867 83344 49387 28017 1619516 
Branch_type:  BRANCH_INDIRECT_CALL:  Total Count: 32495 0 10177 3 0 5825 3418 288372 
Branch_type:  BRANCH_RETURN:  Total Count: 183523 27802 48654 66428 62852 112763 24070 1689438 
Number of unique branch instructions: 10706
Upper 32 bits: 
aaaa
ffff
ffff0000
Unique upper 32 bits: 3
Unique upper 36 bits: 3
Unique upper 40 bits: 5
Unique upper 44 bits: 32
Unique upper 48 bits: 158
Variant_0 : 1392 0.339844
Variant_1 : 1313 0.320557
Variant_2 : 1365 0.333252
Variant_3 : 0 0
Offset_3 4437
Offset_4 263
Offset_5 481
Offset_6 539
Offset_7 634
Offset_8 582
Offset_9 509
Offset_10 419
Offset_11 347
Offset_12 310
Offset_13 238
Offset_14 246
Offset_15 194
Offset_16 226
Offset_17 166
Offset_18 144
Offset_19 260
Offset_20 141
Offset_21 235
Offset_22 409
Offset_23 245
Offset_24 344
Offset_25 117
Offset_47 94
Offset_64 5
decode_dispatch_called: 30336471 54.3162
Dispatch_width: 0 18240292 60.1266 32.6585
Dispatch_width: 1 2287890 7.54171 4.09638
Dispatch_width: 2 1130725 3.72728 2.02452
Dispatch_width: 3 1093847 3.60572 1.95849
Dispatch_width: 4 1037352 3.41949 1.85734
Dispatch_width: 5 1258760 4.14933 2.25376
Dispatch_width: 6 5287605 17.4299 9.46725
Empty_decode_cycles: 25515092 45.6838
ROB_full_cycles: 529395 0.947861
Starvation_cycles_per_kilo_instr: 500.346
Starvation_cycles_per_kilo_instr_3: 477.384
Starvation_cycles_per_kilo_instr_0: 432.26
Branch_type_1  (3,1)  (4,9)  (5,39)  (6,71)  (7,123)  (8,154)  (9,136)  (10,110)  (11,78)  (12,47)  (13,11)  (14,2)  (15,3)  (16,4)  (18,1)  (19,5)  (20,2)  (21,1)  (22,3)  (23,2)  (24,10)  (25,12)  (64,1) 
Branch_type_2  (3,1)  (4,1)  (5,1)  (8,4)  (9,4)  (10,1)  (12,1)  (13,1)  (14,1)  (16,3)  (17,2)  (20,2)  (21,2)  (23,5)  (24,1)  (47,42) 
Branch_type_3  (3,4435)  (4,253)  (5,437)  (6,451)  (7,480)  (8,355)  (9,275)  (10,170)  (11,133)  (12,54)  (13,10)  (64,2) 
Branch_type_4  (6,3)  (7,8)  (8,29)  (9,55)  (10,66)  (11,70)  (12,116)  (13,101)  (14,110)  (15,92)  (16,99)  (17,77)  (18,61)  (19,127)  (20,72)  (21,124)  (22,215)  (23,138)  (24,199)  (25,101)  (64,1) 
Branch_type_5  (8,3)  (9,1)  (10,4)  (11,5)  (12,3)  (13,14)  (14,16)  (15,11)  (16,22)  (17,11)  (18,23)  (19,14)  (20,11)  (21,13)  (22,43)  (23,26)  (24,38) 
Branch_type_6  (5,4)  (6,14)  (7,23)  (8,37)  (9,38)  (10,68)  (11,61)  (12,89)  (13,101)  (14,117)  (15,88)  (16,98)  (17,76)  (18,59)  (19,114)  (20,54)  (21,95)  (22,148)  (23,74)  (24,96)  (25,4)  (47,52)  (64,1) 
Unique trigger count: 
Variant_0_evicts_0 : 0
Variant_0_evicts_1 : 0
Variant_0_evicts_2 : 0
Variant_0_evicts_3 : 0
Variant_1_evicts_0 : 0
Variant_1_evicts_1 : 0
Variant_1_evicts_2 : 0
Variant_1_evicts_3 : 0
Variant_2_evicts_0 : 0
Variant_2_evicts_1 : 0
Variant_2_evicts_2 : 0
Variant_2_evicts_3 : 0
Variant_3_evicts_0 : 0
Variant_3_evicts_1 : 0
Variant_3_evicts_2 : 0
Variant_3_evicts_3 : 0
BTB PER SET UNIQUE ADDR: 14 16 9 13 13 14 11 13 16 16 8 12 16 11 10 9 12 9 11 16 15 13 18 16 10 17 11 15 14 14 20 20 15 11 11 13 13 16 8 14 10 13 14 19 7 11 13 11 16 14 16 12 15 14 10 8 9 11 11 12 12 22 14 16 13 18 11 11 12 10 13 14 13 9 7 8 8 16 10 15 12 10 15 17 14 13 13 16 12 20 14 9 14 12 8 15 13 15 13 15 21 20 16 9 13 14 11 11 6 10 13 20 12 11 12 9 15 13 14 16 11 9 10 11 12 15 10 13 17 10 10 18 10 13 11 19 11 16 8 11 9 14 11 12 12 14 9 11 5 15 16 17 12 13 14 16 19 13 16 18 15 17 16 16 13 13 14 10 15 9 13 16 12 10 10 10 7 15 10 14 9 10 12 13 23 15 7 9 13 13 12 13 11 17 17 12 11 16 9 15 15 12 12 11 13 12 13 14 8 11 10 14 15 12 14 16 12 10 12 16 13 21 13 8 11 16 20 13 10 18 7 7 11 21 10 17 13 14 11 7 12 11 20 20 10 10 10 9 11 7 13 19 12 12 17 17 12 10 10 12 14 11 8 11 15 7 10 10 14 11 10 15 10 9 6 10 10 13 16 12 10 14 12 11 12 10 15 22 19 15 8 11 17 16 8 17 12 19 10 15 11 8 14 20 14 14 13 12 18 10 11 20 10 19 14 8 20 17 10 17 10 17 9 12 19 14 16 9 14 8 14 14 6 12 12 18 11 14 9 20 12 13 7 18 14 15 7 10 13 12 15 8 15 15 17 18 15 13 11 8 12 16 13 16 13 15 12 13 18 16 14 12 13 17 8 16 12 16 13 15 14 17 11 10 10 11 16 12 14 19 19 10 12 15 11 7 12 14 16 11 12 10 14 15 17 16 12 12 15 11 12 7 8 17 11 10 15 16 19 18 10 8 14 14 17 12 11 13 14 9 19 14 14 10 13 17 18 12 13 13 15 16 12 15 19 9 10 17 18 14 15 10 17 12 17 17 14 16 11 18 11 14 17 14 13 10 16 11 16 14 10 15 14 12 15 19 9 21 8 16 19 10 14 14 9 14 18 18 20 15 13 15 13 6 9 14 14 14 9 15 14 11 15 20 8 11 11 15 16 11 13 18 15 13 11 14 11 16 8 10 11 13 11 10 10 17 19 6 10 14 15 17 14 12 12 12 9 16 12 16 15 11 13 13 21 15 12 18 10 12 15 15 11 15 14 17 17 11 17 19 16 15 15 12 11 15 9 16 15 16 13 16 19 13 16 15 9 11 9 14 15 13 8 9 16 18 13 14 17 12 11 16 12 12 13 14 10 16 13 14 12 9 7 8 11 18 19 10 12 12 17 11 14 16 5 22 15 12 12 15 17 16 9 8 12 14 12 19 13 17 12 15 18 10 11 10 18 17 12 20 7 17 18 15 12 10 12 17 14 16 12 15 11 13 18 12 13 14 15 17 12 7 18 16 7 11 6 15 10 9 15 11 10 14 18 11 15 20 8 18 15 16 11 12 14 16 13 17 16 13 14 16 17 7 12 10 10 16 8 23 11 16 11 19 8 15 15 14 12 7 12 14 10 17 13 11 15 12 5 14 16 11 17 15 11 8 14 12 12 8 14 8 15 10 7 13 18 17 20 15 9 12 9 16 11 20 15 11 11 11 13 12 14 16 12 13 16 9 10 9 11 8 9 12 12 15 12 14 11 12 10 16 11 10 15 14 9 15 14 17 9 13 16 15 11 14 16 13 11 7 7 7 11 18 13 17 10 11 16 11 20 13 15 11 21 13 13 10 11 11 14 19 11 14 15 19 17 14 8 18 16 18 9 16 11 14 14 12 14 16 10 13 15 12 15 14 11 12 13 12 20 13 13 12 13 20 14 23 11 10 11 10 14 13 15 19 11 12 17 8 17 13 8 12 18 6 18 10 22 10 13 16 16 14 14 9 12 16 13 10 15 10 13 20 11 14 14 10 16 16 12 13 12 14 12 14 15 12 8 6 13 10 12 15 8 13 10 16 12 16 12 11 11 15 16 13 20 15 12 15 18 16 9 10 11 15 9 15 17 15 16 20 21 11 15 10 8 20 13 17 11 19 12 13 13 12 14 14 13 16 13 14 12 12 9 16 12 12 15 14 12 13 10 15 15 14 14 14 9 13 11 17 12 12 14 14 20 18 15 18 10 12 12 12 12 29 15 17 17 17 13 19 12 14 18 11 10 15 14 10 19 15 11 17 17 19 12 12 13 14 13 13 14 10 14 12 5 9 3 10 12 18 10 7 
BTB PER SET COUNT: 577 22 1479 20 15 21 15 23 1481 22 13 445 87 1361 12 12 961 680 17 32 49 379 805 81 20 21 13 60 400 235 212 38 25 14 13 284 21 24 13 790 11 16 17 535 8 96 25 14 281 19 30 210 26 32 13 391 11 19 23 23 26 30 19 22 17 179 16 815 20 15 21 763 19 13 9 8 15 458 14 23 785 19 1462 31 17 16 18 24 13 68 24 794 530 23 8 16 31 229 15 252 33 647 19 11 484 28 13 14 8 14 15 44 1253 17 22 26 22 18 1413 30 17 13 16 13 13 53 17 2065 29 803 12 25 14 18 21 36 284 29 9 17 13 20 12 21 23 18 14 481 7 57 23 180 934 20 29 26 32 23 20 818 19 23 346 21 124 16 27 13 17 1534 19 20 16 12 12 17 8 24 953 291 569 245 3334 16 352 31 8 14 21 1261 18 22 13 31 26 22 14 36 13 24 18 17 21 14 25 15 16 26 8 590 14 19 22 20 18 25 17 13 2812 35 16 28 71 8 16 28 28 19 14 30 10 9 16 28 512 5926 21 21 17 8 13 15 35 34 15 488 13 9 15 8 21 33 18 20 21 726 14 32 13 19 405 15 11 258 23 10 13 16 1304 13 12 24 10 11 276 11 21 20 25 24 22 24 40 15 15 14 22 722 29 23 9 15 23 19 12 30 517 28 13 99 16 12 439 33 21 17 25 14 34 17 319 27 16 23 1467 521 34 32 24 38 15 5550 13 19 418 517 133 20 18 9 21 22 16 17 14 20 15 21 12 376 12 879 7 40 128 27 25 17 20 24 209 143 29 16 28 27 30 24 143 16 22 23 17 24 14 147 16 20 31 23 30 528 17 1425 15 18 18 23 22 967 253 25 19 10 21 12 697 16 19 28 365 13 16 23 13 7 12 19 22 153 17 13 711 17 35 24 20 14 24 14 15 10 9 32 16 14 19 1475 727 21 10 8 24 31 29 14 371 17 18 16 41 16 23 19 259 27 28 40 20 15 664 22 15 25 424 14 14 28 20 18 1702 12 23 13 145 25 16 20 14 27 52 24 29 19 14 28 3841 16 20 19 16 21 18 21 17 36 16 401 12 28 42 689 33 23 11 226 295 25 42 27 16 19 104 7 10 28 1035 31 16 21 40 36 15 30 9 14 14 27 21 14 21 1928 22 253 14 16 12 23 12 627 13 19 13 465 12 30 30 6 14 353 17 44 20 18 21 31 112 564 16 20 18 14 22 28 40 95 18 26 18 1383 21 25 702 31 22 25 30 14 27 41 26 109 23 16 333 22 160 29 37 320 732 59 29 17 135 19 12 15 13 20 24 20 13 12 19 27 19 30 23 15 13 22 17 14 20 27 1224 407 258 32 13 13 10 12 19 29 29 3655 12 21 30 15 56 22 6 35 45 17 21 812 25 24 14 1013 22 19 17 86 437 26 18 25 37 161 13 11 23 725 18 30 13 20 30 20 18 14 1036 25 521 29 14 16 13 20 1578 533 23 21 23 26 15 7 447 19 13008 19 6 975 1781 16 33 14 19 19 85 225 24 38 11 25 19 32 16 18 82 24 26 26 49 19 15 19 27 11 2212 15 12 25 11 38 735 35 19 26 13 29 19 22 17 8 19 25 426 20 16 156 23 17 6 33 29 17 25 766 11 13 24 18 1015 15 186 11522 22 24 7 17 1073 17 178 24 479 22 938 80 18 37 727 17 16 11 542 18 1381 1986 1102 16 28 14 12 10 18 11 12 43 23 27 13 20 15 15 85 32 14 17 25 20 12 22 23 27 23 15 1060 27 11 396 22 13 13 9 8 560 16 22 357 192 11 19 25 931 30 18 367 218 32 18 18 12 26 67 15 7711 23 18 29 1088 31 1223 11 1701 23 59 13 30 561 20 20 16 29 18 15 61 23 19 31 43 16 19 26 43 36 15 15 15 635 28 25 47 17 20 16 10 461 24 1474 27 13 16 31 10 587 17 50 19 86 6 33 11 39 13 16 46 26 19 16 11 15 23 3068 16 21 11 136 26 19 50 22 18 30 52 15 17 951 60 26 25 22 21 1889 8 21 11 19 352 11 21 11 21 21 333 21 142 26 20 39 845 728 660 20 21 27 769 1055 11 17 49 10 23 25 30 23 25 798 22 19 17 10 45 758 27 14 603 15 25 23 22 34 22 14 21 31 367 782 1033 13 20 220 17 18 25 21 16 856 23 18 19 19 19 10 25 17 134 18 19 411 16 29 25 261 137 312 19 17 568 15 125 659 265 24 29 29 37 15 531 33 14 13 1474 40 405 30 1469 18 25 27 33 26 13 19 749 295 421 16 11 18 21 6 46 3 12 17 300 13 8 
To predecode: 0
Predecoding something: 0
Predecode request dropped: 0
sizeofblock_0 0
sizeofblock_1 41633
sizeofblock_2 36391
sizeofblock_3 43590
sizeofblock_4 21033
sizeofblock_5 0
sizeofblock_6 0
sizeofblock_7 0
sizeofblock_8 0
Variant_0 Correct: 1603727 Incorrect: 0 Accuracy: 1
Variant_1 Correct: 2080607 Incorrect: 0 Accuracy: 1
Variant_2 Correct: 3618537 Incorrect: 0 Accuracy: 1
Variant_3 Correct: 0 Incorrect: 0 Accuracy: -nan
