
*** ChampSim Multicore Out-of-Order Simulator ***

Warmup Instructions: 50000000
Simulation Instructions: 50000000
Number of CPUs: 1
LLC sets: 2048
LLC ways: 16
Off-chip DRAM Size: 4096 MB Channels: 1 Width: 64-bit Data Rate: 6400 MT/s
CPU 0 runs ./micro_traces/srv640.trace.gz
.gz
ITLB has LRU replacement policy
DTLB has LRU replacement policy
STLB has LRU replacement policy
FDIP Prefetcher at L1I
L1I has LRU replacement policy
L1D has LRU replacement policy
Initialize SRRIP state for L2C
Initialize DRRIP state for LLC
Heartbeat CPU 0 instructions: 10000000 cycles: 2799106 heartbeat IPC: 3.57257 cumulative IPC: 3.57257 (Simulation time: 0 hr 3 min 5 sec) 
Heartbeat CPU 0 instructions: 20000001 cycles: 5597502 heartbeat IPC: 3.57348 cumulative IPC: 3.57302 (Simulation time: 0 hr 5 min 16 sec) 
Heartbeat CPU 0 instructions: 30000003 cycles: 8395787 heartbeat IPC: 3.57362 cumulative IPC: 3.57322 (Simulation time: 0 hr 7 min 28 sec) 
Heartbeat CPU 0 instructions: 40000001 cycles: 11191497 heartbeat IPC: 3.57691 cumulative IPC: 3.57414 (Simulation time: 0 hr 9 min 41 sec) 
Heartbeat CPU 0 instructions: 50000003 cycles: 13987804 heartbeat IPC: 3.57615 cumulative IPC: 3.57454 (Simulation time: 0 hr 11 min 50 sec) 

Warmup complete CPU 0 instructions: 50000003 cycles: 13987804 (Simulation time: 0 hr 11 min 50 sec) 

Cycle: 20000000 FTQ IN: 57559951 FTQ occupancy: 19.142 DECODE IN: 57559951 DECODE occupancy: 49.1955 ROB IN: 57559951 ROB occupancy: 297.625 ROB OUT: 57559672
Heartbeat CPU 0 instructions: 60000002 cycles: 21885206 heartbeat IPC: 1.26624 cumulative IPC: 1.26624 (Simulation time: 0 hr 13 min 55 sec) 
Heartbeat CPU 0 instructions: 70000000 cycles: 29615937 heartbeat IPC: 1.29354 cumulative IPC: 1.27974 (Simulation time: 0 hr 16 min 5 sec) 
Cycle: 30000000 FTQ IN: 12941989 FTQ occupancy: 10.2962 DECODE IN: 12941869 DECODE occupancy: 24.5172 ROB IN: 12941869 ROB occupancy: 183.922 ROB OUT: 12942060
Heartbeat CPU 0 instructions: 80000000 cycles: 37456675 heartbeat IPC: 1.27539 cumulative IPC: 1.27829 (Simulation time: 0 hr 18 min 17 sec) 
Cycle: 40000000 FTQ IN: 12817046 FTQ occupancy: 10.4535 DECODE IN: 12817053 DECODE occupancy: 24.7211 ROB IN: 12817053 ROB occupancy: 184.574 ROB OUT: 12817092
Heartbeat CPU 0 instructions: 90000003 cycles: 45144397 heartbeat IPC: 1.30078 cumulative IPC: 1.28384 (Simulation time: 0 hr 20 min 31 sec) 
Cycle: 50000000 FTQ IN: 12824375 FTQ occupancy: 10.435 DECODE IN: 12824466 DECODE occupancy: 24.6885 ROB IN: 12824466 ROB occupancy: 183.593 ROB OUT: 12824506
Heartbeat CPU 0 instructions: 100000002 cycles: 52971621 heartbeat IPC: 1.27759 cumulative IPC: 1.28258 (Simulation time: 0 hr 23 min 43 sec) 
Finished CPU 0 instructions: 50000003 cycles: 38983818 cumulative IPC: 1.28258 (Simulation time: 0 hr 23 min 43 sec) 

ChampSim completed all CPUs

Region of Interest Statistics

CPU 0 cumulative IPC: 1.28258 instructions: 50000003 cycles: 38983818
 Fetch stage stalled: 60.3177  Sim cycles: 38983818 fetch stall cycle: 23514146
 Empty decode stage: 46.4306  Sim cycles: 38983818 fetch stall cycle: 18100409
ITLB TOTAL     ACCESS:    5676964  HIT:    5183037  MISS:     493927  HIT %:    91.2995  MISS %:    8.70055   MPKI: 9.87854
ITLB LOAD TRANSLATION INSTRUCTION	ACCESS:    5551214  HIT:    5057287  MISS:     493927  HIT %:    91.1024  MISS %:    8.89764  MPKI: 9.87854
ITLB TRANSLATION FROM L1D PREFETCHER INSTRUCTION	ACCESS:     125750  HIT:     125750  MISS:          0  HIT %:        100  MISS %:          0  MPKI: 0

ITLB AVERAGE MISS LATENCY: 9.06945 cycles
ITLB RQ	ACCESS:    7647888	FORWARD:          0	MERGED:    1475846	TO_CACHE:    6172042

DTLB TOTAL     ACCESS:    9086455  HIT:    8614118  MISS:     472337  HIT %:    94.8017  MISS %:    5.19825   MPKI: 9.44674
DTLB LOAD TRANSLATION DATA	ACCESS:    9086455  HIT:    8614118  MISS:     472337  HIT %:    94.8017  MISS %:    5.19825  MPKI: 9.44674

DTLB AVERAGE MISS LATENCY: 9.34964 cycles
DTLB RQ	ACCESS:   13425423	FORWARD:          0	MERGED:    4303158	TO_CACHE:    9122265

STLB TOTAL     ACCESS:    1215587  HIT:    1213306  MISS:       2281  HIT %:    99.8124  MISS %:   0.187646   MPKI: 0.04562
STLB LOAD TRANSLATION INSTRUCTION	ACCESS:     493927  HIT:     493576  MISS:        351  HIT %:    99.9289  MISS %:  0.0710631  MPKI: 0.00702
STLB LOAD TRANSLATION DATA	ACCESS:     472266  HIT:     470358  MISS:       1908  HIT %:     99.596  MISS %:    0.40401  MPKI: 0.03816
STLB TRANSLATION FROM L1D PREFETCHER DATA	ACCESS:     249394  HIT:     249372  MISS:         22  HIT %:    99.9912  MISS %: 0.00882138  MPKI: 0.00044

STLB AVERAGE MISS LATENCY: 75.0623 cycles
STLB RQ	ACCESS:    1336571	FORWARD:          0	MERGED:     120946	TO_CACHE:    1215625

STLB Hit, L1D data hit: 0
STLB Hit, L2C data hit: 0
STLB Hit, LLC data hit: 0
STLB Hit, LLC data miss: 0
STLB STLB hints to L2: 0
L1D TOTAL     ACCESS:   13172062  HIT:   12054853  MISS:    1117209  HIT %:    91.5183  MISS %:    8.48166   MPKI: 22.3442
L1D LOAD DATA	ACCESS:    6630560  HIT:    5895032  MISS:     735528  HIT %:     88.907  MISS %:     11.093  MPKI: 14.7106
L1D RFO DATA	ACCESS:    6211499  HIT:    5924688  MISS:     286811  HIT %:    95.3826  MISS %:    4.61742  MPKI: 5.73622
L1D PREFETCH DATA	ACCESS:     330003  HIT:     235133  MISS:      94870  HIT %:    71.2518  MISS %:    28.7482  MPKI: 1.8974

L1D PREFETCH  REQUESTED:     740923  ISSUED:     740923  USEFUL:      33978  USELESS:      68596
L1D USEFUL LOAD PREFETCHES:      33978 PREFETCH ISSUED TO LOWER LEVEL:     102609  ACCURACY: 33.1141
 TIMELY PREFETCHES:      33978 LATE PREFETCHES: 7687 DROPPED PREFETCHES: 5
L1D AVERAGE MISS LATENCY: 232966 cycles
L1D RQ	ACCESS:   10751396	FORWARD:          0	MERGED:    3917118	TO_CACHE:    6666750
L1D WQ	ACCESS:    6946346	FORWARD:     167837	MERGED:     187673	TO_CACHE:    6758673
L1D PQ	ACCESS:     370616	FORWARD:          0	MERGED:          0	TO_CACHE:     370307

L1D UNIQUE REGIONS ACCESSED: 0
L1D REGIONS CONFLICTS: 0
L1D Cross Page Prefetch Requests: 7070
L1D Same Page Prefetch Requests: 757959
L1D ROI Sum of L1D PQ occupancy: 4718120
L1D PREFETCHES PUSHED FROM L2C: 0
L1I TOTAL     ACCESS:    6986243  HIT:    4221309  MISS:    2764934  HIT %:    60.4232  MISS %:    39.5768   MPKI: 55.2987
L1I LOAD INSTRUCTION	ACCESS:    6401034  HIT:    3636100  MISS:    2764934  HIT %:    56.8049  MISS %:    43.1951  MPKI: 55.2987
L1I PREFETCH INSTRUCTION	ACCESS:     585209  HIT:     585209  MISS:          0  HIT %:        100  MISS %:          0  MPKI: 0

L1I PREFETCH  REQUESTED:    1365804  ISSUED:    1365804  USEFUL:          0  USELESS:          0
L1I USEFUL LOAD PREFETCHES:          0 PREFETCH ISSUED TO LOWER LEVEL:          0  ACCURACY: -nan
 TIMELY PREFETCHES:          0 LATE PREFETCHES: 0 DROPPED PREFETCHES: 0
L1I AVERAGE MISS LATENCY: 17.6743 cycles
L1I RQ	ACCESS:    9499657	FORWARD:          0	MERGED:    2832251	TO_CACHE:    6667406
L1I PQ	ACCESS:    1365804	FORWARD:          0	MERGED:     385322	TO_CACHE:     980482

L1BTB TOTAL     ACCESS:    5671047  HIT:    2044114  MISS:    3626933  HIT %:    36.0447  MISS %:    63.9553   MPKI: 72.5387
L1BTB BRANCH_DIRECT_JUMP	ACCESS:     549177 HIT:     144566 MISS:     404611 AVERAGE STALL: 41.5742 AVERAGE FETCH STALL: 20.2766 AVERAGE FETCH QUEUE STALL: 9.64855 AVERAGE DECODE STALL: 10.8127 AVERAGE EXECUTE STALL: 6.1167e+14
L1BTB BRANCH_INDIRECT	ACCESS:     183036 HIT:      66078 MISS:     116958 AVERAGE STALL: 101.876 AVERAGE FETCH STALL: 12.5703 AVERAGE FETCH QUEUE STALL: 11.7949 AVERAGE DECODE STALL: 10.9514 AVERAGE EXECUTE STALL: 65.62
L1BTB BRANCH_CONDITIONAL	ACCESS:    2712021 HIT:    1419547 MISS:    1292474 AVERAGE STALL: 45.5237 AVERAGE FETCH STALL: 22.2226 AVERAGE FETCH QUEUE STALL: 12.7101 AVERAGE DECODE STALL: 9.83073 AVERAGE EXECUTE STALL: 2.52387e+14
L1BTB BRANCH_DIRECT_CALL	ACCESS:     942402 HIT:     104586 MISS:     837816 AVERAGE STALL: 45.6565 AVERAGE FETCH STALL: 23.3184 AVERAGE FETCH QUEUE STALL: 12.2894 AVERAGE DECODE STALL: 9.30226 AVERAGE EXECUTE STALL: 3.42679e+14
L1BTB BRANCH_INDIRECT_CALL	ACCESS:     171004 HIT:      20782 MISS:     150222 AVERAGE STALL: 121.526 AVERAGE FETCH STALL: 14.491 AVERAGE FETCH QUEUE STALL: 12.1232 AVERAGE DECODE STALL: 8.64555 AVERAGE EXECUTE STALL: 85.7429
L1BTB BRANCH_RETURN	ACCESS:    1113407 HIT:     288555 MISS:     824852 AVERAGE STALL: 44.1054 AVERAGE FETCH STALL: 18.7586 AVERAGE FETCH QUEUE STALL: 7.5407 AVERAGE DECODE STALL: 6.5897 AVERAGE EXECUTE STALL: 2.62341e+14
L1BTB BRANCH_OTHER ACCESS:          0 HIT:          0 MISS:          0 AVERAGE STALL: -nan AVERAGE FETCH STALL: -nan AVERAGE FETCH QUEUE STALL: -nan AVERAGE DECODE STALL: -nan AVERAGE EXECUTE STALL: -nan
L1BTB TOTAL ROB OCCUPANCY AT BTB MISS: 9.40992

L2BTB TOTAL     ACCESS:    3601478  HIT:    3358963  MISS:     242515  HIT %:    93.2662  MISS %:    6.73376   MPKI: 4.8503
L2BTB BRANCH_DIRECT_JUMP	ACCESS:     400417 HIT:     374405 MISS:      26012 AVERAGE STALL: 41.5742 AVERAGE FETCH STALL: 20.2766 AVERAGE FETCH QUEUE STALL: 9.64855 AVERAGE DECODE STALL: 10.8127 AVERAGE EXECUTE STALL: 6.1167e+14
L2BTB BRANCH_INDIRECT	ACCESS:     106669 HIT:     101994 MISS:       4675 AVERAGE STALL: 101.876 AVERAGE FETCH STALL: 12.5703 AVERAGE FETCH QUEUE STALL: 11.7949 AVERAGE DECODE STALL: 10.9514 AVERAGE EXECUTE STALL: 65.62
L2BTB BRANCH_CONDITIONAL	ACCESS:    1292473 HIT:    1218868 MISS:      73605 AVERAGE STALL: 45.5237 AVERAGE FETCH STALL: 22.2226 AVERAGE FETCH QUEUE STALL: 12.7101 AVERAGE DECODE STALL: 9.83073 AVERAGE EXECUTE STALL: 2.52387e+14
L2BTB BRANCH_DIRECT_CALL	ACCESS:     837816 HIT:     783914 MISS:      53902 AVERAGE STALL: 45.6565 AVERAGE FETCH STALL: 23.3184 AVERAGE FETCH QUEUE STALL: 12.2894 AVERAGE DECODE STALL: 9.30226 AVERAGE EXECUTE STALL: 3.42679e+14
L2BTB BRANCH_INDIRECT_CALL	ACCESS:     140662 HIT:     125301 MISS:      15361 AVERAGE STALL: 121.526 AVERAGE FETCH STALL: 14.491 AVERAGE FETCH QUEUE STALL: 12.1232 AVERAGE DECODE STALL: 8.64555 AVERAGE EXECUTE STALL: 85.7429
L2BTB BRANCH_RETURN	ACCESS:     823441 HIT:     754481 MISS:      68960 AVERAGE STALL: 44.1054 AVERAGE FETCH STALL: 18.7586 AVERAGE FETCH QUEUE STALL: 7.5407 AVERAGE DECODE STALL: 6.5897 AVERAGE EXECUTE STALL: 2.62341e+14
L2BTB BRANCH_OTHER ACCESS:          0 HIT:          0 MISS:          0 AVERAGE STALL: -nan AVERAGE FETCH STALL: -nan AVERAGE FETCH QUEUE STALL: -nan AVERAGE DECODE STALL: -nan AVERAGE EXECUTE STALL: -nan
L2BTB TOTAL ROB OCCUPANCY AT BTB MISS: 140.73

L2C TOTAL     ACCESS:    4495897  HIT:    3969863  MISS:     526034  HIT %:    88.2997  MISS %:    11.7003   MPKI: 10.5207
L2C LOAD INSTRUCTION	ACCESS:    2764934  HIT:    2469380  MISS:     295554  HIT %:    89.3106  MISS %:    10.6894  MPKI: 5.91108
L2C LOAD TRANSLATION INSTRUCTION	ACCESS:        410  HIT:        123  MISS:        287  HIT %:         30  MISS %:         70  MPKI: 0.00574
L2C LOAD DATA	ACCESS:     727818  HIT:     652123  MISS:      75695  HIT %:    89.5997  MISS %:    10.4003  MPKI: 1.5139
L2C RFO DATA	ACCESS:     286722  HIT:     225492  MISS:      61230  HIT %:    78.6448  MISS %:    21.3552  MPKI: 1.2246
L2C PREFETCH DATA	ACCESS:     190751  HIT:     117869  MISS:      72882  HIT %:    61.7921  MISS %:    38.2079  MPKI: 1.45764
L2C WRITEBACK DATA	ACCESS:     523204  HIT:     504198  MISS:      19006  HIT %:    96.3674  MISS %:    3.63262  MPKI: 0.38012
L2C LOAD TRANSLATION DATA	ACCESS:       2018  HIT:        652  MISS:       1366  HIT %:    32.3092  MISS %:    67.6908  MPKI: 0.02732
L2C TRANSLATION FROM L1D PREFETCHER DATA	ACCESS:         40  HIT:         26  MISS:         14  HIT %:         65  MISS %:         35  MPKI: 0.00028

L2C PREFETCH  REQUESTED:      95735  ISSUED:      95735  USEFUL:       7707  USELESS:      65520
L2C USEFUL LOAD PREFETCHES:       7707 PREFETCH ISSUED TO LOWER LEVEL:      73192  ACCURACY: 10.5298
 TIMELY PREFETCHES:       7707 LATE PREFETCHES: 309 DROPPED PREFETCHES: 0
L2C AVERAGE MISS LATENCY: 38.3212 cycles
L2C RQ	ACCESS:    3782003	FORWARD:          0	MERGED:          0	TO_CACHE:    3781943
L2C WQ	ACCESS:     523204	FORWARD:         60	MERGED:          0	TO_CACHE:     523204
L2C PQ	ACCESS:     198344	FORWARD:          0	MERGED:       3479	TO_CACHE:     194865

L2C Dense regions hint from L2: 0
PSCL5 TOTAL     ACCESS:       4580  HIT:       2290  MISS:       2290  HIT %:         50  MISS %:         50   MPKI: 0.0458
PSCL5 LOAD TRANSLATION INSTRUCTION	ACCESS:       4500  HIT:       2250  MISS:       2250  HIT %:         50  MISS %:         50  MPKI: 0.045
PSCL5 TRANSLATION FROM L1D PREFETCHER INSTRUCTION	ACCESS:         80  HIT:         40  MISS:         40  HIT %:         50  MISS %:         50  MPKI: 0.0008


PSCL4 TOTAL     ACCESS:       4251  HIT:       2118  MISS:       2133  HIT %:    49.8236  MISS %:    50.1764   MPKI: 0.04266
PSCL4 LOAD TRANSLATION INSTRUCTION	ACCESS:       2920  HIT:       2080  MISS:        840  HIT %:    71.2329  MISS %:    28.7671  MPKI: 0.0168
PSCL4 TRANSLATION FROM L1D PREFETCHER INSTRUCTION	ACCESS:         54  HIT:         38  MISS:         16  HIT %:    70.3704  MISS %:    29.6296  MPKI: 0.00032
PSCL4 LOAD TRANSLATION DATA	ACCESS:       1255  HIT:          0  MISS:       1255  HIT %:          0  MISS %:        100  MPKI: 0.0251
PSCL4 TRANSLATION FROM L1D PREFETCHER DATA	ACCESS:         22  HIT:          0  MISS:         22  HIT %:          0  MISS %:        100  MPKI: 0.00044


PSCL3 TOTAL     ACCESS:       4359  HIT:       2172  MISS:       2187  HIT %:    49.8279  MISS %:    50.1721   MPKI: 0.04374
PSCL3 LOAD TRANSLATION INSTRUCTION	ACCESS:       2974  HIT:       2134  MISS:        840  HIT %:    71.7552  MISS %:    28.2448  MPKI: 0.0168
PSCL3 TRANSLATION FROM L1D PREFETCHER INSTRUCTION	ACCESS:         54  HIT:         38  MISS:         16  HIT %:    70.3704  MISS %:    29.6296  MPKI: 0.00032
PSCL3 LOAD TRANSLATION DATA	ACCESS:       1309  HIT:          0  MISS:       1309  HIT %:          0  MISS %:        100  MPKI: 0.02618
PSCL3 TRANSLATION FROM L1D PREFETCHER DATA	ACCESS:         22  HIT:          0  MISS:         22  HIT %:          0  MISS %:        100  MPKI: 0.00044


PSCL2 TOTAL     ACCESS:       4427  HIT:       2137  MISS:       2290  HIT %:     48.272  MISS %:     51.728   MPKI: 0.0458
PSCL2 LOAD TRANSLATION INSTRUCTION	ACCESS:       2467  HIT:       2097  MISS:        370  HIT %:     85.002  MISS %:     14.998  MPKI: 0.0074
PSCL2 TRANSLATION FROM L1D PREFETCHER INSTRUCTION	ACCESS:         40  HIT:         40  MISS:          0  HIT %:        100  MISS %:          0  MPKI: 0
PSCL2 LOAD TRANSLATION DATA	ACCESS:       1880  HIT:          0  MISS:       1880  HIT %:          0  MISS %:        100  MPKI: 0.0376
PSCL2 TRANSLATION FROM L1D PREFETCHER DATA	ACCESS:         40  HIT:          0  MISS:         40  HIT %:          0  MISS %:        100  MPKI: 0.0008


LLC TOTAL     ACCESS:     590980  HIT:     560449  MISS:      30531  HIT %:    94.8338  MISS %:    5.16616   MPKI: 0.61062
LLC LOAD INSTRUCTION	ACCESS:     295555  HIT:     294283  MISS:       1272  HIT %:    99.5696  MISS %:   0.430377  MPKI: 0.02544
LLC LOAD TRANSLATION INSTRUCTION	ACCESS:        287  HIT:        244  MISS:         43  HIT %:    85.0174  MISS %:    14.9826  MPKI: 0.00086
LLC LOAD DATA	ACCESS:      75403  HIT:      71504  MISS:       3899  HIT %:    94.8291  MISS %:    5.17088  MPKI: 0.07798
LLC RFO DATA	ACCESS:      61210  HIT:      46649  MISS:      14561  HIT %:    76.2114  MISS %:    23.7886  MPKI: 0.29122
LLC PREFETCH DATA	ACCESS:      73190  HIT:      62892  MISS:      10298  HIT %:    85.9298  MISS %:    14.0702  MPKI: 0.20596
LLC WRITEBACK DATA	ACCESS:      83955  HIT:      83599  MISS:        356  HIT %:     99.576  MISS %:   0.424037  MPKI: 0.00712
LLC LOAD TRANSLATION DATA	ACCESS:       1366  HIT:       1264  MISS:        102  HIT %:    92.5329  MISS %:    7.46706  MPKI: 0.00204
LLC TRANSLATION FROM L1D PREFETCHER DATA	ACCESS:         14  HIT:         14  MISS:          0  HIT %:        100  MISS %:          0  MPKI: 0

LLC AVERAGE MISS LATENCY: 160.348 cycles
LLC RQ	ACCESS:     433838	FORWARD:          0	MERGED:          0	TO_CACHE:     433835
LLC WQ	ACCESS:      83955	FORWARD:          4	MERGED:          0	TO_CACHE:      83955
LLC PQ	ACCESS:      73192	FORWARD:          0	MERGED:          0	TO_CACHE:      73191

LLC Dense regions hint to LLC: 0

RAW hits: 1884799
Loads Generated: 12636195
Loads sent to L1D: 10751396
Stores Generated: 6946326
Stores sent to L1D: 6946346
Major fault: 0 Minor fault: 2667
Allocated PAGES: 2667

stream: 
stream:times selected: 1204957
stream:pref_filled: 122104
stream:pref_useful: 24409
stream:pref_late: 6570
stream:misses: 8198
stream:misses_by_poll: 0

CS: 
CS:times selected: 182940
CS:pref_filled: 61151
CS:pref_useful: 37528
CS:pref_late: 6726
CS:misses: 15773
CS:misses_by_poll: 0

CPLX: 
CPLX:times selected: 1020741
CPLX:pref_filled: 19211
CPLX:pref_useful: 4491
CPLX:pref_late: 3017
CPLX:misses: 92498
CPLX:misses_by_poll: 2

NL_L1: 
NL:times selected: 21609
NL:pref_filled: 730
NL:pref_useful: 314
NL:pref_late: 279
NL:misses: 1744
NL:misses_by_poll: 0

total selections: 2430247
total_filled: 94870
total_useful: 33978
total_late: 17901
total_polluted: 2
total_misses_after_warmup: 771718
conflicts: 5540606

test: 120450

DRAM Statistics
 CHANNEL 0
 RQ ROW_BUFFER_HIT:      10877  ROW_BUFFER_MISS:      19288
 DBUS_CONGESTED:          5
 WQ ROW_BUFFER_HIT:       1653  ROW_BUFFER_MISS:      13629  FULL:          0

 AVG_CONGESTED_CYCLE: 4

CPU 0 Branch Prediction Accuracy: 99.805% MPKI: 0.35662 Average ROB Occupancy at Mispredict: 165.46
Branch types
NOT_BRANCH: 40855837 81.7117%
BRANCH_DIRECT_JUMP: 549177 1.09835%
BRANCH_INDIRECT: 183036 0.366072%
BRANCH_CONDITIONAL: 6185142 12.3703%
BRANCH_DIRECT_CALL: 942402 1.8848%
BRANCH_INDIRECT_CALL: 171004 0.342008%
BRANCH_RETURN: 1113407 2.22681%
BRANCH_OTHER: 0 0%

DRAM PAGES: 1048576
Allocated PAGES: 2667
Average_ROB_Occupancy: 184.539
Average_Decode_Occupancy: 24.5302
Average_FTQ_Occupancy: 10.3507
Indirect max targets: 14 Average targets: 1.17516
Branch_type:  BRANCH_DIRECT_JUMP:  Count Percentage: 3.35056 5.84877 5.02866 2.13298 8.64461 6.00868 1.68047 67.3053 
Branch_type:  BRANCH_INDIRECT:  Count Percentage: 11.7221 3.488 2.64165 13.42 3.32716 2.79105 2.11669 60.4934 
Branch_type:  BRANCH_CONDITIONAL:  Count Percentage: 25.9647 2.44913 2.20223 3.66505 2.87947 4.622 4.12548 54.0919 
Branch_type:  BRANCH_DIRECT_CALL:  Count Percentage: 0.857932 1.24835 0.787882 2.12693 4.44646 2.63483 1.49472 86.4029 
Branch_type:  BRANCH_INDIRECT_CALL:  Count Percentage: 9.54907 0 2.99064 0.000881588 0 1.71175 1.00442 84.7432 
Branch_type:  BRANCH_RETURN:  Count Percentage: 8.28345 1.69832 2.19603 2.99828 2.83687 5.08964 4.0113 72.8861 
Branch_type:  BRANCH_DIRECT_JUMP:  Total Count: 36814 64263 55252 23436 94982 66020 18464 739512 
Branch_type:  BRANCH_INDIRECT:  Total Count: 43074 12817 9707 49313 12226 10256 7778 222289 
Branch_type:  BRANCH_CONDITIONAL:  Total Count: 3211793 302954 272412 453361 356186 571735 510316 6691093 
Branch_type:  BRANCH_DIRECT_CALL:  Total Count: 16081 23399 14768 39867 83344 49387 28017 1619529 
Branch_type:  BRANCH_INDIRECT_CALL:  Total Count: 32495 0 10177 3 0 5825 3418 288377 
Branch_type:  BRANCH_RETURN:  Total Count: 183523 37627 48654 66428 62852 112763 88872 1614820 
Number of unique branch instructions: 10706
Upper 32 bits: 
aaaa
ffff
ffff0000
Unique upper 32 bits: 3
Unique upper 36 bits: 3
Unique upper 40 bits: 5
Unique upper 44 bits: 32
Unique upper 48 bits: 158
Offset_3 4437
Offset_4 263
Offset_5 481
Offset_6 539
Offset_7 634
Offset_8 582
Offset_9 509
Offset_10 419
Offset_11 347
Offset_12 310
Offset_13 238
Offset_14 246
Offset_15 194
Offset_16 226
Offset_17 166
Offset_18 144
Offset_19 260
Offset_20 141
Offset_21 235
Offset_22 409
Offset_23 245
Offset_24 344
Offset_25 117
Offset_47 94
Offset_64 5
decode_dispatch_called: 22263694 57.1101
Dispatch_width: 0 11577221 52.0004 29.6975
Dispatch_width: 1 683925 3.07193 1.75438
Dispatch_width: 2 690339 3.10074 1.77083
Dispatch_width: 3 417927 1.87717 1.07205
Dispatch_width: 4 3236543 14.5373 8.30227
Dispatch_width: 5 210987 0.947673 0.541217
Dispatch_width: 6 5446752 24.4647 13.9718
Empty_decode_cycles: 16720124 42.8899
ROB_full_cycles: 5194733 13.3254
Starvation_cycles_per_kilo_instr: 283.423
Starvation_cycles_per_kilo_instr_3: 248.948
Starvation_cycles_per_kilo_instr_0: 231.026
Branch_type_1  (3,1)  (4,9)  (5,39)  (6,71)  (7,123)  (8,154)  (9,136)  (10,110)  (11,78)  (12,47)  (13,11)  (14,2)  (15,3)  (16,4)  (18,1)  (19,5)  (20,2)  (21,1)  (22,3)  (23,2)  (24,10)  (25,12)  (64,1) 
Branch_type_2  (3,1)  (4,1)  (5,1)  (8,4)  (9,4)  (10,1)  (12,1)  (13,1)  (14,1)  (16,3)  (17,2)  (20,2)  (21,2)  (23,5)  (24,1)  (47,42) 
Branch_type_3  (3,4435)  (4,253)  (5,437)  (6,451)  (7,480)  (8,355)  (9,275)  (10,170)  (11,133)  (12,54)  (13,10)  (64,2) 
Branch_type_4  (6,3)  (7,8)  (8,29)  (9,55)  (10,66)  (11,70)  (12,116)  (13,101)  (14,110)  (15,92)  (16,99)  (17,77)  (18,61)  (19,127)  (20,72)  (21,124)  (22,215)  (23,138)  (24,199)  (25,101)  (64,1) 
Branch_type_5  (8,3)  (9,1)  (10,4)  (11,5)  (12,3)  (13,14)  (14,16)  (15,11)  (16,22)  (17,11)  (18,23)  (19,14)  (20,11)  (21,13)  (22,43)  (23,26)  (24,38) 
Branch_type_6  (5,4)  (6,14)  (7,23)  (8,37)  (9,38)  (10,68)  (11,61)  (12,89)  (13,101)  (14,117)  (15,88)  (16,98)  (17,76)  (18,59)  (19,114)  (20,54)  (21,95)  (22,148)  (23,74)  (24,96)  (25,4)  (47,52)  (64,1) 
aaaaab1fc620: 2ac9e77e 2aca717c 2aca8eff 2acaf6bc 2acaf9aa 2acaf9f1 2acb1abc 2acb1b7f 2acd4e22 2acdb712 2acf5f9e 2ad0ef44 2ad3f15c 2ad414e6 2ad60e42 2ad8609c 2ad99830 2ada35cc 2ada4676 2ada6612 2adf183e 2adf30e5 2adf5602 2adf785c 2ae11572 2aeb2dcf 2aee101b 2aee1ae1 2b156a8c 2b156b61 2b156bea 2b167f35 2b177656 2b17feec 2b1a3e5a 
aaaaab1fc640: 2ac9ec07 2aca656e 2aca801d 2acaea11 2acaee73 2acb13ee 2acb1470 2acd462b 2ad0ef5d 2ad3f3fe 2ad86e9b 2ada1641 2ada4115 2ada6638 2adf30d4 2ae12e57 2aee1033 2b1693ab 2b16948c 2b169491 2b17d915 2b17fa85 2b17fccd 
aaaaab1fcb00: 2acf2d72 2acf3734 2acf604c 2acfa5b7 2ad397b5 2ad3b800 2ae8af7d 2ae8aff0 2ae9aaba 2aea9fc6 2aeaa358 2aee910b 2aee91cf 2aee928e 2aee92e4 2af6fe87 2af70dfe 2b16850c 2b16c4a2 2b1765f4 2b178094 2b17d925 2b17db06 2b17ec8f 
aaaaab1fcb10: 2acf2d95 2acf3758 2acf6052 2acfa5f4 2ad397c3 2ad3b81c 2ae8af88 2ae8affe 2ae9aacf 2aeaa017 2aeaa36d 2aee9114 2aee91d8 2aee934d 2aee9353 2af6fe8c 2af70e22 2b168526 2b16c542 2b176609 2b1780a3 2b17d95d 2b17db44 2b17ecac 
aaaaac68f310: 2ac9ec8c 2ac9fb44 2ac9fbd2 2aca59ab 2acac04c 2acaf6e0 2acaf6ec 2acaf6f9 2acaf700 2acaf708 2acf2d90 2ad3cfbd 2ad3cfc4 2ad3d000 2ad3f35f 2ad4955d 2ad49571 2ad4f3f2 2ad4f400 2ad5f240 2ad5f37c 2ad5f86a 2ad5f86f 2ad5f880 2ad5fc0d 2ad5fc14 2ad5fc21 2ad5fe1b 2ad873bb 2ad873e3 2ad8a6b2 2ad9086e 2ad93096 2ad9bbb2 2ada152c 2ada1554 2ada3332 2ada5522 2adf3130 2adf313c 2adf3a3f 2adf3bd9 2adf5788 2adf7a8d 2ae07f6b 2ae0857a 2ae0857e 2ae08630 2ae08634 2ae08637 2ae08642 2ae0866f 2ae086e4 2ae086ec 2ae08717 2ae0871b 2aee0170 2aee1d38 2aee75f4 2aee7662 2aee85ca 2aee85e4 2aee8eef 2af70b84 2af74e8f 2b17d843 
aaaaac690ef0: 2aca598b 2acb111b 2acb175f 2acb1772 2acbfaf4 2acbfb00 2acf374f 2acf6d43 2acfa5c8 2ad3baf1 2ad3d4ac 2ad3d4b8 2ad3f1cf 2ad486b2 2ad5a59b 2ad5fc64 2ad5fcf9 2ad6121c 2ad906e9 2ad907bf 2ad9bada 2ada16ce 2ada1ad5 2ada43df 2ada64c0 2ada72ee 2adeb71a 2adf3bcb 2adf7a38 2adf7c6a 2adf8872 2adf8880 2adf9959 2adf9abe 2ae07f78 2ae08503 2ae08754 2ae12e80 2aea3bea 2aecb509 2aee00b0 2aee2bdd 2aee5467 2aee5601 2aee8f20 2af703fd 2af7048b 2af74e74 
Unique trigger count: 
1 10197
2 555
3 91
4 32
5 14
6 11
7 7
8 2
9 3
10 2
11 1
12 1
13 1
14 3
16 2
19 2
23 1
24 2
35 1
48 1
66 1
BTB PER SET UNIQUE ADDR: 6 8 6 6 3 4 7 9 10 2 5 2 8 6 5 4 6 4 7 9 5 8 8 8 8 11 1 7 6 6 10 10 6 4 8 4 4 7 7 3 8 5 7 9 9 10 6 12 11 6 5 4 13 2 2 7 5 5 9 8 4 12 5 8 6 9 8 9 6 7 6 2 6 5 6 7 6 14 5 5 9 6 7 6 6 8 7 8 8 10 10 9 9 6 6 5 10 8 5 6 8 7 9 9 6 8 7 8 7 5 7 7 4 8 6 11 3 7 6 2 8 9 4 3 6 4 4 7 11 6 11 3 11 5 9 6 5 3 6 8 8 8 7 6 5 11 5 8 13 8 8 14 6 10 6 9 7 9 6 11 11 8 11 5 11 7 3 4 13 7 6 4 8 7 4 3 6 7 10 5 6 7 10 8 9 11 6 6 6 8 5 8 6 7 6 11 12 4 11 6 4 6 9 4 8 4 5 8 7 2 3 6 9 9 7 6 5 9 8 6 6 4 6 7 6 8 14 7 3 11 14 9 4 5 7 9 12 5 4 5 5 3 10 8 16 11 2 7 6 7 8 10 6 7 5 13 4 7 10 6 8 5 7 4 9 15 6 5 7 5 7 7 4 9 10 8 6 4 4 8 8 5 10 5 10 9 7 7 8 4 5 7 4 11 7 4 6 10 6 6 6 6 5 4 6 5 6 4 13 9 7 4 8 4 6 5 10 14 7 6 7 10 5 8 5 6 6 10 3 3 9 2 6 7 10 5 7 7 8 1 5 6 2 10 8 7 3 7 11 7 5 12 10 7 8 6 7 2 8 5 7 10 6 8 11 8 4 4 4 4 8 4 6 5 8 4 11 8 7 10 9 7 6 12 6 5 8 5 8 4 9 5 8 4 7 3 5 5 2 9 7 5 7 6 5 6 8 5 4 3 5 3 11 7 2 6 9 4 2 7 2 6 7 7 10 9 4 2 4 8 3 4 15 5 8 11 6 6 7 3 5 6 10 3 7 9 6 6 5 3 6 3 3 3 9 3 5 6 9 6 5 4 6 11 5 5 12 3 6 7 2 6 10 7 4 3 10 5 3 3 5 2 3 4 3 7 8 3 7 2 12 4 4 8 1 11 4 7 4 4 11 3 4 3 2 5 5 3 4 6 7 4 8 11 3 4 2 10 6 8 7 5 8 6 10 9 6 10 9 8 7 6 6 8 5 7 7 2 6 4 5 8 10 4 9 5 10 12 14 11 7 8 7 7 2 6 9 3 7 4 10 5 9 5 5 6 10 8 11 7 8 3 11 12 7 7 6 12 3 9 13 5 2 6 5 3 3 14 7 5 8 8 4 7 5 5 9 5 6 5 12 5 11 11 7 5 4 9 7 5 8 8 7 5 8 4 7 5 5 7 9 6 11 3 5 10 8 8 4 6 8 7 7 7 7 7 6 7 6 4 11 9 4 6 3 3 7 7 8 7 7 4 9 3 5 2 10 5 6 8 13 3 7 11 8 8 8 6 6 12 7 8 6 8 12 9 8 6 8 6 8 12 9 6 8 9 7 8 8 6 3 8 2 5 5 7 10 7 7 10 3 11 4 5 7 12 3 4 5 5 7 7 6 5 5 7 11 6 1 8 5 3 5 4 4 3 3 9 2 11 8 10 8 2 7 7 10 3 6 4 5 8 5 10 4 6 6 4 6 7 7 3 4 7 2 5 6 10 9 4 5 6 6 7 7 6 14 6 6 3 9 6 0 5 7 5 6 10 3 3 9 6 4 6 11 9 9 7 3 9 3 9 5 7 7 13 12 5 5 5 12 4 9 4 7 6 7 9 5 6 3 4 6 6 5 6 1 5 4 10 7 4 10 4 5 5 8 3 6 6 7 3 7 4 10 5 4 5 6 5 5 5 7 7 5 8 9 7 6 6 8 8 6 9 6 11 7 5 7 6 7 7 4 4 15 7 6 8 11 9 4 6 6 10 8 2 2 6 8 4 5 7 7 7 10 5 7 5 5 7 9 3 7 8 7 4 10 12 6 4 12 11 5 6 9 7 8 10 6 9 9 7 5 4 3 9 6 6 8 6 10 7 10 6 9 8 7 6 6 12 6 4 11 10 7 9 10 12 3 9 8 9 6 4 6 8 9 7 9 6 11 5 13 7 4 6 9 13 6 9 6 6 10 5 3 9 10 9 10 5 3 5 3 9 12 5 8 5 4 7 13 6 4 6 5 7 4 6 9 8 8 7 7 11 4 11 6 11 5 6 5 5 5 4 8 6 7 6 6 6 9 4 9 6 11 4 9 5 3 8 11 7 14 5 
BTB PER SET COUNT: 6 8 6 6 3 4 7 34 3012 3 5 2 9 6 6 5 6 5 8 1480 6 9 11 8 8 2522 1 8 1459 6 4463 405 6 4 9 6 2912 7 10 3 13 8 14 35 1937 12 8 5628 3338 8 5 5 11477 2 2 7 6 5 18 106 5 2702 5 8 6 1370 8 15 6 7 6 2 8 5 10 7 519 3654 5 5 14 6 8 6 517 9 8 8 8 474 2243 457 39 8 15 8 3574 11 5 6 9 7 18 2246 6 9 7 9 7 23 8 8 4 12 6 4143 3 8 6 2 8 20 6 4 535 7 4 8 2321 8 564 4 4655 8 14 6 5 3 6 8 9 10 12 6 5 38 7 9 3222 9 10 3377 6 3549 11 13 7 13 6 835 1172 8 3203 6 50 1894 3 4 9503 9 6 4 12 147 4 6 6 522 969 6 6 7 14 8 13 2077 7 7 6 8 5 11 6 7 8 40 984 4 24 6 5 7 12 6 10 4 5 2480 10 2 4 7 17 12 7 7 6 1663 9 6 6 4 7 7 7 8 5632 1947 7 3970 7859 14 4 5 8 14 3509 5 4 5 6 4 1596 9 11996 1493 2 8 6 7 9 552 6 7 6 3528 6 8 48 6 13 5 7 5 2151 9516 948 7 7 5 9 8 6 14 36 10 6 4 6 9 11 5 25 6 1484 3592 8 7 9 4 5 7 515 3019 10 9 11 4669 7 6 6 6 5 7 7 5 6 4 1496 1480 10 4 8 4 6 5 21 4842 11 7 7 416 5 8 7 7 6 35 4 3 1044 2 7 8 967 5 1032 9 8 1 5 6 2 1037 1031 10 4 7 19 10 5 130 17 950 8 7 12 3 10 33 8 66 6 9 47 13 4 5 4 5 11 5 7 5 8 5 3494 9 9 2249 55 8 6 6041 9 5 12 5 9 5 33 7 9 6 10 5 1460 5 2 14 7 6 10 8 6 6 2916 6 4 2266 12 3 523 11 944 7 152 4 2 1417 2 7 7 8 66 13 10 2 4 9 153 4 5867 7 8 2120 10 6 8 5 6 7 21 3 11 18 6 949 5 3 6 3 3 5 360 3 5 7 527 8 1007 4 15 80 29 6 1738 3 7 8 2 7 39 523 155 4 21599 5 3 3 5 2 3 515 3 7 269 377 7 2 98 4 6 8 1 2602 16 9 4 5 4071 11 13 3 2 5 5 3 5 7 7 6 8 41 5 4 2 6402 6 520 10 1459 13 430 211 17 6 24 45 8 7 7 6 10 8 534 9 2 9 4 5 9 39 9 12 5 22 4352 5114 5106 11 9 10 10 2 6 957 4 7 4 4064 5 14 6 5 6 51 11 3013 7 8 5 1486 3620 7 7 6 3605 5 29 7202 33 2 6 1459 3 4 5553 7 6 9 20 6 949 949 7 15 5 6 5 27 8 1241 82 7 3060 4 1797 10 8 12 13 7 7 8 7 927 5 5 7 13 829 3018 3 1459 40 10 217 14 6 519 1460 10 12 7 7 7 7 7 5 2590 11 4 6 3 3 8 7 520 8 9 4 1019 3 6 10 2512 6 1538 9 11533 5 7 5619 8 1032 2916 1030 6 54 538 9 19 12 4093 1035 521 6 631 6 9 1516 10 1028 14548 1035 8 1842 1461 23 3 1031 3 7 5 7 3013 7 8 41 3 2123 4 5 163 4549 3 1458 5 1459 213 7 9 5 1027 7 1485 729 1 8 9 4 5 5 4 5 3 673 2 3529 8 1279 951 2 8 8 18 4 8 4 9 8 5 6075 4 7 534 5 6 1009 9 3 4 523 2 5 6 3083 2513 946 5 6 948 7 11 7 8141 6 7 3 23 7 0 130 7 1460 12 3597 3 3 9 10 6 6 1912 31 41 8 456 24 3 2947 5 8 202 3878 3443 6 7 5 3382 5 227 6 2051 1476 9 27 6 9 3 6 6 463 7 6 2 5 4 1355 9 4 1249 376 6 7 951 4 6 94 7 3 7 4 1163 5 21 5 6 5 225 5 7 1464 5 13 15 7 7 7 9 8 8 11 6 5919 7 5 9 14 8 9 4 4 6125 950 9 1010 2516 18 4 6 6 33 8 2 5 7 10 5 5 7 7 7 168 7 7 6 7 10 14 3 10 8 8 5 14 1489 7 4 5724 17 111 39 12 11 8 1839 6 16 106 9 6 4 4 13 7 1009 8 7 19 8 27 7 17 10 7 7 6 209 7 517 3581 2416 7 23 5139 1254 4 27 8 21 6 946 11 20 23 251 13 6 23 5 5671 9 5 7 51 4641 8 2775 8 534 3071 5 4 21 27 14 17 6 4 5 3 390 66 5 953 7 4 7 3654 8 516 6 5 11 5 6 11 8 18 9 7 3606 6 73 6 4017 10 8 5 8 6 4 11 8 8 18 6 7 2056 5 2421 384 1300 6 40 7 3 9 1485 8 4022 5 
