
*** ChampSim Multicore Out-of-Order Simulator ***

Warmup Instructions: 50000000
Simulation Instructions: 50000000
Number of CPUs: 1
LLC sets: 2048
LLC ways: 16
Off-chip DRAM Size: 4096 MB Channels: 1 Width: 64-bit Data Rate: 6400 MT/s
CPU 0 runs ./micro_traces/srv615.trace.gz
.gz
ITLB has LRU replacement policy
DTLB has LRU replacement policy
STLB has LRU replacement policy
FDIP Prefetcher at L1I
L1I has LRU replacement policy
L1D has LRU replacement policy
Initialize SRRIP state for L2C
Initialize DRRIP state for LLC
Heartbeat_Variant_0 : 620 0.302734 per_variant_size: 0 620 0 0 0 0 0 0 0 
Heartbeat_Variant_1 : 1428 0.697266 per_variant_size: 0 144 1284 0 0 0 0 0 0 
Heartbeat_Variant_2 : 0 0 per_variant_size: 0 0 0 0 0 0 0 0 0 
Heartbeat_Variant_3 : 0 0 per_variant_size: 0 0 0 0 0 0 0 0 0 
Heartbeat_Variant_0_evicts 0 : 30599 1 : 57585 2 : 0 3 : 0 
Heartbeat_Variant_1_evicts 0 : 57644 1 : 0 2 : 0 3 : 0 
Heartbeat_Variant_2_evicts 0 : 0 1 : 0 2 : 0 3 : 0 
Heartbeat_Variant_3_evicts 0 : 0 1 : 0 2 : 0 3 : 0 
Heartbeat CPU 0 instructions: 10000001 cycles: 2795396 heartbeat IPC: 3.57731 cumulative IPC: 3.57731 (Simulation time: 0 hr 2 min 9 sec) 
Heartbeat_Variant_0 : 656 0.320312 per_variant_size: 0 656 0 0 0 0 0 0 0 
Heartbeat_Variant_1 : 1392 0.679688 per_variant_size: 0 129 1263 0 0 0 0 0 0 
Heartbeat_Variant_2 : 0 0 per_variant_size: 0 0 0 0 0 0 0 0 0 
Heartbeat_Variant_3 : 0 0 per_variant_size: 0 0 0 0 0 0 0 0 0 
Heartbeat_Variant_0_evicts 0 : 30763 1 : 58873 2 : 0 3 : 0 
Heartbeat_Variant_1_evicts 0 : 58837 1 : 0 2 : 0 3 : 0 
Heartbeat_Variant_2_evicts 0 : 0 1 : 0 2 : 0 3 : 0 
Heartbeat_Variant_3_evicts 0 : 0 1 : 0 2 : 0 3 : 0 
Heartbeat CPU 0 instructions: 20000001 cycles: 5592452 heartbeat IPC: 3.57519 cumulative IPC: 3.57625 (Simulation time: 0 hr 4 min 21 sec) 
Heartbeat_Variant_0 : 617 0.30127 per_variant_size: 0 617 0 0 0 0 0 0 0 
Heartbeat_Variant_1 : 1431 0.69873 per_variant_size: 0 129 1302 0 0 0 0 0 0 
Heartbeat_Variant_2 : 0 0 per_variant_size: 0 0 0 0 0 0 0 0 0 
Heartbeat_Variant_3 : 0 0 per_variant_size: 0 0 0 0 0 0 0 0 0 
Heartbeat_Variant_0_evicts 0 : 31322 1 : 59814 2 : 0 3 : 0 
Heartbeat_Variant_1_evicts 0 : 59853 1 : 0 2 : 0 3 : 0 
Heartbeat_Variant_2_evicts 0 : 0 1 : 0 2 : 0 3 : 0 
Heartbeat_Variant_3_evicts 0 : 0 1 : 0 2 : 0 3 : 0 
Heartbeat CPU 0 instructions: 30000001 cycles: 8388617 heartbeat IPC: 3.57633 cumulative IPC: 3.57627 (Simulation time: 0 hr 6 min 39 sec) 
Heartbeat_Variant_0 : 631 0.308105 per_variant_size: 0 631 0 0 0 0 0 0 0 
Heartbeat_Variant_1 : 1417 0.691895 per_variant_size: 0 130 1287 0 0 0 0 0 0 
Heartbeat_Variant_2 : 0 0 per_variant_size: 0 0 0 0 0 0 0 0 0 
Heartbeat_Variant_3 : 0 0 per_variant_size: 0 0 0 0 0 0 0 0 0 
Heartbeat_Variant_0_evicts 0 : 31024 1 : 59544 2 : 0 3 : 0 
Heartbeat_Variant_1_evicts 0 : 59530 1 : 0 2 : 0 3 : 0 
Heartbeat_Variant_2_evicts 0 : 0 1 : 0 2 : 0 3 : 0 
Heartbeat_Variant_3_evicts 0 : 0 1 : 0 2 : 0 3 : 0 
Heartbeat CPU 0 instructions: 40000002 cycles: 11184059 heartbeat IPC: 3.57725 cumulative IPC: 3.57652 (Simulation time: 0 hr 8 min 53 sec) 
Heartbeat_Variant_0 : 648 0.316406 per_variant_size: 0 648 0 0 0 0 0 0 0 
Heartbeat_Variant_1 : 1400 0.683594 per_variant_size: 0 120 1280 0 0 0 0 0 0 
Heartbeat_Variant_2 : 0 0 per_variant_size: 0 0 0 0 0 0 0 0 0 
Heartbeat_Variant_3 : 0 0 per_variant_size: 0 0 0 0 0 0 0 0 0 
Heartbeat_Variant_0_evicts 0 : 30975 1 : 59921 2 : 0 3 : 0 
Heartbeat_Variant_1_evicts 0 : 59904 1 : 0 2 : 0 3 : 0 
Heartbeat_Variant_2_evicts 0 : 0 1 : 0 2 : 0 3 : 0 
Heartbeat_Variant_3_evicts 0 : 0 1 : 0 2 : 0 3 : 0 
Heartbeat CPU 0 instructions: 50000001 cycles: 13979306 heartbeat IPC: 3.5775 cumulative IPC: 3.57672 (Simulation time: 0 hr 11 min 1 sec) 

Warmup complete CPU 0 instructions: 50000001 cycles: 13979306 (Simulation time: 0 hr 11 min 1 sec) 

Cycle: 20000000 FTQ IN: 54462662 FTQ occupancy: 17.1148 DECODE IN: 54462634 DECODE occupancy: 43.8616 ROB IN: 54462632 ROB occupancy: 260.414 ROB OUT: 54462618
Heartbeat_Variant_0 : 629 0.307129 per_variant_size: 0 629 0 0 0 0 0 0 0 
Heartbeat_Variant_1 : 1419 0.692871 per_variant_size: 0 138 1281 0 0 0 0 0 0 
Heartbeat_Variant_2 : 0 0 per_variant_size: 0 0 0 0 0 0 0 0 0 
Heartbeat_Variant_3 : 0 0 per_variant_size: 0 0 0 0 0 0 0 0 0 
Heartbeat_Variant_0_evicts 0 : 30945 1 : 58905 2 : 0 3 : 0 
Heartbeat_Variant_1_evicts 0 : 58924 1 : 0 2 : 0 3 : 0 
Heartbeat_Variant_2_evicts 0 : 0 1 : 0 2 : 0 3 : 0 
Heartbeat_Variant_3_evicts 0 : 0 1 : 0 2 : 0 3 : 0 
Heartbeat CPU 0 instructions: 60000000 cycles: 27383145 heartbeat IPC: 0.746055 cumulative IPC: 0.746055 (Simulation time: 0 hr 12 min 33 sec) 
Cycle: 30000000 FTQ IN: 7360507 FTQ occupancy: 3.68152 DECODE IN: 7360511 DECODE occupancy: 6.79147 ROB IN: 7360513 ROB occupancy: 57.5157 ROB OUT: 7360527
Cycle: 40000000 FTQ IN: 7389264 FTQ occupancy: 3.51732 DECODE IN: 7389268 DECODE occupancy: 6.41979 ROB IN: 7389268 ROB occupancy: 55.3735 ROB OUT: 7389268
Heartbeat_Variant_0 : 621 0.303223 per_variant_size: 0 621 0 0 0 0 0 0 0 
Heartbeat_Variant_1 : 1427 0.696777 per_variant_size: 0 138 1289 0 0 0 0 0 0 
Heartbeat_Variant_2 : 0 0 per_variant_size: 0 0 0 0 0 0 0 0 0 
Heartbeat_Variant_3 : 0 0 per_variant_size: 0 0 0 0 0 0 0 0 0 
Heartbeat_Variant_0_evicts 0 : 30816 1 : 59315 2 : 0 3 : 0 
Heartbeat_Variant_1_evicts 0 : 59323 1 : 0 2 : 0 3 : 0 
Heartbeat_Variant_2_evicts 0 : 0 1 : 0 2 : 0 3 : 0 
Heartbeat_Variant_3_evicts 0 : 0 1 : 0 2 : 0 3 : 0 
Heartbeat CPU 0 instructions: 70000000 cycles: 41068540 heartbeat IPC: 0.730706 cumulative IPC: 0.738301 (Simulation time: 0 hr 14 min 26 sec) 
Cycle: 50000000 FTQ IN: 7426877 FTQ occupancy: 3.49983 DECODE IN: 7426896 DECODE occupancy: 6.35211 ROB IN: 7426896 ROB occupancy: 54.7587 ROB OUT: 7426880
Heartbeat_Variant_0 : 642 0.313477 per_variant_size: 0 642 0 0 0 0 0 0 0 
Heartbeat_Variant_1 : 1406 0.686523 per_variant_size: 0 132 1274 0 0 0 0 0 0 
Heartbeat_Variant_2 : 0 0 per_variant_size: 0 0 0 0 0 0 0 0 0 
Heartbeat_Variant_3 : 0 0 per_variant_size: 0 0 0 0 0 0 0 0 0 
Heartbeat_Variant_0_evicts 0 : 30940 1 : 59579 2 : 0 3 : 0 
Heartbeat_Variant_1_evicts 0 : 59558 1 : 0 2 : 0 3 : 0 
Heartbeat_Variant_2_evicts 0 : 0 1 : 0 2 : 0 3 : 0 
Heartbeat_Variant_3_evicts 0 : 0 1 : 0 2 : 0 3 : 0 
Heartbeat CPU 0 instructions: 80000001 cycles: 54536695 heartbeat IPC: 0.742492 cumulative IPC: 0.739693 (Simulation time: 0 hr 16 min 7 sec) 
Cycle: 60000000 FTQ IN: 7333644 FTQ occupancy: 3.6564 DECODE IN: 7333642 DECODE occupancy: 6.71378 ROB IN: 7333642 ROB occupancy: 57.122 ROB OUT: 7333644
Heartbeat_Variant_0 : 648 0.316406 per_variant_size: 0 648 0 0 0 0 0 0 0 
Heartbeat_Variant_1 : 1400 0.683594 per_variant_size: 0 148 1252 0 0 0 0 0 0 
Heartbeat_Variant_2 : 0 0 per_variant_size: 0 0 0 0 0 0 0 0 0 
Heartbeat_Variant_3 : 0 0 per_variant_size: 0 0 0 0 0 0 0 0 0 
Heartbeat_Variant_0_evicts 0 : 30665 1 : 58969 2 : 0 3 : 0 
Heartbeat_Variant_1_evicts 0 : 58963 1 : 0 2 : 0 3 : 0 
Heartbeat_Variant_2_evicts 0 : 0 1 : 0 2 : 0 3 : 0 
Heartbeat_Variant_3_evicts 0 : 0 1 : 0 2 : 0 3 : 0 
Heartbeat CPU 0 instructions: 90000001 cycles: 68128444 heartbeat IPC: 0.73574 cumulative IPC: 0.738701 (Simulation time: 0 hr 17 min 58 sec) 
Cycle: 70000000 FTQ IN: 7415697 FTQ occupancy: 3.5277 DECODE IN: 7415700 DECODE occupancy: 6.44405 ROB IN: 7415681 ROB occupancy: 56.0662 ROB OUT: 7415569
Cycle: 80000000 FTQ IN: 7520278 FTQ occupancy: 3.5515 DECODE IN: 7520278 DECODE occupancy: 6.45508 ROB IN: 7520293 ROB occupancy: 56.3916 ROB OUT: 7520409
Heartbeat_Variant_0 : 582 0.28418 per_variant_size: 0 582 0 0 0 0 0 0 0 
Heartbeat_Variant_1 : 1466 0.71582 per_variant_size: 0 156 1310 0 0 0 0 0 0 
Heartbeat_Variant_2 : 0 0 per_variant_size: 0 0 0 0 0 0 0 0 0 
Heartbeat_Variant_3 : 0 0 per_variant_size: 0 0 0 0 0 0 0 0 0 
Heartbeat_Variant_0_evicts 0 : 30406 1 : 59075 2 : 0 3 : 0 
Heartbeat_Variant_1_evicts 0 : 59141 1 : 0 2 : 0 3 : 0 
Heartbeat_Variant_2_evicts 0 : 0 1 : 0 2 : 0 3 : 0 
Heartbeat_Variant_3_evicts 0 : 0 1 : 0 2 : 0 3 : 0 
Heartbeat CPU 0 instructions: 100000002 cycles: 81498403 heartbeat IPC: 0.747946 cumulative IPC: 0.740531 (Simulation time: 0 hr 19 min 27 sec) 
Finished CPU 0 instructions: 50000001 cycles: 67519097 cumulative IPC: 0.740531 (Simulation time: 0 hr 19 min 27 sec) 

ChampSim completed all CPUs

Region of Interest Statistics

CPU 0 cumulative IPC: 0.740531 instructions: 50000001 cycles: 67519097
 Fetch stage stalled: 82.2045  Sim cycles: 67519097 fetch stall cycle: 55503736
 Empty decode stage: 67.8693  Sim cycles: 67519097 fetch stall cycle: 45824719
ITLB TOTAL     ACCESS:    5664519  HIT:    5166718  MISS:     497801  HIT %:    91.2119  MISS %:    8.78805   MPKI: 9.95602
ITLB LOAD TRANSLATION INSTRUCTION	ACCESS:    5590070  HIT:    5092269  MISS:     497801  HIT %:    91.0949  MISS %:    8.90509  MPKI: 9.95602
ITLB TRANSLATION FROM L1D PREFETCHER INSTRUCTION	ACCESS:      74449  HIT:      74449  MISS:          0  HIT %:        100  MISS %:          0  MPKI: 0

ITLB AVERAGE MISS LATENCY: 9.02877 cycles
ITLB RQ	ACCESS:    7146221	FORWARD:          0	MERGED:    1042230	TO_CACHE:    6103991

DTLB TOTAL     ACCESS:   10076482  HIT:    9599932  MISS:     476550  HIT %:    95.2707  MISS %:    4.72933   MPKI: 9.531
DTLB LOAD TRANSLATION DATA	ACCESS:   10076482  HIT:    9599932  MISS:     476550  HIT %:    95.2707  MISS %:    4.72933  MPKI: 9.531

DTLB AVERAGE MISS LATENCY: 9.28172 cycles
DTLB RQ	ACCESS:   14148339	FORWARD:          0	MERGED:    4044701	TO_CACHE:   10103638

STLB TOTAL     ACCESS:    1220622  HIT:    1218804  MISS:       1818  HIT %:    99.8511  MISS %:    0.14894   MPKI: 0.03636
STLB LOAD TRANSLATION INSTRUCTION	ACCESS:     497801  HIT:     497600  MISS:        201  HIT %:    99.9596  MISS %:  0.0403776  MPKI: 0.00402
STLB LOAD TRANSLATION DATA	ACCESS:     476201  HIT:     474610  MISS:       1591  HIT %:    99.6659  MISS %:   0.334103  MPKI: 0.03182
STLB TRANSLATION FROM L1D PREFETCHER DATA	ACCESS:     246620  HIT:     246594  MISS:         26  HIT %:    99.9895  MISS %:  0.0105425  MPKI: 0.00052

STLB AVERAGE MISS LATENCY: 71.6843 cycles
STLB RQ	ACCESS:    1342766	FORWARD:          0	MERGED:     122098	TO_CACHE:    1220668

STLB Hit, L1D data hit: 0
STLB Hit, L2C data hit: 0
STLB Hit, LLC data hit: 0
STLB Hit, LLC data miss: 0
STLB STLB hints to L2: 0
L1D TOTAL     ACCESS:   13946525  HIT:   12823050  MISS:    1123475  HIT %:    91.9444  MISS %:    8.05559   MPKI: 22.4695
L1D LOAD DATA	ACCESS:    7303128  HIT:    6561157  MISS:     741971  HIT %:    89.8404  MISS %:    10.1596  MPKI: 14.8394
L1D RFO DATA	ACCESS:    6315547  HIT:    6028049  MISS:     287498  HIT %:    95.4478  MISS %:    4.55223  MPKI: 5.74996
L1D PREFETCH DATA	ACCESS:     327850  HIT:     233844  MISS:      94006  HIT %:    71.3265  MISS %:    28.6735  MPKI: 1.88012

L1D PREFETCH  REQUESTED:     736991  ISSUED:     736991  USEFUL:      33444  USELESS:      67789
L1D USEFUL LOAD PREFETCHES:      33444 PREFETCH ISSUED TO LOWER LEVEL:     101244  ACCURACY: 33.0331
 TIMELY PREFETCHES:      33444 LATE PREFETCHES: 7210 DROPPED PREFETCHES: 5
L1D AVERAGE MISS LATENCY: 302303 cycles
L1D RQ	ACCESS:   11266439	FORWARD:          0	MERGED:    3775857	TO_CACHE:    7328034
L1D WQ	ACCESS:    6956185	FORWARD:     162709	MERGED:     135880	TO_CACHE:    6820305
L1D PQ	ACCESS:     368576	FORWARD:          0	MERGED:          0	TO_CACHE:     368415

L1D UNIQUE REGIONS ACCESSED: 0
L1D REGIONS CONFLICTS: 0
L1D Cross Page Prefetch Requests: 6855
L1D Same Page Prefetch Requests: 746230
L1D ROI Sum of L1D PQ occupancy: 4667946
L1D PREFETCHES PUSHED FROM L2C: 0
L1I TOTAL     ACCESS:    7001220  HIT:    4220222  MISS:    2780998  HIT %:    60.2784  MISS %:    39.7216   MPKI: 55.62
L1I LOAD INSTRUCTION	ACCESS:    6688227  HIT:    3907229  MISS:    2780998  HIT %:    58.4195  MISS %:    41.5805  MPKI: 55.62
L1I PREFETCH INSTRUCTION	ACCESS:     312993  HIT:     312993  MISS:          0  HIT %:        100  MISS %:          0  MPKI: 0

L1I PREFETCH  REQUESTED:     549333  ISSUED:     549333  USEFUL:          0  USELESS:          0
L1I USEFUL LOAD PREFETCHES:          0 PREFETCH ISSUED TO LOWER LEVEL:          0  ACCURACY: -nan
 TIMELY PREFETCHES:          0 LATE PREFETCHES: 0 DROPPED PREFETCHES: 0
L1I AVERAGE MISS LATENCY: 17.4636 cycles
L1I RQ	ACCESS:    9454014	FORWARD:          0	MERGED:    2684332	TO_CACHE:    6769682
L1I PQ	ACCESS:     549333	FORWARD:          0	MERGED:     172794	TO_CACHE:     376539

L1BTB TOTAL     ACCESS:    5670681  HIT:    2023578  MISS:    3647103  HIT %:    35.6849  MISS %:    64.3151   MPKI: 72.9421
L1BTB BRANCH_DIRECT_JUMP	ACCESS:     547750 HIT:     142928 MISS:     404822 AVERAGE STALL: 28.437 AVERAGE FETCH STALL: 19.1474 AVERAGE FETCH QUEUE STALL: 3.24492 AVERAGE DECODE STALL: 5.19641 AVERAGE EXECUTE STALL: 1.11051e+14
L1BTB BRANCH_INDIRECT	ACCESS:     182288 HIT:      65404 MISS:     116884 AVERAGE STALL: 68.7847 AVERAGE FETCH STALL: 16.8506 AVERAGE FETCH QUEUE STALL: 3.63184 AVERAGE DECODE STALL: 5.109 AVERAGE EXECUTE STALL: 42.2477
L1BTB BRANCH_CONDITIONAL	ACCESS:    2697328 HIT:    1398798 MISS:    1298530 AVERAGE STALL: 29.0523 AVERAGE FETCH STALL: 20.423 AVERAGE FETCH QUEUE STALL: 2.77135 AVERAGE DECODE STALL: 5.11154 AVERAGE EXECUTE STALL: 3.64233e+13
L1BTB BRANCH_DIRECT_CALL	ACCESS:     949110 HIT:     105113 MISS:     843997 AVERAGE STALL: 29.8148 AVERAGE FETCH STALL: 20.966 AVERAGE FETCH QUEUE STALL: 2.81487 AVERAGE DECODE STALL: 5.28029 AVERAGE EXECUTE STALL: 4.02624e+13
L1BTB BRANCH_INDIRECT_CALL	ACCESS:     172546 HIT:      21330 MISS:     151216 AVERAGE STALL: 88.9662 AVERAGE FETCH STALL: 18.8854 AVERAGE FETCH QUEUE STALL: 2.75978 AVERAGE DECODE STALL: 5.30207 AVERAGE EXECUTE STALL: 61.4597
L1BTB BRANCH_RETURN	ACCESS:    1121659 HIT:     290005 MISS:     831654 AVERAGE STALL: 29.4124 AVERAGE FETCH STALL: 18.8539 AVERAGE FETCH QUEUE STALL: 2.93664 AVERAGE DECODE STALL: 5.26814 AVERAGE EXECUTE STALL: 6.26037e+13
L1BTB BRANCH_OTHER ACCESS:          0 HIT:          0 MISS:          0 AVERAGE STALL: -nan AVERAGE FETCH STALL: -nan AVERAGE FETCH QUEUE STALL: -nan AVERAGE DECODE STALL: -nan AVERAGE EXECUTE STALL: -nan
L1BTB TOTAL ROB OCCUPANCY AT BTB MISS: 19.8877

L2BTB TOTAL     ACCESS:    3621834  HIT:    2098045  MISS:    1523789  HIT %:    57.9277  MISS %:    42.0723   MPKI: 30.4758
L2BTB BRANCH_DIRECT_JUMP	ACCESS:     400755 HIT:     238693 MISS:     162062 AVERAGE STALL: 28.437 AVERAGE FETCH STALL: 19.1474 AVERAGE FETCH QUEUE STALL: 3.24492 AVERAGE DECODE STALL: 5.19641 AVERAGE EXECUTE STALL: 1.11051e+14
L2BTB BRANCH_INDIRECT	ACCESS:     106561 HIT:      82690 MISS:      23871 AVERAGE STALL: 68.7847 AVERAGE FETCH STALL: 16.8506 AVERAGE FETCH QUEUE STALL: 3.63184 AVERAGE DECODE STALL: 5.109 AVERAGE EXECUTE STALL: 42.2477
L2BTB BRANCH_CONDITIONAL	ACCESS:    1298530 HIT:     789885 MISS:     508645 AVERAGE STALL: 29.0523 AVERAGE FETCH STALL: 20.423 AVERAGE FETCH QUEUE STALL: 2.77135 AVERAGE DECODE STALL: 5.11154 AVERAGE EXECUTE STALL: 3.64233e+13
L2BTB BRANCH_DIRECT_CALL	ACCESS:     843997 HIT:     385777 MISS:     458220 AVERAGE STALL: 29.8148 AVERAGE FETCH STALL: 20.966 AVERAGE FETCH QUEUE STALL: 2.81487 AVERAGE DECODE STALL: 5.28029 AVERAGE EXECUTE STALL: 4.02624e+13
L2BTB BRANCH_INDIRECT_CALL	ACCESS:     141757 HIT:      64046 MISS:      77711 AVERAGE STALL: 88.9662 AVERAGE FETCH STALL: 18.8854 AVERAGE FETCH QUEUE STALL: 2.75978 AVERAGE DECODE STALL: 5.30207 AVERAGE EXECUTE STALL: 61.4597
L2BTB BRANCH_RETURN	ACCESS:     830234 HIT:     536954 MISS:     293280 AVERAGE STALL: 29.4124 AVERAGE FETCH STALL: 18.8539 AVERAGE FETCH QUEUE STALL: 2.93664 AVERAGE DECODE STALL: 5.26814 AVERAGE EXECUTE STALL: 6.26037e+13
L2BTB BRANCH_OTHER ACCESS:          0 HIT:          0 MISS:          0 AVERAGE STALL: -nan AVERAGE FETCH STALL: -nan AVERAGE FETCH QUEUE STALL: -nan AVERAGE DECODE STALL: -nan AVERAGE EXECUTE STALL: -nan
L2BTB TOTAL ROB OCCUPANCY AT BTB MISS: 47.6001

L2C TOTAL     ACCESS:    4517230  HIT:    4003770  MISS:     513460  HIT %:    88.6333  MISS %:    11.3667   MPKI: 10.2692
L2C LOAD INSTRUCTION	ACCESS:    2780998  HIT:    2493025  MISS:     287973  HIT %:     89.645  MISS %:     10.355  MPKI: 5.75946
L2C LOAD TRANSLATION INSTRUCTION	ACCESS:        226  HIT:         56  MISS:        170  HIT %:    24.7788  MISS %:    75.2212  MPKI: 0.0034
L2C LOAD DATA	ACCESS:     734753  HIT:     656059  MISS:      78694  HIT %:    89.2897  MISS %:    10.7103  MPKI: 1.57388
L2C RFO DATA	ACCESS:     287454  HIT:     232791  MISS:      54663  HIT %:    80.9837  MISS %:    19.0163  MPKI: 1.09326
L2C PREFETCH DATA	ACCESS:     187641  HIT:     115673  MISS:      71968  HIT %:    61.6459  MISS %:    38.3541  MPKI: 1.43936
L2C WRITEBACK DATA	ACCESS:     524485  HIT:     505774  MISS:      18711  HIT %:    96.4325  MISS %:     3.5675  MPKI: 0.37422
L2C LOAD TRANSLATION DATA	ACCESS:       1632  HIT:        364  MISS:       1268  HIT %:    22.3039  MISS %:    77.6961  MPKI: 0.02536
L2C TRANSLATION FROM L1D PREFETCHER DATA	ACCESS:         41  HIT:         28  MISS:         13  HIT %:    68.2927  MISS %:    31.7073  MPKI: 0.00026

L2C PREFETCH  REQUESTED:      93324  ISSUED:      93324  USEFUL:       8348  USELESS:      64103
L2C USEFUL LOAD PREFETCHES:       8348 PREFETCH ISSUED TO LOWER LEVEL:      72449  ACCURACY: 11.5226
 TIMELY PREFETCHES:       8348 LATE PREFETCHES: 480 DROPPED PREFETCHES: 0
L2C AVERAGE MISS LATENCY: 36.9627 cycles
L2C RQ	ACCESS:    3805128	FORWARD:          0	MERGED:          0	TO_CACHE:    3805104
L2C WQ	ACCESS:     524485	FORWARD:         24	MERGED:          0	TO_CACHE:     524485
L2C PQ	ACCESS:     194568	FORWARD:          0	MERGED:       3099	TO_CACHE:     191469

L2C Dense regions hint from L2: 0
PSCL5 TOTAL     ACCESS:       3650  HIT:       1825  MISS:       1825  HIT %:         50  MISS %:         50   MPKI: 0.0365
PSCL5 LOAD TRANSLATION INSTRUCTION	ACCESS:       3568  HIT:       1784  MISS:       1784  HIT %:         50  MISS %:         50  MPKI: 0.03568
PSCL5 TRANSLATION FROM L1D PREFETCHER INSTRUCTION	ACCESS:         82  HIT:         41  MISS:         41  HIT %:         50  MISS %:         50  MPKI: 0.00082


PSCL4 TOTAL     ACCESS:       3570  HIT:       1783  MISS:       1787  HIT %:     49.944  MISS %:     50.056   MPKI: 0.03574
PSCL4 LOAD TRANSLATION INSTRUCTION	ACCESS:       1862  HIT:       1747  MISS:        115  HIT %:    93.8238  MISS %:    6.17615  MPKI: 0.0023
PSCL4 TRANSLATION FROM L1D PREFETCHER INSTRUCTION	ACCESS:         36  HIT:         36  MISS:          0  HIT %:        100  MISS %:          0  MPKI: 0
PSCL4 LOAD TRANSLATION DATA	ACCESS:       1636  HIT:          0  MISS:       1636  HIT %:          0  MISS %:        100  MPKI: 0.03272
PSCL4 TRANSLATION FROM L1D PREFETCHER DATA	ACCESS:         36  HIT:          0  MISS:         36  HIT %:          0  MISS %:        100  MPKI: 0.00072


PSCL3 TOTAL     ACCESS:       3586  HIT:       1791  MISS:       1795  HIT %:    49.9442  MISS %:    50.0558   MPKI: 0.0359
PSCL3 LOAD TRANSLATION INSTRUCTION	ACCESS:       1870  HIT:       1755  MISS:        115  HIT %:    93.8503  MISS %:    6.14973  MPKI: 0.0023
PSCL3 TRANSLATION FROM L1D PREFETCHER INSTRUCTION	ACCESS:         36  HIT:         36  MISS:          0  HIT %:        100  MISS %:          0  MPKI: 0
PSCL3 LOAD TRANSLATION DATA	ACCESS:       1644  HIT:          0  MISS:       1644  HIT %:          0  MISS %:        100  MPKI: 0.03288
PSCL3 TRANSLATION FROM L1D PREFETCHER DATA	ACCESS:         36  HIT:          0  MISS:         36  HIT %:          0  MISS %:        100  MPKI: 0.00072


PSCL2 TOTAL     ACCESS:       3584  HIT:       1759  MISS:       1825  HIT %:    49.0792  MISS %:    50.9208   MPKI: 0.0365
PSCL2 LOAD TRANSLATION INSTRUCTION	ACCESS:       1918  HIT:       1718  MISS:        200  HIT %:    89.5725  MISS %:    10.4275  MPKI: 0.004
PSCL2 TRANSLATION FROM L1D PREFETCHER INSTRUCTION	ACCESS:         41  HIT:         41  MISS:          0  HIT %:        100  MISS %:          0  MPKI: 0
PSCL2 LOAD TRANSLATION DATA	ACCESS:       1584  HIT:          0  MISS:       1584  HIT %:          0  MISS %:        100  MPKI: 0.03168
PSCL2 TRANSLATION FROM L1D PREFETCHER DATA	ACCESS:         41  HIT:          0  MISS:         41  HIT %:          0  MISS %:        100  MPKI: 0.00082


LLC TOTAL     ACCESS:     574754  HIT:     547809  MISS:      26945  HIT %:    95.3119  MISS %:    4.68809   MPKI: 0.5389
LLC LOAD INSTRUCTION	ACCESS:     287973  HIT:     287223  MISS:        750  HIT %:    99.7396  MISS %:   0.260441  MPKI: 0.015
LLC LOAD TRANSLATION INSTRUCTION	ACCESS:        170  HIT:        145  MISS:         25  HIT %:    85.2941  MISS %:    14.7059  MPKI: 0.0005
LLC LOAD DATA	ACCESS:      78244  HIT:      74942  MISS:       3302  HIT %:    95.7799  MISS %:    4.22013  MPKI: 0.06604
LLC RFO DATA	ACCESS:      54632  HIT:      41815  MISS:      12817  HIT %:    76.5394  MISS %:    23.4606  MPKI: 0.25634
LLC PREFETCH DATA	ACCESS:      72449  HIT:      62814  MISS:       9635  HIT %:     86.701  MISS %:     13.299  MPKI: 0.1927
LLC WRITEBACK DATA	ACCESS:      80005  HIT:      79662  MISS:        343  HIT %:    99.5713  MISS %:   0.428723  MPKI: 0.00686
LLC LOAD TRANSLATION DATA	ACCESS:       1268  HIT:       1195  MISS:         73  HIT %:    94.2429  MISS %:     5.7571  MPKI: 0.00146
LLC TRANSLATION FROM L1D PREFETCHER DATA	ACCESS:         13  HIT:         13  MISS:          0  HIT %:        100  MISS %:          0  MPKI: 0

LLC AVERAGE MISS LATENCY: 152.359 cycles
LLC RQ	ACCESS:     422301	FORWARD:          0	MERGED:          0	TO_CACHE:     422300
LLC WQ	ACCESS:      80005	FORWARD:          1	MERGED:          0	TO_CACHE:      80005
LLC PQ	ACCESS:      72449	FORWARD:          0	MERGED:          0	TO_CACHE:      72449

LLC Dense regions hint to LLC: 0

RAW hits: 1366111
Loads Generated: 12632550
Loads sent to L1D: 11266439
Stores Generated: 6956176
Stores sent to L1D: 6956185
Major fault: 0 Minor fault: 2481
Allocated PAGES: 2481

stream: 
stream:times selected: 1174334
stream:pref_filled: 119790
stream:pref_useful: 23959
stream:pref_late: 6853
stream:misses: 7934
stream:misses_by_poll: 0

CS: 
CS:times selected: 174772
CS:pref_filled: 60151
CS:pref_useful: 36165
CS:pref_late: 6481
CS:misses: 15450
CS:misses_by_poll: 6

CPLX: 
CPLX:times selected: 998527
CPLX:pref_filled: 19893
CPLX:pref_useful: 4682
CPLX:pref_late: 3074
CPLX:misses: 93918
CPLX:misses_by_poll: 1

NL_L1: 
NL:times selected: 20413
NL:pref_filled: 751
NL:pref_useful: 352
NL:pref_late: 284
NL:misses: 1702
NL:misses_by_poll: 0

total selections: 2368046
total_filled: 94006
total_useful: 33444
total_late: 17919
total_polluted: 7
total_misses_after_warmup: 766879
conflicts: 5890026

test: 114723

DRAM Statistics
 CHANNEL 0
 RQ ROW_BUFFER_HIT:       9792  ROW_BUFFER_MISS:      16805
 DBUS_CONGESTED:          5
 WQ ROW_BUFFER_HIT:       1276  ROW_BUFFER_MISS:      11458  FULL:          0

 AVG_CONGESTED_CYCLE: 6

CPU 0 Branch Prediction Accuracy: 99.8257% MPKI: 0.31912 Average ROB Occupancy at Mispredict: 97.2322
Branch types
NOT_BRANCH: 40846847 81.6937%
BRANCH_DIRECT_JUMP: 547750 1.0955%
BRANCH_INDIRECT: 182288 0.364576%
BRANCH_CONDITIONAL: 6179439 12.3589%
BRANCH_DIRECT_CALL: 949110 1.89822%
BRANCH_INDIRECT_CALL: 172546 0.345092%
BRANCH_RETURN: 1121659 2.24332%
BRANCH_OTHER: 0 0%

DRAM PAGES: 1048576
Allocated PAGES: 2481
Average_ROB_Occupancy: 56.8245
Average_Decode_Occupancy: 6.50314
Average_FTQ_Occupancy: 3.56039
Indirect max targets: 14 Average targets: 1.14576
Branch_type:  BRANCH_DIRECT_JUMP:  Count Percentage: 3.28166 5.97631 3.65443 7.17979 2.92367 6.32152 1.29156 69.3711 
Branch_type:  BRANCH_INDIRECT:  Count Percentage: 6.12122 0.788748 8.14555 9.6825 3.34841 2.8139 0.937785 68.1619 
Branch_type:  BRANCH_CONDITIONAL:  Count Percentage: 20.8927 3.48023 1.53093 7.18912 3.07247 3.54878 0.573501 59.7122 
Branch_type:  BRANCH_DIRECT_CALL:  Count Percentage: 0.901909 1.28065 0.724845 3.62232 2.78686 2.60827 0.885745 87.1894 
Branch_type:  BRANCH_INDIRECT_CALL:  Count Percentage: 9.54037 0 2.99243 0 0.000290245 1.70984 0.99351 84.7636 
Branch_type:  BRANCH_RETURN:  Count Percentage: 4.74589 4.79182 1.02069 4.8281 4.10445 3.40967 0.580772 76.5186 
Branch_type:  BRANCH_DIRECT_JUMP:  Total Count: 35953 65475 40037 78660 32031 69257 14150 760012 
Branch_type:  BRANCH_INDIRECT:  Total Count: 22343 2879 29732 35342 12222 10271 3423 248797 
Branch_type:  BRANCH_CONDITIONAL:  Total Count: 2581475 430012 189160 888278 379630 438482 70861 7377959 
Branch_type:  BRANCH_DIRECT_CALL:  Total Count: 17074 24244 13722 68574 52758 49377 16768 1650578 
Branch_type:  BRANCH_INDIRECT_CALL:  Total Count: 32870 0 10310 0 1 5891 3423 292041 
Branch_type:  BRANCH_RETURN:  Total Count: 106232 107260 22847 108072 91874 76322 13000 1712791 
Number of unique branch instructions: 9763
Upper 32 bits: 
aaaa
ffff
ffff0000
Unique upper 32 bits: 3
Unique upper 36 bits: 3
Unique upper 40 bits: 5
Unique upper 44 bits: 32
Unique upper 48 bits: 154
Variant_0 : 582 0.28418
Variant_1 : 1466 0.71582
Variant_2 : 0 0
Variant_3 : 0 0
Offset_3 4036
Offset_4 241
Offset_5 442
Offset_6 503
Offset_7 572
Offset_8 499
Offset_9 459
Offset_10 377
Offset_11 303
Offset_12 265
Offset_13 201
Offset_14 223
Offset_15 190
Offset_16 218
Offset_17 145
Offset_18 120
Offset_19 235
Offset_20 135
Offset_21 235
Offset_22 391
Offset_23 241
Offset_24 325
Offset_25 88
Offset_47 80
decode_dispatch_called: 20172415 29.8766
Dispatch_width: 0 9815317 48.6571 14.5371
Dispatch_width: 1 640522 3.17524 0.948653
Dispatch_width: 2 915753 4.53963 1.35629
Dispatch_width: 3 629078 3.11851 0.931704
Dispatch_width: 4 1459776 7.2365 2.16202
Dispatch_width: 5 470419 2.33199 0.69672
Dispatch_width: 6 6241550 30.941 9.24413
Empty_decode_cycles: 47346682 70.1234
ROB_full_cycles: 1186068 1.75664
Starvation_cycles_per_kilo_instr: 600.915
Starvation_cycles_per_kilo_instr_3: 581.613
Starvation_cycles_per_kilo_instr_0: 559.759
Branch_type_1  (3,1)  (4,7)  (5,36)  (6,71)  (7,115)  (8,125)  (9,124)  (10,98)  (11,67)  (12,43)  (13,8)  (14,2)  (15,3)  (16,4)  (18,1)  (19,4)  (20,2)  (21,1)  (22,3)  (23,2)  (24,10)  (25,12) 
Branch_type_2  (3,1)  (5,1)  (8,3)  (9,3)  (12,1)  (13,1)  (14,1)  (16,3)  (17,2)  (20,2)  (21,2)  (23,5)  (24,1)  (47,36) 
Branch_type_3  (3,4034)  (4,234)  (5,401)  (6,417)  (7,428)  (8,312)  (9,251)  (10,154)  (11,122)  (12,50)  (13,7) 
Branch_type_4  (6,3)  (7,8)  (8,24)  (9,50)  (10,59)  (11,58)  (12,93)  (13,84)  (14,98)  (15,90)  (16,98)  (17,63)  (18,54)  (19,115)  (20,71)  (21,124)  (22,207)  (23,136)  (24,186)  (25,72) 
Branch_type_5  (8,2)  (9,1)  (10,3)  (11,5)  (12,3)  (13,14)  (14,16)  (15,11)  (16,20)  (17,13)  (18,16)  (19,12)  (20,10)  (21,13)  (22,42)  (23,26)  (24,36) 
Branch_type_6  (5,4)  (6,12)  (7,21)  (8,33)  (9,30)  (10,63)  (11,51)  (12,75)  (13,87)  (14,106)  (15,86)  (16,93)  (17,67)  (18,49)  (19,104)  (20,50)  (21,95)  (22,139)  (23,72)  (24,92)  (25,4)  (47,44) 
Unique trigger count: 
Variant_0_evicts_0 : 0
Variant_0_evicts_1 : 0
Variant_0_evicts_2 : 0
Variant_0_evicts_3 : 0
Variant_1_evicts_0 : 0
Variant_1_evicts_1 : 0
Variant_1_evicts_2 : 0
Variant_1_evicts_3 : 0
Variant_2_evicts_0 : 0
Variant_2_evicts_1 : 0
Variant_2_evicts_2 : 0
Variant_2_evicts_3 : 0
Variant_3_evicts_0 : 0
Variant_3_evicts_1 : 0
Variant_3_evicts_2 : 0
Variant_3_evicts_3 : 0
BTB PER SET UNIQUE ADDR: 45 46 47 48 50 40 48 42 40 42 56 43 40 47 43 37 37 40 47 43 49 52 34 38 46 35 57 48 47 38 46 44 43 37 45 43 48 36 40 46 47 43 38 50 38 50 47 36 38 37 56 49 47 43 48 52 41 48 45 39 50 43 43 57 49 54 46 47 49 33 42 56 48 44 56 44 42 40 49 50 47 32 50 30 38 53 50 54 59 52 49 40 57 40 49 55 41 50 56 56 59 52 41 46 43 45 45 38 46 39 47 41 48 60 38 55 54 34 46 54 59 47 48 59 47 50 60 45 52 47 57 41 50 43 44 43 48 52 43 58 46 38 45 48 49 50 46 46 39 36 51 43 52 49 51 41 42 32 47 53 51 39 44 45 45 51 50 45 40 36 42 35 45 41 54 53 55 47 47 55 39 50 42 40 41 44 47 48 44 47 44 42 38 40 50 46 58 45 46 45 53 39 52 43 38 39 55 45 43 48 49 43 48 48 33 59 47 37 45 37 39 44 50 40 45 41 46 48 53 44 31 43 66 55 40 40 36 40 47 46 41 57 57 46 39 61 39 42 46 35 48 41 56 37 50 30 50 49 47 44 51 43 53 47 44 40 46 49 51 55 40 42 52 43 54 49 48 42 41 46 50 34 47 55 43 36 26 50 43 49 62 44 36 44 40 50 46 47 47 43 53 44 56 48 47 49 45 42 40 44 40 46 30 48 43 48 43 43 40 48 34 45 43 51 48 65 57 65 42 59 51 38 50 39 57 40 41 59 55 52 51 42 47 44 50 43 50 55 40 46 48 47 43 59 57 48 46 57 48 45 43 32 40 39 51 49 37 44 44 47 59 47 45 48 56 39 48 47 39 39 49 52 54 45 44 44 49 51 36 52 50 53 53 48 51 38 40 43 60 52 35 44 47 41 50 53 48 44 41 40 44 36 52 39 54 50 48 43 52 57 49 57 55 51 58 37 48 47 56 46 47 57 45 42 45 50 48 53 53 54 50 44 48 41 39 53 41 43 50 49 53 37 48 54 44 57 61 37 39 38 37 41 58 44 65 31 55 44 56 58 49 52 35 45 46 42 37 39 48 54 44 52 50 67 45 41 53 47 54 39 42 38 41 41 45 47 39 42 38 29 44 46 53 36 43 50 61 36 53 55 45 43 
BTB PER SET COUNT: 5169 5307 5579 7209 5909 5150 6845 5116 3792 5951 8814 5177 4726 6132 5852 3660 3985 5677 5854 5030 5522 6317 3486 4114 6524 5560 7700 7060 6445 4595 5991 5516 5686 7899 5776 5765 5384 3494 5174 6406 6142 5089 5197 6492 4643 6932 6259 4303 4860 5056 7408 5815 5189 4942 5697 7141 4294 6693 6412 3734 6944 5347 4781 7446 6083 6879 6225 6372 7707 3259 4816 6807 5434 4726 6189 6372 5252 4795 6858 7204 6774 3738 5149 3930 4646 6737 6959 7606 7735 6774 6044 4511 7795 5151 5573 7558 4134 6212 7607 7924 7152 8182 6155 6961 5027 5164 7083 4780 5409 5754 6614 6184 6277 7453 4780 7041 7270 4266 6206 7610 6425 5420 7249 12022 7026 7743 7283 5529 6825 7126 8859 9340 7146 4771 5815 6970 5821 6290 4658 7875 6414 5614 5891 6048 6289 7435 6615 6470 5219 3956 7614 5179 5993 5452 6879 4290 6136 3406 6230 7558 5851 3788 5043 10763 4807 8204 7946 6462 3614 4200 4841 3551 6019 4437 7922 7340 7282 6413 6899 6829 5152 6837 5416 4659 5616 5271 6196 6288 6226 6508 7288 4789 5139 5024 7377 6482 7950 5178 6034 4641 7462 4207 8608 5231 4250 4290 7268 6159 4985 5900 6361 4595 7211 5347 4484 7859 5362 5647 4124 4133 5521 5867 6350 4920 6553 5029 6079 5935 8433 6287 4284 5572 8287 6474 5228 5763 4743 5223 6909 5329 4618 7977 6144 6816 5069 9034 4099 5950 7070 5326 5868 4015 7183 3970 6413 2999 7911 6197 5951 6103 7229 5906 6126 6450 5701 5294 6553 5828 7437 7949 5120 4576 7050 5650 7487 6063 5869 5243 5653 6537 5734 4074 5615 8551 5471 4514 2255 6530 5708 5809 7297 6173 3966 5559 4394 7292 6064 6307 6777 6254 6789 5224 6152 5621 5496 6297 12893 3736 5439 5543 5851 7233 4504 6495 4932 7154 4837 5027 5526 5907 4368 5724 5577 11067 4890 10038 9075 10268 4298 7486 6493 4687 6155 5733 8889 5523 5070 7560 7980 5936 7586 5192 5898 5525 6744 6184 6930 7002 5351 6487 6987 5784 5049 9304 8310 5711 5625 8222 7047 5851 4917 3900 5045 4633 7995 6406 5382 6028 5432 6940 8970 6603 5804 5805 7157 4546 7614 5190 4990 4400 6806 7279 6671 5878 4908 5128 6434 7284 3959 6539 6399 6580 5455 5210 6256 5276 5338 4738 7391 7050 3937 5555 5432 4310 6148 6707 6217 5793 4691 5439 5660 4141 5954 3572 7319 5497 5477 6327 7593 7557 6212 7345 6900 11073 7474 4057 4849 6361 7766 5507 10709 7802 6434 5601 6627 6000 6241 6606 7067 7305 5858 6456 5615 5449 5977 6904 5269 5833 6638 6764 6415 4818 7162 6545 4865 7692 8475 4921 4665 4509 4369 5472 6998 5885 13787 3115 7505 6703 6816 8018 6595 6584 3711 6039 6308 7612 6111 4517 5710 6514 7342 6642 6537 9781 4650 5464 6846 5258 7530 4662 5091 4036 4980 4957 5264 6264 4761 4730 4067 3271 5416 5290 5701 3908 5774 6425 7644 4670 6998 6285 6304 6643 
To predecode: 0
Predecoding something: 0
Predecode request dropped: 0
sizeofblock_0 0
sizeofblock_1 623371
sizeofblock_2 1579442
sizeofblock_3 0
sizeofblock_4 0
sizeofblock_5 0
sizeofblock_6 0
sizeofblock_7 0
sizeofblock_8 0
Variant_0 Correct: 757325 Incorrect: 0 Accuracy: 1
Variant_1 Correct: 3600550 Incorrect: 0 Accuracy: 1
Variant_2 Correct: 0 Incorrect: 0 Accuracy: -nan
Variant_3 Correct: 0 Incorrect: 0 Accuracy: -nan
