
*** ChampSim Multicore Out-of-Order Simulator ***

Warmup Instructions: 50000000
Simulation Instructions: 50000000
Number of CPUs: 1
LLC sets: 2048
LLC ways: 16
Off-chip DRAM Size: 4096 MB Channels: 1 Width: 64-bit Data Rate: 6400 MT/s
CPU 0 runs ./micro_traces/srv67.trace.gz
.gz
ITLB has LRU replacement policy
DTLB has LRU replacement policy
STLB has LRU replacement policy
FDIP Prefetcher at L1I
L1I has LRU replacement policy
L1D has LRU replacement policy
Initialize SRRIP state for L2C
Initialize DRRIP state for LLC
Heartbeat CPU 0 instructions: 10000000 cycles: 2795537 heartbeat IPC: 3.57713 cumulative IPC: 3.57713 (Simulation time: 0 hr 2 min 30 sec) 
Heartbeat CPU 0 instructions: 20000003 cycles: 5590926 heartbeat IPC: 3.57732 cumulative IPC: 3.57723 (Simulation time: 0 hr 4 min 17 sec) 
Heartbeat CPU 0 instructions: 30000000 cycles: 8386707 heartbeat IPC: 3.57682 cumulative IPC: 3.57709 (Simulation time: 0 hr 6 min 8 sec) 
Heartbeat CPU 0 instructions: 40000001 cycles: 11182126 heartbeat IPC: 3.57728 cumulative IPC: 3.57714 (Simulation time: 0 hr 8 min 12 sec) 
Heartbeat CPU 0 instructions: 50000000 cycles: 13977569 heartbeat IPC: 3.57725 cumulative IPC: 3.57716 (Simulation time: 0 hr 10 min 3 sec) 

Warmup complete CPU 0 instructions: 50000004 cycles: 13977570 (Simulation time: 0 hr 10 min 3 sec) 

Cycle: 20000000 FTQ IN: 58247411 FTQ occupancy: 17.799 DECODE IN: 58247381 DECODE occupancy: 47.7718 ROB IN: 58247375 ROB occupancy: 308.446 ROB OUT: 58247292
Heartbeat CPU 0 instructions: 60000003 cycles: 21275751 heartbeat IPC: 1.3702 cumulative IPC: 1.3702 (Simulation time: 0 hr 11 min 51 sec) 
Heartbeat CPU 0 instructions: 70000000 cycles: 28523670 heartbeat IPC: 1.37971 cumulative IPC: 1.37494 (Simulation time: 0 hr 13 min 34 sec) 
Cycle: 30000000 FTQ IN: 13813824 FTQ occupancy: 5.60388 DECODE IN: 13813854 DECODE occupancy: 19.183 ROB IN: 13813805 ROB occupancy: 216.43 ROB OUT: 13813540
Heartbeat CPU 0 instructions: 80000002 cycles: 35796608 heartbeat IPC: 1.37496 cumulative IPC: 1.37495 (Simulation time: 0 hr 15 min 18 sec) 
Cycle: 40000000 FTQ IN: 13723297 FTQ occupancy: 5.74135 DECODE IN: 13723231 DECODE occupancy: 19.5152 ROB IN: 13723285 ROB occupancy: 217.727 ROB OUT: 13723597
Heartbeat CPU 0 instructions: 90000002 cycles: 43044048 heartbeat IPC: 1.3798 cumulative IPC: 1.37616 (Simulation time: 0 hr 17 min 9 sec) 
Cycle: 50000000 FTQ IN: 13782347 FTQ occupancy: 5.68006 DECODE IN: 13782336 DECODE occupancy: 19.3153 ROB IN: 13782277 ROB occupancy: 216.362 ROB OUT: 13781961
Heartbeat CPU 0 instructions: 100000000 cycles: 50309895 heartbeat IPC: 1.3763 cumulative IPC: 1.37618 (Simulation time: 0 hr 19 min 7 sec) 
Finished CPU 0 instructions: 50000000 cycles: 36332326 cumulative IPC: 1.37618 (Simulation time: 0 hr 19 min 7 sec) 

ChampSim completed all CPUs

Region of Interest Statistics

CPU 0 cumulative IPC: 1.37618 instructions: 50000000 cycles: 36332326
 Fetch stage stalled: 63.8431  Sim cycles: 36332326 fetch stall cycle: 23195683
 Empty decode stage: 48.613  Sim cycles: 36332326 fetch stall cycle: 17662219
ITLB TOTAL     ACCESS:    5571318  HIT:    5081427  MISS:     489891  HIT %:    91.2069  MISS %:    8.79309   MPKI: 9.79782
ITLB LOAD TRANSLATION INSTRUCTION	ACCESS:    5454190  HIT:    4964299  MISS:     489891  HIT %:    91.0181  MISS %:    8.98192  MPKI: 9.79782
ITLB TRANSLATION FROM L1D PREFETCHER INSTRUCTION	ACCESS:     117128  HIT:     117128  MISS:          0  HIT %:        100  MISS %:          0  MPKI: 0

ITLB AVERAGE MISS LATENCY: 9.04985 cycles
ITLB RQ	ACCESS:    7404935	FORWARD:          0	MERGED:    1349213	TO_CACHE:    6055722

DTLB TOTAL     ACCESS:    8986298  HIT:    8521168  MISS:     465130  HIT %:     94.824  MISS %:    5.17599   MPKI: 9.3026
DTLB LOAD TRANSLATION DATA	ACCESS:    8986298  HIT:    8521168  MISS:     465130  HIT %:     94.824  MISS %:    5.17599  MPKI: 9.3026

DTLB AVERAGE MISS LATENCY: 9.34852 cycles
DTLB RQ	ACCESS:   13342140	FORWARD:          0	MERGED:    4319230	TO_CACHE:    9022910

STLB TOTAL     ACCESS:    1208266  HIT:    1206233  MISS:       2033  HIT %:    99.8317  MISS %:   0.168258   MPKI: 0.04066
STLB LOAD TRANSLATION INSTRUCTION	ACCESS:     489891  HIT:     489628  MISS:        263  HIT %:    99.9463  MISS %:  0.0536854  MPKI: 0.00526
STLB LOAD TRANSLATION DATA	ACCESS:     464988  HIT:     463234  MISS:       1754  HIT %:    99.6228  MISS %:   0.377214  MPKI: 0.03508
STLB TRANSLATION FROM L1D PREFETCHER DATA	ACCESS:     253387  HIT:     253371  MISS:         16  HIT %:    99.9937  MISS %: 0.00631445  MPKI: 0.00032

STLB AVERAGE MISS LATENCY: 78.4811 cycles
STLB RQ	ACCESS:    1339503	FORWARD:          0	MERGED:     131198	TO_CACHE:    1208305

STLB Hit, L1D data hit: 0
STLB Hit, L2C data hit: 0
STLB Hit, LLC data hit: 0
STLB Hit, LLC data miss: 0
STLB STLB hints to L2: 0
L1D TOTAL     ACCESS:   13096374  HIT:   11972338  MISS:    1124036  HIT %:    91.4172  MISS %:     8.5828   MPKI: 22.4807
L1D LOAD DATA	ACCESS:    6571302  HIT:    5831257  MISS:     740045  HIT %:    88.7382  MISS %:    11.2618  MPKI: 14.8009
L1D RFO DATA	ACCESS:    6189560  HIT:    5904143  MISS:     285417  HIT %:    95.3887  MISS %:    4.61126  MPKI: 5.70834
L1D PREFETCH DATA	ACCESS:     335512  HIT:     236938  MISS:      98574  HIT %:    70.6198  MISS %:    29.3802  MPKI: 1.97148

L1D PREFETCH  REQUESTED:     769288  ISSUED:     769288  USEFUL:      39448  USELESS:      69575
L1D USEFUL LOAD PREFETCHES:      39448 PREFETCH ISSUED TO LOWER LEVEL:     109074  ACCURACY: 36.1663
 TIMELY PREFETCHES:      39448 LATE PREFETCHES: 10441 DROPPED PREFETCHES: 5
L1D AVERAGE MISS LATENCY: 301356 cycles
L1D RQ	ACCESS:   10719999	FORWARD:          0	MERGED:    3953254	TO_CACHE:    6604315
L1D WQ	ACCESS:    6927607	FORWARD:     162754	MERGED:     189782	TO_CACHE:    6737825
L1D PQ	ACCESS:     384806	FORWARD:          0	MERGED:          0	TO_CACHE:     384482

L1D UNIQUE REGIONS ACCESSED: 0
L1D REGIONS CONFLICTS: 0
L1D Cross Page Prefetch Requests: 5366
L1D Same Page Prefetch Requests: 774085
L1D ROI Sum of L1D PQ occupancy: 4886601
L1D PREFETCHES PUSHED FROM L2C: 0
L1I TOTAL     ACCESS:    6845690  HIT:    4100938  MISS:    2744752  HIT %:    59.9054  MISS %:    40.0946   MPKI: 54.895
L1I LOAD INSTRUCTION	ACCESS:    6337346  HIT:    3592594  MISS:    2744752  HIT %:    56.6893  MISS %:    43.3107  MPKI: 54.895
L1I PREFETCH INSTRUCTION	ACCESS:     508344  HIT:     508344  MISS:          0  HIT %:        100  MISS %:          0  MPKI: 0

L1I PREFETCH  REQUESTED:    1114039  ISSUED:    1114039  USEFUL:          0  USELESS:          0
L1I USEFUL LOAD PREFETCHES:          0 PREFETCH ISSUED TO LOWER LEVEL:          0  ACCURACY: -nan
 TIMELY PREFETCHES:          0 LATE PREFETCHES: 0 DROPPED PREFETCHES: 0
L1I AVERAGE MISS LATENCY: 17.0903 cycles
L1I RQ	ACCESS:    9438151	FORWARD:          0	MERGED:    2830774	TO_CACHE:    6607377
L1I PQ	ACCESS:    1114039	FORWARD:          0	MERGED:     316481	TO_CACHE:     797558

L1BTB TOTAL     ACCESS:    5673181  HIT:    2065892  MISS:    3607289  HIT %:    36.4151  MISS %:    63.5849   MPKI: 72.1458
L1BTB BRANCH_DIRECT_JUMP	ACCESS:     548416  HIT:     145414  MISS:     403002	AVERAGE STALL: 24.7745
L1BTB BRANCH_INDIRECT	ACCESS:     183049  HIT:      66359  MISS:     116690	AVERAGE STALL: 90.0962
L1BTB BRANCH_CONDITIONAL	ACCESS:    2727592  HIT:    1440755  MISS:    1286837	AVERAGE STALL: 22.6384
L1BTB BRANCH_DIRECT_CALL	ACCESS:     936625  HIT:     104446  MISS:     832179	AVERAGE STALL: 25.2771
L1BTB BRANCH_INDIRECT_CALL	ACCESS:     170435  HIT:      20878  MISS:     149557	AVERAGE STALL: 124.352
L1BTB BRANCH_RETURN	ACCESS:    1107064  HIT:     288040  MISS:     819024	AVERAGE STALL: 25.1374
L1BTB BRANCH_OTHER ACCESS:          0  HIT:          0  MISS:          0	AVERAGE STALL: -nan
L1BTB TOTAL ROB OCCUPANCY AT BTB MISS: 23.3592

L2BTB TOTAL     ACCESS:    3581849  HIT:    3143438  MISS:     438411  HIT %:    87.7602  MISS %:    12.2398   MPKI: 8.76822
L2BTB BRANCH_DIRECT_JUMP	ACCESS:     398765  HIT:     349371  MISS:      49394	AVERAGE STALL: 24.7745
L2BTB BRANCH_INDIRECT	ACCESS:     106494  HIT:     101214  MISS:       5280	AVERAGE STALL: 90.0962
L2BTB BRANCH_CONDITIONAL	ACCESS:    1286837  HIT:    1141693  MISS:     145144	AVERAGE STALL: 22.6384
L2BTB BRANCH_DIRECT_CALL	ACCESS:     832179  HIT:     715348  MISS:     116831	AVERAGE STALL: 25.2771
L2BTB BRANCH_INDIRECT_CALL	ACCESS:     139944  HIT:     118292  MISS:      21652	AVERAGE STALL: 124.352
L2BTB BRANCH_RETURN	ACCESS:     817630  HIT:     717520  MISS:     100110	AVERAGE STALL: 25.1374
L2BTB BRANCH_OTHER ACCESS:          0  HIT:          0  MISS:          0	AVERAGE STALL: -nan
L2BTB TOTAL ROB OCCUPANCY AT BTB MISS: 192.202

L2C TOTAL     ACCESS:    4476097  HIT:    3995399  MISS:     480698  HIT %:    89.2608  MISS %:    10.7392   MPKI: 9.61396
L2C LOAD INSTRUCTION	ACCESS:    2744752  HIT:    2503240  MISS:     241512  HIT %:     91.201  MISS %:    8.79905  MPKI: 4.83024
L2C LOAD TRANSLATION INSTRUCTION	ACCESS:        311  HIT:         76  MISS:        235  HIT %:    24.4373  MISS %:    75.5627  MPKI: 0.0047
L2C LOAD DATA	ACCESS:     729583  HIT:     648759  MISS:      80824  HIT %:    88.9219  MISS %:    11.0781  MPKI: 1.61648
L2C RFO DATA	ACCESS:     285320  HIT:     226778  MISS:      58542  HIT %:     79.482  MISS %:     20.518  MPKI: 1.17084
L2C PREFETCH DATA	ACCESS:     193728  HIT:     115447  MISS:      78281  HIT %:    59.5923  MISS %:    40.4077  MPKI: 1.56562
L2C WRITEBACK DATA	ACCESS:     520536  HIT:     500664  MISS:      19872  HIT %:    96.1824  MISS %:     3.8176  MPKI: 0.39744
L2C LOAD TRANSLATION DATA	ACCESS:       1837  HIT:        415  MISS:       1422  HIT %:    22.5912  MISS %:    77.4088  MPKI: 0.02844
L2C TRANSLATION FROM L1D PREFETCHER DATA	ACCESS:         30  HIT:         20  MISS:         10  HIT %:    66.6667  MISS %:    33.3333  MPKI: 0.0002

L2C PREFETCH  REQUESTED:      92739  ISSUED:      92739  USEFUL:       8399  USELESS:      70401
L2C USEFUL LOAD PREFETCHES:       8399 PREFETCH ISSUED TO LOWER LEVEL:      78674  ACCURACY: 10.6757
 TIMELY PREFETCHES:       8399 LATE PREFETCHES: 393 DROPPED PREFETCHES: 0
L2C AVERAGE MISS LATENCY: 38.9693 cycles
L2C RQ	ACCESS:    3761893	FORWARD:          0	MERGED:          0	TO_CACHE:    3761834
L2C WQ	ACCESS:     520536	FORWARD:         59	MERGED:          0	TO_CACHE:     520536
L2C PQ	ACCESS:     201813	FORWARD:          0	MERGED:       3676	TO_CACHE:     198137

L2C Dense regions hint from L2: 0
PSCL5 TOTAL     ACCESS:       4076  HIT:       2038  MISS:       2038  HIT %:         50  MISS %:         50   MPKI: 0.04076
PSCL5 LOAD TRANSLATION INSTRUCTION	ACCESS:       4016  HIT:       2008  MISS:       2008  HIT %:         50  MISS %:         50  MPKI: 0.04016
PSCL5 TRANSLATION FROM L1D PREFETCHER INSTRUCTION	ACCESS:         60  HIT:         30  MISS:         30  HIT %:         50  MISS %:         50  MPKI: 0.0006


PSCL4 TOTAL     ACCESS:       3916  HIT:       1953  MISS:       1963  HIT %:    49.8723  MISS %:    50.1277   MPKI: 0.03926
PSCL4 LOAD TRANSLATION INSTRUCTION	ACCESS:       2735  HIT:       1933  MISS:        802  HIT %:    70.6764  MISS %:    29.3236  MPKI: 0.01604
PSCL4 TRANSLATION FROM L1D PREFETCHER INSTRUCTION	ACCESS:         26  HIT:         20  MISS:          6  HIT %:    76.9231  MISS %:    23.0769  MPKI: 0.00012
PSCL4 LOAD TRANSLATION DATA	ACCESS:       1141  HIT:          0  MISS:       1141  HIT %:          0  MISS %:        100  MPKI: 0.02282
PSCL4 TRANSLATION FROM L1D PREFETCHER DATA	ACCESS:         14  HIT:          0  MISS:         14  HIT %:          0  MISS %:        100  MPKI: 0.00028


PSCL3 TOTAL     ACCESS:       3992  HIT:       1991  MISS:       2001  HIT %:    49.8747  MISS %:    50.1253   MPKI: 0.04002
PSCL3 LOAD TRANSLATION INSTRUCTION	ACCESS:       2773  HIT:       1971  MISS:        802  HIT %:    71.0783  MISS %:    28.9217  MPKI: 0.01604
PSCL3 TRANSLATION FROM L1D PREFETCHER INSTRUCTION	ACCESS:         26  HIT:         20  MISS:          6  HIT %:    76.9231  MISS %:    23.0769  MPKI: 0.00012
PSCL3 LOAD TRANSLATION DATA	ACCESS:       1179  HIT:          0  MISS:       1179  HIT %:          0  MISS %:        100  MPKI: 0.02358
PSCL3 TRANSLATION FROM L1D PREFETCHER DATA	ACCESS:         14  HIT:          0  MISS:         14  HIT %:          0  MISS %:        100  MPKI: 0.00028


PSCL2 TOTAL     ACCESS:       3956  HIT:       1918  MISS:       2038  HIT %:    48.4833  MISS %:    51.5167   MPKI: 0.04076
PSCL2 LOAD TRANSLATION INSTRUCTION	ACCESS:       2152  HIT:       1888  MISS:        264  HIT %:    87.7323  MISS %:    12.2677  MPKI: 0.00528
PSCL2 TRANSLATION FROM L1D PREFETCHER INSTRUCTION	ACCESS:         30  HIT:         30  MISS:          0  HIT %:        100  MISS %:          0  MPKI: 0
PSCL2 LOAD TRANSLATION DATA	ACCESS:       1744  HIT:          0  MISS:       1744  HIT %:          0  MISS %:        100  MPKI: 0.03488
PSCL2 TRANSLATION FROM L1D PREFETCHER DATA	ACCESS:         30  HIT:          0  MISS:         30  HIT %:          0  MISS %:        100  MPKI: 0.0006


LLC TOTAL     ACCESS:     543389  HIT:     512861  MISS:      30528  HIT %:    94.3819  MISS %:    5.61807   MPKI: 0.61056
LLC LOAD INSTRUCTION	ACCESS:     241512  HIT:     240479  MISS:       1033  HIT %:    99.5723  MISS %:   0.427722  MPKI: 0.02066
LLC LOAD TRANSLATION INSTRUCTION	ACCESS:        235  HIT:        202  MISS:         33  HIT %:    85.9574  MISS %:    14.0426  MPKI: 0.00066
LLC LOAD DATA	ACCESS:      80456  HIT:      76919  MISS:       3537  HIT %:    95.6038  MISS %:    4.39619  MPKI: 0.07074
LLC RFO DATA	ACCESS:      58511  HIT:      42962  MISS:      15549  HIT %:    73.4255  MISS %:    26.5745  MPKI: 0.31098
LLC PREFETCH DATA	ACCESS:      78674  HIT:      68804  MISS:       9870  HIT %:    87.4546  MISS %:    12.5454  MPKI: 0.1974
LLC WRITEBACK DATA	ACCESS:      82569  HIT:      82159  MISS:        410  HIT %:    99.5034  MISS %:   0.496554  MPKI: 0.0082
LLC LOAD TRANSLATION DATA	ACCESS:       1422  HIT:       1326  MISS:         96  HIT %:    93.2489  MISS %:    6.75105  MPKI: 0.00192
LLC TRANSLATION FROM L1D PREFETCHER DATA	ACCESS:         10  HIT:         10  MISS:          0  HIT %:        100  MISS %:          0  MPKI: 0

LLC AVERAGE MISS LATENCY: 159.386 cycles
LLC RQ	ACCESS:     382152	FORWARD:          0	MERGED:          0	TO_CACHE:     382146
LLC WQ	ACCESS:      82569	FORWARD:          6	MERGED:          0	TO_CACHE:      82569
LLC PQ	ACCESS:      78674	FORWARD:          0	MERGED:          0	TO_CACHE:      78674

LLC Dense regions hint to LLC: 0

RAW hits: 1911633
Loads Generated: 12631632
Loads sent to L1D: 10719999
Stores Generated: 6927584
Stores sent to L1D: 6927607
Major fault: 0 Minor fault: 2540
Allocated PAGES: 2540

stream: 
stream:times selected: 1211556
stream:pref_filled: 123405
stream:pref_useful: 25966
stream:pref_late: 7847
stream:misses: 9243
stream:misses_by_poll: 0

CS: 
CS:times selected: 185160
CS:pref_filled: 64903
CS:pref_useful: 40031
CS:pref_late: 8559
CS:misses: 20232
CS:misses_by_poll: 10

CPLX: 
CPLX:times selected: 1025260
CPLX:pref_filled: 21541
CPLX:pref_useful: 6064
CPLX:pref_late: 3060
CPLX:misses: 105359
CPLX:misses_by_poll: 19

NL_L1: 
NL:times selected: 13308
NL:pref_filled: 654
NL:pref_useful: 165
NL:pref_late: 359
NL:misses: 1212
NL:misses_by_poll: 0

total selections: 2435284
total_filled: 98574
total_useful: 39448
total_late: 21406
total_polluted: 29
total_misses_after_warmup: 773061
conflicts: 5514077

test: 116651

DRAM Statistics
 CHANNEL 0
 RQ ROW_BUFFER_HIT:      11401  ROW_BUFFER_MISS:      18711
 DBUS_CONGESTED:         16
 WQ ROW_BUFFER_HIT:       1532  ROW_BUFFER_MISS:      13155  FULL:          0

 AVG_CONGESTED_CYCLE: 6

CPU 0 Branch Prediction Accuracy: 99.8196% MPKI: 0.32972 Average ROB Occupancy at Mispredict: 188.882
Branch types
NOT_BRANCH: 40858539 81.7171%
BRANCH_DIRECT_JUMP: 548416 1.09683%
BRANCH_INDIRECT: 183049 0.366098%
BRANCH_CONDITIONAL: 6195464 12.3909%
BRANCH_DIRECT_CALL: 936625 1.87325%
BRANCH_INDIRECT_CALL: 170435 0.34087%
BRANCH_RETURN: 1107064 2.21413%
BRANCH_OTHER: 0 0%

DRAM PAGES: 1048576
Allocated PAGES: 2540
Average_ROB_Occupancy: 217.714
Average_Decode_Occupancy: 19.3107
Average_FTQ_Occupancy: 5.68174
Indirect max targets: 14 Average targets: 1.14626
Branch_type:  BRANCH_DIRECT_JUMP:  Count Percentage: 2.91457 6.24774 4.36172 8.78922 2.61495 6.18616 2.02437 66.8613 
Branch_type:  BRANCH_INDIRECT:  Count Percentage: 11.7421 3.44129 2.56447 3.72854 3.34079 4.01059 3.19922 67.973 
Branch_type:  BRANCH_CONDITIONAL:  Count Percentage: 20.8858 3.31184 5.57626 4.81141 1.72276 4.74575 0.898457 58.0477 
Branch_type:  BRANCH_DIRECT_CALL:  Count Percentage: 0.260141 1.75857 1.45318 3.89568 2.55866 3.42186 0.773564 85.8783 
Branch_type:  BRANCH_INDIRECT_CALL:  Count Percentage: 9.53118 0 2.98569 5.40252 0 4.04247 0.99747 77.0407 
Branch_type:  BRANCH_RETURN:  Count Percentage: 3.48072 1.56671 5.99763 3.11507 3.38243 5.64313 1.43177 75.3825 
Branch_type:  BRANCH_DIRECT_JUMP:  Total Count: 31896 68373 47733 96186 28617 67699 22154 731705 
Branch_type:  BRANCH_INDIRECT:  Total Count: 42880 12567 9365 13616 12200 14646 11683 248226 
Branch_type:  BRANCH_CONDITIONAL:  Total Count: 2585868 410039 690397 595701 213295 587571 111238 7186890 
Branch_type:  BRANCH_DIRECT_CALL:  Total Count: 4893 33077 27333 73274 48126 64362 14550 1615290 
Branch_type:  BRANCH_INDIRECT_CALL:  Total Count: 32622 0 10219 18491 0 13836 3414 263684 
Branch_type:  BRANCH_RETURN:  Total Count: 77410 34843 133385 69278 75224 125501 31842 1676479 
Number of unique branch instructions: 9822
Upper 32 bits: 
aaaa
ffff
ffff0000
Unique upper 32 bits: 3
Unique upper 36 bits: 3
Unique upper 40 bits: 5
Unique upper 44 bits: 32
Unique upper 48 bits: 154
Offset_3 4059
Offset_4 250
Offset_5 446
Offset_6 502
Offset_7 578
Offset_8 496
Offset_9 465
Offset_10 379
Offset_11 305
Offset_12 270
Offset_13 197
Offset_14 227
Offset_15 184
Offset_16 221
Offset_17 141
Offset_18 118
Offset_19 234
Offset_20 137
Offset_21 235
Offset_22 392
Offset_23 243
Offset_24 324
Offset_25 88
Offset_47 80
decode_dispatch_called: 22941702 63.144
Dispatch_width: 0 11444640 49.8857 31.4999
Dispatch_width: 1 894637 3.89961 2.46237
Dispatch_width: 2 1037591 4.52273 2.85583
Dispatch_width: 3 685375 2.98746 1.88641
Dispatch_width: 4 3946377 17.2018 10.8619
Dispatch_width: 5 410173 1.78789 1.12895
Dispatch_width: 6 4522909 19.7148 12.4487
Empty_decode_cycles: 13390624 36.856
ROB_full_cycles: 6033371 16.6061
Starvation_cycles_per_kilo_instr: 257.76
Starvation_cycles_per_kilo_instr_3: 214.195
Starvation_cycles_per_kilo_instr_0: 188.019
Branch_type_1  (3,1)  (4,9)  (5,37)  (6,70)  (7,115)  (8,126)  (9,124)  (10,97)  (11,67)  (12,43)  (13,5)  (14,2)  (15,3)  (16,4)  (18,1)  (19,4)  (20,2)  (21,1)  (22,3)  (23,2)  (24,10)  (25,12) 
Branch_type_2  (3,1)  (5,1)  (8,3)  (9,3)  (12,1)  (13,1)  (14,1)  (16,3)  (17,2)  (20,2)  (21,2)  (23,5)  (24,1)  (47,36) 
Branch_type_3  (3,4057)  (4,241)  (5,404)  (6,417)  (7,433)  (8,307)  (9,254)  (10,152)  (11,122)  (12,50)  (13,4) 
Branch_type_4  (6,3)  (7,8)  (8,25)  (9,52)  (10,62)  (11,59)  (12,97)  (13,85)  (14,100)  (15,86)  (16,99)  (17,63)  (18,53)  (19,114)  (20,72)  (21,124)  (22,208)  (23,137)  (24,185)  (25,72) 
Branch_type_5  (8,2)  (9,1)  (10,3)  (11,5)  (12,3)  (13,14)  (14,16)  (15,11)  (16,20)  (17,11)  (18,16)  (19,12)  (20,10)  (21,13)  (22,42)  (23,26)  (24,37) 
Branch_type_6  (5,4)  (6,12)  (7,22)  (8,33)  (9,31)  (10,65)  (11,52)  (12,76)  (13,88)  (14,108)  (15,84)  (16,95)  (17,65)  (18,48)  (19,104)  (20,51)  (21,95)  (22,139)  (23,73)  (24,91)  (25,4)  (47,44) 
aaaaab1fc620: 2ac9e77e 2aca717c 2aca8eff 2acaf6bc 2acaf9aa 2acaf9f1 2acb1abc 2acb1b7f 2acd4e22 2acdb712 2acf5f9e 2ad0ef44 2ad3f15c 2ad414e6 2ad60e42 2ad8609c 2ad99830 2ada35cc 2ada4676 2ada6612 2adf183e 2adf30e5 2adf5602 2adf785c 2ae11572 2aeb2dcf 2aee101b 2aee1ae1 2b156a8c 2b156b61 2b156bea 2b167f35 2b177656 2b17feec 2b1a3e5a 
aaaaac68f310: 2ac9ec8c 2ac9fb44 2ac9fbd2 2aca59ab 2acac04c 2acaf6e0 2acaf6ec 2acaf6f9 2acaf700 2acaf708 2acf2d90 2ad3cfbd 2ad3cfc4 2ad3d000 2ad3f35f 2ad4955d 2ad49571 2ad4f3f2 2ad4f400 2ad5f240 2ad5f37c 2ad5f86a 2ad5f86f 2ad5f880 2ad5fc0d 2ad5fc14 2ad5fc21 2ad5fe1b 2ad873bb 2ad873e3 2ad8a6b2 2ad9086e 2ad93096 2ad9bbb2 2ada152c 2ada1554 2ada3332 2ada5522 2adf3130 2adf313c 2adf3a3f 2adf3bd9 2adf5788 2adf7a8d 2ae07f6b 2ae0857a 2ae0857e 2ae08630 2ae08634 2ae08637 2ae08642 2ae0866f 2ae086e4 2ae086ec 2ae08717 2ae0871b 2aee0170 2aee1d38 2aee75f4 2aee7662 2aee85ca 2aee85e4 2aee8eef 2af70b84 2af74e8f 2b17d843 
aaaaac690ef0: 2aca598b 2acb111b 2acb175f 2acb1772 2acbfaf4 2acbfb00 2acf374f 2acf6d43 2acfa5c8 2ad3baf1 2ad3d4ac 2ad3d4b8 2ad3f1cf 2ad486b2 2ad5a59b 2ad5fc64 2ad5fcf9 2ad6121c 2ad906e9 2ad907bf 2ad9bada 2ada16ce 2ada1ad5 2ada43df 2ada64c0 2ada72ee 2adeb71a 2adf3bcb 2adf7a38 2adf7c6a 2adf8872 2adf8880 2adf9959 2adf9abe 2ae07f78 2ae08503 2ae08754 2ae12e80 2aea3bea 2aecb509 2aee00b0 2aee2bdd 2aee5467 2aee5601 2aee8f20 2af703fd 2af7048b 2af74e74 
Unique trigger count: 
1 9376
2 487
3 83
4 29
5 9
6 8
7 6
8 1
9 3
10 1
11 2
12 1
13 3
16 2
17 2
19 3
35 1
48 1
66 1
BTB PER SET UNIQUE ADDR: 2 4 3 2 1 0 3 2 4 0 2 0 5 3 1 3 3 2 3 4 3 4 2 4 4 5 1 5 3 2 6 6 5 2 4 2 1 5 5 2 3 4 3 7 6 2 4 3 6 3 3 2 3 1 0 4 4 3 3 3 1 4 2 3 1 4 5 2 3 5 5 2 1 4 2 3 3 6 1 3 2 2 1 4 3 3 2 5 3 3 6 4 3 5 2 0 3 3 1 3 4 2 3 3 2 2 1 2 3 2 2 1 3 6 2 6 2 4 4 1 4 4 2 0 1 2 2 1 6 4 5 2 4 1 5 3 2 1 3 3 5 3 3 2 1 4 2 5 4 3 3 8 3 5 2 0 3 3 3 2 3 5 4 4 4 3 2 2 8 1 2 2 4 2 1 1 3 4 5 1 3 3 6 3 4 5 3 1 2 3 5 3 3 4 4 4 2 3 3 5 3 2 4 1 3 3 2 4 2 1 2 4 5 4 3 2 3 5 4 0 1 1 2 3 3 2 3 3 0 3 8 3 3 1 3 3 3 2 1 2 1 0 5 3 9 7 1 1 3 3 2 2 1 3 2 6 3 4 4 4 4 4 4 2 4 6 3 1 4 2 3 2 2 4 3 2 1 1 3 3 4 2 6 2 5 5 3 4 1 1 0 3 1 5 1 1 4 3 1 2 3 3 1 2 4 2 4 2 5 5 3 1 3 2 6 1 5 6 2 1 3 7 3 4 2 3 1 6 1 0 4 0 2 5 5 1 2 2 5 0 4 0 1 4 4 2 1 2 3 3 3 5 4 3 5 3 2 0 4 1 2 4 2 4 6 5 1 1 2 1 2 2 3 4 4 4 3 3 3 4 5 3 1 5 3 2 5 2 4 1 5 4 4 2 3 1 5 0 1 3 4 2 3 2 2 4 3 2 1 1 2 2 4 3 2 2 5 3 1 3 1 1 3 4 3 3 2 0 2 4 1 2 8 4 5 5 3 3 3 0 2 5 5 3 4 6 2 3 3 2 4 3 1 2 5 1 1 3 8 2 3 3 4 6 1 3 5 2 3 3 0 4 4 2 2 1 4 5 1 1 2 1 3 2 0 4 3 0 5 1 4 2 3 4 0 5 3 3 2 1 5 2 1 1 1 3 3 2 2 3 3 2 2 6 2 1 2 5 4 5 3 4 4 2 6 5 0 5 6 3 4 3 3 6 3 4 1 1 4 1 2 5 6 2 5 2 7 3 6 9 3 6 3 6 1 3 3 1 2 3 7 2 5 2 2 1 4 2 2 7 3 2 3 7 2 2 3 3 1 5 4 2 1 0 1 0 0 9 4 2 5 6 1 1 2 3 5 2 2 1 3 2 4 6 1 4 4 4 2 2 5 2 2 2 2 2 2 0 3 1 5 4 6 2 2 3 2 5 2 3 5 4 3 2 5 2 2 3 2 2 7 1 4 3 0 0 3 3 3 3 3 2 5 2 3 0 4 3 2 3 5 2 5 4 5 4 5 2 1 4 5 3 4 3 5 6 3 3 3 3 3 2 4 2 5 3 5 3 4 3 1 4 2 2 2 3 6 4 5 3 0 6 0 3 3 2 3 1 3 1 3 3 3 1 2 1 7 2 0 3 2 0 1 1 1 1 1 4 2 4 5 4 2 1 2 4 4 3 2 2 1 3 2 4 2 1 3 2 2 2 0 2 1 3 2 2 2 6 4 1 3 3 1 5 4 4 8 2 2 2 4 3 0 3 3 4 5 2 1 3 3 4 0 3 8 6 3 3 0 2 2 4 2 1 4 7 7 2 2 2 5 3 5 3 4 3 3 5 2 3 1 3 4 0 4 3 1 2 0 4 4 2 4 2 2 1 2 2 4 4 3 1 3 2 5 2 2 1 5 2 2 1 3 3 1 4 6 4 4 2 6 2 5 4 4 5 3 2 5 4 3 6 2 1 9 3 2 4 5 3 1 3 3 6 4 0 2 2 5 4 3 5 3 4 5 3 2 2 2 4 4 2 3 3 3 1 6 3 1 1 5 2 1 3 4 5 3 5 3 4 5 4 0 3 1 5 0 0 5 2 5 4 5 3 4 1 3 2 5 6 4 4 8 7 5 4 6 4 1 5 4 2 0 4 4 5 5 5 3 2 6 0 5 4 2 3 6 5 4 2 2 2 4 5 2 5 9 4 6 3 2 3 0 4 5 1 6 5 1 3 6 5 3 4 2 1 2 2 3 2 5 4 2 7 4 3 4 5 3 5 1 2 4 2 2 5 4 3 2 3 5 2 4 3 5 2 5 2 2 3 5 2 9 5 2 3 3 2 2 3 4 7 6 2 3 2 3 2 3 1 3 2 4 4 1 4 5 5 4 6 0 3 3 3 3 4 2 1 3 2 3 1 2 1 4 1 3 3 3 5 2 8 5 3 2 1 10 1 2 4 1 2 5 5 3 6 3 5 5 5 2 5 2 2 1 1 5 0 4 4 3 7 4 1 7 4 6 2 3 4 5 3 5 7 4 4 6 1 4 4 7 4 3 3 4 3 6 6 2 6 5 6 4 3 5 3 1 2 4 5 1 3 2 1 3 4 2 2 5 2 2 5 4 1 5 1 7 3 3 2 3 1 3 4 3 4 3 4 2 6 1 3 6 3 4 3 3 5 2 8 3 5 3 8 6 1 6 1 5 2 1 2 4 4 2 1 3 4 2 1 2 1 4 3 3 3 2 3 2 5 2 4 4 5 0 5 4 2 2 6 8 0 6 0 1 4 6 2 5 1 3 3 4 1 1 2 4 5 3 4 1 4 4 6 5 1 4 3 3 6 10 4 2 6 6 5 1 1 3 5 6 3 2 2 4 3 4 4 5 3 0 4 2 2 6 8 5 3 3 5 1 2 5 2 4 1 3 2 6 8 3 3 3 3 4 4 2 5 6 5 4 3 1 5 3 2 4 3 4 4 4 4 7 3 5 4 3 5 5 3 1 7 4 4 3 3 3 2 3 2 2 2 5 4 3 2 5 1 1 3 3 8 5 1 3 4 2 3 3 3 4 3 2 0 3 2 3 2 4 3 4 4 2 1 2 6 1 4 2 4 2 3 5 1 1 4 4 3 3 3 5 2 3 4 4 5 4 4 4 3 3 2 2 3 5 2 4 1 3 0 8 3 2 6 4 4 5 7 3 2 3 3 1 2 4 1 4 2 4 2 0 5 1 5 2 2 3 3 3 2 4 2 3 2 3 1 6 1 0 3 4 1 1 3 1 4 2 3 6 3 1 2 2 3 2 2 6 2 3 5 3 3 3 3 2 2 3 0 2 2 2 3 2 1 2 0 3 0 4 2 4 3 3 3 2 1 2 4 4 2 7 1 3 3 2 2 4 5 2 2 5 0 1 2 3 1 1 2 3 3 5 3 1 1 5 3 1 4 1 6 1 4 2 3 6 2 2 2 1 3 3 1 1 3 4 1 3 3 1 2 0 5 1 3 3 0 3 2 5 3 4 3 3 4 1 3 1 2 1 3 3 0 2 3 2 3 3 1 3 3 2 9 6 2 2 2 4 1 1 3 5 2 3 0 3 2 3 2 3 4 5 5 7 0 4 1 6 4 4 5 3 7 2 4 8 3 0 6 3 3 3 4 3 3 2 1 2 4 2 2 2 3 2 3 5 3 5 3 5 1 1 5 5 3 3 4 5 3 6 2 5 5 2 6 3 3 3 1 3 7 5 3 2 3 3 3 3 4 2 2 3 1 3 1 3 7 0 2 2 3 3 3 5 3 4 2 6 1 2 2 5 2 4 5 6 1 1 7 2 4 2 3 4 6 2 3 2 3 6 3 3 3 5 3 4 9 4 4 3 5 2 5 4 3 2 3 0 2 2 3 4 3 2 3 3 4 4 2 3 7 0 3 2 4 4 4 3 4 3 6 2 4 1 5 2 3 4 2 3 0 2 5 0 7 2 5 5 1 4 3 2 0 4 2 3 5 3 6 2 2 2 1 3 4 6 1 3 3 0 3 2 4 5 3 1 3 5 2 3 2 6 3 4 1 5 3 0 2 4 1 1 8 2 0 4 1 4 3 2 3 6 3 3 6 1 5 3 5 2 5 4 2 3 2 7 1 4 0 3 3 4 4 3 3 2 1 2 3 0 3 0 3 4 6 2 2 5 2 3 3 3 1 2 2 4 2 4 2 5 3 2 3 1 2 3 3 3 2 3 4 2 1 1 2 2 5 1 4 1 5 4 2 3 1 4 1 2 3 5 2 3 4 4 5 3 3 3 4 3 2 0 3 2 0 2 1 2 2 4 2 5 2 2 3 4 1 2 4 3 2 3 7 3 2 7 6 3 2 3 1 2 5 3 4 5 2 4 0 2 2 4 3 2 4 3 2 5 3 4 7 4 2 0 4 1 0 2 3 0 4 4 6 1 3 4 6 4 0 2 2 4 1 4 1 3 2 8 3 1 2 3 6 2 7 3 4 6 0 1 3 1 4 2 1 0 2 3 4 5 4 1 0 3 4 5 1 1 1 3 5 2 1 5 4 3 3 5 4 0 6 2 6 2 1 2 2 1 2 4 1 3 1 3 2 3 1 5 2 5 2 4 2 1 3 5 4 4 0 
BTB PER SET COUNT: 2 4 3 2 1 0 3 2 4 0 2 0 2465 3 1 4 3 2 3 1464 3 4 2 4 4 16 1 6 1462 2 2961 28 9 2 4 2 2922 712 713 2 3 7 4 2215 5314 2 4 4 1618 3 3 2 4 1 0 4 5 3 3 3 1 4 2 3 1 374 549 2 3 959 712 9 1 4 2 3 499 725 1 3 2 2 1 5 3 3 2 11 3 3 2532 478 4 3851 2 0 3 3 1 3 4 2 4 3 2 2 1 2 3 2 2 1 3 1955 2 1783 2 4 4 1 4 4 2 0 1 2 2 1 2608 5 1975 2 4 1 989 4 2 1 3 3 818 7 3 2 1 9 2 4344 4 3 3 6717 3 2468 2 0 3 3 3 2 3 948 4 4 4 1938 2 2 8252 1 2 2 4 2 1 1 3 4 976 1 3 3 6831 3 4 8 3 1 3 4 42 3 5 4 5 5 2 3 4 8 3 2 4 1 5 3 2 1464 2 1 2 5 16 4 3 2 3 388 5 0 1 1 2 3 3 2 3 29 0 3 5788 3 4 1 3 3 3 2 1 3 1 0 2466 3 9237 2070 1 1 4 4 2 2 1 3 2 2165 4 4 4 4 5 4 4 3 1467 1425 3 1 4 2 4 2 3 4 3 3 1 1 6 3 6 2 1977 2 713 2467 3 4 1 1 0 3 1 15 1 1 4 3 1 2 3 3 1 2 4 2 5 2 1973 948 3 2 3 2 952 4 2466 1192 2 1 4 2194 3 4 2 4 1 307 1 0 989 0 3 16 1510 1 988 2 24 0 4 0 1 989 989 3 1 2 3 4 3 111 4 3 50 4 3 0 4 1 2 4 2 5 2604 912 1 2 2 1 2 2 3 4 5 4 3 3 3 4 24 3 1 913 5 2 11 2 4 1 19 4 4 2 3 1 3365 0 1 3 4 2 3 2 2 6 1462 2 1 967 2 2 4 3 968 2 121 3 1 93 1 1 4 4 3 3 5 0 2 6 130 2 2715 5 936 2466 3 3 3 0 3 5 1183 3 5 957 2 3 3 2 4 3 1 2 1973 1 1 3 1507 2 4 3 4 1985 1 3 5 2 3 3 0 5 36 494 3 1 4 949 1 1 2 1 3 494 0 5 3 0 17 1 5 2 3 4 0 27 4 4 2 1 1973 13 1 1 2 3 3 2 2 3 3 3 2 34 4 1 2 2466 4 502 3 1463 4 2 20 1482 0 1974 4846 3 4 3 3 24 3 497 1 1 7 1 3 1482 231 5 15 2 81 4 1006 9277 3 1496 5 2955 1 3 5 1 2 3 6810 2 1977 2 2 1 4 2 2 3008 3 2 3 5341 2 2 3 3 2 24 4 46 1 0 1 0 0 3957 4 2 1975 2960 1 1 968 4 5 2 2 1 3 3 6 1420 1 5 4 5 3 2 2466 2 2 2 2 3 952 0 3 1 10 497 3453 2 2 3 2 15 2 3 1974 1463 3 5 992 2 2 3 3 2 2970 1 4 3 0 0 4 3 4 4 3 2 11 3 3 0 4 3 2 3 7854 2 25 4 1974 5 2934 987 2 4 712 3 5 4 1482 3037 3 3 3 4 3 2 4 987 1483 3 15 1462 4 3 1 990 2 3 2 4 1980 5 19 39 0 2470 0 3 3 988 3 1 3 1 3 3 5 1 987 1 2465 2 0 3 2 0 1 1 1 1 1 4 2 4 1482 4 968 1 2 4 4 4 2 2 1 3 2 4 2 2 496 2 2 988 0 2 1 4 2 2 2 2958 5 1 3 3 1 17 4 4 5832 2 4 2 4 3 0 140 3 4 2885 3 1 4 3 5 0 3 3119 4842 4 3 0 2 2 74 4 1 5 1868 1995 2 2 2 13 3 5 5 1977 4 3 19 3 5 1 3 4 0 6 5 3 2 0 4 4 2 4 2 2 1 3 2 4 60 3 1 3 2 1974 3 3 1 1481 2 2 1 4 1465 1 6 1995 4 6 2 2469 2 1975 6 4 9 3 2 6 4 3 4852 2 1 6286 969 3 5 1481 3 1 3 4 2387 4 0 3 2 24 4 4 4837 3 6 87 3 2 2 2 4 6 2 3 3 3 1 724 3 1 1 1711 2 1 62 6 2379 3 948 3 4 46 4 0 3 1 1481 0 0 991 2 42 4 1481 3 8 1 3 2 1973 116 4 497 5356 3876 1482 4 2099 6 1 24 5 2 0 970 4 2461 44 1480 3 2 737 0 377 4 3 3 1395 1973 4 3 2 495 5 4840 3 17 1097 4 1981 6 2 3 0 374 24 1 7281 19 1 3 1982 19 496 5 2 3 2 2 4 2 1694 4 2 3453 5 3 4 1970 3 25 1 2 6 2 3 22 4 4 2 3 1988 2 2431 373 1697 2 28 2 2 3 1711 3 5119 23 2 3 3 2 2 3 4 2963 1979 2 3 2 4 2 3 3 3 2 4 4 1 4 9 1975 4 1492 0 3 3 3 1463 377 2 2 3 5 4 1 2 1 4 1 3 4 3 7 2 3945 1482 3 2 1 11194 1 2 4 1 2 1975 106 3 5331 3 25 6 2466 2 28 2 2 1 1 27 0 5 4 4 1992 4 1 2065 4 2471 2 496 4 12 3 2465 1866 4 5 2470 1 5 5 4864 4 3 3 6 3 1486 1964 2 2466 1482 2236 4 3 8 5 1 3 4 1977 1 3 2 1 3 6 2 3 507 2 3 19 4 1 10 1 5515 3 3 2 3 1 3 4 3 4 3 4 2 28 1 3 1754 3 5 3 3 1974 2 5846 3 1481 3 2609 7283 1 5329 1 20 2 1 2 497 7 2 1 4 153 2 1 3 493 4 3 3 3 3 3 2 1482 2 4 5 16 0 1974 4 2 2 45 7291 0 35 0 1 4 7 3 24 1 3 988 4 1 1 2 6 18 3 4 1 5 4 7301 22 1 4 3 3 2913 10246 1948 2 7281 24 1974 1 1 4 1975 2466 3 2 2 4 3 4 4 19 3 0 4 2 2 3412 7902 3852 3 4 413 1 2 23 2 4 1 3 2 2960 6577 969 3 4 3 4 4 3 1973 1981 2467 4 3 1 22 3 2 5 3 4 4 4 4 1990 4 1974 4 495 1975 2467 8 1 3045 4 4 3 3 3 4 3 2 2 2 17 4 3 2 943 1 1 3 3 2965 9 1 3 4 2 3 4 3 4 3 4 0 3 2 3 2 4 3 7 5 2 1 2 956 1 4 2 4 2 3 364 1 1 4 4 969 3 4 2473 3 3 49 5 15 6 5 4 3 5 2 2 3 1975 3 5 1 3 0 5792 3 2 2959 4 4 2465 6796 3 2 3 3 1 2 4 1 4 3 4 4 0 3862 1 8 2 2 3 3 4 2 1463 2 3 1339 3 1 511 1 0 5 4 1 1 1340 1 4 2 3 1978 3 1 2 2 3 2 2 2959 2 3 77 6 3 3 3 2 2 4 0 4 2 2 970 2 1 2 0 3 0 4 2 4 3 3 3 987 1 9 4 36 2 2470 1 3 3 2 2 7 12 109 4 21439 0 1 2 3 1 1 2 3 3 2078 399 1 1 1374 3 1 4 1 2468 1 6 2 3 1963 2 2 2 1 3 3 1 1 3 4 1 3 3 1 2 0 3851 1 3 4 0 3 453 1973 3 4 3 3 4 1 3 1 2 1 4 4 0 2 3 2 4 8 1 4 3 2 3694 2960 2 2 2 5 1 1 3 1678 2 3 0 3 2 3 2 3 4 2465 17 5823 0 4 1 2210 4 4 20 4 3451 2 5 8339 3 0 2960 1462 3 3 4 3 3 2 1 2 970 2 2 2 3 2 3 1723 6 1974 3 989 2962 1 1250 6809 3 5 6 9 3 3364 2 1621 1974 2 1979 3 260 373 1 1462 1492 16 233 4 3 3 3 3 5 2 2 3 1 3 1 3 2568 0 2 2 7 4 3 514 3 5 3 3873 1 2 3 1481 2 1482 1483 2962 1 1 6278 2 990 2 3 4 1978 495 4 2 4 2960 3 496 3 4425 3 4 8752 4 5 14603 2958 2 1973 1464 3 2 3 0 2 2 3 4 3 3 4 3 4 4 2 156 3451 0 1463 2 1463 149 7 3 4 4 2341 2 740 1 2466 2 3 4 2 3 0 2 3010 0 5330 2 1250 2468 1 5 3 2 0 4 2 4 2379 3 4855 2 2 2 1 3 4 7304 1 3 527 0 4 2 4 1974 969 1 3 1956 2 3 2 2210 3 4 1 26 3 0 2 5 1460 1 3896 2 0 5 1 4 3 2 3 2413 3 432 2466 1 2465 3 1975 221 1973 59 2 3 2 4118 1 179 0 4 1464 4 5 4 3 2 1 2 478 0 3 0 3 6 3151 2 2 717 389 3 4 969 1 2 2 4 2 4 2 136 3 2 3 1 2 175 4 3 2 3 5 2 1 1 2 2 1495 1 4 1 3853 4 2 3 6 4 1 2 3 9 2 4 989 4 990 3 3 3 4 3 2 0 3 2 0 2 1 2 2 4 7 2467 2 2 3 5 1 2 5 3 2 3 3166 3 2 3194 2466 142 2 3 3 2 16 3 4 43 2 6 0 9 2 4 988 2 4 3 2 5 4 5 2574 4 2 0 4 1 0 2 3 0 5 1464 1003 1 3 4 2446 4 0 2 2 6 1 4 1 3 2 3890 4 1 2 3 2473 4 3451 3 5 5093 0 1 3 1 4 2 1 0 2 3 4 19 4 2 0 3 4 1482 1 1 1 3 2467 2 1 20 4 3 5 1973 5 0 2471 2 1978 6 1 2 2 1 3 7 1 3 1 3 2 5 1 24 2 218 2 10 2 1 3 1488 4 5 0 
