
*** ChampSim Multicore Out-of-Order Simulator ***

Warmup Instructions: 50000000
Simulation Instructions: 50000000
Number of CPUs: 1
LLC sets: 2048
LLC ways: 16
Off-chip DRAM Size: 4096 MB Channels: 1 Width: 64-bit Data Rate: 6400 MT/s
CPU 0 runs ./micro_traces/srv625.trace.gz
.gz
ITLB has LRU replacement policy
DTLB has LRU replacement policy
STLB has LRU replacement policy
FDIP Prefetcher at L1I
L1I has LRU replacement policy
L1D has LRU replacement policy
Initialize SRRIP state for L2C
Initialize DRRIP state for LLC
Heartbeat CPU 0 instructions: 10000002 cycles: 2796591 heartbeat IPC: 3.57578 cumulative IPC: 3.57578 (Simulation time: 0 hr 1 min 40 sec) 
Heartbeat CPU 0 instructions: 20000002 cycles: 5592630 heartbeat IPC: 3.57649 cumulative IPC: 3.57614 (Simulation time: 0 hr 3 min 16 sec) 
Heartbeat CPU 0 instructions: 30000003 cycles: 8388884 heartbeat IPC: 3.57621 cumulative IPC: 3.57616 (Simulation time: 0 hr 4 min 52 sec) 
Heartbeat CPU 0 instructions: 40000000 cycles: 11185950 heartbeat IPC: 3.57517 cumulative IPC: 3.57591 (Simulation time: 0 hr 6 min 27 sec) 
Heartbeat CPU 0 instructions: 50000003 cycles: 13981881 heartbeat IPC: 3.57663 cumulative IPC: 3.57606 (Simulation time: 0 hr 8 min 5 sec) 

Warmup complete CPU 0 instructions: 50000003 cycles: 13981881 (Simulation time: 0 hr 8 min 5 sec) 

Cycle: 20000000 FTQ IN: 55215687 FTQ occupancy: 17.4691 DECODE IN: 55215687 DECODE occupancy: 44.7083 ROB IN: 55215681 ROB occupancy: 266.804 ROB OUT: 55215557
Heartbeat CPU 0 instructions: 60000002 cycles: 25286529 heartbeat IPC: 0.884592 cumulative IPC: 0.884592 (Simulation time: 0 hr 9 min 20 sec) 
Cycle: 30000000 FTQ IN: 9028556 FTQ occupancy: 4.51648 DECODE IN: 9028539 DECODE occupancy: 8.8715 ROB IN: 9028545 ROB occupancy: 76.0131 ROB OUT: 9028646
Heartbeat CPU 0 instructions: 70000002 cycles: 36410051 heartbeat IPC: 0.898996 cumulative IPC: 0.891736 (Simulation time: 0 hr 10 min 37 sec) 
Cycle: 40000000 FTQ IN: 8810577 FTQ occupancy: 4.58886 DECODE IN: 8810594 DECODE occupancy: 9.00792 ROB IN: 8810588 ROB occupancy: 75.9591 ROB OUT: 8810602
Heartbeat CPU 0 instructions: 80000001 cycles: 47813434 heartbeat IPC: 0.876933 cumulative IPC: 0.886746 (Simulation time: 0 hr 11 min 53 sec) 
Cycle: 50000000 FTQ IN: 8909079 FTQ occupancy: 4.45087 DECODE IN: 8909067 DECODE occupancy: 8.66594 ROB IN: 8909028 ROB occupancy: 75.0276 ROB OUT: 8909036
Heartbeat CPU 0 instructions: 90000003 cycles: 58930667 heartbeat IPC: 0.899505 cumulative IPC: 0.889902 (Simulation time: 0 hr 13 min 9 sec) 
Cycle: 60000000 FTQ IN: 8980955 FTQ occupancy: 4.51757 DECODE IN: 8980826 DECODE occupancy: 8.8956 ROB IN: 8980811 ROB occupancy: 75.4972 ROB OUT: 8980460
Cycle: 70000000 FTQ IN: 8914502 FTQ occupancy: 4.72378 DECODE IN: 8914643 DECODE occupancy: 9.32249 ROB IN: 8914703 ROB occupancy: 78.6549 ROB OUT: 8914941
Heartbeat CPU 0 instructions: 100000001 cycles: 70167286 heartbeat IPC: 0.889947 cumulative IPC: 0.889911 (Simulation time: 0 hr 14 min 22 sec) 
Finished CPU 0 instructions: 50000002 cycles: 56185406 cumulative IPC: 0.889911 (Simulation time: 0 hr 14 min 22 sec) 

ChampSim completed all CPUs

Region of Interest Statistics

CPU 0 cumulative IPC: 0.889911 instructions: 50000002 cycles: 56185406
 Fetch stage stalled: 78.1063  Sim cycles: 56185406 fetch stall cycle: 43884319
 Empty decode stage: 67.5226  Sim cycles: 56185406 fetch stall cycle: 37937830
ITLB TOTAL     ACCESS:    5663406  HIT:    5167432  MISS:     495974  HIT %:    91.2425  MISS %:    8.75752   MPKI: 9.91948
ITLB LOAD TRANSLATION INSTRUCTION	ACCESS:    5577465  HIT:    5081491  MISS:     495974  HIT %:    91.1075  MISS %:    8.89246  MPKI: 9.91948
ITLB TRANSLATION FROM L1D PREFETCHER INSTRUCTION	ACCESS:      85941  HIT:      85941  MISS:          0  HIT %:        100  MISS %:          0  MPKI: 0

ITLB AVERAGE MISS LATENCY: 9.04066 cycles
ITLB RQ	ACCESS:    7245628	FORWARD:          0	MERGED:    1139963	TO_CACHE:    6105665

DTLB TOTAL     ACCESS:    9756829  HIT:    9280634  MISS:     476195  HIT %:    95.1194  MISS %:    4.88063   MPKI: 9.5239
DTLB LOAD TRANSLATION DATA	ACCESS:    9756829  HIT:    9280634  MISS:     476195  HIT %:    95.1194  MISS %:    4.88063  MPKI: 9.5239

DTLB AVERAGE MISS LATENCY: 9.3105 cycles
DTLB RQ	ACCESS:   13934686	FORWARD:          0	MERGED:    4147105	TO_CACHE:    9787581

STLB TOTAL     ACCESS:    1220894  HIT:    1218901  MISS:       1993  HIT %:    99.8368  MISS %:   0.163241   MPKI: 0.03986
STLB LOAD TRANSLATION INSTRUCTION	ACCESS:     495974  HIT:     495731  MISS:        243  HIT %:     99.951  MISS %:  0.0489945  MPKI: 0.00486
STLB LOAD TRANSLATION DATA	ACCESS:     475904  HIT:     474185  MISS:       1719  HIT %:    99.6388  MISS %:   0.361207  MPKI: 0.03438
STLB TRANSLATION FROM L1D PREFETCHER DATA	ACCESS:     249016  HIT:     248985  MISS:         31  HIT %:    99.9876  MISS %:   0.012449  MPKI: 0.00062

STLB AVERAGE MISS LATENCY: 74.1109 cycles
STLB RQ	ACCESS:    1341488	FORWARD:          0	MERGED:     120559	TO_CACHE:    1220929

STLB Hit, L1D data hit: 0
STLB Hit, L2C data hit: 0
STLB Hit, LLC data hit: 0
STLB Hit, LLC data miss: 0
STLB STLB hints to L2: 0
L1D TOTAL     ACCESS:   13710959  HIT:   12591176  MISS:    1119783  HIT %:    91.8329  MISS %:    8.16707   MPKI: 22.3957
L1D LOAD DATA	ACCESS:    7099502  HIT:    6362922  MISS:     736580  HIT %:    89.6249  MISS %:    10.3751  MPKI: 14.7316
L1D RFO DATA	ACCESS:    6283355  HIT:    5995177  MISS:     288178  HIT %:    95.4136  MISS %:    4.58637  MPKI: 5.76356
L1D PREFETCH DATA	ACCESS:     328102  HIT:     233077  MISS:      95025  HIT %:     71.038  MISS %:     28.962  MPKI: 1.9005

L1D PREFETCH  REQUESTED:     738860  ISSUED:     738860  USEFUL:      35106  USELESS:      67822
L1D USEFUL LOAD PREFETCHES:      35106 PREFETCH ISSUED TO LOWER LEVEL:     103030  ACCURACY: 34.0736
 TIMELY PREFETCHES:      35106 LATE PREFETCHES: 7906 DROPPED PREFETCHES: 7
L1D AVERAGE MISS LATENCY: 297291 cycles
L1D RQ	ACCESS:   11111412	FORWARD:          0	MERGED:    3819928	TO_CACHE:    7128113
L1D WQ	ACCESS:    6957200	FORWARD:     163593	MERGED:     150627	TO_CACHE:    6806573
L1D PQ	ACCESS:     369541	FORWARD:          0	MERGED:          0	TO_CACHE:     369319

L1D UNIQUE REGIONS ACCESSED: 0
L1D REGIONS CONFLICTS: 0
L1D Cross Page Prefetch Requests: 7083
L1D Same Page Prefetch Requests: 748132
L1D ROI Sum of L1D PQ occupancy: 4695110
L1D PREFETCHES PUSHED FROM L2C: 0
L1I TOTAL     ACCESS:    6978471  HIT:    4206000  MISS:    2772471  HIT %:    60.2711  MISS %:    39.7289   MPKI: 55.4494
L1I LOAD INSTRUCTION	ACCESS:    6603344  HIT:    3830873  MISS:    2772471  HIT %:    58.0141  MISS %:    41.9859  MPKI: 55.4494
L1I PREFETCH INSTRUCTION	ACCESS:     375127  HIT:     375127  MISS:          0  HIT %:        100  MISS %:          0  MPKI: 0

L1I PREFETCH  REQUESTED:     726002  ISSUED:     726002  USEFUL:          0  USELESS:          0
L1I USEFUL LOAD PREFETCHES:          0 PREFETCH ISSUED TO LOWER LEVEL:          0  ACCURACY: -nan
 TIMELY PREFETCHES:          0 LATE PREFETCHES: 0 DROPPED PREFETCHES: 0
L1I AVERAGE MISS LATENCY: 16.9409 cycles
L1I RQ	ACCESS:    9446393	FORWARD:          0	MERGED:    2706411	TO_CACHE:    6739982
L1I PQ	ACCESS:     726002	FORWARD:          0	MERGED:     220356	TO_CACHE:     505646

L1BTB TOTAL     ACCESS:    5669879  HIT:    2032356  MISS:    3637523  HIT %:    35.8448  MISS %:    64.1552   MPKI: 72.7505
L1BTB BRANCH_DIRECT_JUMP	ACCESS:     547791  HIT:     143499  MISS:     404292	AVERAGE STALL: 30.6009
L1BTB BRANCH_INDIRECT	ACCESS:     182396  HIT:      65452  MISS:     116944	AVERAGE STALL: 72.4609
L1BTB BRANCH_CONDITIONAL	ACCESS:    2703290  HIT:    1408501  MISS:    1294789	AVERAGE STALL: 31.0303
L1BTB BRANCH_DIRECT_CALL	ACCESS:     946483  HIT:     104417  MISS:     842066	AVERAGE STALL: 32.8679
L1BTB BRANCH_INDIRECT_CALL	ACCESS:     171720  HIT:      20933  MISS:     150787	AVERAGE STALL: 95.1068
L1BTB BRANCH_RETURN	ACCESS:    1118199  HIT:     289554  MISS:     828645	AVERAGE STALL: 32.0362
L1BTB BRANCH_OTHER ACCESS:          0  HIT:          0  MISS:          0	AVERAGE STALL: -nan
L1BTB TOTAL ROB OCCUPANCY AT BTB MISS: 18.147

L2BTB TOTAL     ACCESS:    3612173  HIT:    2577009  MISS:    1035164  HIT %:    71.3423  MISS %:    28.6577   MPKI: 20.7033
L2BTB BRANCH_DIRECT_JUMP	ACCESS:     400173  HIT:     283006  MISS:     117167	AVERAGE STALL: 30.6009
L2BTB BRANCH_INDIRECT	ACCESS:     106627  HIT:      93393  MISS:      13234	AVERAGE STALL: 72.4609
L2BTB BRANCH_CONDITIONAL	ACCESS:    1294789  HIT:     921629  MISS:     373160	AVERAGE STALL: 31.0303
L2BTB BRANCH_DIRECT_CALL	ACCESS:     842066  HIT:     574164  MISS:     267902	AVERAGE STALL: 32.8679
L2BTB BRANCH_INDIRECT_CALL	ACCESS:     141284  HIT:      92748  MISS:      48536	AVERAGE STALL: 95.1068
L2BTB BRANCH_RETURN	ACCESS:     827234  HIT:     612069  MISS:     215165	AVERAGE STALL: 32.0362
L2BTB BRANCH_OTHER ACCESS:          0  HIT:          0  MISS:          0	AVERAGE STALL: -nan
L2BTB TOTAL ROB OCCUPANCY AT BTB MISS: 63.7679

L2C TOTAL     ACCESS:    4502315  HIT:    4051726  MISS:     450589  HIT %:    89.9921  MISS %:    10.0079   MPKI: 9.01178
L2C LOAD INSTRUCTION	ACCESS:    2772471  HIT:    2535644  MISS:     236827  HIT %:    91.4579  MISS %:    8.54209  MPKI: 4.73654
L2C LOAD TRANSLATION INSTRUCTION	ACCESS:        271  HIT:         67  MISS:        204  HIT %:    24.7232  MISS %:    75.2768  MPKI: 0.00408
L2C LOAD DATA	ACCESS:     728650  HIT:     654976  MISS:      73674  HIT %:     89.889  MISS %:     10.111  MPKI: 1.47348
L2C RFO DATA	ACCESS:     288070  HIT:     234866  MISS:      53204  HIT %:    81.5309  MISS %:    18.4691  MPKI: 1.06408
L2C PREFETCH DATA	ACCESS:     187511  HIT:     116737  MISS:      70774  HIT %:    62.2561  MISS %:    37.7439  MPKI: 1.41548
L2C WRITEBACK DATA	ACCESS:     523494  HIT:     508914  MISS:      14580  HIT %:    97.2149  MISS %:    2.78513  MPKI: 0.2916
L2C LOAD TRANSLATION DATA	ACCESS:       1792  HIT:        489  MISS:       1303  HIT %:    27.2879  MISS %:    72.7121  MPKI: 0.02606
L2C TRANSLATION FROM L1D PREFETCHER DATA	ACCESS:         56  HIT:         33  MISS:         23  HIT %:    58.9286  MISS %:    41.0714  MPKI: 0.00046

L2C PREFETCH  REQUESTED:      91008  ISSUED:      91008  USEFUL:       7615  USELESS:      63676
L2C USEFUL LOAD PREFETCHES:       7615 PREFETCH ISSUED TO LOWER LEVEL:      71113  ACCURACY: 10.7083
 TIMELY PREFETCHES:       7615 LATE PREFETCHES: 339 DROPPED PREFETCHES: 0
L2C AVERAGE MISS LATENCY: 39.9254 cycles
L2C RQ	ACCESS:    3791343	FORWARD:          0	MERGED:          0	TO_CACHE:    3791311
L2C WQ	ACCESS:     523494	FORWARD:         32	MERGED:          0	TO_CACHE:     523494
L2C PQ	ACCESS:     194038	FORWARD:          0	MERGED:       3119	TO_CACHE:     190919

L2C Dense regions hint from L2: 0
PSCL5 TOTAL     ACCESS:       4008  HIT:       2004  MISS:       2004  HIT %:         50  MISS %:         50   MPKI: 0.04008
PSCL5 LOAD TRANSLATION INSTRUCTION	ACCESS:       3904  HIT:       1952  MISS:       1952  HIT %:         50  MISS %:         50  MPKI: 0.03904
PSCL5 TRANSLATION FROM L1D PREFETCHER INSTRUCTION	ACCESS:        104  HIT:         52  MISS:         52  HIT %:         50  MISS %:         50  MPKI: 0.00104


PSCL4 TOTAL     ACCESS:       3915  HIT:       1953  MISS:       1962  HIT %:    49.8851  MISS %:    50.1149   MPKI: 0.03924
PSCL4 LOAD TRANSLATION INSTRUCTION	ACCESS:       2068  HIT:       1907  MISS:        161  HIT %:    92.2147  MISS %:     7.7853  MPKI: 0.00322
PSCL4 TRANSLATION FROM L1D PREFETCHER INSTRUCTION	ACCESS:         46  HIT:         46  MISS:          0  HIT %:        100  MISS %:          0  MPKI: 0
PSCL4 LOAD TRANSLATION DATA	ACCESS:       1755  HIT:          0  MISS:       1755  HIT %:          0  MISS %:        100  MPKI: 0.0351
PSCL4 TRANSLATION FROM L1D PREFETCHER DATA	ACCESS:         46  HIT:          0  MISS:         46  HIT %:          0  MISS %:        100  MPKI: 0.00092


PSCL3 TOTAL     ACCESS:       3925  HIT:       1958  MISS:       1967  HIT %:    49.8854  MISS %:    50.1146   MPKI: 0.03934
PSCL3 LOAD TRANSLATION INSTRUCTION	ACCESS:       2073  HIT:       1912  MISS:        161  HIT %:    92.2335  MISS %:    7.76652  MPKI: 0.00322
PSCL3 TRANSLATION FROM L1D PREFETCHER INSTRUCTION	ACCESS:         46  HIT:         46  MISS:          0  HIT %:        100  MISS %:          0  MPKI: 0
PSCL3 LOAD TRANSLATION DATA	ACCESS:       1760  HIT:          0  MISS:       1760  HIT %:          0  MISS %:        100  MPKI: 0.0352
PSCL3 TRANSLATION FROM L1D PREFETCHER DATA	ACCESS:         46  HIT:          0  MISS:         46  HIT %:          0  MISS %:        100  MPKI: 0.00092


PSCL2 TOTAL     ACCESS:       3909  HIT:       1905  MISS:       2004  HIT %:    48.7337  MISS %:    51.2663   MPKI: 0.04008
PSCL2 LOAD TRANSLATION INSTRUCTION	ACCESS:       2097  HIT:       1855  MISS:        242  HIT %:    88.4597  MISS %:    11.5403  MPKI: 0.00484
PSCL2 TRANSLATION FROM L1D PREFETCHER INSTRUCTION	ACCESS:         50  HIT:         50  MISS:          0  HIT %:        100  MISS %:          0  MPKI: 0
PSCL2 LOAD TRANSLATION DATA	ACCESS:       1712  HIT:          0  MISS:       1712  HIT %:          0  MISS %:        100  MPKI: 0.03424
PSCL2 TRANSLATION FROM L1D PREFETCHER DATA	ACCESS:         50  HIT:          0  MISS:         50  HIT %:          0  MISS %:        100  MPKI: 0.001


LLC TOTAL     ACCESS:     509304  HIT:     478821  MISS:      30483  HIT %:    94.0148  MISS %:    5.98523   MPKI: 0.60966
LLC LOAD INSTRUCTION	ACCESS:     236827  HIT:     235790  MISS:       1037  HIT %:    99.5621  MISS %:   0.437872  MPKI: 0.02074
LLC LOAD TRANSLATION INSTRUCTION	ACCESS:        204  HIT:        173  MISS:         31  HIT %:    84.8039  MISS %:    15.1961  MPKI: 0.00062
LLC LOAD DATA	ACCESS:      73339  HIT:      69703  MISS:       3636  HIT %:    95.0422  MISS %:     4.9578  MPKI: 0.07272
LLC RFO DATA	ACCESS:      53198  HIT:      38067  MISS:      15131  HIT %:    71.5572  MISS %:    28.4428  MPKI: 0.30262
LLC PREFETCH DATA	ACCESS:      71113  HIT:      60957  MISS:      10156  HIT %:    85.7185  MISS %:    14.2815  MPKI: 0.20312
LLC WRITEBACK DATA	ACCESS:      73297  HIT:      72893  MISS:        404  HIT %:    99.4488  MISS %:   0.551182  MPKI: 0.00808
LLC LOAD TRANSLATION DATA	ACCESS:       1303  HIT:       1215  MISS:         88  HIT %:    93.2464  MISS %:    6.75365  MPKI: 0.00176
LLC TRANSLATION FROM L1D PREFETCHER DATA	ACCESS:         23  HIT:         23  MISS:          0  HIT %:        100  MISS %:          0  MPKI: 0

LLC AVERAGE MISS LATENCY: 159.839 cycles
LLC RQ	ACCESS:     364896	FORWARD:          0	MERGED:          0	TO_CACHE:     364894
LLC WQ	ACCESS:      73297	FORWARD:          2	MERGED:          0	TO_CACHE:      73297
LLC PQ	ACCESS:      71113	FORWARD:          0	MERGED:          0	TO_CACHE:      71113

LLC Dense regions hint to LLC: 0

RAW hits: 1530105
Loads Generated: 12641517
Loads sent to L1D: 11111412
Stores Generated: 6957183
Stores sent to L1D: 6957200
Major fault: 0 Minor fault: 2547
Allocated PAGES: 2547

stream: 
stream:times selected: 1184715
stream:pref_filled: 120194
stream:pref_useful: 23646
stream:pref_late: 6582
stream:misses: 7867
stream:misses_by_poll: 0

CS: 
CS:times selected: 179049
CS:pref_filled: 60377
CS:pref_useful: 36714
CS:pref_late: 7139
CS:misses: 16605
CS:misses_by_poll: 0

CPLX: 
CPLX:times selected: 1004560
CPLX:pref_filled: 20018
CPLX:pref_useful: 4619
CPLX:pref_late: 3105
CPLX:misses: 92373
CPLX:misses_by_poll: 2

NL_L1: 
NL:times selected: 20323
NL:pref_filled: 818
NL:pref_useful: 388
NL:pref_late: 261
NL:misses: 1720
NL:misses_by_poll: 0

total selections: 2388647
total_filled: 95025
total_useful: 35106
total_late: 18285
total_polluted: 2
total_misses_after_warmup: 765191
conflicts: 5780826

test: 117056

DRAM Statistics
 CHANNEL 0
 RQ ROW_BUFFER_HIT:      11117  ROW_BUFFER_MISS:      18947
 DBUS_CONGESTED:          8
 WQ ROW_BUFFER_HIT:       1507  ROW_BUFFER_MISS:      13243  FULL:          0

 AVG_CONGESTED_CYCLE: 5

CPU 0 Branch Prediction Accuracy: 99.823% MPKI: 0.32376 Average ROB Occupancy at Mispredict: 98.8754
Branch types
NOT_BRANCH: 40854561 81.7091%
BRANCH_DIRECT_JUMP: 547791 1.09558%
BRANCH_INDIRECT: 182396 0.364792%
BRANCH_CONDITIONAL: 6178422 12.3568%
BRANCH_DIRECT_CALL: 946483 1.89297%
BRANCH_INDIRECT_CALL: 171720 0.34344%
BRANCH_RETURN: 1118199 2.2364%
BRANCH_OTHER: 0 0%

DRAM PAGES: 1048576
Allocated PAGES: 2547
Average_ROB_Occupancy: 77.1008
Average_Decode_Occupancy: 8.96176
Average_FTQ_Occupancy: 4.56551
Indirect max targets: 14 Average targets: 1.14626
Branch_type:  BRANCH_DIRECT_JUMP:  Count Percentage: 4.15248 4.87512 4.88434 7.41363 3.48759 6.01159 1.88201 67.2932 
Branch_type:  BRANCH_INDIRECT:  Count Percentage: 11.722 3.44893 15.8869 9.68746 3.34556 2.81039 1.73896 51.3598 
Branch_type:  BRANCH_CONDITIONAL:  Count Percentage: 21.7605 2.26646 2.27128 5.57893 1.72029 4.27313 5.81556 56.3139 
Branch_type:  BRANCH_DIRECT_CALL:  Count Percentage: 0.882829 1.29021 0.739319 3.92651 2.91649 2.87225 4.34665 83.0257 
Branch_type:  BRANCH_INDIRECT_CALL:  Count Percentage: 9.54461 0 2.99048 5.26975 0 2.40916 3.84703 75.939 
Branch_type:  BRANCH_RETURN:  Count Percentage: 4.72242 1.39944 1.49058 6.29755 2.33227 4.47106 6.55277 72.7339 
Branch_type:  BRANCH_DIRECT_JUMP:  Total Count: 45516 53437 53538 81262 38228 65894 20629 737612 
Branch_type:  BRANCH_INDIRECT:  Total Count: 42865 12612 58095 35425 12234 10277 6359 187812 
Branch_type:  BRANCH_CONDITIONAL:  Total Count: 2688910 280063 280658 689379 212574 528024 718619 6958614 
Branch_type:  BRANCH_DIRECT_CALL:  Total Count: 16665 24355 13956 74120 55054 54219 82051 1567262 
Branch_type:  BRANCH_INDIRECT_CALL:  Total Count: 32772 0 10268 18094 0 8272 13209 260741 
Branch_type:  BRANCH_RETURN:  Total Count: 105396 31233 33267 140550 52052 99786 146246 1623291 
Number of unique branch instructions: 9775
Upper 32 bits: 
aaaa
ffff
ffff0000
Unique upper 32 bits: 3
Unique upper 36 bits: 3
Unique upper 40 bits: 5
Unique upper 44 bits: 32
Unique upper 48 bits: 154
Offset_3 4020
Offset_4 246
Offset_5 448
Offset_6 501
Offset_7 572
Offset_8 502
Offset_9 461
Offset_10 374
Offset_11 301
Offset_12 269
Offset_13 199
Offset_14 227
Offset_15 184
Offset_16 222
Offset_17 143
Offset_18 118
Offset_19 234
Offset_20 136
Offset_21 235
Offset_22 393
Offset_23 241
Offset_24 324
Offset_25 88
Offset_47 80
decode_dispatch_called: 20220270 35.9885
Dispatch_width: 0 10011462 49.512 17.8186
Dispatch_width: 1 593304 2.9342 1.05598
Dispatch_width: 2 814736 4.0293 1.45008
Dispatch_width: 3 558601 2.76258 0.99421
Dispatch_width: 4 1464935 7.24488 2.60732
Dispatch_width: 5 421995 2.08699 0.751076
Dispatch_width: 6 6355237 31.43 11.3112
Empty_decode_cycles: 35965136 64.0115
ROB_full_cycles: 1525602 2.7153
Starvation_cycles_per_kilo_instr: 483.046
Starvation_cycles_per_kilo_instr_3: 464.176
Starvation_cycles_per_kilo_instr_0: 444.51
Branch_type_1  (3,1)  (4,9)  (5,37)  (6,70)  (7,112)  (8,128)  (9,122)  (10,97)  (11,67)  (12,43)  (13,5)  (14,2)  (15,3)  (16,4)  (18,1)  (19,4)  (20,2)  (21,1)  (22,3)  (23,2)  (24,10)  (25,12) 
Branch_type_2  (3,1)  (5,1)  (8,3)  (9,3)  (12,1)  (13,1)  (14,1)  (16,3)  (17,2)  (20,2)  (21,2)  (23,5)  (24,1)  (47,36) 
Branch_type_3  (3,4018)  (4,237)  (5,406)  (6,416)  (7,431)  (8,311)  (9,253)  (10,151)  (11,120)  (12,50)  (13,4) 
Branch_type_4  (6,3)  (7,8)  (8,25)  (9,51)  (10,60)  (11,58)  (12,96)  (13,86)  (14,100)  (15,86)  (16,99)  (17,63)  (18,53)  (19,115)  (20,71)  (21,124)  (22,209)  (23,136)  (24,185)  (25,72) 
Branch_type_5  (8,2)  (9,1)  (10,3)  (11,5)  (12,3)  (13,14)  (14,16)  (15,11)  (16,20)  (17,11)  (18,16)  (19,12)  (20,10)  (21,13)  (22,42)  (23,26)  (24,37) 
Branch_type_6  (5,4)  (6,12)  (7,21)  (8,33)  (9,31)  (10,63)  (11,51)  (12,76)  (13,89)  (14,108)  (15,84)  (16,96)  (17,67)  (18,48)  (19,103)  (20,51)  (21,95)  (22,139)  (23,72)  (24,91)  (25,4)  (47,44) 
Unique trigger count: 
BTB PER SET UNIQUE ADDR: 23 26 21 27 26 27 17 25 14 26 17 29 26 20 23 18 21 22 22 26 24 20 23 26 18 25 25 26 23 19 22 23 27 16 17 23 23 26 17 20 21 22 24 29 20 15 25 17 25 21 28 20 23 26 21 11 21 19 18 26 22 31 24 23 23 27 24 17 30 25 22 22 27 20 18 15 15 24 19 31 26 14 21 28 26 23 26 22 17 39 19 15 25 21 14 27 19 22 29 29 35 30 25 18 23 20 22 25 13 18 20 32 24 19 21 14 26 27 23 24 25 17 21 14 24 20 12 24 32 18 19 30 21 29 19 29 15 25 21 32 20 28 21 22 24 24 27 20 16 22 24 26 15 21 17 30 27 27 27 25 25 22 28 27 22 24 26 18 28 20 21 27 24 23 24 21 22 22 20 26 17 22 20 27 34 30 16 24 27 19 23 18 16 29 25 14 17 23 22 22 28 25 19 20 18 22 23 23 22 23 19 27 22 23 24 23 20 27 19 39 14 26 17 22 20 26 29 26 17 30 21 12 23 30 20 27 27 20 22 18 23 23 30 28 21 20 21 22 24 24 28 28 26 18 27 26 18 17 19 20 24 18 10 21 21 16 20 19 22 20 20 25 18 14 16 17 24 27 22 22 16 25 18 18 27 18 19 34 32 26 23 18 25 25 18 29 24 27 23 23 21 20 20 36 22 30 25 21 32 26 22 28 22 35 28 13 30 20 21 30 22 28 18 22 27 28 25 18 21 17 21 29 18 21 22 23 19 20 17 36 24 24 16 27 26 26 19 22 20 22 25 22 27 23 22 27 24 27 18 17 17 30 20 31 24 27 13 24 27 22 23 17 22 26 17 31 24 26 20 25 24 22 18 16 17 22 27 27 25 25 30 14 27 29 18 16 21 20 29 24 20 26 23 23 28 28 27 28 23 22 27 17 18 29 22 22 20 31 38 32 19 26 24 26 29 19 25 20 26 21 29 23 20 22 29 28 26 19 21 25 27 20 17 30 35 19 17 26 27 23 27 38 26 18 27 33 26 28 19 29 18 22 19 27 34 20 23 24 28 26 24 27 27 24 24 35 26 34 17 24 33 28 21 24 17 27 35 30 27 22 19 25 17 17 18 21 26 25 22 27 20 30 20 34 21 20 17 30 29 28 24 30 24 23 20 26 20 32 17 18 14 22 26 16 24 31 36 14 15 32 27 23 26 24 26 31 21 26 26 24 28 20 27 25 26 31 16 26 17 23 24 31 25 23 20 22 23 25 31 25 21 34 22 24 23 29 22 29 23 29 28 24 30 36 23 29 28 30 22 23 26 24 15 25 26 25 21 23 34 28 20 22 24 15 26 17 15 23 25 22 24 22 22 14 23 26 32 23 21 25 32 25 21 16 10 28 15 29 21 26 28 25 19 20 21 33 20 29 18 24 21 30 31 23 23 23 25 30 23 28 22 27 26 33 26 26 20 24 35 20 16 24 19 19 30 23 23 22 27 23 23 13 29 31 21 26 18 22 20 20 27 21 19 26 32 21 26 28 27 29 23 30 22 27 26 21 22 23 25 28 23 24 23 16 15 22 17 26 20 25 15 26 26 32 12 28 21 17 17 15 23 24 17 23 18 20 31 25 20 28 26 24 21 20 19 22 27 23 21 20 25 20 23 20 24 26 24 30 37 21 20 22 22 25 33 28 22 23 22 18 22 22 25 23 18 22 30 21 19 18 23 13 13 22 23 28 17 23 23 27 24 29 20 17 25 17 29 21 24 27 15 24 23 22 25 22 19 25 22 14 16 14 28 25 23 31 20 18 27 23 34 24 32 28 33 19 24 21 24 19 22 36 30 29 19 27 36 32 13 27 25 30 16 28 26 22 19 25 24 26 23 29 26 22 19 26 25 22 25 23 28 23 22 24 25 26 20 37 20 25 24 20 18 21 30 30 31 28 26 27 25 25 19 26 29 16 24 18 30 20 19 29 27 22 23 12 21 22 19 23 28 15 21 29 25 25 31 23 24 22 25 17 21 21 23 27 32 23 18 18 22 22 21 25 14 29 21 27 22 32 19 23 22 24 25 26 36 22 23 25 23 25 20 26 21 19 12 29 17 17 29 30 29 21 21 31 21 20 25 27 17 30 24 21 21 24 24 28 23 26 23 24 18 25 22 26 25 21 26 25 25 25 22 33 30 23 27 24 19 26 24 28 26 22 28 19 33 30 30 34 19 30 25 24 21 32 36 19 28 22 28 26 23 22 22 20 21 23 30 23 31 30 20 21 29 27 18 32 20 27 28 26 26 17 19 21 13 20 10 14 19 30 23 15 
BTB PER SET COUNT: 2305 2335 2902 2178 2827 2139 1741 1780 1681 2203 1303 2693 12132 1918 1833 1154 2065 2331 1739 2116 1844 1643 2140 2269 1153 1937 2177 1936 2167 1914 1847 2475 2100 860 1240 1830 2052 2347 1144 2298 1682 1544 2601 2224 1915 629 2276 1497 2181 1644 2348 1452 2061 2157 1796 1003 1679 1539 1417 2178 1728 3035 2083 1951 2412 2183 1742 1536 2257 2073 2341 2192 2615 1522 1190 876 865 2243 1604 2647 2540 986 2054 2563 1992 1839 2242 2281 1745 3884 1501 1357 2226 2024 869 2157 1536 1549 2304 3693 3839 2761 2172 1739 3618 1412 1668 2433 1444 3132 1779 2928 2320 1671 1665 1273 2126 2489 2540 1983 2248 1423 1806 1035 1902 1585 771 2642 3509 1802 1400 3218 1510 2489 1768 2284 1369 2340 1639 2956 1715 2327 1680 1875 1828 1802 2752 1521 1117 1881 1742 2142 1274 1693 966 3050 2652 2162 2285 2415 2017 1877 2578 2242 1667 2009 1987 1469 2265 1600 1542 2338 2078 1751 2120 1983 1842 1545 1658 2447 1485 2021 1755 2253 2902 3106 1042 1996 2492 2303 1737 1309 1201 2715 2132 1295 1307 1918 1737 1586 2066 2067 1705 1569 1133 1959 1848 1988 2078 2307 1509 2095 1397 4097 1933 2557 1637 2385 1629 3509 1138 2192 1345 1710 1685 2219 2786 2179 1366 3399 1695 592 1795 2339 1422 6142 2323 1623 2176 1130 1866 2038 2932 2632 1757 2049 1332 1876 1970 1694 1955 2125 2057 1554 2069 2461 1507 1423 1355 1676 2159 1454 294 1894 2081 902 1727 1429 2302 1840 1644 1892 1210 939 1537 1281 2059 2458 1833 1994 1008 2233 1404 1757 2152 1593 1314 2876 3189 2539 2034 1247 1914 2509 1118 2734 2331 2152 1764 2122 1600 1525 1896 2972 1982 2761 1853 1810 2889 2372 2524 2228 1316 3227 3018 1525 2632 1826 1740 2752 1530 3113 1117 1638 2629 2417 2334 1312 1684 1099 1727 2870 1231 1404 1811 1772 1353 1726 1164 3539 1898 3022 1172 1975 2440 1918 1390 1684 1869 2111 2215 1963 2328 1843 1679 2603 2121 2626 1578 1291 1357 2835 1527 2663 1905 3083 697 1651 1815 1574 2146 1348 2292 2342 1233 2762 1873 2430 1747 2416 2301 2090 1607 964 1125 1705 2957 2509 2181 2346 2204 916 2268 2517 1336 1274 1408 1517 2809 2264 1643 2116 2179 1573 2223 2268 2080 2167 1432 2214 2122 1306 1450 2663 1513 1916 1830 4888 3426 2676 1427 2181 2424 1961 2508 1818 2656 1500 1657 2011 2736 2002 1400 1645 2637 2375 1859 1631 1747 1921 2735 1452 1315 2803 3012 1726 1336 2055 2450 1908 2387 3999 1781 1672 2678 3321 2031 2703 1385 2195 1335 1788 1396 2437 2721 1799 7175 2010 2563 2099 2087 2129 1854 1709 2040 3016 1873 3390 1299 1939 2755 2280 1657 2269 1514 1957 3237 2571 2832 1847 1718 2297 4356 1111 1059 1757 2636 2733 1678 2315 1485 2975 1446 3443 1537 1279 1246 3002 2659 2009 1865 3280 2693 2523 1652 2654 1422 2875 1215 1268 838 1940 2077 1306 1826 2803 3488 2272 1054 4310 3111 2058 1998 1833 2427 2564 2480 2432 1963 1998 2282 1616 2512 1953 2324 2867 953 2259 1195 2317 1731 2819 2275 2159 1479 1526 1800 2040 2313 2206 1303 2948 1760 1945 2303 2685 1776 2246 1795 2576 2612 2258 3174 2997 1924 2673 2597 2718 1628 1845 2391 2177 1056 3395 2197 2276 1824 2233 3120 2746 1893 1836 2228 1044 1886 1345 1737 2368 1983 1549 1431 1904 1843 972 2133 2158 2650 1935 1370 1657 2983 2576 2141 1134 660 2564 1048 2405 2339 2445 2863 1926 1119 1447 1605 2975 1520 2849 2089 1958 1595 3111 3105 1797 1908 1812 2216 2550 1616 2397 2248 2321 2605 2671 2966 2378 1410 2295 3561 1221 1120 2236 1189 1842 3309 1944 1588 1728 2390 2045 2172 725 2398 2814 6488 2512 1350 2013 2369 1830 1591 1772 1545 2274 3004 1980 2085 2695 2349 3026 1972 2719 2009 2513 2775 2105 1796 2004 2282 2586 1546 2525 2091 875 1519 1763 1759 2346 1608 1966 1425 2388 2379 2755 818 2384 1923 1394 1177 1168 2049 2090 1212 1900 1673 1631 3092 2137 1575 2624 2343 2404 1570 1929 1763 1634 1687 2254 1734 2146 2232 5775 1753 1871 1765 2030 2196 3106 3757 1716 1916 1386 1963 2308 2972 2721 2181 1888 2007 1653 2637 1587 2565 2120 1169 1905 2726 2228 1662 1062 2075 1058 765 1766 2726 2899 1237 1948 1223 2138 1846 2431 1788 1444 2250 1394 2343 1799 1506 2729 1843 2202 1943 1780 1921 1845 1400 2417 1505 1115 1347 1434 2324 2390 1727 2839 1743 1367 1696 2124 3266 1959 2622 2532 2844 1622 1789 1905 1795 1451 1388 5185 2766 2402 1812 3013 2952 3089 1109 2934 1841 2834 1222 2434 2625 2009 1542 2056 2111 2641 2213 3069 2153 2050 1233 2878 1968 1911 2460 1932 2363 2066 2057 1959 2166 2222 1727 3176 1547 4685 2730 1888 1533 1697 2679 2679 2728 2345 2590 2059 2663 2073 1697 2063 2847 1132 1929 1095 2871 1492 1611 2816 2223 1662 1908 877 1779 2018 2735 1992 2186 823 1445 2782 2285 2291 2440 1961 1895 1920 2325 1175 3068 2638 1548 2516 2834 1626 1606 1569 2100 1727 1883 2459 792 2395 1647 2703 1871 2847 1800 1929 2026 2395 2518 2443 3731 2011 1939 2098 2053 2187 1340 2423 1511 1700 674 2622 1290 1161 2296 2714 3201 1443 1780 3042 2027 1611 2513 2409 1343 3164 2126 1568 1990 2103 1765 2400 2128 2326 2186 2362 1849 3635 1692 2029 2327 1825 2132 2003 2101 2170 1733 2650 2554 1467 2676 2154 1393 2192 1935 2772 2512 1668 2765 1537 3352 2296 2745 3234 1984 2326 2265 2172 1453 3339 4263 1452 2460 2182 2225 2553 1840 1980 2420 1825 1487 3217 2313 2107 2536 3126 1644 1813 2254 2037 1547 3077 1678 2324 2547 2335 2321 1372 1317 1866 976 1713 495 1211 1501 2994 2022 1029 
