
*** ChampSim Multicore Out-of-Order Simulator ***

Warmup Instructions: 50000000
Simulation Instructions: 50000000
Number of CPUs: 1
LLC sets: 2048
LLC ways: 16
Off-chip DRAM Size: 4096 MB Channels: 1 Width: 64-bit Data Rate: 6400 MT/s
CPU 0 runs ./micro_traces/srv660.trace.gz
.gz
ITLB has LRU replacement policy
DTLB has LRU replacement policy
STLB has LRU replacement policy
SN4L + DIS + BTB Prefetcher for L1I CPU 0
srv660.cond
L1I has LRU replacement policy
L1D has LRU replacement policy
Initialize SRRIP state for L2C
Initialize DRRIP state for LLC
Heartbeat CPU 0 instructions: 10000001 cycles: 2798384 heartbeat IPC: 3.57349 cumulative IPC: 3.57349 (Simulation time: 0 hr 1 min 45 sec) 
Heartbeat CPU 0 instructions: 20000002 cycles: 5595078 heartbeat IPC: 3.57565 cumulative IPC: 3.57457 (Simulation time: 0 hr 3 min 25 sec) 
Heartbeat CPU 0 instructions: 30000002 cycles: 8390807 heartbeat IPC: 3.57688 cumulative IPC: 3.57534 (Simulation time: 0 hr 5 min 6 sec) 
Heartbeat CPU 0 instructions: 40000002 cycles: 11187938 heartbeat IPC: 3.57509 cumulative IPC: 3.57528 (Simulation time: 0 hr 6 min 44 sec) 
Heartbeat CPU 0 instructions: 50000000 cycles: 13986387 heartbeat IPC: 3.57341 cumulative IPC: 3.5749 (Simulation time: 0 hr 8 min 22 sec) 

Warmup complete CPU 0 instructions: 50000004 cycles: 13986388 (Simulation time: 0 hr 8 min 22 sec) 

Cycle: 20000000 FTQ IN: 57018996 FTQ occupancy: 18.4037 DECODE IN: 57018956 DECODE occupancy: 47.1908 ROB IN: 57018896 ROB occupancy: 287.428 ROB OUT: 57018545
Heartbeat CPU 0 instructions: 60000001 cycles: 22528023 heartbeat IPC: 1.17074 cumulative IPC: 1.17074 (Simulation time: 0 hr 9 min 49 sec) 
Cycle: 30000000 FTQ IN: 11862442 FTQ occupancy: 7.67043 DECODE IN: 11862482 DECODE occupancy: 17.3786 ROB IN: 11862542 ROB occupancy: 145.252 ROB OUT: 11862888
Heartbeat CPU 0 instructions: 70000001 cycles: 30941283 heartbeat IPC: 1.1886 cumulative IPC: 1.1796 (Simulation time: 0 hr 11 min 19 sec) 
Heartbeat CPU 0 instructions: 80000000 cycles: 39426779 heartbeat IPC: 1.17848 cumulative IPC: 1.17923 (Simulation time: 0 hr 12 min 48 sec) 
Cycle: 40000000 FTQ IN: 11799892 FTQ occupancy: 7.841 DECODE IN: 11799834 DECODE occupancy: 17.6615 ROB IN: 11799834 ROB occupancy: 146.221 ROB OUT: 11799559
Heartbeat CPU 0 instructions: 90000003 cycles: 47827669 heartbeat IPC: 1.19035 cumulative IPC: 1.18199 (Simulation time: 0 hr 14 min 15 sec) 
Cycle: 50000000 FTQ IN: 11906091 FTQ occupancy: 7.70846 DECODE IN: 11906124 DECODE occupancy: 17.4644 ROB IN: 11906124 ROB occupancy: 146.882 ROB OUT: 11906291
Heartbeat CPU 0 instructions: 100000003 cycles: 56347792 heartbeat IPC: 1.17369 cumulative IPC: 1.18032 (Simulation time: 0 hr 15 min 47 sec) 
Finished CPU 0 instructions: 50000003 cycles: 42361405 cumulative IPC: 1.18032 (Simulation time: 0 hr 15 min 47 sec) 

ChampSim completed all CPUs

Region of Interest Statistics

CPU 0 cumulative IPC: 1.18032 instructions: 50000003 cycles: 42361405
 Fetch stage stalled: 67.812  Sim cycles: 42361405 fetch stall cycle: 28726111
 Empty decode stage: 56.3894  Sim cycles: 42361405 fetch stall cycle: 23887335
ITLB TOTAL     ACCESS:    8096629  HIT:    7553703  MISS:     542926  HIT %:    93.2944  MISS %:    6.70558   MPKI: 10.8585
ITLB LOAD TRANSLATION INSTRUCTION	ACCESS:    5528963  HIT:    5054964  MISS:     473999  HIT %:     91.427  MISS %:    8.57302  MPKI: 9.47998
ITLB TRANSLATION FROM L1D PREFETCHER INSTRUCTION	ACCESS:    2567666  HIT:    2498739  MISS:      68927  HIT %:    97.3156  MISS %:    2.68442  MPKI: 1.37854

ITLB AVERAGE MISS LATENCY: 343701 cycles
ITLB RQ	ACCESS:   11225083	FORWARD:          0	MERGED:    2626433	TO_CACHE:    8598650

DTLB TOTAL     ACCESS:    9192152  HIT:    8715460  MISS:     476692  HIT %:    94.8141  MISS %:    5.18586   MPKI: 9.53384
DTLB LOAD TRANSLATION DATA	ACCESS:    9192152  HIT:    8715460  MISS:     476692  HIT %:    94.8141  MISS %:    5.18586  MPKI: 9.53384

DTLB AVERAGE MISS LATENCY: 9.34906 cycles
DTLB RQ	ACCESS:   13490803	FORWARD:          0	MERGED:    4263301	TO_CACHE:    9227502

STLB TOTAL     ACCESS:    1271648  HIT:    1269548  MISS:       2100  HIT %:    99.8349  MISS %:    0.16514   MPKI: 0.042
STLB LOAD TRANSLATION INSTRUCTION	ACCESS:     468748  HIT:     468473  MISS:        275  HIT %:    99.9413  MISS %:  0.0586669  MPKI: 0.0055
STLB TRANSLATION FROM L1D PREFETCHER INSTRUCTION	ACCESS:      74178  HIT:      74157  MISS:         21  HIT %:    99.9717  MISS %:  0.0283103  MPKI: 0.00042
STLB LOAD TRANSLATION DATA	ACCESS:     476564  HIT:     474775  MISS:       1789  HIT %:    99.6246  MISS %:   0.375396  MPKI: 0.03578
STLB TRANSLATION FROM L1D PREFETCHER DATA	ACCESS:     252158  HIT:     252143  MISS:         15  HIT %:    99.9941  MISS %: 0.00594865  MPKI: 0.0003

STLB AVERAGE MISS LATENCY: 80.799 cycles
STLB RQ	ACCESS:    1426237	FORWARD:          0	MERGED:     134792	TO_CACHE:    1291445

STLB Hit, L1D data hit: 0
STLB Hit, L2C data hit: 0
STLB Hit, LLC data hit: 0
STLB Hit, LLC data miss: 0
STLB STLB hints to L2: 0
L1D TOTAL     ACCESS:   13229579  HIT:   12081749  MISS:    1147830  HIT %:    91.3238  MISS %:    8.67624   MPKI: 22.9566
L1D LOAD DATA	ACCESS:    6711640  HIT:    5953284  MISS:     758356  HIT %:    88.7009  MISS %:    11.2991  MPKI: 15.1671
L1D RFO DATA	ACCESS:    6187302  HIT:    5899342  MISS:     287960  HIT %:     95.346  MISS %:    4.65405  MPKI: 5.7592
L1D PREFETCH DATA	ACCESS:     330637  HIT:     229123  MISS:     101514  HIT %:    69.2974  MISS %:    30.7026  MPKI: 2.03028

L1D PREFETCH  REQUESTED:     774028  ISSUED:     774028  USEFUL:      43892  USELESS:      69892
L1D USEFUL LOAD PREFETCHES:      43892 PREFETCH ISSUED TO LOWER LEVEL:     113794  ACCURACY: 38.5715
 TIMELY PREFETCHES:      43892 LATE PREFETCHES: 12246 DROPPED PREFETCHES: 2
L1D AVERAGE MISS LATENCY: 381503 cycles
L1D RQ	ACCESS:   10810639	FORWARD:          0	MERGED:    3898767	TO_CACHE:    6749975
L1D WQ	ACCESS:    6921301	FORWARD:     162213	MERGED:     180473	TO_CACHE:    6740828
L1D PQ	ACCESS:     387172	FORWARD:          0	MERGED:          0	TO_CACHE:     386856

L1D UNIQUE REGIONS ACCESSED: 0
L1D REGIONS CONFLICTS: 0
L1D Cross Page Prefetch Requests: 5866
L1D Same Page Prefetch Requests: 783602
L1D ROI Sum of L1D PQ occupancy: 4922254
L1D PREFETCHES PUSHED FROM L2C: 0
L1I TOTAL     ACCESS:   10631000  HIT:    7077586  MISS:    3553414  HIT %:     66.575  MISS %:     33.425   MPKI: 71.0683
L1I LOAD INSTRUCTION	ACCESS:    6472274  HIT:    4151054  MISS:    2321220  HIT %:    64.1359  MISS %:    35.8641  MPKI: 46.4244
L1I PREFETCH INSTRUCTION	ACCESS:    4158726  HIT:    2926532  MISS:    1232194  HIT %:    70.3709  MISS %:    29.6291  MPKI: 24.6439

L1I PREFETCH  REQUESTED:    4824723  ISSUED:    4824723  USEFUL:     609612  USELESS:     718763
L1I USEFUL LOAD PREFETCHES:     609612 PREFETCH ISSUED TO LOWER LEVEL:    1328295  ACCURACY: 45.8943
 TIMELY PREFETCHES:     609612 LATE PREFETCHES: 96111 DROPPED PREFETCHES: 46113
L1I AVERAGE MISS LATENCY: 951790 cycles
L1I RQ	ACCESS:    9479944	FORWARD:          0	MERGED:    2827979	TO_CACHE:    6651965
L1I PQ	ACCESS:    4824723	FORWARD:          0	MERGED:     251605	TO_CACHE:    4573118

L1BTB TOTAL     ACCESS:    5676286  HIT:    2059147  MISS:    3617139  HIT %:    36.2763  MISS %:    63.7237   MPKI: 72.3428
L1BTB BRANCH_DIRECT_JUMP	ACCESS:     546038  HIT:     143438  MISS:     402600	AVERAGE STALL: 38.1627
L1BTB BRANCH_INDIRECT	ACCESS:     181869  HIT:      65534  MISS:     116335	AVERAGE STALL: 91.7402
L1BTB BRANCH_CONDITIONAL	ACCESS:    2722955  HIT:    1434346  MISS:    1288609	AVERAGE STALL: 39.2932
L1BTB BRANCH_DIRECT_CALL	ACCESS:     941170  HIT:     105059  MISS:     836111	AVERAGE STALL: 41.7758
L1BTB BRANCH_INDIRECT_CALL	ACCESS:     171552  HIT:      21589  MISS:     149963	AVERAGE STALL: 118.26
L1BTB BRANCH_RETURN	ACCESS:    1112702  HIT:     289181  MISS:     823521	AVERAGE STALL: 38.7429
L1BTB BRANCH_OTHER ACCESS:          0  HIT:          0  MISS:          0	AVERAGE STALL: -nan
L1BTB TOTAL ROB OCCUPANCY AT BTB MISS: 14.3701

L2BTB TOTAL     ACCESS:    3591805  HIT:    3168707  MISS:     423098  HIT %:    88.2205  MISS %:    11.7795   MPKI: 8.46196
L2BTB BRANCH_DIRECT_JUMP	ACCESS:     398451  HIT:     352033  MISS:      46418	AVERAGE STALL: 38.1627
L2BTB BRANCH_INDIRECT	ACCESS:     106067  HIT:     101020  MISS:       5047	AVERAGE STALL: 91.7402
L2BTB BRANCH_CONDITIONAL	ACCESS:    1288609  HIT:    1150251  MISS:     138358	AVERAGE STALL: 39.2932
L2BTB BRANCH_DIRECT_CALL	ACCESS:     836111  HIT:     723900  MISS:     112211	AVERAGE STALL: 41.7758
L2BTB BRANCH_INDIRECT_CALL	ACCESS:     140451  HIT:     119060  MISS:      21391	AVERAGE STALL: 118.26
L2BTB BRANCH_RETURN	ACCESS:     822116  HIT:     722443  MISS:      99673	AVERAGE STALL: 38.7429
L2BTB BRANCH_OTHER ACCESS:          0  HIT:          0  MISS:          0	AVERAGE STALL: -nan
L2BTB TOTAL ROB OCCUPANCY AT BTB MISS: 122.852

L2C TOTAL     ACCESS:    6101784  HIT:    5054131  MISS:    1047653  HIT %:    82.8304  MISS %:    17.1696   MPKI: 20.9531
L2C LOAD INSTRUCTION	ACCESS:    2225108  HIT:    1880521  MISS:     344587  HIT %:    84.5137  MISS %:    15.4863  MPKI: 6.89174
L2C PREFETCH INSTRUCTION	ACCESS:    1328305  HIT:    1109154  MISS:     219151  HIT %:    83.5015  MISS %:    16.4985  MPKI: 4.38302
L2C LOAD TRANSLATION INSTRUCTION	ACCESS:        320  HIT:         98  MISS:        222  HIT %:     30.625  MISS %:     69.375  MPKI: 0.00444
L2C TRANSLATION FROM L1D PREFETCHER INSTRUCTION	ACCESS:      25414  HIT:      24880  MISS:        534  HIT %:    97.8988  MISS %:     2.1012  MPKI: 0.01068
L2C LOAD DATA	ACCESS:     746073  HIT:     613738  MISS:     132335  HIT %:    82.2625  MISS %:    17.7375  MPKI: 2.6467
L2C RFO DATA	ACCESS:     287911  HIT:     208335  MISS:      79576  HIT %:    72.3609  MISS %:    27.6391  MPKI: 1.59152
L2C PREFETCH DATA	ACCESS:     961835  HIT:     726867  MISS:     234968  HIT %:    75.5709  MISS %:    24.4291  MPKI: 4.69936
L2C WRITEBACK DATA	ACCESS:     524892  HIT:     490103  MISS:      34789  HIT %:    93.3722  MISS %:    6.62784  MPKI: 0.69578
L2C LOAD TRANSLATION DATA	ACCESS:       1902  HIT:        416  MISS:       1486  HIT %:    21.8717  MISS %:    78.1283  MPKI: 0.02972
L2C TRANSLATION FROM L1D PREFETCHER DATA	ACCESS:         24  HIT:         19  MISS:          5  HIT %:    79.1667  MISS %:    20.8333  MPKI: 0.0001

L2C PREFETCH  REQUESTED:    1382975  ISSUED:    1382975  USEFUL:      36041  USELESS:     421951
L2C USEFUL LOAD PREFETCHES:      36041 PREFETCH ISSUED TO LOWER LEVEL:     457072  ACCURACY: 7.88519
 TIMELY PREFETCHES:      36041 LATE PREFETCHES: 2953 DROPPED PREFETCHES: 0
L2C AVERAGE MISS LATENCY: 33.6774 cycles
L2C RQ	ACCESS:    3286800	FORWARD:          0	MERGED:          0	TO_CACHE:    3286748
L2C WQ	ACCESS:     524892	FORWARD:         52	MERGED:          0	TO_CACHE:     524892
L2C PQ	ACCESS:    2825064	FORWARD:          0	MERGED:     516539	TO_CACHE:    2308525

L2C Dense regions hint from L2: 0
PSCL5 TOTAL     ACCESS:      43730  HIT:      21865  MISS:      21865  HIT %:         50  MISS %:         50   MPKI: 0.4373
PSCL5 LOAD TRANSLATION INSTRUCTION	ACCESS:       4116  HIT:       2058  MISS:       2058  HIT %:         50  MISS %:         50  MPKI: 0.04116
PSCL5 TRANSLATION FROM L1D PREFETCHER INSTRUCTION	ACCESS:      39614  HIT:      19807  MISS:      19807  HIT %:         50  MISS %:         50  MPKI: 0.39614


PSCL4 TOTAL     ACCESS:      41915  HIT:      20950  MISS:      20965  HIT %:    49.9821  MISS %:    50.0179   MPKI: 0.4193
PSCL4 LOAD TRANSLATION INSTRUCTION	ACCESS:       2249  HIT:       1951  MISS:        298  HIT %:    86.7497  MISS %:    13.2503  MPKI: 0.00596
PSCL4 TRANSLATION FROM L1D PREFETCHER INSTRUCTION	ACCESS:      22866  HIT:      18999  MISS:       3867  HIT %:    83.0884  MISS %:    16.9116  MPKI: 0.07734
PSCL4 LOAD TRANSLATION DATA	ACCESS:       1668  HIT:          0  MISS:       1668  HIT %:          0  MISS %:        100  MPKI: 0.03336
PSCL4 TRANSLATION FROM L1D PREFETCHER DATA	ACCESS:      15132  HIT:          0  MISS:      15132  HIT %:          0  MISS %:        100  MPKI: 0.30264


PSCL3 TOTAL     ACCESS:      42031  HIT:      21008  MISS:      21023  HIT %:    49.9822  MISS %:    50.0178   MPKI: 0.42046
PSCL3 LOAD TRANSLATION INSTRUCTION	ACCESS:       2307  HIT:       2009  MISS:        298  HIT %:    87.0828  MISS %:    12.9172  MPKI: 0.00596
PSCL3 TRANSLATION FROM L1D PREFETCHER INSTRUCTION	ACCESS:      22866  HIT:      18999  MISS:       3867  HIT %:    83.0884  MISS %:    16.9116  MPKI: 0.07734
PSCL3 LOAD TRANSLATION DATA	ACCESS:       1726  HIT:          0  MISS:       1726  HIT %:          0  MISS %:        100  MPKI: 0.03452
PSCL3 TRANSLATION FROM L1D PREFETCHER DATA	ACCESS:      15132  HIT:          0  MISS:      15132  HIT %:          0  MISS %:        100  MPKI: 0.30264


PSCL2 TOTAL     ACCESS:      32411  HIT:      16137  MISS:      16274  HIT %:    49.7887  MISS %:    50.2113   MPKI: 0.32548
PSCL2 LOAD TRANSLATION INSTRUCTION	ACCESS:       2220  HIT:       1923  MISS:        297  HIT %:    86.6216  MISS %:    13.3784  MPKI: 0.00594
PSCL2 TRANSLATION FROM L1D PREFETCHER INSTRUCTION	ACCESS:      28406  HIT:      14214  MISS:      14192  HIT %:    50.0387  MISS %:    49.9613  MPKI: 0.28384
PSCL2 LOAD TRANSLATION DATA	ACCESS:       1763  HIT:          0  MISS:       1763  HIT %:          0  MISS %:        100  MPKI: 0.03526
PSCL2 TRANSLATION FROM L1D PREFETCHER DATA	ACCESS:         22  HIT:          0  MISS:         22  HIT %:          0  MISS %:        100  MPKI: 0.00044


LLC TOTAL     ACCESS:    1133911  HIT:    1103400  MISS:      30511  HIT %:    97.3092  MISS %:    2.69078   MPKI: 0.61022
LLC LOAD INSTRUCTION	ACCESS:     342699  HIT:     342039  MISS:        660  HIT %:    99.8074  MISS %:   0.192589  MPKI: 0.0132
LLC PREFETCH INSTRUCTION	ACCESS:     210652  HIT:     210037  MISS:        615  HIT %:     99.708  MISS %:   0.291951  MPKI: 0.0123
LLC LOAD TRANSLATION INSTRUCTION	ACCESS:        222  HIT:        181  MISS:         41  HIT %:    81.5315  MISS %:    18.4685  MPKI: 0.00082
LLC TRANSLATION FROM L1D PREFETCHER INSTRUCTION	ACCESS:        534  HIT:        530  MISS:          4  HIT %:    99.2509  MISS %:   0.749064  MPKI: 8e-05
LLC LOAD DATA	ACCESS:     131301  HIT:     127503  MISS:       3798  HIT %:    97.1074  MISS %:    2.89259  MPKI: 0.07596
LLC RFO DATA	ACCESS:      79543  HIT:      65344  MISS:      14199  HIT %:    82.1493  MISS %:    17.8507  MPKI: 0.28398
LLC PREFETCH DATA	ACCESS:     246420  HIT:     235554  MISS:      10866  HIT %:    95.5905  MISS %:    4.40954  MPKI: 0.21732
LLC WRITEBACK DATA	ACCESS:     121049  HIT:     120821  MISS:        228  HIT %:    99.8116  MISS %:   0.188353  MPKI: 0.00456
LLC LOAD TRANSLATION DATA	ACCESS:       1486  HIT:       1386  MISS:        100  HIT %:    93.2705  MISS %:    6.72948  MPKI: 0.002
LLC TRANSLATION FROM L1D PREFETCHER DATA	ACCESS:          5  HIT:          5  MISS:          0  HIT %:        100  MISS %:          0  MPKI: 0

LLC AVERAGE MISS LATENCY: 159.242 cycles
LLC RQ	ACCESS:     555792	FORWARD:          0	MERGED:          0	TO_CACHE:     555790
LLC WQ	ACCESS:     121049	FORWARD:          2	MERGED:          0	TO_CACHE:     121049
LLC PQ	ACCESS:     457072	FORWARD:          0	MERGED:          0	TO_CACHE:     457072

LLC Dense regions hint to LLC: 0

RAW hits: 1804004
Loads Generated: 12614643
Loads sent to L1D: 10810639
Stores Generated: 6921287
Stores sent to L1D: 6921301
Major fault: 0 Minor fault: 2641
Allocated PAGES: 2641
CPU 0 L1I prefetcher final stats
USEFUL PREFETCHES 1291986
USELESS PREFETCHES 1589510
MISSES TRACKED 2244702
MISSES OMITTED 2440406
2244702 2272198 4655370BRANCHES PENDING
22796934/32540652
To predecode: 9176385 predecoding_something: 339948710

stream: 
stream:times selected: 1230593
stream:pref_filled: 124060
stream:pref_useful: 26420
stream:pref_late: 9664
stream:misses: 8770
stream:misses_by_poll: 0

CS: 
CS:times selected: 193109
CS:pref_filled: 65887
CS:pref_useful: 41859
CS:pref_late: 13955
CS:misses: 27079
CS:misses_by_poll: 21

CPLX: 
CPLX:times selected: 1036351
CPLX:pref_filled: 22782
CPLX:pref_useful: 6367
CPLX:pref_late: 4367
CPLX:misses: 120032
CPLX:misses_by_poll: 4

NL_L1: 
NL:times selected: 12700
NL:pref_filled: 1525
NL:pref_useful: 231
NL:pref_late: 199
NL:misses: 1560
NL:misses_by_poll: 0

total selections: 2472753
total_filled: 101514
total_useful: 43892
total_late: 30456
total_polluted: 25
total_misses_after_warmup: 796692
conflicts: 5578869

test: 116862

DRAM Statistics
 CHANNEL 0
 RQ ROW_BUFFER_HIT:      10988  ROW_BUFFER_MISS:      19291
 DBUS_CONGESTED:         13
 WQ ROW_BUFFER_HIT:       1478  ROW_BUFFER_MISS:      12957  FULL:          0

 AVG_CONGESTED_CYCLE: 6

CPU 0 Branch Prediction Accuracy: 99.8213% MPKI: 0.32708 Average ROB Occupancy at Mispredict: 144.038
Branch types
NOT_BRANCH: 40846395 81.6928%
BRANCH_DIRECT_JUMP: 546038 1.09208%
BRANCH_INDIRECT: 181869 0.363738%
BRANCH_CONDITIONAL: 6199834 12.3997%
BRANCH_DIRECT_CALL: 941170 1.88234%
BRANCH_INDIRECT_CALL: 171552 0.343104%
BRANCH_RETURN: 1112702 2.2254%
BRANCH_OTHER: 0 0%

DRAM PAGES: 1048576
Allocated PAGES: 2641
Average_ROB_Occupancy: 147.073
Average_Decode_Occupancy: 17.5089
Average_FTQ_Occupancy: 7.7558
Indirect max targets: 14 Average targets: 1.17445
Branch_type:  BRANCH_DIRECT_JUMP:  Count Percentage: 3.30547 6.32295 3.66619 7.38011 3.46412 6.02122 1.59466 68.2453 
Branch_type:  BRANCH_INDIRECT:  Count Percentage: 6.14916 3.48055 8.1631 9.6621 3.34687 2.81024 3.88213 62.5058 
Branch_type:  BRANCH_CONDITIONAL:  Count Percentage: 25.4888 3.08377 1.42264 4.45946 2.484 3.94463 2.27458 56.8421 
Branch_type:  BRANCH_DIRECT_CALL:  Count Percentage: 0.388825 1.27653 0.727729 3.53497 3.54817 2.62092 3.16808 84.7348 
Branch_type:  BRANCH_INDIRECT_CALL:  Count Percentage: 9.5639 0 2.99891 0.00263396 0.901107 1.71646 4.99516 79.8218 
Branch_type:  BRANCH_RETURN:  Count Percentage: 7.89706 1.10028 1.0315 3.89863 4.50713 4.19307 2.7826 74.5897 
Branch_type:  BRANCH_DIRECT_JUMP:  Total Count: 36086 69028 40024 80569 37818 65734 17409 745037 
Branch_type:  BRANCH_INDIRECT:  Total Count: 22402 12680 29739 35200 12193 10238 14143 227715 
Branch_type:  BRANCH_CONDITIONAL:  Total Count: 3159611 382266 176351 552797 307918 488979 281958 7046184 
Branch_type:  BRANCH_DIRECT_CALL:  Total Count: 7306 23986 13674 66422 66670 49247 59528 1592162 
Branch_type:  BRANCH_INDIRECT_CALL:  Total Count: 32679 0 10247 9 3079 5865 17068 272744 
Branch_type:  BRANCH_RETURN:  Total Count: 175435 24443 22915 86609 100127 93150 61816 1657028 
Number of unique branch instructions: 10640
Upper 32 bits: 
aaaa
ffff
ffff0000
Unique upper 32 bits: 3
Unique upper 36 bits: 3
Unique upper 40 bits: 5
Unique upper 44 bits: 32
Unique upper 48 bits: 160
Offset_3 4390
Offset_4 270
Offset_5 480
Offset_6 533
Offset_7 625
Offset_8 567
Offset_9 515
Offset_10 419
Offset_11 332
Offset_12 303
Offset_13 227
Offset_14 234
Offset_15 194
Offset_16 226
Offset_17 163
Offset_18 144
Offset_19 256
Offset_20 143
Offset_21 261
Offset_22 400
Offset_23 241
Offset_24 362
Offset_25 114
Offset_47 96
Offset_64 1
decode_dispatch_called: 20727139 48.9293
Dispatch_width: 0 10481637 50.5696 24.7434
Dispatch_width: 1 591734 2.85488 1.39687
Dispatch_width: 2 672840 3.24618 1.58833
Dispatch_width: 3 432723 2.08771 1.0215
Dispatch_width: 4 2115908 10.2084 4.9949
Dispatch_width: 5 293267 1.41489 0.692298
Dispatch_width: 6 6139030 29.6183 14.492
Empty_decode_cycles: 21634266 51.0707
ROB_full_cycles: 3224307 7.61143
Starvation_cycles_per_kilo_instr: 329.981
Starvation_cycles_per_kilo_instr_3: 305.889
Starvation_cycles_per_kilo_instr_0: 288.916
Branch_type_1  (3,1)  (4,10)  (5,41)  (6,73)  (7,124)  (8,146)  (9,138)  (10,109)  (11,74)  (12,47)  (13,11)  (14,2)  (15,3)  (16,4)  (18,1)  (19,5)  (20,2)  (21,1)  (22,3)  (23,2)  (24,11)  (25,12) 
Branch_type_2  (3,1)  (4,1)  (5,1)  (8,4)  (9,4)  (10,1)  (12,1)  (13,1)  (14,1)  (16,3)  (17,2)  (20,2)  (21,2)  (23,5)  (24,1)  (47,44) 
Branch_type_3  (3,4388)  (4,259)  (5,434)  (6,444)  (7,470)  (8,351)  (9,282)  (10,169)  (11,128)  (12,54)  (13,10)  (64,1) 
Branch_type_4  (6,3)  (7,8)  (8,25)  (9,57)  (10,66)  (11,68)  (12,110)  (13,96)  (14,105)  (15,92)  (16,99)  (17,76)  (18,61)  (19,123)  (20,73)  (21,141)  (22,209)  (23,136)  (24,208)  (25,98) 
Branch_type_5  (8,3)  (9,1)  (10,4)  (11,5)  (12,3)  (13,14)  (14,16)  (15,11)  (16,22)  (17,11)  (18,23)  (19,15)  (20,12)  (21,13)  (22,43)  (23,26)  (24,42) 
Branch_type_6  (5,4)  (6,13)  (7,23)  (8,38)  (9,33)  (10,70)  (11,57)  (12,88)  (13,95)  (14,110)  (15,88)  (16,98)  (17,74)  (18,59)  (19,113)  (20,54)  (21,104)  (22,145)  (23,72)  (24,100)  (25,4)  (47,52) 
Unique trigger count: 
BTB PER SET UNIQUE ADDR: 3 4 4 3 1 2 3 2 4 0 3 0 5 3 2 3 3 2 3 5 3 4 2 3 4 5 1 4 3 2 6 6 4 3 5 2 1 6 6 3 4 4 4 7 6 3 4 4 6 4 4 2 3 2 2 4 4 3 3 3 1 4 2 3 1 5 6 4 3 5 5 1 1 4 2 3 3 6 1 4 2 2 1 4 3 4 2 5 3 3 6 5 3 5 2 0 3 4 2 4 4 4 3 3 3 2 1 2 3 2 2 2 3 6 2 6 2 4 4 1 5 5 2 0 1 2 3 2 7 4 6 2 4 1 6 4 2 2 3 3 5 4 4 2 1 5 3 5 5 4 3 9 3 5 4 1 4 4 3 3 4 6 5 4 5 5 2 2 9 3 2 3 4 3 1 2 4 4 6 1 3 4 7 4 6 6 3 1 2 3 5 3 3 4 4 4 3 3 3 5 3 2 4 2 3 3 2 4 2 1 2 4 5 4 4 2 3 5 4 0 1 2 2 4 3 2 4 3 0 3 8 4 3 4 4 4 5 2 2 2 1 0 5 3 11 7 1 3 4 4 2 2 1 4 2 6 3 4 4 3 4 4 4 2 3 6 3 2 4 2 3 2 2 3 3 2 1 1 3 3 4 3 5 2 5 5 3 3 1 1 0 3 1 5 2 1 4 3 2 2 3 3 2 2 3 2 4 2 6 5 4 1 3 2 5 2 5 6 2 3 4 7 3 4 2 3 3 7 2 1 5 0 2 5 5 1 2 2 6 0 3 0 1 5 5 2 1 3 3 6 4 6 5 3 5 3 2 0 5 1 2 5 2 4 6 5 1 1 2 1 3 2 2 4 4 4 3 4 3 4 5 3 2 5 3 2 5 2 6 1 5 4 4 2 3 1 5 0 1 3 4 2 5 2 2 4 4 3 1 1 1 3 6 3 2 3 5 3 1 3 1 1 4 4 3 4 2 0 2 5 2 2 9 3 5 5 3 3 4 1 3 4 5 4 5 6 2 4 3 2 4 3 1 3 5 1 1 4 7 2 3 3 4 6 1 3 4 2 3 3 0 4 5 2 2 1 4 5 1 1 2 2 2 2 0 4 3 0 5 1 4 2 3 5 0 6 3 3 3 1 5 1 1 1 1 2 2 2 2 3 3 2 3 7 2 1 2 5 4 6 4 4 4 2 6 5 1 5 6 4 4 3 4 6 3 4 2 1 4 1 2 5 6 2 6 2 7 3 7 9 3 6 3 6 1 3 3 1 4 3 7 2 5 3 2 1 4 3 2 7 3 2 3 7 2 2 3 4 1 5 5 2 2 0 1 0 0 9 5 3 6 8 1 2 3 3 7 2 4 2 6 2 5 6 2 4 4 4 3 2 5 3 3 2 2 2 2 0 3 1 5 4 7 2 2 4 3 5 2 3 5 4 3 3 5 4 3 5 3 2 7 1 4 4 1 0 4 3 3 4 3 2 5 2 3 0 4 3 2 3 5 2 5 4 6 4 5 3 2 4 5 4 4 4 5 6 3 3 3 3 3 2 5 3 5 3 5 3 4 3 1 4 2 3 3 4 6 4 5 5 0 6 0 3 3 3 3 1 3 1 3 3 3 1 2 1 8 2 0 3 2 0 1 1 1 3 1 4 2 4 6 4 2 1 3 4 7 3 2 2 2 3 2 4 2 2 3 2 2 2 0 2 1 4 2 2 3 6 4 1 3 3 1 5 4 4 8 2 2 2 4 3 0 3 3 4 5 2 1 3 4 4 0 3 8 6 3 3 0 2 2 4 1 1 4 7 7 2 2 2 5 3 5 3 4 3 3 5 1 2 1 3 4 0 5 3 1 2 0 4 5 2 4 2 2 2 3 2 4 4 3 1 3 2 5 2 2 2 5 3 2 2 3 4 2 4 6 5 5 2 6 3 5 4 6 5 3 2 5 4 3 6 2 1 9 3 3 4 5 3 1 3 3 6 4 0 2 3 5 4 3 6 4 5 5 3 2 3 2 4 5 2 3 4 3 1 7 4 2 1 5 2 1 4 5 5 4 5 3 5 5 4 1 3 1 5 0 2 6 2 6 5 5 3 4 1 3 2 5 8 5 4 9 7 6 4 6 4 2 6 4 2 1 4 4 6 5 5 4 4 6 1 5 4 2 3 6 6 4 2 2 2 4 5 2 6 9 5 6 3 2 3 0 4 6 1 7 5 1 3 7 5 3 4 2 1 2 4 3 2 5 5 2 7 4 4 4 5 3 5 3 2 4 2 2 5 4 3 3 4 5 3 4 4 6 2 5 2 2 5 5 2 9 5 2 3 3 2 2 3 5 8 6 2 3 2 3 2 3 1 3 2 4 4 1 4 6 5 4 6 0 3 3 4 5 4 2 1 3 2 3 2 2 1 4 1 3 3 3 5 2 8 5 3 2 1 10 1 2 4 1 2 5 6 3 7 3 5 5 6 3 5 3 2 1 1 5 1 4 4 3 9 4 1 7 5 7 2 3 4 5 4 5 7 4 4 6 1 4 5 7 4 3 3 4 3 6 6 3 6 7 6 4 3 5 4 1 2 5 5 1 3 2 1 3 5 2 3 5 2 2 5 4 2 5 1 7 3 3 3 3 1 3 5 3 4 3 4 2 6 2 3 7 3 4 5 3 5 2 8 3 5 3 8 6 2 6 1 5 2 1 2 5 4 3 1 3 4 3 1 2 3 4 4 3 3 3 4 2 5 2 5 5 6 0 5 3 3 2 6 8 1 8 0 1 4 5 2 5 1 3 3 4 1 1 2 4 5 3 4 1 4 5 6 5 1 4 3 3 6 10 4 3 7 6 5 1 1 3 5 6 3 2 2 4 3 4 5 5 3 0 4 2 3 6 8 5 4 3 5 1 2 6 3 4 1 3 2 6 8 3 3 3 3 4 5 2 5 6 7 5 2 1 5 4 3 4 3 4 4 4 4 8 3 6 4 3 5 5 4 1 7 4 4 3 3 3 2 3 2 2 2 5 4 3 3 5 2 1 3 3 8 5 2 3 4 2 4 3 3 4 3 2 0 4 2 3 2 4 3 4 4 2 1 2 6 1 4 2 4 2 3 6 1 2 5 4 3 3 3 5 3 3 4 5 5 4 4 5 3 3 3 2 3 5 2 4 1 4 0 8 3 3 6 4 4 5 7 3 2 3 3 2 3 5 1 4 2 4 2 1 5 1 6 3 3 3 4 3 2 5 3 4 2 4 1 6 2 0 3 4 1 1 4 1 5 3 3 7 3 2 2 2 3 2 2 7 2 3 5 3 3 3 3 2 2 5 0 2 3 4 3 3 1 2 1 4 1 4 3 5 4 3 3 2 1 2 5 4 2 7 1 3 4 2 2 5 5 3 2 7 0 1 2 3 1 1 2 3 3 7 3 1 1 7 3 1 4 1 7 1 4 2 3 6 2 3 2 1 3 3 1 3 4 4 2 3 3 1 3 0 6 3 4 3 0 4 3 5 5 5 3 3 4 2 3 1 3 1 3 4 0 2 3 3 3 4 1 3 3 3 9 7 2 3 2 4 2 1 3 6 2 3 0 3 2 4 3 3 5 6 5 8 0 5 1 8 4 5 5 3 8 2 4 9 3 0 6 4 3 3 5 3 3 2 2 2 5 2 2 2 4 2 4 6 3 5 3 5 2 2 5 5 3 4 5 4 3 6 3 5 6 2 6 4 3 3 1 3 7 5 3 2 3 3 3 4 4 2 2 3 1 3 1 3 7 1 2 2 3 3 3 6 3 5 2 6 2 3 2 5 2 4 5 6 1 1 7 2 4 2 3 4 7 2 3 2 4 6 3 4 3 5 3 5 9 4 4 3 5 2 5 4 3 2 3 0 2 2 4 4 4 2 4 3 5 4 2 4 8 1 3 2 4 4 4 3 4 3 6 3 4 1 5 3 3 5 2 3 0 2 6 0 8 2 6 6 1 4 3 2 0 4 2 3 5 3 6 2 3 2 2 3 5 6 1 3 3 0 3 2 4 5 3 3 3 5 2 3 2 6 4 4 1 5 3 0 3 5 1 1 8 2 1 4 2 4 3 2 3 6 3 4 6 1 6 4 6 2 6 5 3 3 2 7 1 4 0 3 3 4 4 3 4 3 1 2 4 0 3 0 3 5 6 2 2 6 2 3 3 3 1 2 2 5 2 4 2 5 3 2 3 1 2 3 3 4 2 3 5 2 1 2 2 2 5 2 6 1 5 4 3 4 2 5 1 2 3 5 4 3 4 5 6 3 3 3 4 3 2 0 3 2 0 2 1 2 2 4 2 5 2 2 3 4 2 2 4 3 2 3 8 3 2 7 7 4 2 4 2 3 5 3 4 5 3 4 1 2 4 5 4 2 4 3 2 5 3 5 7 4 3 0 5 1 0 2 3 0 4 4 6 1 3 4 7 6 0 2 2 4 2 5 2 3 3 8 3 2 2 3 7 2 7 3 5 7 0 1 3 1 4 4 2 0 2 3 4 5 4 1 0 3 4 6 1 2 1 3 6 2 2 5 5 3 3 5 4 1 6 2 6 2 1 2 3 2 3 6 2 3 4 3 3 4 1 5 3 5 3 4 2 1 3 6 4 4 0 
BTB PER SET COUNT: 3 4 5 1483 1 2 802 2 4 0 3 0 3828 13 4 4 3 13 1563 4195 3 485 3 3 10 6821 1 5 1465 2 3407 2542 4 3 5606 381 2926 3170 4092 3 11 5372 7 2194 6575 3 4 4 1586 4 1890 3499 4 2 2 5 5 3 3 776 2 4 978 482 1 372 500 5 3 988 864 2932 1 8800 2 974 1466 743 2 8 2 2 3 5 3 4 2 12 3 3 2920 2446 3 3905 2 0 921 6 2 4 508 1689 3824 3 3 3 1 2911 39 2 2 2 100 2611 2573 2428 850 1484 4 1 6 9 2 0 1 2 17 3 2138 6 19073 2 4134 2 985 4 1871 2 3 3 4119 6 5 3 1 9 4 4389 7 2245 3 7212 3 10239 345 1 4 4 998 8669 5167 1403 6 1467 11 1958 44 2 14501 238 2 3 6005 41 1 5862 4 4 1002 15 471 82 6828 462 3242 2112 1439 1 2928 3 51 3 3 2190 4 3031 39 3 1195 985 4334 307 1053 2 5 3 2 1468 3167 1 589 7 18 8 4 1845 3 211 8115 0 1 769 2 4 4749 2 80 30 0 5 14093 4 3 317 979 10 7 53 2 2 2 0 2433 3 9265 5987 735 3 4 4 5641 2 1 1084 2 4440 4 4 4 4 457 644 1614 2 1599 2101 3 13618 192 3 4 2 2 3 1929 6707 1 1 3 9 80915 3 1946 14790 1702 10461 3 116 1 1 0 1861 1 37 4 3707 973 2695 2 2 3 3 2 2 4 6 15 2 1948 979 2455 9569 3 2 16441 2 2438 1223 2 4 847 2196 3 4 2 3 6 357 2 1 3555 0 2 17 1513 1 976 321 2463 0 3 0 1 983 993 1467 1 3 3331 868 4 608 4271 13553 1039 2926 2 0 8 1 2 4165 1514 4301 2670 512 963 31 489 1 3359 2 2 5 4 2931 1100 2927 1371 4 25 5 2 76541 62 2 1599 2 11 3 2660 394 2667 496 3 1 4270 0 1 3 4 2 104 2 2 2876 2317 4 1 975 1 1163 16 4 976 1469 729 1025 1 90 1 1 4 51 1520 9 8 0 2 6 2608 2845 8699 3 3627 5619 3 3 4226 1 3 492 3918 384 8 2453 3002 2331 2944 1758 979 3 2 5 1948 1 1 4 7960 2 3 3 4 3027 1 1605 2270 2 3 6072 0 843 41 489 2 1 17 974 1 1 2677 3 1467 2609 0 3673 15 0 685 1 4 2 2071 9118 0 39 3 2344 3 1 3503 7 1 1 1 2 4 585 48 4 5 2 3 528 3 1923 1467 5363 6 498 5 1468 700 18 1240 4209 1 1947 4901 4 4 5348 30 1196 1465 493 2 2 6 1 2 1464 194 718 1825 17 71 5 999 13565 4648 2095 8946 2919 1 3 9 1 1467 740 16448 3 1952 3 2 1 5 2052 2 3899 167 2 3 6471 2 2 227 4 2 26 1607 33 2 0 1 0 0 4896 6136 3 1978 2924 1 2 977 721 2483 2 1450 2 3775 683 2801 4312 2 4 4 1468 4 2 2436 3 3 2 977 3 3429 0 2502 98 10 494 3415 4451 5 4 3 8 2 1798 4581 6550 3 15 3130 4 3 2184 3 2 3434 1 4 7 1 0 5 5 13 4 3 2 735 484 4 0 5 469 760 3 17081 926 65 4 1949 5 5046 980 2 4 6273 4 6673 7 1461 3001 479 3 8 11 5450 1361 6 978 6047 3 1832 1465 5 1470 2 3128 2 3 3849 4 6070 11 4830 36 0 2781 0 990 4 978 3 1 769 2 3 3 5 1 977 1 2459 69 0 3 2 0 1 1 1 5 1 1684 1438 4 5714 6442 977 1 3 487 11 15 4 2561 2 3 4206 6497 2 2 491 2 2 1948 0 2 2 6 3 28 3 7819 2270 2 3 2169 1 43 567 4 9131 2 3 1214 4 701 0 106 3 12 2933 4 1 8295 4 6 0 1467 4530 4905 15 1983 0 2 3 1567 1 1 5 1809 3427 2767 2 2 8503 2447 352 1292 2232 4 5 21 1 902 1 1420 5 0 17 5 2 2 0 4 8 4389 1959 2 1893 1458 3 2 4 3106 49573 1 1882 2 4314 4 2 2 1525 5503 2 2 5 8705 2 13 1989 2121 15 2 5178 3614 2735 16 2842 8 7 2 23 4 5 6380 8 2 6410 977 8 4 1536 1009 1 1125 1472 4390 4 0 4 1462 26 4 236 6343 4 6633 1165 3 2 224 2325 4 13 3 3 31 3 2 3364 4 7 996 1694 2 1 2546 28000 3805 6 4687 3 9 3164 4 1 3 1 4940 0 3 1461 2444 61 11 1466 42 11 1464 7 2 4350 3156 8 493 5372 3899 9067 3043 2182 131 2 27 4 585 1 979 5 6343 1428 1461 45 4 798 4 4119 246 4724 3 8294 1979 13 2 978 490 491 4903 2 4875 2579 3504 8415 1463 3911 3 0 1201 9980 1 7318 3693 1 44 6860 511 491 6 2 2 2 6 3 5858 2316 10214 2 4124 480 4 4 4603 3 1474 4 2 4 4016 2 5132 4 3 3 983 3984 2777 6799 1344 1706 3 825 5 2 8 2851 2109 5358 1506 2 1033 3 2 2 3 8 5336 1952 4 945 2 3 2 3 3 3 2 502 2054 1 4 885 1952 5216 5607 0 3 3 4 1467 372 753 8 3 3 395 2 10 2 5 1 3 4 3 7 1582 4379 2890 12453 2 1 15292 1 2 5 977 2444 3661 1088 1028 5369 2341 25 6 4151 3 2488 3 2 1 1 4908 1 3739 4 18 11763 4 13 3495 2890 5901 453 490 4 1320 4 2441 2816 4 3895 2439 484 5 8 10735 4 5 978 4 3 6830 2397 2958 4382 20437 3704 4 3 369 5 1 3 6 13284 2103 3 2 1 3 8 566 4 508 2 1989 25 4 4892 1964 1 5607 3 707 229 3 1 28 3668 4 18011 3 4 2 29 5 3 1708 1899 5 6576 3 7554 2 6327 3 2384 3 9722 9923 2 5365 7735 1978 3403 1260 2 495 1341 4 1649 1286 3086 3 1 2 490 3095 6383 3 978 3823 14 1932 1462 1906 2989 6 3947 0 2801 3 3 5 48 16738 1 308 0 1 4 3874 5 25 1 957 986 19 1 1 2 3319 2506 4 1417 470 1392 27 14339 11525 1 4096 774 3 5131 10741 1970 4798 8575 4661 3213 1 1 429 1948 2434 3061 2 2 1873 4 36 16 788 3 0 1728 22440 3 3437 26041 6300 5 3 652 4580 2 52 3 4 1 5 720 6203 8184 977 3 3 3 979 25 2 4573 1952 3947 988 479 1 4046 3824 3 2730 4877 12 4 1130 1142 6249 1955 1949 2930 491 3815 2432 10 1700 14298 4 3898 3 4 3 3 3 795 2 2 18 556 3 161 1457 2 1 4290 974 4424 6996 3 372 4 2 6 4 690 5 3 3 0 4 7461 6078 2 5111 6800 778 4 2 3718 439 7054 1 8355 2 4 3 3 1648 2 2 10 4 978 3 1720 2443 5 968 1991 6 8369 4 4 14 3 3 6823 3 2913 4380 3 4 1 2164 0 12938 2164 3 2923 872 4 2504 9353 1574 2 3 1007 3 110 3006 3 4709 1443 1468 4 1 19385 1 85 3 3 3003 190 3 2 5365 2294 4 1344 844 1 521 2 0 5 240 1 2 1345 1 15259 3 3 6192 701 3 2 2 4513 2 2 2927 3 3 1041 3 3 2121 966 2 4131 929 0 5 1622 4 1715 3 1 2 1 4 24 24 3 3010 876 3 3888 977 489 8 10 5522 2 15444 1 3 13 2 489 11 281 4939 2 23302 0 1 2 506 1 1 2 17598 3 1980 388 1 1 1461 3 493 4 1 5390 1 4 2 11 1922 13 5375 121 1 271 3 1 4 13 1467 4 3 4 1 3 0 6340 3 5 5 0 5075 2270 2726 9 6322 3 3 4 2 50 1 1454 1 3 5 0 2686 3 3 3 8115 1 813 979 3 4286 2934 6741 5 1615 978 2 1 3 1708 2 991 0 2739 2 4 3 2021 3132 2433 20 5854 0 230 1 2892 4 10 7693 1463 3415 2 750 8412 479 0 5855 6194 3 4 4393 2104 240 2 2 2 981 3061 1289 2 954 2 239 3366 6 1948 490 8696 2920 2 1223 37679 4 6 5862 4 1843 6356 4 2566 1949 2523 2443 3013 268 369 1 1931 2978 13 4016 5 14193 1880 3 7 22 2 4 3 1 4457 1 606 2565 1 3 2 1934 2188 3 3183 410 1304 3859 6845 2 3 2 5267 2 3373 3351 3063 1 1 6338 2 1345 2 3 2670 1954 491 3 3131 3127 2922 4 493 3 5563 1211 7 9890 235 4 14644 2920 2852 1949 1471 5 2 1279 0 2 2 255 7298 1470 2 1199 3 14 1366 9060 153 3415 1 1467 2 1466 3305 4 3 4 2669 3602 77 3079 1 2432 6 3 14 2 3 0 490 4460 0 5371 434 1225 2444 730 4 3 2 0 2770 2 4 8138 3 8776 2 5 2 3 3 5496 7315 1 44 12003 0 3 2 9093 3619 978 3 3 1951 2 5 2 7275 5 4 1 10399 1008 0 3 493 1463 1 6474 2 1 8338 504 5 4 4 1934 3376 3 410 4201 1 4412 6411 4879 210 1948 1561 3 3 2 10705 4431 6737 0 3 1466 715 4 3 3197 1927 1 2 492 0 4163 0 3 2879 3354 2 2 1517 1064 1722 7 978 1 15816 2 8 4028 4 1180 95 3 6338 3 77 2 2310 3 5 2710 3 5 2 1 2 115 2 1497 2 9 2616 11090 486 3 5433 8 19 1 2105 3873 742 2089 490 999 1447 7538 5 17771 3 4 3 2 0 3 4 0 2 1 237 468 4 49 2432 2 2 3 4 2 2 982 3 7 1433 3288 12 322 3653 5524 928 6 4 3 3 603 3 6 497 4 2294 2 2065 4 2546 979 2 4 3 25177 7 3 985 3450 4 5 0 9 2290 0 3054 2065 0 4 1468 994 1 3 4 2420 18 0 2384 2 6 3 480 1422 1098 979 6683 2187 622 3 1645 2443 6 31112 2930 5 15359 0 1 32 1 4 12920 319 0 706 3053 4 1497 4 2 0 616 3715 3374 1 2 1 3 5957 2 2 7652 7 4286 18 3483 1912 1 2446 2 6181 2 15020 2 3 2 12 483 2 3 5 1646 970 4 2437 22 10 785 3 25520 11 1 3 1915 104 4 0 
