
*** ChampSim Multicore Out-of-Order Simulator ***

Warmup Instructions: 50000000
Simulation Instructions: 50000000
Number of CPUs: 1
LLC sets: 2048
LLC ways: 16
Off-chip DRAM Size: 4096 MB Channels: 1 Width: 64-bit Data Rate: 6400 MT/s
CPU 0 runs ./micro_traces/srv67.trace.gz
.gz
ITLB has LRU replacement policy
DTLB has LRU replacement policy
STLB has LRU replacement policy
FDIP Prefetcher at L1I
L1I has LRU replacement policy
L1D has LRU replacement policy
Initialize SRRIP state for L2C
Initialize DRRIP state for LLC
Heartbeat CPU 0 instructions: 10000000 cycles: 2795651 heartbeat IPC: 3.57698 cumulative IPC: 3.57698 (Simulation time: 0 hr 1 min 33 sec) 
Heartbeat CPU 0 instructions: 20000003 cycles: 5590883 heartbeat IPC: 3.57752 cumulative IPC: 3.57725 (Simulation time: 0 hr 3 min 6 sec) 
Heartbeat CPU 0 instructions: 30000000 cycles: 8386638 heartbeat IPC: 3.57685 cumulative IPC: 3.57712 (Simulation time: 0 hr 4 min 41 sec) 
Heartbeat CPU 0 instructions: 40000001 cycles: 11182183 heartbeat IPC: 3.57712 cumulative IPC: 3.57712 (Simulation time: 0 hr 6 min 14 sec) 
Heartbeat CPU 0 instructions: 50000000 cycles: 13977634 heartbeat IPC: 3.57724 cumulative IPC: 3.57714 (Simulation time: 0 hr 7 min 46 sec) 

Warmup complete CPU 0 instructions: 50000004 cycles: 13977635 (Simulation time: 0 hr 7 min 46 sec) 

Cycle: 20000000 FTQ IN: 57884390 FTQ occupancy: 19.2023 DECODE IN: 57884325 DECODE occupancy: 49.6656 ROB IN: 57884286 ROB occupancy: 300.592 ROB OUT: 57884152
Heartbeat CPU 0 instructions: 60000003 cycles: 21604101 heartbeat IPC: 1.31122 cumulative IPC: 1.31122 (Simulation time: 0 hr 9 min 21 sec) 
Heartbeat CPU 0 instructions: 70000001 cycles: 29148799 heartbeat IPC: 1.32543 cumulative IPC: 1.31829 (Simulation time: 0 hr 10 min 56 sec) 
Cycle: 30000000 FTQ IN: 13255790 FTQ occupancy: 10.2277 DECODE IN: 13255801 DECODE occupancy: 25.5143 ROB IN: 13255829 ROB occupancy: 191.177 ROB OUT: 13255928
Heartbeat CPU 0 instructions: 80000000 cycles: 36726951 heartbeat IPC: 1.31958 cumulative IPC: 1.31872 (Simulation time: 0 hr 12 min 31 sec) 
Cycle: 40000000 FTQ IN: 13204238 FTQ occupancy: 10.4417 DECODE IN: 13204292 DECODE occupancy: 26.0135 ROB IN: 13204303 ROB occupancy: 193.249 ROB OUT: 13204207
Heartbeat CPU 0 instructions: 90000002 cycles: 44267243 heartbeat IPC: 1.32621 cumulative IPC: 1.32058 (Simulation time: 0 hr 14 min 6 sec) 
Cycle: 50000000 FTQ IN: 13199981 FTQ occupancy: 10.3957 DECODE IN: 13199976 DECODE occupancy: 25.7089 ROB IN: 13199976 ROB occupancy: 189.775 ROB OUT: 13200026
Heartbeat CPU 0 instructions: 100000000 cycles: 51844214 heartbeat IPC: 1.31979 cumulative IPC: 1.32043 (Simulation time: 0 hr 15 min 41 sec) 
Finished CPU 0 instructions: 50000000 cycles: 37866580 cumulative IPC: 1.32043 (Simulation time: 0 hr 15 min 41 sec) 

ChampSim completed all CPUs

Region of Interest Statistics

CPU 0 cumulative IPC: 1.32043 instructions: 50000000 cycles: 37866580
 Fetch stage stalled: 60.9356  Sim cycles: 37866580 fetch stall cycle: 23074217
 Empty decode stage: 44.5002  Sim cycles: 37866580 fetch stall cycle: 16850704
ITLB TOTAL     ACCESS:    5797486  HIT:    5307589  MISS:     489897  HIT %:    91.5498  MISS %:    8.45016   MPKI: 9.79794
ITLB LOAD TRANSLATION INSTRUCTION	ACCESS:    5670407  HIT:    5180510  MISS:     489897  HIT %:    91.3605  MISS %:    8.63954  MPKI: 9.79794
ITLB TRANSLATION FROM L1D PREFETCHER INSTRUCTION	ACCESS:     127079  HIT:     127079  MISS:          0  HIT %:        100  MISS %:          0  MPKI: 0

ITLB AVERAGE MISS LATENCY: 9.05348 cycles
ITLB RQ	ACCESS:    7873113	FORWARD:          0	MERGED:    1625911	TO_CACHE:    6247202

DTLB TOTAL     ACCESS:    9039042  HIT:    8573732  MISS:     465310  HIT %:    94.8522  MISS %:    5.14778   MPKI: 9.3062
DTLB LOAD TRANSLATION DATA	ACCESS:    9039042  HIT:    8573732  MISS:     465310  HIT %:    94.8522  MISS %:    5.14778  MPKI: 9.3062

DTLB AVERAGE MISS LATENCY: 9.34214 cycles
DTLB RQ	ACCESS:   13387917	FORWARD:          0	MERGED:    4312282	TO_CACHE:    9075635

STLB TOTAL     ACCESS:    1210760  HIT:    1208727  MISS:       2033  HIT %:    99.8321  MISS %:   0.167911   MPKI: 0.04066
STLB LOAD TRANSLATION INSTRUCTION	ACCESS:     489897  HIT:     489635  MISS:        262  HIT %:    99.9465  MISS %:  0.0534806  MPKI: 0.00524
STLB LOAD TRANSLATION DATA	ACCESS:     465017  HIT:     463260  MISS:       1757  HIT %:    99.6222  MISS %:   0.377836  MPKI: 0.03514
STLB TRANSLATION FROM L1D PREFETCHER DATA	ACCESS:     255846  HIT:     255832  MISS:         14  HIT %:    99.9945  MISS %: 0.00547204  MPKI: 0.00028

STLB AVERAGE MISS LATENCY: 77.6099 cycles
STLB RQ	ACCESS:    1340989	FORWARD:          0	MERGED:     130193	TO_CACHE:    1210796

STLB Hit, L1D data hit: 0
STLB Hit, L2C data hit: 0
STLB Hit, LLC data hit: 0
STLB Hit, LLC data miss: 0
STLB STLB hints to L2: 0
L1D TOTAL     ACCESS:   13140033  HIT:   12014680  MISS:    1125353  HIT %:    91.4357  MISS %:    8.56431   MPKI: 22.5071
L1D LOAD DATA	ACCESS:    6617115  HIT:    5878239  MISS:     738876  HIT %:    88.8339  MISS %:    11.1661  MPKI: 14.7775
L1D RFO DATA	ACCESS:    6186387  HIT:    5899612  MISS:     286775  HIT %:    95.3644  MISS %:    4.63558  MPKI: 5.7355
L1D PREFETCH DATA	ACCESS:     336531  HIT:     236829  MISS:      99702  HIT %:    70.3736  MISS %:    29.6264  MPKI: 1.99404

L1D PREFETCH  REQUESTED:     771879  ISSUED:     771879  USEFUL:      39558  USELESS:      70159
L1D USEFUL LOAD PREFETCHES:      39558 PREFETCH ISSUED TO LOWER LEVEL:     109789  ACCURACY: 36.0309
 TIMELY PREFETCHES:      39558 LATE PREFETCHES: 10016 DROPPED PREFETCHES: 6
L1D AVERAGE MISS LATENCY: 296617 cycles
L1D RQ	ACCESS:   10740722	FORWARD:          0	MERGED:    3930575	TO_CACHE:    6651176
L1D WQ	ACCESS:    6927607	FORWARD:     159286	MERGED:     190866	TO_CACHE:    6736741
L1D PQ	ACCESS:     386097	FORWARD:          0	MERGED:          0	TO_CACHE:     385782

L1D UNIQUE REGIONS ACCESSED: 0
L1D REGIONS CONFLICTS: 0
L1D Cross Page Prefetch Requests: 5289
L1D Same Page Prefetch Requests: 776424
L1D ROI Sum of L1D PQ occupancy: 4908884
L1D PREFETCHES PUSHED FROM L2C: 0
L1I TOTAL     ACCESS:    7100029  HIT:    4355334  MISS:    2744695  HIT %:    61.3425  MISS %:    38.6575   MPKI: 54.8939
L1I LOAD INSTRUCTION	ACCESS:    6461794  HIT:    3717099  MISS:    2744695  HIT %:    57.5243  MISS %:    42.4757  MPKI: 54.8939
L1I PREFETCH INSTRUCTION	ACCESS:     638235  HIT:     638235  MISS:          0  HIT %:        100  MISS %:          0  MPKI: 0

L1I PREFETCH  REQUESTED:    1508872  ISSUED:    1508872  USEFUL:          0  USELESS:          0
L1I USEFUL LOAD PREFETCHES:          0 PREFETCH ISSUED TO LOWER LEVEL:          0  ACCURACY: -nan
 TIMELY PREFETCHES:          0 LATE PREFETCHES: 0 DROPPED PREFETCHES: 0
L1I AVERAGE MISS LATENCY: 17.0889 cycles
L1I RQ	ACCESS:    9485665	FORWARD:          0	MERGED:    2706241	TO_CACHE:    6779424
L1I PQ	ACCESS:    1508872	FORWARD:          0	MERGED:     415183	TO_CACHE:    1093689

L1BTB TOTAL     ACCESS:    5673242  HIT:    2065979  MISS:    3607263  HIT %:    36.4162  MISS %:    63.5838   MPKI: 72.1453
L1BTB BRANCH_DIRECT_JUMP	ACCESS:     548416  HIT:     145412  MISS:     403004	AVERAGE STALL: 38.4686
L1BTB BRANCH_INDIRECT	ACCESS:     183049  HIT:      66358  MISS:     116691	AVERAGE STALL: 125.342
L1BTB BRANCH_CONDITIONAL	ACCESS:    2727653  HIT:    1440844  MISS:    1286809	AVERAGE STALL: 50.5095
L1BTB BRANCH_DIRECT_CALL	ACCESS:     936625  HIT:     104444  MISS:     832181	AVERAGE STALL: 53.7488
L1BTB BRANCH_INDIRECT_CALL	ACCESS:     170435  HIT:      20878  MISS:     149557	AVERAGE STALL: 142.444
L1BTB BRANCH_RETURN	ACCESS:    1107064  HIT:     288043  MISS:     819021	AVERAGE STALL: 46.9038
L1BTB BRANCH_OTHER ACCESS:          0  HIT:          0  MISS:          0	AVERAGE STALL: -nan
L1BTB TOTAL ROB OCCUPANCY AT BTB MISS: 5.02077

L2BTB1 TOTAL     ACCESS:    3581814  HIT:    3458139  MISS:     123675  HIT %:    96.5471  MISS %:    3.45286   MPKI: 2.4735
L2BTB1 BRANCH_DIRECT_JUMP	ACCESS:     398767  HIT:     390413  MISS:       8354	AVERAGE STALL: 38.4686
L2BTB1 BRANCH_INDIRECT	ACCESS:     106486  HIT:      95614  MISS:      10872	AVERAGE STALL: 125.342
L2BTB1 BRANCH_CONDITIONAL	ACCESS:    1286809  HIT:    1271619  MISS:      15190	AVERAGE STALL: 50.5095
L2BTB1 BRANCH_DIRECT_CALL	ACCESS:     832181  HIT:     809272  MISS:      22909	AVERAGE STALL: 53.7488
L2BTB1 BRANCH_INDIRECT_CALL	ACCESS:     139944  HIT:     126533  MISS:      13411	AVERAGE STALL: 142.444
L2BTB1 BRANCH_RETURN	ACCESS:     817627  HIT:     764688  MISS:      52939	AVERAGE STALL: 46.9038
L2BTB1 BRANCH_OTHER ACCESS:          0  HIT:          0  MISS:          0	AVERAGE STALL: -nan
L2BTB1 TOTAL ROB OCCUPANCY AT BTB MISS: 146.442

L2C TOTAL     ACCESS:    4476550  HIT:    3992605  MISS:     483945  HIT %:    89.1893  MISS %:    10.8107   MPKI: 9.6789
L2C LOAD INSTRUCTION	ACCESS:    2744695  HIT:    2498001  MISS:     246694  HIT %:     91.012  MISS %:    8.98803  MPKI: 4.93388
L2C LOAD TRANSLATION INSTRUCTION	ACCESS:        309  HIT:         75  MISS:        234  HIT %:    24.2718  MISS %:    75.7282  MPKI: 0.00468
L2C LOAD DATA	ACCESS:     728802  HIT:     649079  MISS:      79723  HIT %:    89.0611  MISS %:    10.9389  MPKI: 1.59446
L2C RFO DATA	ACCESS:     286668  HIT:     229171  MISS:      57497  HIT %:     79.943  MISS %:     20.057  MPKI: 1.14994
L2C PREFETCH DATA	ACCESS:     193566  HIT:     115203  MISS:      78363  HIT %:    59.5161  MISS %:    40.4839  MPKI: 1.56726
L2C WRITEBACK DATA	ACCESS:     520640  HIT:     500639  MISS:      20001  HIT %:    96.1584  MISS %:    3.84162  MPKI: 0.40002
L2C LOAD TRANSLATION DATA	ACCESS:       1842  HIT:        416  MISS:       1426  HIT %:    22.5841  MISS %:    77.4159  MPKI: 0.02852
L2C TRANSLATION FROM L1D PREFETCHER DATA	ACCESS:         28  HIT:         21  MISS:          7  HIT %:         75  MISS %:         25  MPKI: 0.00014

L2C PREFETCH  REQUESTED:      91860  ISSUED:      91860  USEFUL:       8164  USELESS:      70740
L2C USEFUL LOAD PREFETCHES:       8164 PREFETCH ISSUED TO LOWER LEVEL:      78783  ACCURACY: 10.3626
 TIMELY PREFETCHES:       8164 LATE PREFETCHES: 420 DROPPED PREFETCHES: 0
L2C AVERAGE MISS LATENCY: 38.9033 cycles
L2C RQ	ACCESS:    3762440	FORWARD:          0	MERGED:          0	TO_CACHE:    3762346
L2C WQ	ACCESS:     520640	FORWARD:         94	MERGED:          0	TO_CACHE:     520640
L2C PQ	ACCESS:     201649	FORWARD:          0	MERGED:       3651	TO_CACHE:     197998

L2C Dense regions hint from L2: 0
PSCL5 TOTAL     ACCESS:       4080  HIT:       2040  MISS:       2040  HIT %:         50  MISS %:         50   MPKI: 0.0408
PSCL5 LOAD TRANSLATION INSTRUCTION	ACCESS:       4024  HIT:       2012  MISS:       2012  HIT %:         50  MISS %:         50  MPKI: 0.04024
PSCL5 TRANSLATION FROM L1D PREFETCHER INSTRUCTION	ACCESS:         56  HIT:         28  MISS:         28  HIT %:         50  MISS %:         50  MPKI: 0.00056


PSCL4 TOTAL     ACCESS:       3920  HIT:       1955  MISS:       1965  HIT %:    49.8724  MISS %:    50.1276   MPKI: 0.0393
PSCL4 LOAD TRANSLATION INSTRUCTION	ACCESS:       2730  HIT:       1931  MISS:        799  HIT %:    70.7326  MISS %:    29.2674  MPKI: 0.01598
PSCL4 TRANSLATION FROM L1D PREFETCHER INSTRUCTION	ACCESS:         35  HIT:         24  MISS:         11  HIT %:    68.5714  MISS %:    31.4286  MPKI: 0.00022
PSCL4 LOAD TRANSLATION DATA	ACCESS:       1142  HIT:          0  MISS:       1142  HIT %:          0  MISS %:        100  MPKI: 0.02284
PSCL4 TRANSLATION FROM L1D PREFETCHER DATA	ACCESS:         13  HIT:          0  MISS:         13  HIT %:          0  MISS %:        100  MPKI: 0.00026


PSCL3 TOTAL     ACCESS:       3996  HIT:       1993  MISS:       2003  HIT %:    49.8749  MISS %:    50.1251   MPKI: 0.04006
PSCL3 LOAD TRANSLATION INSTRUCTION	ACCESS:       2768  HIT:       1969  MISS:        799  HIT %:    71.1344  MISS %:    28.8656  MPKI: 0.01598
PSCL3 TRANSLATION FROM L1D PREFETCHER INSTRUCTION	ACCESS:         35  HIT:         24  MISS:         11  HIT %:    68.5714  MISS %:    31.4286  MPKI: 0.00022
PSCL3 LOAD TRANSLATION DATA	ACCESS:       1180  HIT:          0  MISS:       1180  HIT %:          0  MISS %:        100  MPKI: 0.0236
PSCL3 TRANSLATION FROM L1D PREFETCHER DATA	ACCESS:         13  HIT:          0  MISS:         13  HIT %:          0  MISS %:        100  MPKI: 0.00026


PSCL2 TOTAL     ACCESS:       3961  HIT:       1921  MISS:       2040  HIT %:    48.4979  MISS %:    51.5021   MPKI: 0.0408
PSCL2 LOAD TRANSLATION INSTRUCTION	ACCESS:       2156  HIT:       1893  MISS:        263  HIT %:    87.8015  MISS %:    12.1985  MPKI: 0.00526
PSCL2 TRANSLATION FROM L1D PREFETCHER INSTRUCTION	ACCESS:         28  HIT:         28  MISS:          0  HIT %:        100  MISS %:          0  MPKI: 0
PSCL2 LOAD TRANSLATION DATA	ACCESS:       1749  HIT:          0  MISS:       1749  HIT %:          0  MISS %:        100  MPKI: 0.03498
PSCL2 TRANSLATION FROM L1D PREFETCHER DATA	ACCESS:         28  HIT:          0  MISS:         28  HIT %:          0  MISS %:        100  MPKI: 0.00056


LLC TOTAL     ACCESS:     544901  HIT:     514274  MISS:      30627  HIT %:    94.3793  MISS %:    5.62065   MPKI: 0.61254
LLC LOAD INSTRUCTION	ACCESS:     246694  HIT:     245585  MISS:       1109  HIT %:    99.5505  MISS %:   0.449545  MPKI: 0.02218
LLC LOAD TRANSLATION INSTRUCTION	ACCESS:        234  HIT:        201  MISS:         33  HIT %:    85.8974  MISS %:    14.1026  MPKI: 0.00066
LLC LOAD DATA	ACCESS:      79363  HIT:      75807  MISS:       3556  HIT %:    95.5193  MISS %:    4.48068  MPKI: 0.07112
LLC RFO DATA	ACCESS:      57432  HIT:      41866  MISS:      15566  HIT %:    72.8966  MISS %:    27.1034  MPKI: 0.31132
LLC PREFETCH DATA	ACCESS:      78783  HIT:      68945  MISS:       9838  HIT %:    87.5125  MISS %:    12.4875  MPKI: 0.19676
LLC WRITEBACK DATA	ACCESS:      80962  HIT:      80520  MISS:        442  HIT %:    99.4541  MISS %:   0.545935  MPKI: 0.00884
LLC LOAD TRANSLATION DATA	ACCESS:       1426  HIT:       1343  MISS:         83  HIT %:    94.1795  MISS %:    5.82048  MPKI: 0.00166
LLC TRANSLATION FROM L1D PREFETCHER DATA	ACCESS:          7  HIT:          7  MISS:          0  HIT %:        100  MISS %:          0  MPKI: 0

LLC AVERAGE MISS LATENCY: 158.964 cycles
LLC RQ	ACCESS:     385161	FORWARD:          0	MERGED:          0	TO_CACHE:     385156
LLC WQ	ACCESS:      80962	FORWARD:          5	MERGED:          0	TO_CACHE:      80962
LLC PQ	ACCESS:      78783	FORWARD:          0	MERGED:          0	TO_CACHE:      78783

LLC Dense regions hint to LLC: 0

RAW hits: 1890910
Loads Generated: 12631632
Loads sent to L1D: 10740722
Stores Generated: 6927584
Stores sent to L1D: 6927607
Major fault: 0 Minor fault: 2540
Allocated PAGES: 2540

stream: 
stream:times selected: 1216557
stream:pref_filled: 124988
stream:pref_useful: 26228
stream:pref_late: 7962
stream:misses: 9265
stream:misses_by_poll: 0

CS: 
CS:times selected: 187661
CS:pref_filled: 64431
CS:pref_useful: 40371
CS:pref_late: 8175
CS:misses: 19916
CS:misses_by_poll: 7

CPLX: 
CPLX:times selected: 1027782
CPLX:pref_filled: 21939
CPLX:pref_useful: 5878
CPLX:pref_late: 3043
CPLX:misses: 105915
CPLX:misses_by_poll: 13

NL_L1: 
NL:times selected: 13235
NL:pref_filled: 626
NL:pref_useful: 154
NL:pref_late: 362
NL:misses: 1198
NL:misses_by_poll: 0

total selections: 2445235
total_filled: 99702
total_useful: 39558
total_late: 21136
total_polluted: 20
total_misses_after_warmup: 772940
conflicts: 5531655

test: 117142

DRAM Statistics
 CHANNEL 0
 RQ ROW_BUFFER_HIT:      11418  ROW_BUFFER_MISS:      18761
 DBUS_CONGESTED:         15
 WQ ROW_BUFFER_HIT:       1556  ROW_BUFFER_MISS:      13099  FULL:          0

 AVG_CONGESTED_CYCLE: 5

CPU 0 Branch Prediction Accuracy: 99.8196% MPKI: 0.32972 Average ROB Occupancy at Mispredict: 174.07
Branch types
NOT_BRANCH: 40858539 81.7171%
BRANCH_DIRECT_JUMP: 548416 1.09683%
BRANCH_INDIRECT: 183049 0.366098%
BRANCH_CONDITIONAL: 6195464 12.3909%
BRANCH_DIRECT_CALL: 936625 1.87325%
BRANCH_INDIRECT_CALL: 170435 0.34087%
BRANCH_RETURN: 1107064 2.21413%
BRANCH_OTHER: 0 0%

DRAM PAGES: 1048576
Allocated PAGES: 2540
Average_ROB_Occupancy: 192.292
Average_Decode_Occupancy: 25.7078
Average_FTQ_Occupancy: 10.3565
Indirect max targets: 14 Average targets: 1.14626
Branch_type:  BRANCH_DIRECT_JUMP:  Count Percentage: 2.91457 6.24774 4.36172 8.78922 2.61495 6.18616 2.02437 66.8613 
Branch_type:  BRANCH_INDIRECT:  Count Percentage: 11.7421 3.44129 2.56447 3.72854 3.34079 4.01059 3.19922 67.973 
Branch_type:  BRANCH_CONDITIONAL:  Count Percentage: 20.8858 3.31184 5.57626 4.81141 1.72276 4.74575 0.898457 58.0477 
Branch_type:  BRANCH_DIRECT_CALL:  Count Percentage: 0.260141 1.75857 1.45318 3.89568 2.55866 3.42186 0.773564 85.8783 
Branch_type:  BRANCH_INDIRECT_CALL:  Count Percentage: 9.53118 0 2.98569 5.40252 0 4.04247 0.99747 77.0407 
Branch_type:  BRANCH_RETURN:  Count Percentage: 3.48072 1.56671 5.99763 3.11507 3.38243 5.64313 1.43177 75.3825 
Branch_type:  BRANCH_DIRECT_JUMP:  Total Count: 31896 68373 47733 96186 28617 67699 22154 731705 
Branch_type:  BRANCH_INDIRECT:  Total Count: 42880 12567 9365 13616 12200 14646 11683 248226 
Branch_type:  BRANCH_CONDITIONAL:  Total Count: 2585868 410039 690397 595701 213295 587571 111238 7186890 
Branch_type:  BRANCH_DIRECT_CALL:  Total Count: 4893 33077 27333 73274 48126 64362 14550 1615290 
Branch_type:  BRANCH_INDIRECT_CALL:  Total Count: 32622 0 10219 18491 0 13836 3414 263684 
Branch_type:  BRANCH_RETURN:  Total Count: 77410 34843 133385 69278 75224 125501 31842 1676479 
Number of unique branch instructions: 9822
Upper 32 bits: 
aaaa
ffff
ffff0000
Unique upper 32 bits: 3
Unique upper 36 bits: 3
Unique upper 40 bits: 5
Unique upper 44 bits: 32
Unique upper 48 bits: 154
Offset_3 4059
Offset_4 250
Offset_5 446
Offset_6 502
Offset_7 578
Offset_8 496
Offset_9 465
Offset_10 379
Offset_11 305
Offset_12 270
Offset_13 197
Offset_14 227
Offset_15 184
Offset_16 221
Offset_17 141
Offset_18 118
Offset_19 234
Offset_20 137
Offset_21 235
Offset_22 392
Offset_23 243
Offset_24 324
Offset_25 88
Offset_47 80
decode_dispatch_called: 22724030 60.0108
Dispatch_width: 0 11971550 52.6823 31.6151
Dispatch_width: 1 692201 3.04612 1.828
Dispatch_width: 2 694757 3.05737 1.83475
Dispatch_width: 3 425524 1.87257 1.12375
Dispatch_width: 4 3390400 14.9199 8.95354
Dispatch_width: 5 217744 0.95821 0.575029
Dispatch_width: 6 5331854 23.4635 14.0806
Empty_decode_cycles: 15142550 39.9892
ROB_full_cycles: 5381751 14.2124
Starvation_cycles_per_kilo_instr: 271.53
Starvation_cycles_per_kilo_instr_3: 235.448
Starvation_cycles_per_kilo_instr_0: 217.323
Branch_type_1  (3,1)  (4,9)  (5,37)  (6,70)  (7,115)  (8,126)  (9,124)  (10,97)  (11,67)  (12,43)  (13,5)  (14,2)  (15,3)  (16,4)  (18,1)  (19,4)  (20,2)  (21,1)  (22,3)  (23,2)  (24,10)  (25,12) 
Branch_type_2  (3,1)  (5,1)  (8,3)  (9,3)  (12,1)  (13,1)  (14,1)  (16,3)  (17,2)  (20,2)  (21,2)  (23,5)  (24,1)  (47,36) 
Branch_type_3  (3,4057)  (4,241)  (5,404)  (6,417)  (7,433)  (8,307)  (9,254)  (10,152)  (11,122)  (12,50)  (13,4) 
Branch_type_4  (6,3)  (7,8)  (8,25)  (9,52)  (10,62)  (11,59)  (12,97)  (13,85)  (14,100)  (15,86)  (16,99)  (17,63)  (18,53)  (19,114)  (20,72)  (21,124)  (22,208)  (23,137)  (24,185)  (25,72) 
Branch_type_5  (8,2)  (9,1)  (10,3)  (11,5)  (12,3)  (13,14)  (14,16)  (15,11)  (16,20)  (17,11)  (18,16)  (19,12)  (20,10)  (21,13)  (22,42)  (23,26)  (24,37) 
Branch_type_6  (5,4)  (6,12)  (7,22)  (8,33)  (9,31)  (10,65)  (11,52)  (12,76)  (13,88)  (14,108)  (15,84)  (16,95)  (17,65)  (18,48)  (19,104)  (20,51)  (21,95)  (22,139)  (23,73)  (24,91)  (25,4)  (47,44) 
Unique trigger count: 
L2BTB1 1536 4
L2BTB2 1536 4
L2BTB3 1536 4
L2BTB4 224 4
