
*** ChampSim Multicore Out-of-Order Simulator ***

Warmup Instructions: 50000000
Simulation Instructions: 50000000
Number of CPUs: 1
LLC sets: 2048
LLC ways: 16
Off-chip DRAM Size: 4096 MB Channels: 1 Width: 64-bit Data Rate: 6400 MT/s
CPU 0 runs ./micro_traces/srv67.trace.gz
.gz
ITLB has LRU replacement policy
DTLB has LRU replacement policy
STLB has LRU replacement policy
FDIP Prefetcher at L1I
L1I has LRU replacement policy
L1D has LRU replacement policy
Initialize SRRIP state for L2C
Initialize DRRIP state for LLC
Heartbeat CPU 0 instructions: 10000000 cycles: 2795651 heartbeat IPC: 3.57698 cumulative IPC: 3.57698 (Simulation time: 0 hr 3 min 1 sec) 
Heartbeat CPU 0 instructions: 20000003 cycles: 5590883 heartbeat IPC: 3.57752 cumulative IPC: 3.57725 (Simulation time: 0 hr 4 min 52 sec) 
Heartbeat CPU 0 instructions: 30000000 cycles: 8386638 heartbeat IPC: 3.57685 cumulative IPC: 3.57712 (Simulation time: 0 hr 6 min 42 sec) 
Heartbeat CPU 0 instructions: 40000001 cycles: 11182183 heartbeat IPC: 3.57712 cumulative IPC: 3.57712 (Simulation time: 0 hr 8 min 38 sec) 
Heartbeat CPU 0 instructions: 50000000 cycles: 13977634 heartbeat IPC: 3.57724 cumulative IPC: 3.57714 (Simulation time: 0 hr 10 min 41 sec) 

Warmup complete CPU 0 instructions: 50000004 cycles: 13977635 (Simulation time: 0 hr 10 min 41 sec) 

Cycle: 20000000 FTQ IN: 58188477 FTQ occupancy: 19.9412 DECODE IN: 58188363 DECODE occupancy: 51.6397 ROB IN: 58188303 ROB occupancy: 311.403 ROB OUT: 58187951
Heartbeat CPU 0 instructions: 60000003 cycles: 21325063 heartbeat IPC: 1.36102 cumulative IPC: 1.36102 (Simulation time: 0 hr 12 min 46 sec) 
Heartbeat CPU 0 instructions: 70000000 cycles: 28600525 heartbeat IPC: 1.37448 cumulative IPC: 1.36772 (Simulation time: 0 hr 14 min 47 sec) 
Cycle: 30000000 FTQ IN: 13758852 FTQ occupancy: 12.8246 DECODE IN: 13758962 DECODE occupancy: 32.5692 ROB IN: 13759022 ROB occupancy: 226.866 ROB OUT: 13759292
Heartbeat CPU 0 instructions: 80000000 cycles: 35912200 heartbeat IPC: 1.36768 cumulative IPC: 1.3677 (Simulation time: 0 hr 17 min 5 sec) 
Cycle: 40000000 FTQ IN: 13652188 FTQ occupancy: 12.989 DECODE IN: 13652161 DECODE occupancy: 32.7979 ROB IN: 13652101 ROB occupancy: 226.607 ROB OUT: 13651832
Heartbeat CPU 0 instructions: 90000002 cycles: 43185137 heartbeat IPC: 1.37496 cumulative IPC: 1.36951 (Simulation time: 0 hr 19 min 19 sec) 
Cycle: 50000000 FTQ IN: 13726279 FTQ occupancy: 12.9237 DECODE IN: 13726301 DECODE occupancy: 32.5669 ROB IN: 13726361 ROB occupancy: 226.776 ROB OUT: 13726707
Heartbeat CPU 0 instructions: 100000000 cycles: 50484468 heartbeat IPC: 1.36999 cumulative IPC: 1.36961 (Simulation time: 0 hr 21 min 24 sec) 
Finished CPU 0 instructions: 50000000 cycles: 36506834 cumulative IPC: 1.36961 (Simulation time: 0 hr 21 min 24 sec) 

ChampSim completed all CPUs

Region of Interest Statistics

CPU 0 cumulative IPC: 1.36961 instructions: 50000000 cycles: 36506834
 Fetch stage stalled: 52.515  Sim cycles: 36506834 fetch stall cycle: 19171551
 Empty decode stage: 33.6394  Sim cycles: 36506834 fetch stall cycle: 12280690
ITLB TOTAL     ACCESS:    5745672  HIT:    5255693  MISS:     489979  HIT %:    91.4722  MISS %:    8.52779   MPKI: 9.79958
ITLB LOAD TRANSLATION INSTRUCTION	ACCESS:    5609214  HIT:    5119235  MISS:     489979  HIT %:    91.2647  MISS %:    8.73525  MPKI: 9.79958
ITLB TRANSLATION FROM L1D PREFETCHER INSTRUCTION	ACCESS:     136458  HIT:     136458  MISS:          0  HIT %:        100  MISS %:          0  MPKI: 0

ITLB AVERAGE MISS LATENCY: 9.06015 cycles
ITLB RQ	ACCESS:    7804777	FORWARD:          0	MERGED:    1571825	TO_CACHE:    6232952

DTLB TOTAL     ACCESS:    8969193  HIT:    8504255  MISS:     464938  HIT %:    94.8163  MISS %:    5.18372   MPKI: 9.29876
DTLB LOAD TRANSLATION DATA	ACCESS:    8969193  HIT:    8504255  MISS:     464938  HIT %:    94.8163  MISS %:    5.18372  MPKI: 9.29876

DTLB AVERAGE MISS LATENCY: 9.34317 cycles
DTLB RQ	ACCESS:   13329597	FORWARD:          0	MERGED:    4323094	TO_CACHE:    9006503

STLB TOTAL     ACCESS:    1209951  HIT:    1207919  MISS:       2032  HIT %:    99.8321  MISS %:   0.167941   MPKI: 0.04064
STLB LOAD TRANSLATION INSTRUCTION	ACCESS:     489979  HIT:     489717  MISS:        262  HIT %:    99.9465  MISS %:  0.0534717  MPKI: 0.00524
STLB LOAD TRANSLATION DATA	ACCESS:     464937  HIT:     463178  MISS:       1759  HIT %:    99.6217  MISS %:   0.378331  MPKI: 0.03518
STLB TRANSLATION FROM L1D PREFETCHER DATA	ACCESS:     255035  HIT:     255024  MISS:         11  HIT %:    99.9957  MISS %: 0.00431313  MPKI: 0.00022

STLB AVERAGE MISS LATENCY: 79.2495 cycles
STLB RQ	ACCESS:    1340597	FORWARD:          0	MERGED:     130605	TO_CACHE:    1209992

STLB Hit, L1D data hit: 0
STLB Hit, L2C data hit: 0
STLB Hit, LLC data hit: 0
STLB Hit, LLC data miss: 0
STLB STLB hints to L2: 0
L1D TOTAL     ACCESS:   13080516  HIT:   11955523  MISS:    1124993  HIT %:    91.3995  MISS %:    8.60052   MPKI: 22.4999
L1D LOAD DATA	ACCESS:    6561739  HIT:    5822381  MISS:     739358  HIT %:    88.7323  MISS %:    11.2677  MPKI: 14.7872
L1D RFO DATA	ACCESS:    6181884  HIT:    5895729  MISS:     286155  HIT %:    95.3711  MISS %:    4.62893  MPKI: 5.7231
L1D PREFETCH DATA	ACCESS:     336893  HIT:     237413  MISS:      99480  HIT %:    70.4713  MISS %:    29.5287  MPKI: 1.9896

L1D PREFETCH  REQUESTED:     771676  ISSUED:     771676  USEFUL:      39540  USELESS:      69968
L1D USEFUL LOAD PREFETCHES:      39540 PREFETCH ISSUED TO LOWER LEVEL:     109601  ACCURACY: 36.0763
 TIMELY PREFETCHES:      39540 LATE PREFETCHES: 10029 DROPPED PREFETCHES: 4
L1D AVERAGE MISS LATENCY: 291244 cycles
L1D RQ	ACCESS:   10703237	FORWARD:          0	MERGED:    3944450	TO_CACHE:    6596112
L1D WQ	ACCESS:    6927607	FORWARD:     162993	MERGED:     194122	TO_CACHE:    6733485
L1D PQ	ACCESS:     385997	FORWARD:          0	MERGED:          0	TO_CACHE:     385679

L1D UNIQUE REGIONS ACCESSED: 0
L1D REGIONS CONFLICTS: 0
L1D Cross Page Prefetch Requests: 5321
L1D Same Page Prefetch Requests: 776292
L1D ROI Sum of L1D PQ occupancy: 4909351
L1D PREFETCHES PUSHED FROM L2C: 0
L1I TOTAL     ACCESS:    7030003  HIT:    4285132  MISS:    2744871  HIT %:    60.9549  MISS %:    39.0451   MPKI: 54.8974
L1I LOAD INSTRUCTION	ACCESS:    6392243  HIT:    3647372  MISS:    2744871  HIT %:    57.0593  MISS %:    42.9407  MPKI: 54.8974
L1I PREFETCH INSTRUCTION	ACCESS:     637760  HIT:     637760  MISS:          0  HIT %:        100  MISS %:          0  MPKI: 0

L1I PREFETCH  REQUESTED:    1536251  ISSUED:    1536251  USEFUL:          0  USELESS:          0
L1I USEFUL LOAD PREFETCHES:          0 PREFETCH ISSUED TO LOWER LEVEL:          0  ACCURACY: -nan
 TIMELY PREFETCHES:          0 LATE PREFETCHES: 0 DROPPED PREFETCHES: 0
L1I AVERAGE MISS LATENCY: 17.1519 cycles
L1I RQ	ACCESS:    9537461	FORWARD:          0	MERGED:    2852404	TO_CACHE:    6685057
L1I PQ	ACCESS:    1536251	FORWARD:          0	MERGED:     416531	TO_CACHE:    1119720

L1BTB TOTAL     ACCESS:    5674012  HIT:    2066751  MISS:    3607261  HIT %:    36.4249  MISS %:    63.5751   MPKI: 72.1452
L1BTB BRANCH_DIRECT_JUMP	ACCESS:     548416  HIT:     145415  MISS:     403001	AVERAGE STALL: 53.8704
L1BTB BRANCH_INDIRECT	ACCESS:     183049  HIT:      66357  MISS:     116692	AVERAGE STALL: 109.733
L1BTB BRANCH_CONDITIONAL	ACCESS:    2728420  HIT:    1441608  MISS:    1286812	AVERAGE STALL: 62.5619
L1BTB BRANCH_DIRECT_CALL	ACCESS:     936627  HIT:     104446  MISS:     832181	AVERAGE STALL: 70.5559
L1BTB BRANCH_INDIRECT_CALL	ACCESS:     170435  HIT:      20878  MISS:     149557	AVERAGE STALL: 138.723
L1BTB BRANCH_RETURN	ACCESS:    1107065  HIT:     288047  MISS:     819018	AVERAGE STALL: 50.5372
L1BTB BRANCH_OTHER ACCESS:          0  HIT:          0  MISS:          0	AVERAGE STALL: -nan
L1BTB TOTAL ROB OCCUPANCY AT BTB MISS: 5.46332

L2BTB TOTAL     ACCESS:    3581825  HIT:    3468793  MISS:     113032  HIT %:    96.8443  MISS %:    3.15571   MPKI: 2.26064
L2BTB BRANCH_DIRECT_JUMP	ACCESS:     398764  HIT:     388638  MISS:      10126	AVERAGE STALL: 53.8704
L2BTB BRANCH_INDIRECT	ACCESS:     106500  HIT:     103139  MISS:       3361	AVERAGE STALL: 109.733
L2BTB BRANCH_CONDITIONAL	ACCESS:    1286812  HIT:    1263585  MISS:      23227	AVERAGE STALL: 62.5619
L2BTB BRANCH_DIRECT_CALL	ACCESS:     832181  HIT:     815074  MISS:      17107	AVERAGE STALL: 70.5559
L2BTB BRANCH_INDIRECT_CALL	ACCESS:     139944  HIT:     128116  MISS:      11828	AVERAGE STALL: 138.723
L2BTB BRANCH_RETURN	ACCESS:     817624  HIT:     770241  MISS:      47383	AVERAGE STALL: 50.5372
L2BTB BRANCH_OTHER ACCESS:          0  HIT:          0  MISS:          0	AVERAGE STALL: -nan
L2BTB TOTAL ROB OCCUPANCY AT BTB MISS: 174.354

L2C TOTAL     ACCESS:    4476761  HIT:    3992811  MISS:     483950  HIT %:    89.1897  MISS %:    10.8103   MPKI: 9.679
L2C LOAD INSTRUCTION	ACCESS:    2744871  HIT:    2498509  MISS:     246362  HIT %:    91.0246  MISS %:    8.97536  MPKI: 4.92724
L2C LOAD TRANSLATION INSTRUCTION	ACCESS:        309  HIT:         73  MISS:        236  HIT %:    23.6246  MISS %:    76.3754  MPKI: 0.00472
L2C LOAD DATA	ACCESS:     729302  HIT:     649244  MISS:      80058  HIT %:    89.0227  MISS %:    10.9773  MPKI: 1.60116
L2C RFO DATA	ACCESS:     286033  HIT:     228429  MISS:      57604  HIT %:    79.8611  MISS %:    20.1389  MPKI: 1.15208
L2C PREFETCH DATA	ACCESS:     193816  HIT:     115642  MISS:      78174  HIT %:    59.6659  MISS %:    40.3341  MPKI: 1.56348
L2C WRITEBACK DATA	ACCESS:     520562  HIT:     500477  MISS:      20085  HIT %:    96.1417  MISS %:    3.85833  MPKI: 0.4017
L2C LOAD TRANSLATION DATA	ACCESS:       1838  HIT:        421  MISS:       1417  HIT %:    22.9053  MISS %:    77.0947  MPKI: 0.02834
L2C TRANSLATION FROM L1D PREFETCHER DATA	ACCESS:         30  HIT:         16  MISS:         14  HIT %:    53.3333  MISS %:    46.6667  MPKI: 0.00028

L2C PREFETCH  REQUESTED:      92281  ISSUED:      92281  USEFUL:       8098  USELESS:      70580
L2C USEFUL LOAD PREFETCHES:       8098 PREFETCH ISSUED TO LOWER LEVEL:      78547  ACCURACY: 10.3098
 TIMELY PREFETCHES:       8098 LATE PREFETCHES: 373 DROPPED PREFETCHES: 0
L2C AVERAGE MISS LATENCY: 38.9355 cycles
L2C RQ	ACCESS:    3762441	FORWARD:          0	MERGED:          0	TO_CACHE:    3762385
L2C WQ	ACCESS:     520563	FORWARD:         56	MERGED:          0	TO_CACHE:     520563
L2C PQ	ACCESS:     201882	FORWARD:          0	MERGED:       3669	TO_CACHE:     198213

L2C Dense regions hint from L2: 0
PSCL5 TOTAL     ACCESS:       4076  HIT:       2038  MISS:       2038  HIT %:         50  MISS %:         50   MPKI: 0.04076
PSCL5 LOAD TRANSLATION INSTRUCTION	ACCESS:       4016  HIT:       2008  MISS:       2008  HIT %:         50  MISS %:         50  MPKI: 0.04016
PSCL5 TRANSLATION FROM L1D PREFETCHER INSTRUCTION	ACCESS:         60  HIT:         30  MISS:         30  HIT %:         50  MISS %:         50  MPKI: 0.0006


PSCL4 TOTAL     ACCESS:       3916  HIT:       1953  MISS:       1963  HIT %:    49.8723  MISS %:    50.1277   MPKI: 0.03926
PSCL4 LOAD TRANSLATION INSTRUCTION	ACCESS:       2733  HIT:       1933  MISS:        800  HIT %:    70.7281  MISS %:    29.2719  MPKI: 0.016
PSCL4 TRANSLATION FROM L1D PREFETCHER INSTRUCTION	ACCESS:         28  HIT:         20  MISS:          8  HIT %:    71.4286  MISS %:    28.5714  MPKI: 0.00016
PSCL4 LOAD TRANSLATION DATA	ACCESS:       1143  HIT:          0  MISS:       1143  HIT %:          0  MISS %:        100  MPKI: 0.02286
PSCL4 TRANSLATION FROM L1D PREFETCHER DATA	ACCESS:         12  HIT:          0  MISS:         12  HIT %:          0  MISS %:        100  MPKI: 0.00024


PSCL3 TOTAL     ACCESS:       3992  HIT:       1991  MISS:       2001  HIT %:    49.8747  MISS %:    50.1253   MPKI: 0.04002
PSCL3 LOAD TRANSLATION INSTRUCTION	ACCESS:       2771  HIT:       1971  MISS:        800  HIT %:    71.1296  MISS %:    28.8704  MPKI: 0.016
PSCL3 TRANSLATION FROM L1D PREFETCHER INSTRUCTION	ACCESS:         28  HIT:         20  MISS:          8  HIT %:    71.4286  MISS %:    28.5714  MPKI: 0.00016
PSCL3 LOAD TRANSLATION DATA	ACCESS:       1181  HIT:          0  MISS:       1181  HIT %:          0  MISS %:        100  MPKI: 0.02362
PSCL3 TRANSLATION FROM L1D PREFETCHER DATA	ACCESS:         12  HIT:          0  MISS:         12  HIT %:          0  MISS %:        100  MPKI: 0.00024


PSCL2 TOTAL     ACCESS:       3957  HIT:       1919  MISS:       2038  HIT %:    48.4963  MISS %:    51.5037   MPKI: 0.04076
PSCL2 LOAD TRANSLATION INSTRUCTION	ACCESS:       2152  HIT:       1889  MISS:        263  HIT %:    87.7788  MISS %:    12.2212  MPKI: 0.00526
PSCL2 TRANSLATION FROM L1D PREFETCHER INSTRUCTION	ACCESS:         30  HIT:         30  MISS:          0  HIT %:        100  MISS %:          0  MPKI: 0
PSCL2 LOAD TRANSLATION DATA	ACCESS:       1745  HIT:          0  MISS:       1745  HIT %:          0  MISS %:        100  MPKI: 0.0349
PSCL2 TRANSLATION FROM L1D PREFETCHER DATA	ACCESS:         30  HIT:          0  MISS:         30  HIT %:          0  MISS %:        100  MPKI: 0.0006


LLC TOTAL     ACCESS:     544970  HIT:     514400  MISS:      30570  HIT %:    94.3905  MISS %:    5.60948   MPKI: 0.6114
LLC LOAD INSTRUCTION	ACCESS:     246362  HIT:     245257  MISS:       1105  HIT %:    99.5515  MISS %:   0.448527  MPKI: 0.0221
LLC LOAD TRANSLATION INSTRUCTION	ACCESS:        236  HIT:        202  MISS:         34  HIT %:    85.5932  MISS %:    14.4068  MPKI: 0.00068
LLC LOAD DATA	ACCESS:      79718  HIT:      76174  MISS:       3544  HIT %:    95.5543  MISS %:    4.44567  MPKI: 0.07088
LLC RFO DATA	ACCESS:      57562  HIT:      42013  MISS:      15549  HIT %:    72.9874  MISS %:    27.0126  MPKI: 0.31098
LLC PREFETCH DATA	ACCESS:      78547  HIT:      68701  MISS:       9846  HIT %:    87.4648  MISS %:    12.5352  MPKI: 0.19692
LLC WRITEBACK DATA	ACCESS:      81114  HIT:      80702  MISS:        412  HIT %:    99.4921  MISS %:   0.507927  MPKI: 0.00824
LLC LOAD TRANSLATION DATA	ACCESS:       1417  HIT:       1337  MISS:         80  HIT %:    94.3543  MISS %:    5.64573  MPKI: 0.0016
LLC TRANSLATION FROM L1D PREFETCHER DATA	ACCESS:         14  HIT:         14  MISS:          0  HIT %:        100  MISS %:          0  MPKI: 0

LLC AVERAGE MISS LATENCY: 159.627 cycles
LLC RQ	ACCESS:     385318	FORWARD:          0	MERGED:          0	TO_CACHE:     385309
LLC WQ	ACCESS:      81115	FORWARD:          9	MERGED:          0	TO_CACHE:      81115
LLC PQ	ACCESS:      78547	FORWARD:          0	MERGED:          0	TO_CACHE:      78547

LLC Dense regions hint to LLC: 0

RAW hits: 1928395
Loads Generated: 12631632
Loads sent to L1D: 10703237
Stores Generated: 6927584
Stores sent to L1D: 6927607
Major fault: 0 Minor fault: 2540
Allocated PAGES: 2540

stream: 
stream:times selected: 1213746
stream:pref_filled: 124707
stream:pref_useful: 26108
stream:pref_late: 7882
stream:misses: 9337
stream:misses_by_poll: 0

CS: 
CS:times selected: 185717
CS:pref_filled: 64637
CS:pref_useful: 40382
CS:pref_late: 8277
CS:misses: 19975
CS:misses_by_poll: 3

CPLX: 
CPLX:times selected: 1026907
CPLX:pref_filled: 21737
CPLX:pref_useful: 5956
CPLX:pref_late: 3106
CPLX:misses: 105623
CPLX:misses_by_poll: 26

NL_L1: 
NL:times selected: 13282
NL:pref_filled: 664
NL:pref_useful: 157
NL:pref_late: 359
NL:misses: 1238
NL:misses_by_poll: 0

total selections: 2439652
total_filled: 99480
total_useful: 39540
total_late: 21149
total_polluted: 29
total_misses_after_warmup: 773734
conflicts: 5506542

test: 117376

DRAM Statistics
 CHANNEL 0
 RQ ROW_BUFFER_HIT:      11430  ROW_BUFFER_MISS:      18722
 DBUS_CONGESTED:         10
 WQ ROW_BUFFER_HIT:       1582  ROW_BUFFER_MISS:      13041  FULL:          0

 AVG_CONGESTED_CYCLE: 5

CPU 0 Branch Prediction Accuracy: 99.8196% MPKI: 0.32972 Average ROB Occupancy at Mispredict: 189.026
Branch types
NOT_BRANCH: 40858578 81.7172%
BRANCH_DIRECT_JUMP: 548416 1.09683%
BRANCH_INDIRECT: 183049 0.366098%
BRANCH_CONDITIONAL: 6195470 12.3909%
BRANCH_DIRECT_CALL: 936627 1.87325%
BRANCH_INDIRECT_CALL: 170435 0.34087%
BRANCH_RETURN: 1107065 2.21413%
BRANCH_OTHER: 0 0%

DRAM PAGES: 1048576
Allocated PAGES: 2540
Average_ROB_Occupancy: 227.598
Average_Decode_Occupancy: 32.53
Average_FTQ_Occupancy: 12.8919
Indirect max targets: 14 Average targets: 1.14626
Branch_type:  BRANCH_DIRECT_JUMP:  Count Percentage: 2.91457 6.24774 4.36172 8.78922 2.61495 6.18616 2.02437 66.8613 
Branch_type:  BRANCH_INDIRECT:  Count Percentage: 11.7421 3.44129 2.56447 3.72854 3.34079 4.01059 3.19922 67.973 
Branch_type:  BRANCH_CONDITIONAL:  Count Percentage: 20.8858 3.31184 5.57626 4.81141 1.72276 4.74575 0.898457 58.0478 
Branch_type:  BRANCH_DIRECT_CALL:  Count Percentage: 0.26014 1.75857 1.45318 3.89567 2.55866 3.42186 0.773563 85.8784 
Branch_type:  BRANCH_INDIRECT_CALL:  Count Percentage: 9.53118 0 2.98569 5.40252 0 4.04247 0.99747 77.0407 
Branch_type:  BRANCH_RETURN:  Count Percentage: 3.48077 1.56671 5.99763 3.11507 3.38243 5.64312 1.43177 75.3825 
Branch_type:  BRANCH_DIRECT_JUMP:  Total Count: 31896 68373 47733 96186 28617 67699 22154 731705 
Branch_type:  BRANCH_INDIRECT:  Total Count: 42880 12567 9365 13616 12200 14646 11683 248226 
Branch_type:  BRANCH_CONDITIONAL:  Total Count: 2585868 410039 690397 595701 213295 587571 111238 7186896 
Branch_type:  BRANCH_DIRECT_CALL:  Total Count: 4893 33077 27333 73274 48126 64362 14550 1615292 
Branch_type:  BRANCH_INDIRECT_CALL:  Total Count: 32622 0 10219 18491 0 13836 3414 263684 
Branch_type:  BRANCH_RETURN:  Total Count: 77411 34843 133385 69278 75224 125501 31842 1676479 
Number of unique branch instructions: 9822
Upper 32 bits: 
aaaa
ffff
ffff0000
Unique upper 32 bits: 3
Unique upper 36 bits: 3
Unique upper 40 bits: 5
Unique upper 44 bits: 32
Unique upper 48 bits: 154
Offset_3 4059
Offset_4 250
Offset_5 446
Offset_6 502
Offset_7 578
Offset_8 496
Offset_9 465
Offset_10 379
Offset_11 305
Offset_12 270
Offset_13 197
Offset_14 227
Offset_15 184
Offset_16 221
Offset_17 141
Offset_18 118
Offset_19 234
Offset_20 137
Offset_21 235
Offset_22 392
Offset_23 243
Offset_24 324
Offset_25 88
Offset_47 80
decode_dispatch_called: 24525176 67.1797
Dispatch_width: 0 13167267 53.6888 36.068
Dispatch_width: 1 828130 3.37665 2.26842
Dispatch_width: 2 769233 3.1365 2.10709
Dispatch_width: 3 443497 1.80833 1.21483
Dispatch_width: 4 4725117 19.2664 12.9431
Dispatch_width: 5 149379 0.609084 0.409181
Dispatch_width: 6 4442553 18.1143 12.1691
Empty_decode_cycles: 11981658 32.8203
ROB_full_cycles: 7765750 21.272
Starvation_cycles_per_kilo_instr: 242.985
Starvation_cycles_per_kilo_instr_3: 194.24
Starvation_cycles_per_kilo_instr_0: 173.832
Branch_type_1  (3,1)  (4,9)  (5,37)  (6,70)  (7,115)  (8,126)  (9,124)  (10,97)  (11,67)  (12,43)  (13,5)  (14,2)  (15,3)  (16,4)  (18,1)  (19,4)  (20,2)  (21,1)  (22,3)  (23,2)  (24,10)  (25,12) 
Branch_type_2  (3,1)  (5,1)  (8,3)  (9,3)  (12,1)  (13,1)  (14,1)  (16,3)  (17,2)  (20,2)  (21,2)  (23,5)  (24,1)  (47,36) 
Branch_type_3  (3,4057)  (4,241)  (5,404)  (6,417)  (7,433)  (8,307)  (9,254)  (10,152)  (11,122)  (12,50)  (13,4) 
Branch_type_4  (6,3)  (7,8)  (8,25)  (9,52)  (10,62)  (11,59)  (12,97)  (13,85)  (14,100)  (15,86)  (16,99)  (17,63)  (18,53)  (19,114)  (20,72)  (21,124)  (22,208)  (23,137)  (24,185)  (25,72) 
Branch_type_5  (8,2)  (9,1)  (10,3)  (11,5)  (12,3)  (13,14)  (14,16)  (15,11)  (16,20)  (17,11)  (18,16)  (19,12)  (20,10)  (21,13)  (22,42)  (23,26)  (24,37) 
Branch_type_6  (5,4)  (6,12)  (7,22)  (8,33)  (9,31)  (10,65)  (11,52)  (12,76)  (13,88)  (14,108)  (15,84)  (16,95)  (17,65)  (18,48)  (19,104)  (20,51)  (21,95)  (22,139)  (23,73)  (24,91)  (25,4)  (47,44) 
aaaaab1fc620: 2ac9e77e 2aca717c 2aca8eff 2acaf6bc 2acaf9aa 2acaf9f1 2acb1abc 2acb1b7f 2acd4e22 2acdb712 2acf5f9e 2ad0ef44 2ad3f15c 2ad414e6 2ad60e42 2ad8609c 2ad99830 2ada35cc 2ada4676 2ada6612 2adf183e 2adf30e5 2adf5602 2adf785c 2ae11572 2aeb2dcf 2aee101b 2aee1ae1 2b156a8c 2b156b61 2b156bea 2b167f35 2b177656 2b17feec 2b1a3e5a 
aaaaac68f310: 2ac9ec8c 2ac9fb44 2ac9fbd2 2aca59ab 2acac04c 2acaf6e0 2acaf6ec 2acaf6f9 2acaf700 2acaf708 2acf2d90 2ad3cfbd 2ad3cfc4 2ad3d000 2ad3f35f 2ad4955d 2ad49571 2ad4f3f2 2ad4f400 2ad5f240 2ad5f37c 2ad5f86a 2ad5f86f 2ad5f880 2ad5fc0d 2ad5fc14 2ad5fc21 2ad5fe1b 2ad873bb 2ad873e3 2ad8a6b2 2ad9086e 2ad93096 2ad9bbb2 2ada152c 2ada1554 2ada3332 2ada5522 2adf3130 2adf313c 2adf3a3f 2adf3bd9 2adf5788 2adf7a8d 2ae07f6b 2ae0857a 2ae0857e 2ae08630 2ae08634 2ae08637 2ae08642 2ae0866f 2ae086e4 2ae086ec 2ae08717 2ae0871b 2aee0170 2aee1d38 2aee75f4 2aee7662 2aee85ca 2aee85e4 2aee8eef 2af70b84 2af74e8f 2b17d843 
aaaaac690ef0: 2aca598b 2acb111b 2acb175f 2acb1772 2acbfaf4 2acbfb00 2acf374f 2acf6d43 2acfa5c8 2ad3baf1 2ad3d4ac 2ad3d4b8 2ad3f1cf 2ad486b2 2ad5a59b 2ad5fc64 2ad5fcf9 2ad6121c 2ad906e9 2ad907bf 2ad9bada 2ada16ce 2ada1ad5 2ada43df 2ada64c0 2ada72ee 2adeb71a 2adf3bcb 2adf7a38 2adf7c6a 2adf8872 2adf8880 2adf9959 2adf9abe 2ae07f78 2ae08503 2ae08754 2ae12e80 2aea3bea 2aecb509 2aee00b0 2aee2bdd 2aee5467 2aee5601 2aee8f20 2af703fd 2af7048b 2af74e74 
Unique trigger count: 
1 9376
2 487
3 83
4 29
5 9
6 8
7 6
8 1
9 3
10 1
11 2
12 1
13 3
16 2
17 2
19 3
35 1
48 1
66 1
BTB PER SET UNIQUE ADDR: 1 2 2 2 0 0 1 1 3 0 2 0 1 1 0 1 2 1 1 2 0 1 1 2 1 2 1 2 1 1 2 2 2 0 2 0 0 3 4 0 1 2 2 4 1 0 2 1 4 1 1 1 2 0 0 2 3 3 1 1 1 2 2 2 0 4 4 0 2 2 5 2 1 2 1 1 2 6 1 1 1 1 1 4 3 1 1 4 3 2 3 3 2 3 2 0 1 3 0 1 3 2 2 3 1 2 1 1 3 0 1 1 3 2 1 3 1 2 1 0 2 2 2 0 1 1 1 1 2 2 3 0 1 0 2 1 0 0 1 2 2 2 2 0 0 0 1 3 3 2 1 5 1 2 1 0 0 2 1 1 0 0 0 1 2 2 0 1 5 1 1 2 2 1 1 0 1 1 3 1 1 2 5 2 2 2 2 0 1 1 4 1 1 2 1 1 1 1 0 1 2 1 1 0 0 0 1 0 0 0 0 2 2 1 2 1 0 2 1 0 0 0 1 2 2 0 2 2 0 2 5 2 1 1 1 2 2 0 1 1 1 0 1 1 5 2 1 1 2 1 1 1 1 1 0 4 2 2 2 3 3 3 2 2 3 4 3 0 2 1 2 2 1 3 2 2 1 0 3 2 2 2 2 1 2 3 2 2 1 1 0 0 1 2 0 1 3 2 0 1 2 2 1 1 3 2 3 2 3 3 2 1 2 2 4 0 2 2 1 1 1 2 2 2 0 3 1 3 0 0 3 0 2 2 3 1 1 2 4 0 3 0 0 1 1 2 1 1 0 2 1 2 2 2 2 2 1 0 3 0 0 2 1 2 3 2 1 0 0 0 2 1 2 0 1 2 2 1 2 3 0 0 1 3 0 0 2 1 2 1 1 2 2 2 2 0 3 0 0 2 3 1 2 1 1 0 1 2 0 1 1 0 0 1 1 0 3 1 1 2 1 1 2 2 1 3 0 0 1 3 0 0 4 3 3 3 2 1 0 0 0 5 3 2 2 1 1 2 1 1 3 0 0 1 3 0 1 2 3 1 3 0 3 2 0 0 2 0 1 3 0 1 1 1 2 1 0 1 0 0 0 1 2 2 0 2 2 0 2 1 2 1 1 2 0 2 1 1 2 0 3 1 0 1 0 3 2 0 0 2 3 2 2 2 2 0 1 3 1 4 1 0 3 1 3 2 0 2 3 1 4 1 2 2 1 4 0 0 3 0 0 4 3 0 5 1 5 3 4 4 1 3 2 3 0 1 1 0 0 1 6 0 1 2 1 0 0 1 2 4 3 0 1 4 1 0 0 1 0 0 0 1 0 0 1 0 0 4 1 1 2 2 0 1 1 2 2 0 0 1 0 0 1 3 0 1 1 1 2 0 2 1 2 1 2 0 2 0 2 1 3 1 3 0 2 1 1 2 1 0 3 1 0 1 2 1 0 0 1 1 4 1 3 2 0 0 1 0 2 0 1 1 3 1 1 0 3 0 1 3 2 2 3 3 2 1 1 1 0 0 4 1 1 0 4 2 0 1 3 2 1 0 1 2 2 1 1 2 2 1 0 2 1 1 1 3 3 3 2 1 0 2 0 2 1 1 0 1 0 0 1 2 0 1 2 0 1 1 0 2 1 0 1 1 0 1 1 1 0 3 2 2 1 0 1 1 4 1 1 0 1 2 1 2 1 0 2 1 1 2 0 0 1 2 0 1 2 3 1 0 1 1 0 2 0 1 3 1 0 0 2 2 0 0 1 2 3 1 1 1 2 1 0 0 3 3 3 3 0 0 1 3 0 0 2 3 3 1 1 0 2 2 1 2 1 1 1 4 0 2 0 2 1 0 2 1 1 0 0 3 3 0 1 0 2 1 1 1 1 4 1 1 2 1 3 0 1 0 3 2 0 1 0 1 0 1 3 2 2 0 2 0 3 1 2 2 0 0 1 0 0 0 0 1 4 1 1 0 2 0 1 1 1 2 1 0 2 1 3 1 2 1 1 0 0 0 1 2 0 0 2 0 1 2 1 1 4 0 1 1 1 0 0 1 1 3 0 1 0 4 3 3 0 0 1 2 0 0 1 2 3 1 3 1 2 0 3 0 2 1 3 1 4 2 2 1 1 1 0 1 1 1 0 3 2 2 1 2 1 1 1 0 4 1 1 0 4 2 2 1 2 1 2 2 2 4 8 2 2 2 1 1 0 2 2 1 3 4 1 2 3 2 1 3 1 1 1 1 2 1 3 1 1 2 2 1 2 2 1 4 0 1 2 1 2 3 3 2 0 2 2 0 3 0 1 2 3 2 1 3 3 1 7 4 0 2 2 1 1 1 3 4 2 1 3 0 0 1 1 0 2 0 1 3 0 2 4 1 3 3 0 1 3 2 1 3 2 1 2 1 0 1 2 0 2 0 1 2 3 3 1 4 3 2 0 1 7 0 1 1 1 1 2 2 1 4 3 3 3 3 1 4 2 2 1 0 4 0 1 2 1 5 1 0 4 1 1 1 2 1 1 2 3 3 2 2 2 1 1 3 4 2 1 2 1 1 3 2 1 4 1 2 2 1 3 3 0 1 4 1 0 2 1 0 1 2 1 1 1 2 1 3 2 0 1 1 3 2 1 0 2 0 0 3 2 1 2 2 1 4 0 1 4 0 3 1 1 2 2 4 2 4 0 6 4 0 2 1 2 0 0 1 3 0 1 1 2 4 1 0 0 1 3 1 1 2 0 0 1 4 1 4 2 2 0 2 1 0 2 4 6 0 4 0 0 1 3 1 4 0 2 3 2 1 1 1 0 4 1 3 0 1 2 5 3 1 2 2 0 2 4 3 1 3 3 2 0 0 3 3 4 1 2 2 1 1 3 2 3 1 0 1 1 1 5 3 4 0 0 1 1 1 2 1 3 0 0 1 2 3 2 0 3 1 1 0 1 1 5 0 1 2 0 4 2 0 2 1 3 2 1 1 2 1 2 2 0 3 2 1 0 3 1 1 2 2 1 1 0 2 1 1 1 2 1 2 3 1 1 2 0 1 3 0 2 2 0 1 1 1 2 2 1 0 2 0 1 1 2 2 1 1 1 1 1 4 1 3 2 1 2 0 1 1 1 3 1 2 1 1 1 2 0 1 3 2 3 1 4 2 1 0 1 2 3 1 1 1 3 0 5 2 1 3 1 0 3 3 1 1 1 3 0 2 2 1 1 1 2 1 0 1 1 4 2 1 2 1 0 2 1 0 1 2 1 1 1 0 0 2 1 0 1 1 0 2 1 3 4 1 1 0 1 1 1 0 1 0 0 3 1 0 1 0 0 1 1 0 0 0 0 0 0 0 0 0 2 0 2 0 2 0 2 0 1 0 0 4 1 0 2 1 3 1 1 0 1 2 1 0 2 0 1 1 1 1 1 0 2 0 3 1 0 1 3 1 0 1 0 3 1 2 1 1 2 2 2 2 0 1 1 0 1 0 3 0 1 1 0 0 0 1 0 1 1 0 1 2 2 1 1 1 2 2 1 1 1 0 0 2 1 0 0 1 2 1 2 1 0 1 1 3 3 0 0 1 2 1 0 0 3 1 3 0 2 1 2 2 1 2 3 2 5 0 1 0 2 2 1 5 3 3 2 3 4 0 0 2 2 1 1 1 1 1 2 0 2 1 0 1 2 0 1 1 3 1 2 2 3 1 0 1 3 0 2 3 2 1 2 1 3 3 1 1 1 2 2 1 1 5 2 1 1 1 1 3 3 1 1 0 1 0 2 1 2 3 0 0 1 1 0 2 3 1 0 2 3 0 1 2 1 1 1 2 1 0 0 3 2 1 0 0 0 2 1 0 2 1 3 3 1 1 4 1 2 7 3 2 3 2 1 3 3 1 1 1 0 0 0 2 3 1 2 0 0 2 3 1 1 1 0 0 1 2 2 2 2 1 2 2 1 1 0 2 0 1 2 1 0 0 0 1 0 1 2 0 3 0 3 1 1 0 2 1 1 3 0 3 0 0 0 1 1 1 4 0 1 1 0 1 2 1 0 1 0 0 1 1 1 1 2 2 3 0 3 0 0 1 2 1 1 6 1 0 2 1 3 2 1 2 5 1 3 3 0 2 0 3 2 4 4 0 2 1 5 0 4 0 3 2 2 2 1 1 1 0 1 2 0 2 0 1 2 3 2 1 4 2 2 2 3 0 1 0 3 1 3 2 2 2 2 1 0 2 3 2 1 0 1 2 0 0 0 1 0 1 1 2 0 2 2 1 3 1 2 1 2 2 3 0 1 2 2 1 0 2 2 2 2 0 0 1 0 0 1 0 0 1 1 1 2 1 1 2 0 0 0 2 1 1 1 0 2 1 2 2 2 0 1 1 0 1 1 2 1 2 1 0 1 0 2 1 0 1 2 1 3 2 2 2 0 2 0 1 0 0 2 2 0 4 2 4 0 2 2 5 1 0 0 1 4 1 2 0 1 0 3 1 0 0 2 3 1 6 2 0 3 0 1 1 1 1 2 1 0 2 0 1 2 2 1 0 0 3 4 1 0 0 2 3 1 0 3 3 1 0 3 3 0 1 1 4 0 0 0 2 1 0 3 0 1 0 2 2 2 0 2 1 2 1 2 1 0 2 4 2 3 0 1 2 1 0 1 0 2 1 1 0 0 0 4 2 1 2 1 1 2 2 3 3 1 2 3 3 0 3 2 1 4 4 3 2 2 2 1 2 1 2 2 2 1 3 5 2 2 2 2 2 2 1 1 1 0 2 1 0 2 2 0 2 0 1 1 0 1 2 1 3 0 0 0 2 1 2 1 0 0 2 1 1 0 0 0 2 1 1 0 1 3 1 1 2 0 0 2 0 1 2 1 0 1 0 1 0 0 1 0 2 1 0 0 4 1 3 1 2 3 1 2 2 0 0 0 1 1 0 4 2 2 2 3 1 3 2 2 1 2 1 3 1 1 2 1 4 1 2 1 1 2 3 2 3 1 0 3 1 2 1 3 5 4 3 2 1 2 1 3 0 1 0 2 1 0 1 2 3 2 0 2 1 1 1 2 3 1 1 1 2 1 2 2 2 3 3 1 2 3 4 1 1 3 1 3 3 1 4 2 1 2 2 3 3 1 1 3 3 3 0 1 1 1 1 1 2 1 1 0 1 3 1 2 0 2 1 1 2 0 1 0 0 4 2 4 5 0 0 1 2 1 1 0 2 2 2 1 2 2 1 1 1 2 0 1 2 0 1 2 1 1 0 1 1 1 0 0 1 0 1 2 0 4 1 3 2 1 2 0 0 0 3 0 3 1 0 1 1 1 1 1 1 0 1 1 0 1 0 2 2 1 0 1 0 2 1 3 4 1 0 2 5 1 2 2 0 0 3 1 0 1 0 0 3 2 0 1 0 1 0 1 0 1 3 3 0 0 1 3 1 2 3 2 1 3 1 1 0 1 1 2 2 1 2 3 3 0 1 2 1 0 1 1 4 3 2 1 2 1 1 5 3 0 2 3 2 3 1 2 0 4 2 2 0 1 1 2 0 1 1 1 1 1 1 1 4 2 0 1 0 1 2 4 2 1 2 2 2 0 1 0 0 1 2 2 0 2 0 1 1 1 2 4 1 2 2 1 2 3 0 2 0 2 1 2 5 1 1 2 1 1 3 1 1 2 1 0 1 5 1 0 3 1 4 1 3 3 2 2 0 0 3 3 1 0 0 4 4 1 1 2 0 1 0 0 2 1 0 3 0 2 1 2 2 0 3 2 2 0 1 2 1 1 0 1 0 1 2 2 1 0 0 0 4 0 1 1 2 3 1 2 4 1 1 3 3 0 3 3 2 0 2 1 4 2 0 1 1 1 1 2 1 3 2 0 1 2 0 2 5 2 3 1 3 1 2 2 1 2 2 1 2 4 0 1 1 4 1 0 3 0 2 2 3 1 2 3 2 1 5 4 1 1 0 0 0 0 5 3 1 3 4 1 0 1 1 3 2 2 0 3 2 3 3 1 3 3 3 0 2 3 1 0 1 0 2 0 0 1 0 2 3 3 2 0 2 1 3 1 3 2 3 3 1 3 1 2 3 1 1 3 0 1 1 0 0 2 3 1 3 2 1 2 1 2 0 1 3 1 0 3 0 2 1 3 3 4 1 1 4 1 2 3 3 1 4 3 2 0 1 2 2 3 0 3 2 4 1 2 2 1 2 1 1 1 0 3 1 3 2 0 4 0 1 2 1 3 0 3 1 2 1 3 0 0 1 6 1 0 1 1 0 0 0 1 0 0 3 2 1 3 2 1 1 1 3 0 2 1 2 0 1 1 2 1 1 1 1 1 0 0 2 0 1 2 1 0 3 3 1 2 2 1 3 4 3 5 1 2 2 2 1 0 3 2 2 2 1 0 2 1 3 0 3 5 3 0 0 0 2 1 1 2 1 2 4 4 1 1 2 3 1 4 1 3 2 2 1 2 1 1 1 3 0 2 2 0 2 0 1 1 2 3 2 0 0 1 1 3 0 2 0 1 1 2 2 1 1 2 0 2 0 3 2 1 3 3 2 2 2 4 2 2 3 2 3 3 2 4 4 3 6 2 0 5 2 1 4 3 3 0 2 2 4 3 0 0 1 2 3 1 4 2 4 5 3 1 0 2 4 2 2 2 1 2 0 2 3 0 0 4 2 1 2 3 2 3 4 3 0 2 1 0 3 0 3 0 0 4 0 2 3 2 2 2 1 0 2 3 5 1 3 4 5 3 3 5 3 1 4 3 1 0 1 2 3 4 3 2 1 5 0 1 3 1 3 2 3 2 1 0 1 2 3 0 1 1 2 4 1 1 2 0 2 3 0 3 1 0 1 3 3 2 1 1 0 1 1 1 1 2 3 1 5 2 2 2 3 2 1 1 1 2 1 0 2 1 1 2 1 3 2 1 3 4 0 2 0 1 0 2 1 2 1 2 1 1 1 1 2 1 3 4 1 0 2 3 1 2 1 1 2 3 1 1 2 1 4 1 3 0 2 0 1 2 1 0 0 1 1 3 0 0 1 2 1 2 1 0 2 1 4 2 1 2 0 3 1 1 3 0 1 3 3 2 2 0 2 2 2 1 1 0 0 0 1 1 0 3 2 2 2 3 1 3 3 5 1 1 3 4 1 2 4 2 2 4 0 3 1 3 2 2 1 3 2 3 4 1 2 4 4 2 2 2 0 1 1 0 4 1 1 1 1 2 2 1 1 4 0 1 2 2 1 4 0 4 1 2 2 1 1 3 1 1 3 1 2 1 2 1 2 2 3 1 2 2 3 0 4 1 1 3 2 2 1 4 0 3 2 1 1 1 4 1 0 1 0 1 1 2 0 1 2 2 1 2 3 1 1 1 0 2 3 0 3 3 2 0 2 2 0 2 0 1 3 3 1 1 1 1 0 2 0 0 1 4 1 2 1 1 3 2 1 2 0 2 1 3 4 6 1 1 3 3 3 1 1 0 2 2 2 0 0 3 2 1 2 2 2 0 3 1 1 1 5 1 3 3 4 0 1 3 1 1 1 3 1 4 5 1 3 0 2 3 4 1 4 1 5 3 1 1 1 1 2 2 2 1 2 3 3 5 2 3 2 3 2 3 2 1 4 3 3 1 1 2 1 3 0 1 1 4 2 2 0 2 0 0 1 3 7 2 1 1 2 2 2 2 2 2 1 1 0 1 2 2 1 2 1 3 3 1 0 1 2 0 1 0 3 0 3 4 0 0 1 3 1 2 2 4 0 3 3 1 3 1 3 0 1 2 2 1 1 2 1 3 0 0 0 3 1 1 3 3 4 2 4 2 1 2 0 1 0 2 0 3 1 2 1 0 4 0 1 0 1 1 2 3 0 3 2 2 0 2 0 5 1 0 1 3 1 0 2 1 2 1 0 2 2 0 2 1 2 1 2 5 2 3 2 2 3 2 3 2 1 2 0 2 2 2 3 2 1 2 0 1 0 2 2 2 3 1 3 1 1 2 0 3 2 5 0 0 2 1 2 3 3 1 2 3 0 0 1 2 0 0 2 1 3 2 2 1 0 2 2 1 3 1 3 0 2 1 2 4 0 0 0 1 2 2 1 0 3 1 1 2 2 1 2 0 4 1 2 2 0 2 0 3 2 3 2 1 2 0 2 0 2 1 1 2 0 2 2 0 2 1 0 3 2 1 6 3 2 2 1 2 0 1 3 2 1 0 0 1 1 1 0 2 2 2 3 2 0 3 1 4 2 3 0 0 4 0 1 4 3 0 4 1 2 2 3 2 2 0 1 0 3 2 1 0 3 1 2 2 2 3 1 2 0 1 4 2 3 1 1 3 2 4 1 2 2 1 5 2 1 1 0 2 2 3 2 1 2 2 0 0 3 1 2 2 1 1 0 1 4 0 2 1 2 3 1 2 2 4 0 3 1 1 0 4 1 3 3 5 1 1 4 0 3 2 3 4 4 1 3 0 2 3 0 2 2 1 2 2 2 1 2 0 3 1 2 1 2 1 2 0 2 2 1 1 2 0 3 3 2 1 1 2 6 0 3 1 2 2 2 1 3 1 4 1 3 1 3 2 2 2 1 3 0 2 4 0 6 0 5 2 1 1 2 1 0 2 1 2 2 3 3 2 2 2 0 2 3 2 1 2 2 0 2 0 3 5 2 1 3 4 1 2 1 4 1 1 1 2 3 0 1 2 0 0 2 1 0 2 0 1 1 1 1 1 2 0 3 1 3 3 2 0 1 0 2 1 1 2 1 0 0 0 1 2 2 2 2 1 1 1 1 0 1 0 2 2 3 0 1 1 0 1 1 0 1 1 2 1 1 1 0 3 1 0 2 1 0 0 1 2 2 2 2 2 1 1 1 2 4 0 2 1 3 2 1 0 0 2 0 0 1 2 2 2 2 2 4 3 1 1 2 1 2 0 2 2 0 1 1 2 1 3 1 3 1 1 1 4 1 2 2 2 1 2 7 1 1 5 4 1 2 2 0 2 4 2 2 4 0 3 0 1 2 2 2 2 3 1 1 2 1 2 5 4 0 0 3 1 0 0 1 0 0 2 2 1 1 2 1 3 0 2 1 0 0 2 1 2 2 5 2 1 2 1 3 1 1 1 4 3 0 0 2 0 3 0 0 0 0 3 3 3 2 0 0 3 1 1 0 1 1 1 2 1 1 2 1 2 3 2 1 0 5 1 2 2 1 2 0 0 2 1 1 2 1 1 0 1 1 3 1 3 1 2 1 1 1 1 2 1 0 
BTB PER SET COUNT: 1 2 2 2 0 0 1 1 3 0 2 0 1 1 0 1 2 1 1 2 0 1 1 2 1 2 1 2 1460 1 2 3 2 0 2 0 0 3 4 0 1 4 3 7 1 0 2 2 4 1 1 1 2 0 0 2 4 3 1 1 1 2 2 2 0 374 4 0 2 3 712 9 1 2 1 1 498 725 1 1 1 1 1 5 3 1 1 4 3 2 6 477 3 3 2 0 1 3 0 1 3 2 2 3 1 2 1 1 3 0 1 1 3 2 1 4 1 2 1 0 2 2 2 0 1 1 1 1 2 2 497 0 1 0 2 1 0 0 1 2 2 6 2 0 0 0 1 3 3 2 1 1527 1 2 1 0 0 2 1 1 0 0 0 1 2 3 0 1 2411 1 1 2 2 1 1 0 1 1 969 1 1 2 6337 2 2 2 2 0 1 1 4 1 1 2 1 1 1 1 0 1 2 1 1 0 0 0 1 0 0 0 0 3 2 1 2 1 0 2 2 0 0 0 1 2 2 0 2 28 0 2 2195 2 2 1 1 2 2 0 1 2 1 0 1 1 1481 3 1 1 2 2 1 1 1 1 0 4 3 2 2 3 3 3 2 3 7 4 3 0 2 1 3 2 1 3 2 3 1 0 6 2 3 2 4 1 2 988 2 2 1 1 0 0 1 2 0 1 3 2 0 1 2 2 1 1 3 2 4 2 3 3 2 2 2 2 5 0 2 2 1 1 2 2 2 2 0 4 1 4 0 0 988 0 3 2 969 1 988 2 4 0 3 0 0 986 986 3 1 1 0 3 1 3 2 2 2 2 2 0 3 0 0 2 1 2 3 2 1 0 0 0 2 1 2 0 1 2 2 1 2 3 0 0 1 4 0 0 2 1 2 1 1 2 2 2 2 0 4 0 0 2 3 1 2 1 1 0 1460 2 0 967 1 0 0 1 1 0 3 1 1 92 1 1 3 2 1 3 0 0 1 3 0 0 4 4 3 4 2 1 0 0 0 5 3 2 2 1 1 2 1 1 3 0 0 1 3 0 1 2 3 1 4 0 3 2 0 0 2 0 1 3 0 1 1 493 3 1 0 1 0 0 0 1 2 494 0 2 2 0 2 1 2 1 1 2 0 2 1 1 2 0 3 1 0 1 0 3 2 0 0 2 3 3 2 2 4 0 1 3 1 496 1 0 3 1 3 2 0 2 3 1 4 1 2 3 1 497 0 0 6 0 0 4 3 0 15 1 12 4 5 12 1 3 4 4 0 1 2 0 0 1 6317 0 1 2 1 0 0 1 2 4 3 0 1 4 1 0 0 1 0 0 0 1 0 0 1 0 0 4 1 1 2 2 0 1 967 2 2 0 0 1 0 0 1 3 0 1 1 2 3 0 2 1 2 1 2 0 952 0 2 1 4 1 4 0 2 1 1 2 1 0 495 1 0 4 4 1 0 0 1 1 5 1 3 2 0 0 2 0 2 0 1 1 3 2 1 0 3 0 1 3 7840 2 3 3 2 1 1 986 0 0 4 1 1 0 4 987 0 1 3 2 1 0 1 987 2 1 1 1461 2 1 0 987 1 1 1 4 3 4 2 1 0 2 0 2 1 987 0 1 0 0 1 2 0 1 987 0 1460 1 0 2 1 0 1 1 0 1 1 1 0 3 2 2 967 0 1 1 4 1 1 0 1 2 1 2 1 0 2 1 1 988 0 0 1 3 0 1 2 4 1 0 1 1 0 2 0 1 3 1 0 0 2 2 0 0 1 2 3 2 1 2 2 1 0 0 3 3 4 3 0 0 1 73 0 0 3 3 3 1 1 0 2 2 1 2 1 1 1 4 0 4 0 2 1 0 4 1 3 0 0 3 3 0 1 0 2 1 2 1 1 60 1 1 2 1 3 0 1 0 3 2 0 1 0 1 0 1 4 2 2 0 2 0 5 1 2 2 0 0 1 0 0 0 0 1 4 1 1 0 2 0 1 1 1 3 1 0 3 1 3 1 3 1 1 0 0 0 1 2 0 0 4 0 1 2 1 1 4 0 1 1 1 0 0 2 1 3 0 1 0 4 3 3 0 0 1 2 0 0 1 2 3 1 3 1 2 0 3 0 2 1 3 1 5 476 2 1 56 3 0 1 1 1 0 969 2 2 1 2 1 1 1 0 4 1 2 0 9 2 2 2 2 494 2 2 3 5 1089 2 2 5 1 1 0 372 2 1 4 4 1 2 3 2 1 4 1 3 1 1 3 1 3 1 1 2 3 1 2 2 1 5 0 1 4 1 3 3 3 3 0 2 1976 0 2430 0 1 2 3 2 1 3 3 1 3151 4 0 2 2 1 1 1 3 4 2 1 3 0 0 1 1 0 2 0 1 3 0 2 6 2 3 4 0 1 3 2 1 376 2 2 2 4 0 1 2 0 2 0 1 3 3 5 1 4 3 2 0 1 7781 0 1 1 1 1 3 4 1 5 3 3 3 3 1 4 2 2 1 0 4 0 1 2 2 20 1 0 4 1 1 1 495 1 1 2 3 3 2 2 2 1 2 4 4 2 1 2 2 1 3 2 1 4 1 2 2 1 3 5 0 1 4 1 0 2 1 0 1 4 1 1 1 2 1 3 2 0 1 1 3 2 1 0 2 0 0 3 2 1 2 2 1 4 0 1 4 0 4 1 1 2 2 6 2 4 0 2467 4 0 2 1 2 0 0 1 496 0 1 1 2 153 1 0 0 493 3 1 1 2 0 0 1 4 1 4 3 2 0 2 1 0 2 6 987 0 4 0 0 1 3 2 5 0 2 988 2 1 1 1 0 5 1 3 0 1 2 2466 3 1 2 2 0 2 5 1947 1 3 4 2 0 0 4 3 4 1 2 2 1 1 3 2 4 1 0 1 1 1 3397 3 5 0 0 1 1 1 2 1 3 0 0 1 2 1463 2 0 4 1 1 0 2 1 19 0 1 2 0 4 2 0 2 1 3 2 1 1 2 1 2 2 0 3 2 1 0 3 1 1 2 2 1 1 0 2 1 1 1 2 1 2 3 1 1 2 0 1 6 0 2 2 0 1 1 1 2 2 3 0 2 0 1 1 2 2 4 1 1 1 1 4 1 3 2 1 2 0 1 1 1 3 1 2 1 1 2 3 0 1 4 2 4 1 4 2 1 0 1 2 4 1 1 1 3 0 16 2 1 3 1 0 3 121 1 1 1 3 0 2 2 1 1 2 2 3 0 3 1 4 2 1 2 1 0 2 1460 0 1 1339 1 1 1 0 0 4 1 0 1 1338 0 2 1 3 5 1 1 0 1 1 1 0 1 0 0 4 3 0 1 0 0 1 1 0 0 0 0 0 0 0 0 0 2 0 2 0 2 0 2 0 1 0 0 4 33 0 2 1 3 1 1 0 2 3 108 0 5 0 1 1 1 1 1 0 2 0 3 397 0 1 4 1 0 1 0 3 1 2 1 1 35 2 2 2 0 1 1 0 1 0 3 0 1 1 0 0 0 1 0 1 1 0 1 453 3 1 1 1 2 2 1 1 1 0 0 3 2 0 0 1 2 1 7 1 0 1 1 3 3 0 0 1 2 1 0 0 3 1 3 0 2 1 2 2 1 2 3 2 1974 0 1 0 2 2 1 20 4 3 2 4 1464 0 0 2 1461 1 1 1 1 1 2 0 2 967 0 1 2 0 1 1 3 2 2 2 3 2962 0 1 3 0 4 5 2 1 2 1 3 3 1 1 1 259 2 1 1 7 2 1 3 1 1 3 3 1 1 0 1 0 2 1 2 3 0 0 1 1 0 2 3 1 0 3 3 0 1 3 1 1 986 2 1 0 0 3 2 987 0 0 0 2 494 0 2 1 3 3 1 1 578 1 2 5334 3 3 14603 987 1 3 4 1 1 1 0 0 0 2 3 1 3 0 0 2 3 1 154 1 0 0 1 1461 147 2 2 1 2 2 1 737 0 2 0 1 2 1 0 0 0 617 0 1 2 0 3 0 4 1 1 0 2 1 1 3 0 3 0 0 0 1 1 1 4 0 1 525 0 2 2 1 0 1 0 0 968 1 1 1 2 2 3 0 5 0 0 1 2 1460 1 2907 1 0 3 1 3 2 1 2 1758 1 432 3 0 2 0 3 221 4 59 0 2 1 2143 0 179 0 4 1462 2 2 2 1 1 0 1 2 0 2 0 1 4 3 2 1 4 389 2 3 969 0 1 0 3 1 3 2 2 2 2 1 0 2 175 3 1 0 1 3 0 0 0 1 0 1 1 2 0 2 2 1 3 6 2 1 2 2 3 0 1 2 2 1 0 2 2 2 2 0 0 1 0 0 1 0 0 1 1 1 2 1 1 2 0 0 0 2 1 1 1 0 2 1 2 2 141 0 1 3 0 1 1 2 1 2 1 0 1 0 2 1 0 1 2 1 3 2 2 2 0 2 0 1 0 0 2 2 0 5 1462 4 0 2 2 1889 1 0 0 1 6 1 2 0 1 0 3 1 0 0 2 3 3 2959 2 0 3 0 1 1 1 1 2 1 0 2 0 1 2 2 2 0 0 3 4 1 0 0 2 3 1 0 3 3 1 0 3 3 0 1 1 4 0 0 0 2 1 0 3 0 1 0 2 2 4 0 2 1 210 1 4 1 0 2 1477 2 3 0 1 2 1 0 1 0 2 1 1 0 0 0 5 2 1 3 1 1 2 1462 3 3 1 2 3 4 0 4 2 1 5 6 3 2 2 2 2922 2 1 2 2 3 1 4 4839 2 2 2 2 2 2 1 2 1 0 2 1 0 2 2 0 2 0 1 1 0 1 2 1 3 0 0 0 2 1 2 1 0 0 2 1 1 0 0 0 2 1 1 0 1 3 1 1 2 0 0 2 0 1 2 1 0 2 0 1 0 0 1 0 2 1 0 0 4 1 3 1 2 3 1 2 2 0 0 0 1 1 0 6 3 3 2 3 1 3 3 2 1 2 1 3 1 1 2 1 9 1 2 1 1 2 3 2 3 1 0 3 1 2 1 3 948 4 3 2 1935 2 1 3 0 1 0 2 1 0 1 2 3 2 0 2 1 1 1 2 3 1 1 2 3 1 2 4 2 4 4 1 2 4 4 1 1 3 1 5 3 1 1464 2 1 2 2 3 3 1 1 3 3 3 0 1 1 1 1 1 2 1 1 0 1 3 1 2 0 2 1 1 2 0 1 0 0 4 2 4 5 0 0 2 2 1 1 0 2 2 2 1 2 2 1 2 1 2 0 1460 2 0 1 2 1 1 0 2 1 1 0 0 1 0 1 3 0 4 1 3 2 1 2 0 0 0 3 0 3 1 0 1 1 1 1 1 1 0 1 1 0 1 0 2 3 1 0 1 0 3 4 3 4 1 0 2 948 1 2 2 0 0 3 1 0 1 0 0 3 3 0 1 0 1 0 1 0 1 3 3 0 0 1 3 1 2 5 2 1 3 2 1 0 1 1 2 2 1 3 3 4 0 2 2 1 0 1 1 4 4 2 1 2 1 1 24 3 0 3 5 2 3 1 2 0 4 2 2 0 1 1 1461 0 1 1 1 1 1 1 1 6 2 0 1 0 1 2 4 2 967 2 104 2 0 1 0 0 1 2 2 0 5 0 1 3 130 2 7 1 2 2 1 2 3 0 3 0 2 1 3 17 1 1 2 1 1 3 1 1 2 1 0 1 503 1 0 3 1 4 1 3 3 2 2 0 0 4 35 1 0 0 4 4 1 1 2 0 1 0 0 3 1 0 3 0 3 1 2 2 0 7 3 3 0 1 2 12 1 0 2 0 1 2 2 1 0 0 0 4 0 1 1 2 3 1 2 1463 1 1 3 3 0 3 3 2 0 2 1 8 2 0 1 1 1 1 3 1 3 5 0 1 2 0 2 1954 2 3 1 3 1 2 3 1 2 2 1 2 4 0 1 1 4 1 0 3 0 2 2 6 1 2 3 2 2 24 4 45 1 0 0 0 0 2456 3 1 4 4 1 0 1 2 3 2 2 0 3 3 5 3 1 4 3 3 0 2 3 1 0 1 0 3 0 0 1 0 3 496 3 2 0 2 1 3 1 3 2 1462 3 1 3 1 2 3 2 1 4 0 1 1 0 0 2 3 2 4 2 1 3 1 2 0 1 3 1 0 4 0 3 1 3 4 2924 1 2 4 1 2 4 4 1 4 3 2 0 2 2 2 3 0 3 2 4 1 2 2 1 3 1 2 1 0 3 1 3 38 0 4 0 1 2 1 3 0 3 1 2 1 5 0 0 1 24 1 0 1 1 0 0 0 1 0 0 3 2 1 3 2 1 1 1 3 0 3 1 2 0 1 1 2 1 2 494 1 1 0 0 2 0 1 2 1 0 3 4 1 2 2 1 4 4 3 22 1 4 2 2 1 0 140 2 2 2 1 0 2 1 4 0 3 16 4 0 0 0 2 1 1 4 1 2 4 6 1 1 2 4 1 4 3 1976 3 2 1 3 1 1 1 3 0 2 4 0 2 0 1 1 2 3 2 0 0 1 1 3 0 2 0 1 1 2 3 2 1 2 0 2 0 4 1464 1 5 3 2 4 2 4 2 2 5 2 3 3 2 4 4 3 4852 2 0 9 968 2 5 3 3 0 2 3 4 3 0 0 1 2 3 1 4 2 6 87 3 1 0 2 4 2 2 2 1 2 0 2 3 0 0 4 2 1 60 5 2 3 4 3 0 3 1 0 3 0 3 0 0 5 0 3 3 2 2 6 1 0 2 3 61 1 496 4 1184 3 3 1970 3 1 4 4 1 0 1 2 4 4 256 2 1 712 0 1 3 1 3 2 3 2 1 0 1 3 4 0 1 2 2 4 1 1 2 0 2 3 0 969 1 0 1 3 3 495 1 1 0 1 1 1 1 2 3 1 1973 2 2 2 3 2 1 1 1 2 1 0 2 1 1 2 1 3 2 1 373 990 0 3 0 1 0 2 2 2 1 2 1 1 1 1 2 1 4 5 1 0 2 4 1 2 3 1 2 3 1 1 2 1 4 1 3 0 2 0 1 1462 1 0 0 1 1 4 0 0 1 2 1 2 1 0 2 1 7 2 1 2 0 3 1 1 3 0 1 4 86 2 2 0 3 3 2 1 1 0 0 0 1 1 0 4 2 2 4 3 1 3 3 29 1 1 3 4 1 2 5 2 3 4 0 3 1 3 2 2 1 4 2 3 5 1 2 5 4 2 2 2 0 1 2 0 6 1 1 1 1 2 2 1 2 497 0 2 2 2 1 5 0 5 1 2 2 1 1 3 1 1 3 1 2 1 2 1 2 2 3 1 2 2 3 0 4 1 1 3 2 2 1 970 0 5 2 1 1 1 7 1 0 2 0 1 1 3 0 1 2 2 1 3 3 1 1 1 0 2 4 0 3 3 2 0 3 2 0 2 0 1 3 3 1 1 1 1 0 2 0 0 1 6 1 2 1 1 4 2 1 2 0 2 1 3 4 4671 1 1 1462 3 3 1 1 0 2 3 2 0 0 3 2 1 2 2 2 0 3 1 1 1 550 1 3 4 4 0 1 3 1 1 1 3 1 4 1244 967 3 0 2 3 4 1 4 1 2467 3 1 1 1 1 2 3 2 1 2 3 3 13 3 3 2 495 2 3 7 1 88 3 3 1 1 2 3 3 0 1 1 6 2 2 0 2 0 0 1 3 2961 2 1 1 2 2 2 3 2 2 1 1 0 1 2 2 1 2 1 3 4 1 0 1 2 0 1 0 3 0 3 4 0 0 1 3 967 2 3 7 0 3 48 1 5 2 4 0 1 4 2 1 1 2 2 4 0 0 0 3 1 1 3 3 4 2 11 2 1 2 0 1 0 2 0 3 1 2 1 0 4 0 1 0 1 1 2 4 0 3 2 2 0 2 0 486 1 0 1 3 1 0 2 1 2 1 0 2 2 0 2 1 2 1 2 2466 2 3 5 3 3 2 3 2 1 3 0 4 2 2 970 2 1 2 0 1 0 2 2 2 3 1 3 986 1 9 0 3 2 1482 0 0 2 1 2 5 5 1 4 20449 0 0 1 2 0 0 2 1 3 277 2 1 0 2 2 1 3 1 3 0 4 1 2 4 0 0 0 1 2 2 1 0 3 1 1 2 2 1 2 0 4 1 2 3 0 2 0 3 2 3 2 1 2 0 2 0 2 1 1 2 0 2 2 0 3 1 0 4 2 1 2209 3 2 2 1 3 0 1 3 968 1 0 0 1 1 1 0 2 2 2 6 2 0 3 1 5 2 3 0 0 4 0 1 16 3 0 5 1 2 2 3 2 2 0 1 0 3 2 1 0 3 1 2 3 4 3 1 2 0 1 5 2 3 1 1 3 2 4 1 2 2 1 24 2 1 371 0 1461 2 4 232 1 2 2 0 0 4 1 2 2 1 1 0 1 4 0 2 1 6 4 1 495 2 5 0 3 1 1 0 4 1 496 3 1976 1 1 4 0 3 2 3 4 4 1 4 0 3 3 0 495 2 1 2 2 3 1 2 0 5 1 372 1460 2 1 2 0 2 2 1 1 2 0 4 3 2 1 1 2 2958 0 1463 1 2 2 5 1 3 2 4 1 3 1 3 2 2 2 1 3 0 2 5 0 4344 0 1250 2 1 1 2 1 0 2 1 3 2 3 3 2 2 2 0 2 3 2 1 2 2 0 2 0 3 1974 968 1 3 4 1 2 1 4 1 1 1 2 3 0 1 3 0 0 3 1 0 2 0 1 1 1 1 1 2 0 3 1 3 3 2 0 1 0 2 1 1 2 1 0 0 0 2 2 3 2 2 1 1 1 476 0 1 0 2 2 3 0 1 1 0 1 1 0 1 1 2 1 1 1 0 23 1 0 2 1 0 0 1 2 2 2 2 2 1 1 1 2 4 0 2 1 4 2 1 0 0 2 0 0 1 2 2 3 987 2 4 3 1 1 2 1 2 0 2 2 0 1 1 2 1 3 6 3 1 1 1 5 1 2 3 2 1 2 3166 1 1 1184 4 1 2 2 0 2 4 2 2 32 0 5 0 8 2 2 987 2 3 1 1 2 2 3 219 4 0 0 3 1 0 0 1 0 0 2 2 1 1 2 1 3 0 2 1 0 0 2 1 2 2 1344 3 1 2 1 496 1 1 1 5 4 0 0 2 0 3 0 0 0 0 3 3 3 2 0 0 3 1 1 0 1 1 1 2 1 1 2 1 2 5 2 2 0 29 1 2 6 1 2 0 0 3 4 1 2 1 1 0 1 1 4 1 7 1 6 1 1 1 6 2 2 0 
