
*** ChampSim Multicore Out-of-Order Simulator ***

Warmup Instructions: 50000000
Simulation Instructions: 50000000
Number of CPUs: 1
LLC sets: 2048
LLC ways: 16
Off-chip DRAM Size: 4096 MB Channels: 1 Width: 64-bit Data Rate: 6400 MT/s
CPU 0 runs ./micro_traces/srv615.trace.gz
.gz
ITLB has LRU replacement policy
DTLB has LRU replacement policy
STLB has LRU replacement policy
FDIP Prefetcher at L1I
L1I has LRU replacement policy
L1D has LRU replacement policy
Initialize SRRIP state for L2C
Initialize DRRIP state for LLC
Heartbeat_Variant_0 : 1296 0.316406 per_variant_size: 0 1296 0 0 0 0 0 0 0 
Heartbeat_Variant_1 : 2488 0.607422 per_variant_size: 0 638 1850 0 0 0 0 0 0 
Heartbeat_Variant_2 : 0 0 per_variant_size: 0 0 0 0 0 0 0 0 0 
Heartbeat_Variant_3 : 0 0 per_variant_size: 0 0 0 0 0 0 0 0 0 
Heartbeat_Variant_0_evicts 0 : 5637 1 : 341 2 : 0 3 : 0 
Heartbeat_Variant_1_evicts 0 : 284 1 : 0 2 : 0 3 : 0 
Heartbeat_Variant_2_evicts 0 : 0 1 : 0 2 : 0 3 : 0 
Heartbeat_Variant_3_evicts 0 : 0 1 : 0 2 : 0 3 : 0 
Heartbeat CPU 0 instructions: 10000001 cycles: 2841191 heartbeat IPC: 3.51965 cumulative IPC: 3.51965 (Simulation time: 0 hr 2 min 19 sec) 
Heartbeat_Variant_0 : 1357 0.331299 per_variant_size: 0 1357 0 0 0 0 0 0 0 
Heartbeat_Variant_1 : 2588 0.631836 per_variant_size: 0 527 2061 0 0 0 0 0 0 
Heartbeat_Variant_2 : 0 0 per_variant_size: 0 0 0 0 0 0 0 0 0 
Heartbeat_Variant_3 : 0 0 per_variant_size: 0 0 0 0 0 0 0 0 0 
Heartbeat_Variant_0_evicts 0 : 5737 1 : 310 2 : 0 3 : 0 
Heartbeat_Variant_1_evicts 0 : 290 1 : 0 2 : 0 3 : 0 
Heartbeat_Variant_2_evicts 0 : 0 1 : 0 2 : 0 3 : 0 
Heartbeat_Variant_3_evicts 0 : 0 1 : 0 2 : 0 3 : 0 
Heartbeat CPU 0 instructions: 20000001 cycles: 5688395 heartbeat IPC: 3.51222 cumulative IPC: 3.51593 (Simulation time: 0 hr 4 min 3 sec) 
Heartbeat_Variant_0 : 1361 0.332275 per_variant_size: 0 1361 0 0 0 0 0 0 0 
Heartbeat_Variant_1 : 2591 0.632568 per_variant_size: 0 524 2067 0 0 0 0 0 0 
Heartbeat_Variant_2 : 0 0 per_variant_size: 0 0 0 0 0 0 0 0 0 
Heartbeat_Variant_3 : 0 0 per_variant_size: 0 0 0 0 0 0 0 0 0 
Heartbeat_Variant_0_evicts 0 : 5676 1 : 33 2 : 0 3 : 0 
Heartbeat_Variant_1_evicts 0 : 29 1 : 0 2 : 0 3 : 0 
Heartbeat_Variant_2_evicts 0 : 0 1 : 0 2 : 0 3 : 0 
Heartbeat_Variant_3_evicts 0 : 0 1 : 0 2 : 0 3 : 0 
Heartbeat CPU 0 instructions: 30000001 cycles: 8531308 heartbeat IPC: 3.51752 cumulative IPC: 3.51646 (Simulation time: 0 hr 5 min 50 sec) 
Heartbeat_Variant_0 : 1362 0.33252 per_variant_size: 0 1362 0 0 0 0 0 0 0 
Heartbeat_Variant_1 : 2593 0.633057 per_variant_size: 0 509 2084 0 0 0 0 0 0 
Heartbeat_Variant_2 : 0 0 per_variant_size: 0 0 0 0 0 0 0 0 0 
Heartbeat_Variant_3 : 0 0 per_variant_size: 0 0 0 0 0 0 0 0 0 
Heartbeat_Variant_0_evicts 0 : 5596 1 : 38 2 : 0 3 : 0 
Heartbeat_Variant_1_evicts 0 : 38 1 : 0 2 : 0 3 : 0 
Heartbeat_Variant_2_evicts 0 : 0 1 : 0 2 : 0 3 : 0 
Heartbeat_Variant_3_evicts 0 : 0 1 : 0 2 : 0 3 : 0 
Heartbeat CPU 0 instructions: 40000002 cycles: 11376281 heartbeat IPC: 3.51497 cumulative IPC: 3.51609 (Simulation time: 0 hr 7 min 32 sec) 
Heartbeat_Variant_0 : 1371 0.334717 per_variant_size: 0 1371 0 0 0 0 0 0 0 
Heartbeat_Variant_1 : 2607 0.636475 per_variant_size: 0 485 2122 0 0 0 0 0 0 
Heartbeat_Variant_2 : 0 0 per_variant_size: 0 0 0 0 0 0 0 0 0 
Heartbeat_Variant_3 : 0 0 per_variant_size: 0 0 0 0 0 0 0 0 0 
Heartbeat_Variant_0_evicts 0 : 5705 1 : 162 2 : 0 3 : 0 
Heartbeat_Variant_1_evicts 0 : 159 1 : 0 2 : 0 3 : 0 
Heartbeat_Variant_2_evicts 0 : 0 1 : 0 2 : 0 3 : 0 
Heartbeat_Variant_3_evicts 0 : 0 1 : 0 2 : 0 3 : 0 
Heartbeat CPU 0 instructions: 50000001 cycles: 14223638 heartbeat IPC: 3.51203 cumulative IPC: 3.51528 (Simulation time: 0 hr 9 min 20 sec) 

Warmup complete CPU 0 instructions: 50000001 cycles: 14223638 (Simulation time: 0 hr 9 min 20 sec) 

Cycle: 20000000 FTQ IN: 56697504 FTQ occupancy: 20.8936 DECODE IN: 56697504 DECODE occupancy: 54.46 ROB IN: 56697504 ROB occupancy: 325.885 ROB OUT: 56697374
Heartbeat_Variant_0 : 1370 0.334473 per_variant_size: 0 1370 0 0 0 0 0 0 0 
Heartbeat_Variant_1 : 2611 0.637451 per_variant_size: 0 494 2117 0 0 0 0 0 0 
Heartbeat_Variant_2 : 0 0 per_variant_size: 0 0 0 0 0 0 0 0 0 
Heartbeat_Variant_3 : 0 0 per_variant_size: 0 0 0 0 0 0 0 0 0 
Heartbeat_Variant_0_evicts 0 : 5551 1 : 7 2 : 0 3 : 0 
Heartbeat_Variant_1_evicts 0 : 8 1 : 0 2 : 0 3 : 0 
Heartbeat_Variant_2_evicts 0 : 0 1 : 0 2 : 0 3 : 0 
Heartbeat_Variant_3_evicts 0 : 0 1 : 0 2 : 0 3 : 0 
Heartbeat CPU 0 instructions: 60000000 cycles: 22826652 heartbeat IPC: 1.16238 cumulative IPC: 1.16238 (Simulation time: 0 hr 11 min 37 sec) 
Cycle: 30000000 FTQ IN: 11572306 FTQ occupancy: 15.6136 DECODE IN: 11572249 DECODE occupancy: 40.4569 ROB IN: 11572249 ROB occupancy: 268.373 ROB OUT: 11572322
Heartbeat_Variant_0 : 1377 0.336182 per_variant_size: 0 1377 0 0 0 0 0 0 0 
Heartbeat_Variant_1 : 2618 0.63916 per_variant_size: 0 470 2148 0 0 0 0 0 0 
Heartbeat_Variant_2 : 0 0 per_variant_size: 0 0 0 0 0 0 0 0 0 
Heartbeat_Variant_3 : 0 0 per_variant_size: 0 0 0 0 0 0 0 0 0 
Heartbeat_Variant_0_evicts 0 : 5638 1 : 126 2 : 0 3 : 0 
Heartbeat_Variant_1_evicts 0 : 122 1 : 0 2 : 0 3 : 0 
Heartbeat_Variant_2_evicts 0 : 0 1 : 0 2 : 0 3 : 0 
Heartbeat_Variant_3_evicts 0 : 0 1 : 0 2 : 0 3 : 0 
Heartbeat CPU 0 instructions: 70000000 cycles: 31492619 heartbeat IPC: 1.15394 cumulative IPC: 1.15815 (Simulation time: 0 hr 13 min 54 sec) 
Cycle: 40000000 FTQ IN: 11649470 FTQ occupancy: 15.709 DECODE IN: 11649527 DECODE occupancy: 40.8962 ROB IN: 11649527 ROB occupancy: 270.023 ROB OUT: 11649551
Heartbeat_Variant_0 : 1377 0.336182 per_variant_size: 0 1377 0 0 0 0 0 0 0 
Heartbeat_Variant_1 : 2618 0.63916 per_variant_size: 0 479 2139 0 0 0 0 0 0 
Heartbeat_Variant_2 : 0 0 per_variant_size: 0 0 0 0 0 0 0 0 0 
Heartbeat_Variant_3 : 0 0 per_variant_size: 0 0 0 0 0 0 0 0 0 
Heartbeat_Variant_0_evicts 0 : 5584 1 : 13 2 : 0 3 : 0 
Heartbeat_Variant_1_evicts 0 : 13 1 : 0 2 : 0 3 : 0 
Heartbeat_Variant_2_evicts 0 : 0 1 : 0 2 : 0 3 : 0 
Heartbeat_Variant_3_evicts 0 : 0 1 : 0 2 : 0 3 : 0 
Heartbeat CPU 0 instructions: 80000002 cycles: 40070349 heartbeat IPC: 1.16581 cumulative IPC: 1.16069 (Simulation time: 0 hr 16 min 7 sec) 
Heartbeat_Variant_0 : 1381 0.337158 per_variant_size: 0 1381 0 0 0 0 0 0 0 
Heartbeat_Variant_1 : 2622 0.640137 per_variant_size: 0 494 2128 0 0 0 0 0 0 
Heartbeat_Variant_2 : 0 0 per_variant_size: 0 0 0 0 0 0 0 0 0 
Heartbeat_Variant_3 : 0 0 per_variant_size: 0 0 0 0 0 0 0 0 0 
Heartbeat_Variant_0_evicts 0 : 5615 1 : 116 2 : 0 3 : 0 
Heartbeat_Variant_1_evicts 0 : 115 1 : 0 2 : 0 3 : 0 
Heartbeat_Variant_2_evicts 0 : 0 1 : 0 2 : 0 3 : 0 
Heartbeat_Variant_3_evicts 0 : 0 1 : 0 2 : 0 3 : 0 
Heartbeat CPU 0 instructions: 90000001 cycles: 48740896 heartbeat IPC: 1.15333 cumulative IPC: 1.15884 (Simulation time: 0 hr 18 min 23 sec) 
Cycle: 50000000 FTQ IN: 11557833 FTQ occupancy: 15.6628 DECODE IN: 11557731 DECODE occupancy: 40.6038 ROB IN: 11557671 ROB occupancy: 269.511 ROB OUT: 11557355
Heartbeat_Variant_0 : 1384 0.337891 per_variant_size: 0 1384 0 0 0 0 0 0 0 
Heartbeat_Variant_1 : 2620 0.639648 per_variant_size: 0 480 2140 0 0 0 0 0 0 
Heartbeat_Variant_2 : 0 0 per_variant_size: 0 0 0 0 0 0 0 0 0 
Heartbeat_Variant_3 : 0 0 per_variant_size: 0 0 0 0 0 0 0 0 0 
Heartbeat_Variant_0_evicts 0 : 5528 1 : 11 2 : 0 3 : 0 
Heartbeat_Variant_1_evicts 0 : 8 1 : 0 2 : 0 3 : 0 
Heartbeat_Variant_2_evicts 0 : 0 1 : 0 2 : 0 3 : 0 
Heartbeat_Variant_3_evicts 0 : 0 1 : 0 2 : 0 3 : 0 
Heartbeat CPU 0 instructions: 100000003 cycles: 57296843 heartbeat IPC: 1.16878 cumulative IPC: 1.16081 (Simulation time: 0 hr 20 min 38 sec) 
Finished CPU 0 instructions: 50000002 cycles: 43073205 cumulative IPC: 1.16081 (Simulation time: 0 hr 20 min 38 sec) 

ChampSim completed all CPUs

Region of Interest Statistics

CPU 0 cumulative IPC: 1.16081 instructions: 50000002 cycles: 43073205
 Fetch stage stalled: 42.8152  Sim cycles: 43073205 fetch stall cycle: 18441879
 Empty decode stage: 18.7624  Sim cycles: 43073205 fetch stall cycle: 8081569
ITLB TOTAL     ACCESS:    5913803  HIT:    5416126  MISS:     497677  HIT %:    91.5845  MISS %:    8.41552   MPKI: 9.95354
ITLB LOAD TRANSLATION INSTRUCTION	ACCESS:    5785396  HIT:    5287719  MISS:     497677  HIT %:    91.3977  MISS %:     8.6023  MPKI: 9.95354
ITLB TRANSLATION FROM L1D PREFETCHER INSTRUCTION	ACCESS:     128407  HIT:     128407  MISS:          0  HIT %:        100  MISS %:          0  MPKI: 0

ITLB AVERAGE MISS LATENCY: 9.03736 cycles
ITLB RQ	ACCESS:    8006840	FORWARD:          0	MERGED:    1626188	TO_CACHE:    6380652

DTLB TOTAL     ACCESS:    9001889  HIT:    8528335  MISS:     473554  HIT %:    94.7394  MISS %:    5.26061   MPKI: 9.47108
DTLB LOAD TRANSLATION DATA	ACCESS:    9001889  HIT:    8528335  MISS:     473554  HIT %:    94.7394  MISS %:    5.26061  MPKI: 9.47108

DTLB AVERAGE MISS LATENCY: 9.28814 cycles
DTLB RQ	ACCESS:   13356070	FORWARD:          0	MERGED:    4319079	TO_CACHE:    9036991

STLB TOTAL     ACCESS:    1208007  HIT:    1206196  MISS:       1811  HIT %:    99.8501  MISS %:   0.149916   MPKI: 0.03622
STLB LOAD TRANSLATION INSTRUCTION	ACCESS:     497677  HIT:     497478  MISS:        199  HIT %:      99.96  MISS %:  0.0399858  MPKI: 0.00398
STLB LOAD TRANSLATION DATA	ACCESS:     473553  HIT:     471941  MISS:       1612  HIT %:    99.6596  MISS %:   0.340405  MPKI: 0.03224
STLB TRANSLATION FROM L1D PREFETCHER DATA	ACCESS:     236777  HIT:     236777  MISS:          0  HIT %:        100  MISS %:          0  MPKI: 0

STLB AVERAGE MISS LATENCY: 69.878 cycles
STLB RQ	ACCESS:    1312695	FORWARD:          0	MERGED:     104686	TO_CACHE:    1208009

STLB Hit, L1D data hit: 0
STLB Hit, L2C data hit: 0
STLB Hit, LLC data hit: 0
STLB Hit, LLC data miss: 0
STLB STLB hints to L2: 0
L1D TOTAL     ACCESS:   12402208  HIT:    7886317  MISS:    4515891  HIT %:     63.588  MISS %:     36.412   MPKI: 90.3178
L1D LOAD DATA	ACCESS:    6392193  HIT:    3222534  MISS:    3169659  HIT %:    50.4136  MISS %:    49.5864  MPKI: 63.3932
L1D RFO DATA	ACCESS:    5733461  HIT:    4599727  MISS:    1133734  HIT %:     80.226  MISS %:     19.774  MPKI: 22.6747
L1D PREFETCH DATA	ACCESS:     276554  HIT:      64056  MISS:     212498  HIT %:    23.1622  MISS %:    76.8378  MPKI: 4.24996

L1D PREFETCH  REQUESTED:     683068  ISSUED:     683068  USEFUL:      25200  USELESS:     202420
L1D USEFUL LOAD PREFETCHES:      25200 PREFETCH ISSUED TO LOWER LEVEL:     228407  ACCURACY: 11.0329
 TIMELY PREFETCHES:      25200 LATE PREFETCHES: 15051 DROPPED PREFETCHES: 0
L1D AVERAGE MISS LATENCY: 125338 cycles
L1D RQ	ACCESS:   10655563	FORWARD:          0	MERGED:    3905542	TO_CACHE:    6593220
L1D WQ	ACCESS:    6956185	FORWARD:     156943	MERGED:     193335	TO_CACHE:    6762850
L1D PQ	ACCESS:     341605	FORWARD:          0	MERGED:          0	TO_CACHE:     341463

L1D UNIQUE REGIONS ACCESSED: 0
L1D REGIONS CONFLICTS: 0
L1D Cross Page Prefetch Requests: 2354
L1D Same Page Prefetch Requests: 704956
L1D ROI Sum of L1D PQ occupancy: 4297313
L1D PREFETCHES PUSHED FROM L2C: 0
L1I TOTAL     ACCESS:    7193467  HIT:    4412951  MISS:    2780516  HIT %:    61.3466  MISS %:    38.6534   MPKI: 55.6103
L1I LOAD INSTRUCTION	ACCESS:    6516586  HIT:    3736070  MISS:    2780516  HIT %:    57.3317  MISS %:    42.6683  MPKI: 55.6103
L1I PREFETCH INSTRUCTION	ACCESS:     676881  HIT:     676881  MISS:          0  HIT %:        100  MISS %:          0  MPKI: 0

L1I PREFETCH  REQUESTED:    1615250  ISSUED:    1615250  USEFUL:          0  USELESS:          0
L1I USEFUL LOAD PREFETCHES:          0 PREFETCH ISSUED TO LOWER LEVEL:          0  ACCURACY: -nan
 TIMELY PREFETCHES:          0 LATE PREFETCHES: 0 DROPPED PREFETCHES: 0
L1I AVERAGE MISS LATENCY: 17.3133 cycles
L1I RQ	ACCESS:    9587431	FORWARD:          0	MERGED:    2774754	TO_CACHE:    6812677
L1I PQ	ACCESS:    1615250	FORWARD:          0	MERGED:     421087	TO_CACHE:    1194163

L1BTB TOTAL     ACCESS:    5670801  HIT:    2023716  MISS:    3647085  HIT %:    35.6866  MISS %:    64.3134   MPKI: 72.9417
L1BTB BRANCH_DIRECT_JUMP	ACCESS:     547751 HIT:     142925 MISS:     404826 AVERAGE STALL: 70.327 AVERAGE FETCH STALL: 13.5803 AVERAGE FETCH QUEUE STALL: 27.587 AVERAGE DECODE STALL: 28.2453 AVERAGE EXECUTE STALL: 2.34066e+15
L1BTB BRANCH_INDIRECT	ACCESS:     182288 HIT:      65399 MISS:     116889 AVERAGE STALL: 140.12 AVERAGE FETCH STALL: 10.7706 AVERAGE FETCH QUEUE STALL: 22.2551 AVERAGE DECODE STALL: 16.2295 AVERAGE EXECUTE STALL: 89.9013
L1BTB BRANCH_CONDITIONAL	ACCESS:    2697444 HIT:    1398942 MISS:    1298502 AVERAGE STALL: 65.6861 AVERAGE FETCH STALL: 20.8563 AVERAGE FETCH QUEUE STALL: 26.6664 AVERAGE DECODE STALL: 17.5724 AVERAGE EXECUTE STALL: 2.99898e+15
L1BTB BRANCH_DIRECT_CALL	ACCESS:     949112 HIT:     105113 MISS:     843999 AVERAGE STALL: 98.7915 AVERAGE FETCH STALL: 25.9317 AVERAGE FETCH QUEUE STALL: 55.2641 AVERAGE DECODE STALL: 16.8414 AVERAGE EXECUTE STALL: 8.08005e+15
L1BTB BRANCH_INDIRECT_CALL	ACCESS:     172546 HIT:      21334 MISS:     151212 AVERAGE STALL: 176.954 AVERAGE FETCH STALL: 12.186 AVERAGE FETCH QUEUE STALL: 20.707 AVERAGE DECODE STALL: 15.396 AVERAGE EXECUTE STALL: 128.17
L1BTB BRANCH_RETURN	ACCESS:    1121660 HIT:     290003 MISS:     831657 AVERAGE STALL: 54.921 AVERAGE FETCH STALL: 16.669 AVERAGE FETCH QUEUE STALL: 7.49315 AVERAGE DECODE STALL: 7.46479 AVERAGE EXECUTE STALL: 4.25373e+14
L1BTB BRANCH_OTHER ACCESS:          0 HIT:          0 MISS:          0 AVERAGE STALL: -nan AVERAGE FETCH STALL: -nan AVERAGE FETCH QUEUE STALL: -nan AVERAGE DECODE STALL: -nan AVERAGE EXECUTE STALL: -nan
L1BTB TOTAL ROB OCCUPANCY AT BTB MISS: 2.99587

L2BTB TOTAL     ACCESS:    3621826  HIT:    3554891  MISS:      66935  HIT %:    98.1519  MISS %:     1.8481   MPKI: 1.3387
L2BTB BRANCH_DIRECT_JUMP	ACCESS:     400752 HIT:     396941 MISS:       3811 AVERAGE STALL: 70.327 AVERAGE FETCH STALL: 13.5803 AVERAGE FETCH QUEUE STALL: 27.587 AVERAGE DECODE STALL: 28.2453 AVERAGE EXECUTE STALL: 2.34066e+15
L2BTB BRANCH_INDIRECT	ACCESS:     106579 HIT:     103888 MISS:       2691 AVERAGE STALL: 140.12 AVERAGE FETCH STALL: 10.7706 AVERAGE FETCH QUEUE STALL: 22.2551 AVERAGE DECODE STALL: 16.2295 AVERAGE EXECUTE STALL: 89.9013
L2BTB BRANCH_CONDITIONAL	ACCESS:    1298502 HIT:    1292321 MISS:       6181 AVERAGE STALL: 65.6861 AVERAGE FETCH STALL: 20.8563 AVERAGE FETCH QUEUE STALL: 26.6664 AVERAGE DECODE STALL: 17.5724 AVERAGE EXECUTE STALL: 2.99898e+15
L2BTB BRANCH_DIRECT_CALL	ACCESS:     843999 HIT:     841707 MISS:       2292 AVERAGE STALL: 98.7915 AVERAGE FETCH STALL: 25.9317 AVERAGE FETCH QUEUE STALL: 55.2641 AVERAGE DECODE STALL: 16.8414 AVERAGE EXECUTE STALL: 8.08005e+15
L2BTB BRANCH_INDIRECT_CALL	ACCESS:     141757 HIT:     131754 MISS:      10003 AVERAGE STALL: 176.954 AVERAGE FETCH STALL: 12.186 AVERAGE FETCH QUEUE STALL: 20.707 AVERAGE DECODE STALL: 15.396 AVERAGE EXECUTE STALL: 128.17
L2BTB BRANCH_RETURN	ACCESS:     830237 HIT:     788280 MISS:      41957 AVERAGE STALL: 54.921 AVERAGE FETCH STALL: 16.669 AVERAGE FETCH QUEUE STALL: 7.49315 AVERAGE DECODE STALL: 7.46479 AVERAGE EXECUTE STALL: 4.25373e+14
L2BTB BRANCH_OTHER ACCESS:          0 HIT:          0 MISS:          0 AVERAGE STALL: -nan AVERAGE FETCH STALL: -nan AVERAGE FETCH QUEUE STALL: -nan AVERAGE DECODE STALL: -nan AVERAGE EXECUTE STALL: -nan
L2BTB TOTAL ROB OCCUPANCY AT BTB MISS: 163.236

L2C TOTAL     ACCESS:    8632253  HIT:    8154927  MISS:     477326  HIT %:    94.4704  MISS %:    5.52956   MPKI: 9.54652
L2C LOAD INSTRUCTION	ACCESS:    2780516  HIT:    2512314  MISS:     268202  HIT %:    90.3542  MISS %:    9.64576  MPKI: 5.36404
L2C LOAD TRANSLATION INSTRUCTION	ACCESS:        223  HIT:         51  MISS:        172  HIT %:      22.87  MISS %:      77.13  MPKI: 0.00344
L2C LOAD DATA	ACCESS:    3137431  HIT:    3060151  MISS:      77280  HIT %:    97.5368  MISS %:    2.46316  MPKI: 1.5456
L2C RFO DATA	ACCESS:    1114529  HIT:    1062891  MISS:      51638  HIT %:    95.3668  MISS %:    4.63317  MPKI: 1.03276
L2C PREFETCH DATA	ACCESS:     318764  HIT:     252779  MISS:      65985  HIT %:    79.2997  MISS %:    20.7003  MPKI: 1.3197
L2C WRITEBACK DATA	ACCESS:    1279130  HIT:    1266240  MISS:      12890  HIT %:    98.9923  MISS %:    1.00772  MPKI: 0.2578
L2C LOAD TRANSLATION DATA	ACCESS:       1660  HIT:        501  MISS:       1159  HIT %:    30.1807  MISS %:    69.8193  MPKI: 0.02318

L2C PREFETCH  REQUESTED:      99552  ISSUED:      99552  USEFUL:      12746  USELESS:      53848
L2C USEFUL LOAD PREFETCHES:      12746 PREFETCH ISSUED TO LOWER LEVEL:      66569  ACCURACY: 19.1471
 TIMELY PREFETCHES:      12746 LATE PREFETCHES: 583 DROPPED PREFETCHES: 0
L2C AVERAGE MISS LATENCY: 37.4736 cycles
L2C RQ	ACCESS:    7069887	FORWARD:          0	MERGED:          0	TO_CACHE:    7034363
L2C WQ	ACCESS:    1290678	FORWARD:      36544	MERGED:      11547	TO_CACHE:    1279131
L2C PQ	ACCESS:     327959	FORWARD:          0	MERGED:       3560	TO_CACHE:     323379

L2C Dense regions hint from L2: 0
PSCL5 TOTAL     ACCESS:       3622  HIT:       1811  MISS:       1811  HIT %:         50  MISS %:         50   MPKI: 0.03622
PSCL5 LOAD TRANSLATION INSTRUCTION	ACCESS:       3622  HIT:       1811  MISS:       1811  HIT %:         50  MISS %:         50  MPKI: 0.03622


PSCL4 TOTAL     ACCESS:       3540  HIT:       1768  MISS:       1772  HIT %:    49.9435  MISS %:    50.0565   MPKI: 0.03544
PSCL4 LOAD TRANSLATION INSTRUCTION	ACCESS:       1882  HIT:       1768  MISS:        114  HIT %:    93.9426  MISS %:    6.05739  MPKI: 0.00228
PSCL4 LOAD TRANSLATION DATA	ACCESS:       1658  HIT:          0  MISS:       1658  HIT %:          0  MISS %:        100  MPKI: 0.03316


PSCL3 TOTAL     ACCESS:       3558  HIT:       1777  MISS:       1781  HIT %:    49.9438  MISS %:    50.0562   MPKI: 0.03562
PSCL3 LOAD TRANSLATION INSTRUCTION	ACCESS:       1891  HIT:       1777  MISS:        114  HIT %:    93.9714  MISS %:    6.02856  MPKI: 0.00228
PSCL3 LOAD TRANSLATION DATA	ACCESS:       1667  HIT:          0  MISS:       1667  HIT %:          0  MISS %:        100  MPKI: 0.03334


PSCL2 TOTAL     ACCESS:       3558  HIT:       1747  MISS:       1811  HIT %:    49.1006  MISS %:    50.8994   MPKI: 0.03622
PSCL2 LOAD TRANSLATION INSTRUCTION	ACCESS:       1945  HIT:       1747  MISS:        198  HIT %:    89.8201  MISS %:    10.1799  MPKI: 0.00396
PSCL2 LOAD TRANSLATION DATA	ACCESS:       1613  HIT:          0  MISS:       1613  HIT %:          0  MISS %:        100  MPKI: 0.03226


LLC TOTAL     ACCESS:     539649  HIT:     513906  MISS:      25743  HIT %:    95.2297  MISS %:    4.77032   MPKI: 0.51486
LLC LOAD INSTRUCTION	ACCESS:     268202  HIT:     267732  MISS:        470  HIT %:    99.8248  MISS %:   0.175241  MPKI: 0.0094
LLC LOAD TRANSLATION INSTRUCTION	ACCESS:        172  HIT:        151  MISS:         21  HIT %:    87.7907  MISS %:    12.2093  MPKI: 0.00042
LLC LOAD DATA	ACCESS:      76784  HIT:      72866  MISS:       3918  HIT %:    94.8974  MISS %:    5.10263  MPKI: 0.07836
LLC RFO DATA	ACCESS:      51549  HIT:      38666  MISS:      12883  HIT %:    75.0082  MISS %:    24.9918  MPKI: 0.25766
LLC PREFETCH DATA	ACCESS:      66568  HIT:      58431  MISS:       8137  HIT %:    87.7764  MISS %:    12.2236  MPKI: 0.16274
LLC WRITEBACK DATA	ACCESS:      75215  HIT:      74958  MISS:        257  HIT %:    99.6583  MISS %:   0.341687  MPKI: 0.00514
LLC LOAD TRANSLATION DATA	ACCESS:       1159  HIT:       1102  MISS:         57  HIT %:     95.082  MISS %:    4.91803  MPKI: 0.00114

LLC AVERAGE MISS LATENCY: 152.586 cycles
LLC RQ	ACCESS:     397868	FORWARD:          0	MERGED:          0	TO_CACHE:     397866
LLC WQ	ACCESS:      75215	FORWARD:          3	MERGED:          0	TO_CACHE:      75215
LLC PQ	ACCESS:      66569	FORWARD:          0	MERGED:          0	TO_CACHE:      66568

LLC Dense regions hint to LLC: 0

RAW hits: 1976987
Loads Generated: 12632550
Loads sent to L1D: 10655563
Stores Generated: 6956176
Stores sent to L1D: 6956185
Major fault: 0 Minor fault: 2481
Allocated PAGES: 2481

stream: 
stream:times selected: 1179094
stream:pref_filled: 392624
stream:pref_useful: 23950
stream:pref_late: 31856
stream:misses: 111149
stream:misses_by_poll: 0

CS: 
CS:times selected: 173592
CS:pref_filled: 8652
CS:pref_useful: 4019
CS:pref_late: 4372
CS:misses: 12305
CS:misses_by_poll: 0

CPLX: 
CPLX:times selected: 1170318
CPLX:pref_filled: 39584
CPLX:pref_useful: 3108
CPLX:pref_late: 5543
CPLX:misses: 692843
CPLX:misses_by_poll: 2

NL_L1: 
NL:times selected: 5479
NL:pref_filled: 2436
NL:pref_useful: 107
NL:pref_late: 183
NL:misses: 4845
NL:misses_by_poll: 0

total selections: 2528483
total_filled: 212498
total_useful: 25200
total_late: 45564
total_polluted: 2
total_misses_after_warmup: 3370689
conflicts: 5557629

test: 116392

DRAM Statistics
 CHANNEL 0
 RQ ROW_BUFFER_HIT:       9160  ROW_BUFFER_MISS:      16324
 DBUS_CONGESTED:          7
 WQ ROW_BUFFER_HIT:       1171  ROW_BUFFER_MISS:      11587  FULL:          0

 AVG_CONGESTED_CYCLE: 3

CPU 0 Branch Prediction Accuracy: 99.8257% MPKI: 0.31912 Average ROB Occupancy at Mispredict: 203.527
Branch types
NOT_BRANCH: 40846884 81.6938%
BRANCH_DIRECT_JUMP: 547751 1.0955%
BRANCH_INDIRECT: 182288 0.364576%
BRANCH_CONDITIONAL: 6179443 12.3589%
BRANCH_DIRECT_CALL: 949112 1.89822%
BRANCH_INDIRECT_CALL: 172546 0.345092%
BRANCH_RETURN: 1121660 2.24332%
BRANCH_OTHER: 0 0%

DRAM PAGES: 1048576
Allocated PAGES: 2481
Average_ROB_Occupancy: 270.686
Average_Decode_Occupancy: 40.7468
Average_FTQ_Occupancy: 15.6874
Indirect max targets: 14 Average targets: 1.14576
Branch_type:  BRANCH_DIRECT_JUMP:  Count Percentage: 3.28165 5.97631 3.65442 7.17978 2.92367 6.32151 1.29156 69.3711 
Branch_type:  BRANCH_INDIRECT:  Count Percentage: 6.12122 0.788748 8.14555 9.6825 3.34841 2.8139 0.937785 68.1619 
Branch_type:  BRANCH_CONDITIONAL:  Count Percentage: 20.8927 3.48023 1.53093 7.18912 3.07247 3.54878 0.573501 59.7123 
Branch_type:  BRANCH_DIRECT_CALL:  Count Percentage: 0.901908 1.28065 0.724844 3.62232 2.78686 2.60827 0.885744 87.1894 
Branch_type:  BRANCH_INDIRECT_CALL:  Count Percentage: 9.54037 0 2.99243 0 0.000290245 1.70984 0.99351 84.7636 
Branch_type:  BRANCH_RETURN:  Count Percentage: 4.74589 4.79182 1.02068 4.82809 4.10445 3.40967 0.580772 76.5186 
Branch_type:  BRANCH_DIRECT_JUMP:  Total Count: 35953 65475 40037 78660 32031 69257 14150 760013 
Branch_type:  BRANCH_INDIRECT:  Total Count: 22343 2879 29732 35342 12222 10271 3423 248797 
Branch_type:  BRANCH_CONDITIONAL:  Total Count: 2581475 430012 189160 888278 379630 438482 70861 7377963 
Branch_type:  BRANCH_DIRECT_CALL:  Total Count: 17074 24244 13722 68574 52758 49377 16768 1650580 
Branch_type:  BRANCH_INDIRECT_CALL:  Total Count: 32870 0 10310 0 1 5891 3423 292041 
Branch_type:  BRANCH_RETURN:  Total Count: 106232 107260 22847 108072 91874 76322 13000 1712792 
Number of unique branch instructions: 9763
Upper 32 bits: 
aaaa
ffff
ffff0000
Unique upper 32 bits: 3
Unique upper 36 bits: 3
Unique upper 40 bits: 5
Unique upper 44 bits: 32
Unique upper 48 bits: 154
Variant_0 : 1384 0.337891
Variant_1 : 2620 0.639648
Variant_2 : 0 0
Variant_3 : 0 0
Offset_3 4036
Offset_4 241
Offset_5 442
Offset_6 503
Offset_7 572
Offset_8 499
Offset_9 459
Offset_10 377
Offset_11 303
Offset_12 265
Offset_13 201
Offset_14 223
Offset_15 190
Offset_16 218
Offset_17 145
Offset_18 120
Offset_19 235
Offset_20 135
Offset_21 235
Offset_22 391
Offset_23 241
Offset_24 325
Offset_25 88
Offset_47 80
decode_dispatch_called: 32596286 75.6765
Dispatch_width: 0 19902487 61.0575 46.2062
Dispatch_width: 1 1180260 3.62084 2.74013
Dispatch_width: 2 963656 2.95634 2.23725
Dispatch_width: 3 548091 1.68145 1.27246
Dispatch_width: 4 7332930 22.4962 17.0243
Dispatch_width: 5 96921 0.297338 0.225015
Dispatch_width: 6 2571941 7.89029 5.97109
Empty_decode_cycles: 10476919 24.3235
ROB_full_cycles: 16857695 39.1373
Starvation_cycles_per_kilo_instr: 236.436
Starvation_cycles_per_kilo_instr_3: 162.137
Starvation_cycles_per_kilo_instr_0: 135.217
Branch_type_1  (3,1)  (4,7)  (5,36)  (6,71)  (7,115)  (8,125)  (9,124)  (10,98)  (11,67)  (12,43)  (13,8)  (14,2)  (15,3)  (16,4)  (18,1)  (19,4)  (20,2)  (21,1)  (22,3)  (23,2)  (24,10)  (25,12) 
Branch_type_2  (3,1)  (5,1)  (8,3)  (9,3)  (12,1)  (13,1)  (14,1)  (16,3)  (17,2)  (20,2)  (21,2)  (23,5)  (24,1)  (47,36) 
Branch_type_3  (3,4034)  (4,234)  (5,401)  (6,417)  (7,428)  (8,312)  (9,251)  (10,154)  (11,122)  (12,50)  (13,7) 
Branch_type_4  (6,3)  (7,8)  (8,24)  (9,50)  (10,59)  (11,58)  (12,93)  (13,84)  (14,98)  (15,90)  (16,98)  (17,63)  (18,54)  (19,115)  (20,71)  (21,124)  (22,207)  (23,136)  (24,186)  (25,72) 
Branch_type_5  (8,2)  (9,1)  (10,3)  (11,5)  (12,3)  (13,14)  (14,16)  (15,11)  (16,20)  (17,13)  (18,16)  (19,12)  (20,10)  (21,13)  (22,42)  (23,26)  (24,36) 
Branch_type_6  (5,4)  (6,12)  (7,21)  (8,33)  (9,30)  (10,63)  (11,51)  (12,75)  (13,87)  (14,106)  (15,86)  (16,93)  (17,67)  (18,49)  (19,104)  (20,50)  (21,95)  (22,139)  (23,72)  (24,92)  (25,4)  (47,44) 
Unique trigger count: 
Variant_0_evicts_0 : 0
Variant_0_evicts_1 : 0
Variant_0_evicts_2 : 0
Variant_0_evicts_3 : 0
Variant_1_evicts_0 : 0
Variant_1_evicts_1 : 0
Variant_1_evicts_2 : 0
Variant_1_evicts_3 : 0
Variant_2_evicts_0 : 0
Variant_2_evicts_1 : 0
Variant_2_evicts_2 : 0
Variant_2_evicts_3 : 0
Variant_3_evicts_0 : 0
Variant_3_evicts_1 : 0
Variant_3_evicts_2 : 0
Variant_3_evicts_3 : 0
BTB PER SET UNIQUE ADDR: 9 10 6 10 12 14 7 8 6 9 9 14 10 8 9 9 8 9 11 11 7 8 8 9 7 10 9 10 7 6 11 9 10 8 7 7 11 15 11 6 8 7 9 9 7 8 10 7 8 10 9 9 9 8 9 6 8 8 9 7 8 11 7 10 10 10 9 7 9 10 9 10 11 7 8 8 6 13 8 11 7 7 7 10 10 7 11 8 7 14 10 8 6 9 6 8 7 11 9 13 14 12 9 12 5 9 10 8 7 6 5 10 12 7 7 7 8 13 8 10 8 8 8 8 7 6 7 10 15 6 8 8 8 10 8 8 8 13 6 12 10 10 7 10 9 7 15 11 8 6 9 14 8 8 10 12 10 9 9 9 8 7 10 13 12 6 10 8 11 10 9 8 9 8 6 10 9 7 9 8 11 8 11 10 10 11 6 8 8 7 9 12 9 11 14 8 12 10 8 8 7 8 7 6 7 7 9 7 8 9 10 11 11 10 8 9 10 11 10 9 7 15 7 7 8 9 9 11 7 10 11 5 11 12 9 9 14 8 8 6 10 9 13 11 7 5 9 5 8 6 12 12 11 6 10 16 8 6 8 6 10 13 5 10 8 7 8 10 11 9 7 10 6 5 7 7 8 11 10 6 8 9 8 8 10 4 8 9 13 6 11 6 11 7 9 10 11 8 9 9 7 8 9 14 10 9 12 7 11 9 8 13 7 10 10 7 8 11 9 14 8 12 11 10 10 11 8 7 12 9 7 8 7 12 6 9 10 7 7 10 7 8 5 11 9 10 9 11 8 7 9 9 7 8 7 12 6 8 7 6 10 11 9 13 6 8 6 13 12 10 5 7 11 8 13 13 8 12 11 10 10 10 5 9 10 12 15 14 9 10 11 7 11 14 10 7 9 9 10 6 7 11 8 10 7 8 10 15 8 10 12 6 8 11 9 10 11 11 10 9 7 8 12 11 12 8 13 6 14 7 13 6 10 10 7 12 7 5 11 9 13 7 7 9 15 7 7 13 11 9 12 13 10 9 9 12 11 11 7 12 4 10 9 9 12 9 11 9 9 12 8 10 8 11 8 10 6 15 6 11 12 10 9 11 7 12 12 13 11 11 12 12 8 6 7 10 12 12 8 10 11 12 8 9 5 5 3 13 10 9 7 12 11 10 10 11 11 11 10 8 8 9 10 7 10 10 13 6 5 11 10 6 13 11 9 13 7 10 8 8 13 7 12 8 9 12 11 11 11 9 9 7 10 9 11 13 9 9 14 9 10 14 6 10 9 10 12 10 9 11 12 10 11 10 11 9 7 7 9 8 10 12 4 8 9 7 10 10 11 10 8 12 11 8 8 8 9 9 11 10 9 7 11 6 7 11 9 8 7 7 11 12 8 9 4 9 9 11 8 14 10 5 6 5 13 8 6 10 8 9 7 11 10 14 8 6 11 8 7 9 8 10 8 7 9 10 9 8 12 8 8 11 6 10 9 11 12 10 12 7 9 6 11 9 10 12 10 8 8 8 12 8 7 11 12 7 10 9 11 6 9 10 9 13 8 8 11 9 9 13 10 7 8 8 9 11 6 10 7 11 5 10 11 9 7 11 9 11 9 7 8 13 9 8 8 8 13 11 5 8 11 12 8 8 7 11 10 7 11 11 7 10 7 13 9 12 12 11 14 9 9 6 7 9 13 15 9 9 8 7 11 11 10 7 7 11 13 9 8 6 6 6 7 10 7 10 8 12 8 10 10 12 7 5 11 7 9 11 9 13 5 9 10 8 8 9 12 14 9 8 8 6 10 10 8 12 7 8 7 12 8 13 9 11 14 15 9 8 9 12 12 13 11 8 9 11 13 11 7 15 11 13 6 9 11 9 11 8 12 12 11 13 7 9 9 11 8 9 11 9 11 10 8 10 12 12 10 13 7 10 10 7 9 10 9 13 11 6 10 11 7 13 5 9 10 6 7 7 13 9 7 10 10 8 6 8 7 9 8 6 13 8 8 12 10 9 12 9 9 7 10 7 8 10 10 10 10 8 10 9 12 12 12 13 5 7 8 11 10 12 11 10 12 11 15 8 13 10 9 7 8 10 10 8 6 8 5 8 7 7 14 10 12 9 9 10 10 12 11 11 6 8 11 11 5 6 8 10 9 7 9 10 9 13 9 7 9 11 10 11 6 11 11 9 5 8 10 8 8 11 9 9 10 9 10 9 15 10 8 11 9 12 7 11 6 12 11 10 9 9 12 7 8 10 11 6 11 8 13 8 10 11 9 5 13 9 8 10 10 12 8 10 12 8 9 7 5 7 6 6 6 15 12 6 
BTB PER SET COUNT: 10 12 1743 10 12 18 7 9 1478 10 12 20 20584 10 15 11 2467 9 676 16 8 10 845 11 8 12 9 10 371 6 480 11 13 12 10 7 11 22 18 6 12 8 11 20 1480 105 13 8 114 398 12 95 14 14 11 369 8 8 307 8 8 17 7 10 12 10 10 8 9 15 265 492 11 9 9 9 6 573 11 12 967 7 12 11 10 23 12 9 8 21 12 831 28 64 7 8 972 15 10 15 20 299 9 492 2479 10 15 10 804 6 5 29 975 8 8 7 8 26 9 1003 8 8 8 11 7 138 9 770 19 965 8 9 9 10 10 8 10 20 6 15 13 11 9 22 13 7 26 14 13 8 10 280 9 8 14 15 1511 9 109 11 12 8 13 14 42 6 13 11 12 88 12 12 11 11 7 1203 19 7 11 8 45 10 12 17 276 681 11 8 788 966 11 15 10 12 16 167 15 11 10 8 7 15 1002 6 7 7 9 10 9 896 13 18 13 16 8 25 11 13 2698 9 8 16 9 10 10 23 10 14 7 11 11 5 13 15 11 9 796 141 292 6 12 10 975 14 8 966 10 8 10 7 15 20 13 6 17 19 10 10 9 7 1004 15 5 492 9 11 10 11 18 9 14 13 6 5 7 7 9 13 10 966 15 10 11 11 10 4 8 9 15 6 11 6 13 8 9 11 14 11 10 10 8 10 10 19 10 9 27 7 13 16 8 16 7 11 1214 7 10 18 11 20 11 3556 14 12 11 186 398 8 15 11 12 9 53 12 6 11 11 9 7 373 7 1285 5 101 10 10 9 18 10 10 12 10 14 9 8 17 6 13 141 8 10 18 11 23 6 8 6 16 18 10 5 203 13 1204 209 17 10 12 18 20 14 11 171 10 14 13 19 15 11 547 224 9 12 16 12 184 11 9 1478 8 11 11 1325 11 8 9 11 871 8 10 910 6 8 13 10 11 14 71 10 9 8 10 18 12 19 8 15 6 18 1462 17 6 13 17 8 21 7 6 12 12 20 7 40 10 467 7 421 14 16 9 175 17 11 11 409 170 15 12 7 13 4 12 11 10 14 11 8181 11 14 15 8 10 9 15 10 10 6 25 6 13 13 11 10 13 7 547 21 16 12 207 109 13 999 7 11 1482 642 1001 9 11 11 12 9 153 6 7 3 21 10 9 8 17 18 10 11 15 25 16 13 8 9 10 13 8 11 11 18 1190 5 1483 11 6 19 16 9 16 10 970 9 8 18 8 34 9 14 103 17 15 15 970 14 7 816 26 16 14 10 10 18 15 15 106 6 10 1000 10 166 17 12 13 1483 15 16 12 290 10 7 7 12 9 15 14 4 2957 10 8 944 12 12 11 12 17 15 8 8 12 11 376 164 10 12 8 12 6 8 12 14 278 7 8 15 854 9 9 4 10 11 14 8 809 13 6 10 185 13 9 8 11 8 9 10 13 15 19 8 7 11 10 7 12 9 12 8 8 1217 194 488 9 201 10 8 13 7 10 9 495 15 10 14 9 9 6 12 9 52 17 13 1000 1480 8 13 8 998 12 18 7 10 10 11 7 10 12 277 14 1928 8 14 11 9 14 13 9 8 9 2185 15 6 103 8 15 5 23 277 13 8 17 16 13 9 7 11 17 974 11 8 10 1235 18 5 8 13 1007 12 2472 8 15 12 8 106 3229 9 16 7 107 9 1951 116 12 20 11 1449 6 8 9 15 17 9 10 9 7 1486 16 10 8 7 13 14 12 9 6 7 6 7 433 8 16 8 17 9 11 12 262 9 5 18 8 11 16 10 13 931 10 963 8 9 9 14 18 9 8 11 6 17 14 8 40 8 11 8 175 8 15 380 220 15 17 9 8 9 16 17 7791 16 10 471 52 15 2556 7 2993 12 1199 6 9 12 11 14 9 24 1221 11 19 7 11 11 1994 9 11 877 11 14 834 9 12 215 14 12 19 7 6571 10 459 529 16 11 18 12 7 14 12 967 15 5 10 11 6 7 9 18 11 9 12 13 8 6 9 10 9 8 8 14 12 104 17 195 9 14 15 9 8 13 7 9 46 10 14 14 9 13 15 12 20 13 89 5 11 8 16 138 48 17 866 18 18 46 8 15 16 10 9 10 437 494 8 6 1031 5 8 7 18 19 10 414 12 12 2890 11 21 1992 14 10 1778 12 12 5 12 10 10 11 8 410 11 1001 2717 9 8 17 12 16 45 997 12 14 10 5 9 14 12 49 12 57 1227 10 12 104 9 21 12 101 291 12 15 8 900 12 1372 13 925 10 9 12 13 10 705 12 11 14 1485 31 10 10 1485 12 8 13 9 8 12 12 1003 102 13 14 9 10 7 5 178 6 6 6 99 19 6 
To predecode: 0
Predecoding something: 0
Predecode request dropped: 0
sizeofblock_0 0
sizeofblock_1 52325
sizeofblock_2 87666
sizeofblock_3 0
sizeofblock_4 0
sizeofblock_5 0
sizeofblock_6 0
sizeofblock_7 0
sizeofblock_8 0
Variant_0 Correct: 1617024 Incorrect: 0 Accuracy: 1
Variant_1 Correct: 5743947 Incorrect: 0 Accuracy: 1
Variant_2 Correct: 0 Incorrect: 0 Accuracy: -nan
Variant_3 Correct: 0 Incorrect: 0 Accuracy: -nan
