
*** ChampSim Multicore Out-of-Order Simulator ***

Warmup Instructions: 50000000
Simulation Instructions: 50000000
Number of CPUs: 1
LLC sets: 2048
LLC ways: 16
Off-chip DRAM Size: 4096 MB Channels: 1 Width: 64-bit Data Rate: 6400 MT/s
CPU 0 runs ./micro_traces/srv674.trace.gz
.gz
ITLB has LRU replacement policy
DTLB has LRU replacement policy
STLB has LRU replacement policy
CPU 0 L1I next line prefetcher
./conditional/srv674.cond
L1I has LRU replacement policy
L1D has LRU replacement policy
Initialize SRRIP state for L2C
Initialize DRRIP state for LLC
Heartbeat_Variant_0 : 1296 0.316406 per_variant_size: 0 1296 0 0 0 0 0 0 0 
Heartbeat_Variant_1 : 1200 0.292969 per_variant_size: 0 598 602 0 0 0 0 0 0 
Heartbeat_Variant_2 : 1286 0.313965 per_variant_size: 0 540 324 354 68 0 0 0 0 
Heartbeat_Variant_3 : 0 0 per_variant_size: 0 0 0 0 0 0 0 0 0 
Heartbeat_Variant_0_evicts 0 : 5782 1 : 182 2 : 216 3 : 0 
Heartbeat_Variant_1_evicts 0 : 161 1 : 0 2 : 375 3 : 0 
Heartbeat_Variant_2_evicts 0 : 196 1 : 373 2 : 0 3 : 0 
Heartbeat_Variant_3_evicts 0 : 0 1 : 0 2 : 0 3 : 0 
Heartbeat CPU 0 instructions: 10000003 cycles: 2797998 heartbeat IPC: 3.57399 cumulative IPC: 3.57399 (Simulation time: 0 hr 1 min 44 sec) 
Heartbeat_Variant_0 : 1353 0.330322 per_variant_size: 0 1353 0 0 0 0 0 0 0 
Heartbeat_Variant_1 : 1235 0.301514 per_variant_size: 0 561 674 0 0 0 0 0 0 
Heartbeat_Variant_2 : 1329 0.324463 per_variant_size: 0 531 332 384 82 0 0 0 0 
Heartbeat_Variant_3 : 0 0 per_variant_size: 0 0 0 0 0 0 0 0 0 
Heartbeat_Variant_0_evicts 0 : 5729 1 : 136 2 : 133 3 : 0 
Heartbeat_Variant_1_evicts 0 : 123 1 : 0 2 : 313 3 : 0 
Heartbeat_Variant_2_evicts 0 : 119 1 : 314 2 : 0 3 : 0 
Heartbeat_Variant_3_evicts 0 : 0 1 : 0 2 : 0 3 : 0 
Heartbeat CPU 0 instructions: 20000000 cycles: 5595828 heartbeat IPC: 3.5742 cumulative IPC: 3.57409 (Simulation time: 0 hr 3 min 28 sec) 
Heartbeat_Variant_0 : 1351 0.329834 per_variant_size: 0 1351 0 0 0 0 0 0 0 
Heartbeat_Variant_1 : 1240 0.302734 per_variant_size: 0 578 662 0 0 0 0 0 0 
Heartbeat_Variant_2 : 1336 0.326172 per_variant_size: 0 532 335 399 70 0 0 0 0 
Heartbeat_Variant_3 : 0 0 per_variant_size: 0 0 0 0 0 0 0 0 0 
Heartbeat_Variant_0_evicts 0 : 5624 1 : 23 2 : 15 3 : 0 
Heartbeat_Variant_1_evicts 0 : 23 1 : 0 2 : 225 3 : 0 
Heartbeat_Variant_2_evicts 0 : 22 1 : 221 2 : 0 3 : 0 
Heartbeat_Variant_3_evicts 0 : 0 1 : 0 2 : 0 3 : 0 
Heartbeat CPU 0 instructions: 30000001 cycles: 8392931 heartbeat IPC: 3.57513 cumulative IPC: 3.57444 (Simulation time: 0 hr 5 min 9 sec) 
Heartbeat_Variant_0 : 1356 0.331055 per_variant_size: 0 1356 0 0 0 0 0 0 0 
Heartbeat_Variant_1 : 1260 0.307617 per_variant_size: 0 597 663 0 0 0 0 0 0 
Heartbeat_Variant_2 : 1336 0.326172 per_variant_size: 0 510 365 373 88 0 0 0 0 
Heartbeat_Variant_3 : 0 0 per_variant_size: 0 0 0 0 0 0 0 0 0 
Heartbeat_Variant_0_evicts 0 : 5705 1 : 111 2 : 113 3 : 0 
Heartbeat_Variant_1_evicts 0 : 123 1 : 0 2 : 309 3 : 0 
Heartbeat_Variant_2_evicts 0 : 100 1 : 312 2 : 0 3 : 0 
Heartbeat_Variant_3_evicts 0 : 0 1 : 0 2 : 0 3 : 0 
Heartbeat CPU 0 instructions: 40000000 cycles: 11189842 heartbeat IPC: 3.57537 cumulative IPC: 3.57467 (Simulation time: 0 hr 6 min 51 sec) 
Heartbeat_Variant_0 : 1361 0.332275 per_variant_size: 0 1361 0 0 0 0 0 0 0 
Heartbeat_Variant_1 : 1259 0.307373 per_variant_size: 0 596 663 0 0 0 0 0 0 
Heartbeat_Variant_2 : 1347 0.328857 per_variant_size: 0 517 371 384 75 0 0 0 0 
Heartbeat_Variant_3 : 0 0 per_variant_size: 0 0 0 0 0 0 0 0 0 
Heartbeat_Variant_0_evicts 0 : 5733 1 : 58 2 : 66 3 : 0 
Heartbeat_Variant_1_evicts 0 : 51 1 : 0 2 : 271 3 : 0 
Heartbeat_Variant_2_evicts 0 : 72 1 : 269 2 : 0 3 : 0 
Heartbeat_Variant_3_evicts 0 : 0 1 : 0 2 : 0 3 : 0 
Heartbeat CPU 0 instructions: 50000000 cycles: 13987550 heartbeat IPC: 3.57435 cumulative IPC: 3.57461 (Simulation time: 0 hr 8 min 36 sec) 

Warmup complete CPU 0 instructions: 50000004 cycles: 13987551 (Simulation time: 0 hr 8 min 36 sec) 

Cycle: 20000000 FTQ IN: 58087046 FTQ occupancy: 19.5838 DECODE IN: 58087046 DECODE occupancy: 51.1481 ROB IN: 58086996 ROB occupancy: 311.845 ROB OUT: 58086698
Heartbeat_Variant_0 : 1369 0.334229 per_variant_size: 0 1369 0 0 0 0 0 0 0 
Heartbeat_Variant_1 : 1257 0.306885 per_variant_size: 0 596 661 0 0 0 0 0 0 
Heartbeat_Variant_2 : 1356 0.331055 per_variant_size: 0 531 360 365 100 0 0 0 0 
Heartbeat_Variant_3 : 0 0 per_variant_size: 0 0 0 0 0 0 0 0 0 
Heartbeat_Variant_0_evicts 0 : 5738 1 : 89 2 : 81 3 : 0 
Heartbeat_Variant_1_evicts 0 : 85 1 : 0 2 : 290 3 : 0 
Heartbeat_Variant_2_evicts 0 : 84 1 : 290 2 : 0 3 : 0 
Heartbeat_Variant_3_evicts 0 : 0 1 : 0 2 : 0 3 : 0 
Heartbeat CPU 0 instructions: 60000002 cycles: 21400018 heartbeat IPC: 1.34908 cumulative IPC: 1.34908 (Simulation time: 0 hr 10 min 19 sec) 
Heartbeat_Variant_0 : 1392 0.339844 per_variant_size: 0 1392 0 0 0 0 0 0 0 
Heartbeat_Variant_1 : 1301 0.317627 per_variant_size: 0 569 732 0 0 0 0 0 0 
Heartbeat_Variant_2 : 1355 0.330811 per_variant_size: 0 492 366 386 111 0 0 0 0 
Heartbeat_Variant_3 : 0 0 per_variant_size: 0 0 0 0 0 0 0 0 0 
Heartbeat_Variant_0_evicts 0 : 6158 1 : 427 2 : 373 3 : 0 
Heartbeat_Variant_1_evicts 0 : 435 1 : 0 2 : 611 3 : 0 
Heartbeat_Variant_2_evicts 0 : 355 1 : 609 2 : 0 3 : 0 
Heartbeat_Variant_3_evicts 0 : 0 1 : 0 2 : 0 3 : 0 
Heartbeat CPU 0 instructions: 70000002 cycles: 28954470 heartbeat IPC: 1.32372 cumulative IPC: 1.33628 (Simulation time: 0 hr 11 min 57 sec) 
Cycle: 30000000 FTQ IN: 13356074 FTQ occupancy: 11.0192 DECODE IN: 13356074 DECODE occupancy: 28.7106 ROB IN: 13356099 ROB occupancy: 217.557 ROB OUT: 13356045
Heartbeat_Variant_0 : 1392 0.339844 per_variant_size: 0 1392 0 0 0 0 0 0 0 
Heartbeat_Variant_1 : 1304 0.318359 per_variant_size: 0 571 733 0 0 0 0 0 0 
Heartbeat_Variant_2 : 1353 0.330322 per_variant_size: 0 490 367 381 115 0 0 0 0 
Heartbeat_Variant_3 : 0 0 per_variant_size: 0 0 0 0 0 0 0 0 0 
Heartbeat_Variant_0_evicts 0 : 5675 1 : 25 2 : 34 3 : 0 
Heartbeat_Variant_1_evicts 0 : 30 1 : 0 2 : 223 3 : 0 
Heartbeat_Variant_2_evicts 0 : 29 1 : 225 2 : 0 3 : 0 
Heartbeat_Variant_3_evicts 0 : 0 1 : 0 2 : 0 3 : 0 
Heartbeat CPU 0 instructions: 80000003 cycles: 36263318 heartbeat IPC: 1.3682 cumulative IPC: 1.34675 (Simulation time: 0 hr 13 min 38 sec) 
Cycle: 40000000 FTQ IN: 13551290 FTQ occupancy: 11.6029 DECODE IN: 13551241 DECODE occupancy: 30.3611 ROB IN: 13551266 ROB occupancy: 226.567 ROB OUT: 13551514
Heartbeat_Variant_0 : 1402 0.342285 per_variant_size: 0 1402 0 0 0 0 0 0 0 
Heartbeat_Variant_1 : 1309 0.31958 per_variant_size: 0 564 745 0 0 0 0 0 0 
Heartbeat_Variant_2 : 1348 0.329102 per_variant_size: 0 476 356 403 113 0 0 0 0 
Heartbeat_Variant_3 : 0 0 per_variant_size: 0 0 0 0 0 0 0 0 0 
Heartbeat_Variant_0_evicts 0 : 5646 1 : 120 2 : 131 3 : 0 
Heartbeat_Variant_1_evicts 0 : 117 1 : 0 2 : 302 3 : 0 
Heartbeat_Variant_2_evicts 0 : 125 1 : 296 2 : 0 3 : 0 
Heartbeat_Variant_3_evicts 0 : 0 1 : 0 2 : 0 3 : 0 
Heartbeat CPU 0 instructions: 90000000 cycles: 43711739 heartbeat IPC: 1.34257 cumulative IPC: 1.34571 (Simulation time: 0 hr 15 min 28 sec) 
Cycle: 50000000 FTQ IN: 13649541 FTQ occupancy: 11.4305 DECODE IN: 13649479 DECODE occupancy: 29.9174 ROB IN: 13649419 ROB occupancy: 223.179 ROB OUT: 13649171
Heartbeat_Variant_0 : 1394 0.340332 per_variant_size: 0 1394 0 0 0 0 0 0 0 
Heartbeat_Variant_1 : 1307 0.319092 per_variant_size: 0 572 735 0 0 0 0 0 0 
Heartbeat_Variant_2 : 1360 0.332031 per_variant_size: 0 489 371 386 114 0 0 0 0 
Heartbeat_Variant_3 : 0 0 per_variant_size: 0 0 0 0 0 0 0 0 0 
Heartbeat_Variant_0_evicts 0 : 5770 1 : 84 2 : 97 3 : 0 
Heartbeat_Variant_1_evicts 0 : 75 1 : 0 2 : 301 3 : 0 
Heartbeat_Variant_2_evicts 0 : 114 1 : 294 2 : 0 3 : 0 
Heartbeat_Variant_3_evicts 0 : 0 1 : 0 2 : 0 3 : 0 
Heartbeat CPU 0 instructions: 100000003 cycles: 50993250 heartbeat IPC: 1.37334 cumulative IPC: 1.35114 (Simulation time: 0 hr 17 min 16 sec) 
Finished CPU 0 instructions: 50000003 cycles: 37005700 cumulative IPC: 1.35114 (Simulation time: 0 hr 17 min 16 sec) 

ChampSim completed all CPUs

Region of Interest Statistics

CPU 0 cumulative IPC: 1.35114 instructions: 50000003 cycles: 37005700
 Fetch stage stalled: 57.674  Sim cycles: 37005700 fetch stall cycle: 21342675
 Empty decode stage: 40.5968  Sim cycles: 37005700 fetch stall cycle: 15023127
ITLB TOTAL     ACCESS:    6868072  HIT:    6367361  MISS:     500711  HIT %:    92.7096  MISS %:    7.29042   MPKI: 10.0142
ITLB LOAD TRANSLATION INSTRUCTION	ACCESS:    5654936  HIT:    5172805  MISS:     482131  HIT %:    91.4742  MISS %:    8.52584  MPKI: 9.64262
ITLB TRANSLATION FROM L1D PREFETCHER INSTRUCTION	ACCESS:    1213136  HIT:    1194556  MISS:      18580  HIT %:    98.4684  MISS %:    1.53157  MPKI: 0.3716

ITLB AVERAGE MISS LATENCY: 62954.1 cycles
ITLB RQ	ACCESS:   10069310	FORWARD:          0	MERGED:    2735706	TO_CACHE:    7333604

DTLB TOTAL     ACCESS:    8995134  HIT:    8523797  MISS:     471337  HIT %:    94.7601  MISS %:    5.23991   MPKI: 9.42674
DTLB LOAD TRANSLATION DATA	ACCESS:    8995134  HIT:    8523797  MISS:     471337  HIT %:    94.7601  MISS %:    5.23991  MPKI: 9.42674

DTLB AVERAGE MISS LATENCY: 9.36521 cycles
DTLB RQ	ACCESS:   13352467	FORWARD:          0	MERGED:    4320735	TO_CACHE:    9031732

STLB TOTAL     ACCESS:    1225640  HIT:    1223517  MISS:       2123  HIT %:    99.8268  MISS %:   0.173216   MPKI: 0.04246
STLB LOAD TRANSLATION INSTRUCTION	ACCESS:     481164  HIT:     480937  MISS:        227  HIT %:    99.9528  MISS %:  0.0471773  MPKI: 0.00454
STLB TRANSLATION FROM L1D PREFETCHER INSTRUCTION	ACCESS:      19547  HIT:      19505  MISS:         42  HIT %:    99.7851  MISS %:   0.214867  MPKI: 0.00084
STLB LOAD TRANSLATION DATA	ACCESS:     471337  HIT:     469500  MISS:       1837  HIT %:    99.6103  MISS %:   0.389742  MPKI: 0.03674
STLB TRANSLATION FROM L1D PREFETCHER DATA	ACCESS:     253592  HIT:     253575  MISS:         17  HIT %:    99.9933  MISS %: 0.00670368  MPKI: 0.00034

STLB AVERAGE MISS LATENCY: 78.1917 cycles
STLB RQ	ACCESS:    1368427	FORWARD:          0	MERGED:     121999	TO_CACHE:    1246428

STLB Hit, L1D data hit: 0
STLB Hit, L2C data hit: 0
STLB Hit, LLC data hit: 0
STLB Hit, LLC data miss: 0
STLB STLB hints to L2: 0
L1D TOTAL     ACCESS:   13100478  HIT:   11992205  MISS:    1108273  HIT %:    91.5402  MISS %:    8.45979   MPKI: 22.1655
L1D LOAD DATA	ACCESS:    6572026  HIT:    5843722  MISS:     728304  HIT %:    88.9181  MISS %:    11.0819  MPKI: 14.5661
L1D RFO DATA	ACCESS:    6194633  HIT:    5909686  MISS:     284947  HIT %:    95.4001  MISS %:     4.5999  MPKI: 5.69894
L1D PREFETCH DATA	ACCESS:     333819  HIT:     238797  MISS:      95022  HIT %:    71.5349  MISS %:    28.4651  MPKI: 1.90044

L1D PREFETCH  REQUESTED:     751669  ISSUED:     751669  USEFUL:      34065  USELESS:      69538
L1D USEFUL LOAD PREFETCHES:      34065 PREFETCH ISSUED TO LOWER LEVEL:     103668  ACCURACY: 32.8597
 TIMELY PREFETCHES:      34065 LATE PREFETCHES: 8600 DROPPED PREFETCHES: 6
L1D AVERAGE MISS LATENCY: 249317 cycles
L1D RQ	ACCESS:   10712259	FORWARD:          0	MERGED:    3939336	TO_CACHE:    6610562
L1D WQ	ACCESS:    6936973	FORWARD:     162766	MERGED:     195068	TO_CACHE:    6741905
L1D PQ	ACCESS:     376037	FORWARD:          0	MERGED:          0	TO_CACHE:     375632

L1D UNIQUE REGIONS ACCESSED: 0
L1D REGIONS CONFLICTS: 0
L1D Cross Page Prefetch Requests: 6566
L1D Same Page Prefetch Requests: 757396
L1D ROI Sum of L1D PQ occupancy: 4793013
L1D PREFETCHES PUSHED FROM L2C: 0
L1I TOTAL     ACCESS:    8721749  HIT:    5434528  MISS:    3287221  HIT %:    62.3101  MISS %:    37.6899   MPKI: 65.7444
L1I LOAD INSTRUCTION	ACCESS:    6540658  HIT:    4447045  MISS:    2093613  HIT %:    67.9908  MISS %:    32.0092  MPKI: 41.8723
L1I PREFETCH INSTRUCTION	ACCESS:    2181091  HIT:     987483  MISS:    1193608  HIT %:    45.2747  MISS %:    54.7253  MPKI: 23.8722

L1I PREFETCH  REQUESTED:    3860713  ISSUED:    3858452  USEFUL:     931179  USELESS:     481361
L1I USEFUL LOAD PREFETCHES:     931179 PREFETCH ISSUED TO LOWER LEVEL:    1412545  ACCURACY: 65.9221
 TIMELY PREFETCHES:     931179 LATE PREFETCHES: 218937 DROPPED PREFETCHES: 48592
L1I AVERAGE MISS LATENCY: 2.16546e+06 cycles
L1I RQ	ACCESS:    9491279	FORWARD:          0	MERGED:    2749073	TO_CACHE:    6742206
L1I PQ	ACCESS:    3858452	FORWARD:          0	MERGED:     531348	TO_CACHE:    3327104

L1BTB TOTAL     ACCESS:    5671765  HIT:    2062014  MISS:    3609751  HIT %:    36.3558  MISS %:    63.6442   MPKI: 72.195
L1BTB BRANCH_DIRECT_JUMP	ACCESS:     549503  HIT:     146607  MISS:     402896	AVERAGE STALL: 49.3802
L1BTB BRANCH_INDIRECT	ACCESS:     183944  HIT:      66799  MISS:     117145	AVERAGE STALL: 102.215
L1BTB BRANCH_CONDITIONAL	ACCESS:    2721345  HIT:    1433662  MISS:    1287683	AVERAGE STALL: 56.4482
L1BTB BRANCH_DIRECT_CALL	ACCESS:     938188  HIT:     104847  MISS:     833341	AVERAGE STALL: 61.0812
L1BTB BRANCH_INDIRECT_CALL	ACCESS:     170287  HIT:      20707  MISS:     149580	AVERAGE STALL: 124.219
L1BTB BRANCH_RETURN	ACCESS:    1108498  HIT:     289392  MISS:     819106	AVERAGE STALL: 47.179
L1BTB BRANCH_OTHER ACCESS:          0  HIT:          0  MISS:          0	AVERAGE STALL: -nan
L1BTB TOTAL ROB OCCUPANCY AT BTB MISS: 5.00651

L2BTB TOTAL     ACCESS:    3584151  HIT:    3475540  MISS:     108611  HIT %:    96.9697  MISS %:    3.03031   MPKI: 2.17222
L2BTB BRANCH_DIRECT_JUMP	ACCESS:     398615  HIT:     391893  MISS:       6722	AVERAGE STALL: 49.3802
L2BTB BRANCH_INDIRECT	ACCESS:     106869  HIT:     104129  MISS:       2740	AVERAGE STALL: 102.215
L2BTB BRANCH_CONDITIONAL	ACCESS:    1287683  HIT:    1263261  MISS:      24422	AVERAGE STALL: 56.4482
L2BTB BRANCH_DIRECT_CALL	ACCESS:     833341  HIT:     830492  MISS:       2849	AVERAGE STALL: 61.0812
L2BTB BRANCH_INDIRECT_CALL	ACCESS:     139930  HIT:     129083  MISS:      10847	AVERAGE STALL: 124.219
L2BTB BRANCH_RETURN	ACCESS:     817713  HIT:     756682  MISS:      61031	AVERAGE STALL: 47.179
L2BTB BRANCH_OTHER ACCESS:          0  HIT:          0  MISS:          0	AVERAGE STALL: -nan
L2BTB TOTAL ROB OCCUPANCY AT BTB MISS: 166.394

L2C TOTAL     ACCESS:    5637887  HIT:    4796208  MISS:     841679  HIT %:     85.071  MISS %:     14.929   MPKI: 16.8336
L2C LOAD INSTRUCTION	ACCESS:    1874676  HIT:    1623773  MISS:     250903  HIT %:    86.6162  MISS %:    13.3838  MPKI: 5.01806
L2C PREFETCH INSTRUCTION	ACCESS:    1412545  HIT:    1234028  MISS:     178517  HIT %:     87.362  MISS %:     12.638  MPKI: 3.57034
L2C LOAD TRANSLATION INSTRUCTION	ACCESS:        271  HIT:        101  MISS:        170  HIT %:    37.2694  MISS %:    62.7306  MPKI: 0.0034
L2C TRANSLATION FROM L1D PREFETCHER INSTRUCTION	ACCESS:      29755  HIT:      20600  MISS:       9155  HIT %:    69.2321  MISS %:    30.7679  MPKI: 0.1831
L2C LOAD DATA	ACCESS:     719680  HIT:     598510  MISS:     121170  HIT %:    83.1634  MISS %:    16.8366  MPKI: 2.4234
L2C RFO DATA	ACCESS:     284862  HIT:     213112  MISS:      71750  HIT %:    74.8124  MISS %:    25.1876  MPKI: 1.435
L2C PREFETCH DATA	ACCESS:     796805  HIT:     614783  MISS:     182022  HIT %:     77.156  MISS %:     22.844  MPKI: 3.64044
L2C WRITEBACK DATA	ACCESS:     517300  HIT:     490736  MISS:      26564  HIT %:    94.8649  MISS %:    5.13512  MPKI: 0.53128
L2C LOAD TRANSLATION DATA	ACCESS:       1954  HIT:        542  MISS:       1412  HIT %:     27.738  MISS %:     72.262  MPKI: 0.02824
L2C TRANSLATION FROM L1D PREFETCHER DATA	ACCESS:         39  HIT:         23  MISS:         16  HIT %:    58.9744  MISS %:    41.0256  MPKI: 0.00032

L2C PREFETCH  REQUESTED:    1481656  ISSUED:    1481656  USEFUL:      26049  USELESS:     346155
L2C USEFUL LOAD PREFETCHES:      26049 PREFETCH ISSUED TO LOWER LEVEL:     362315  ACCURACY: 7.1896
 TIMELY PREFETCHES:      26049 LATE PREFETCHES: 1776 DROPPED PREFETCHES: 0
L2C AVERAGE MISS LATENCY: 35.3251 cycles
L2C RQ	ACCESS:    2911300	FORWARD:          0	MERGED:          0	TO_CACHE:    2911238
L2C WQ	ACCESS:     517300	FORWARD:         62	MERGED:          0	TO_CACHE:     517300
L2C PQ	ACCESS:    2997869	FORWARD:          0	MERGED:     769914	TO_CACHE:    2227955

L2C Dense regions hint from L2: 0
PSCL5 TOTAL     ACCESS:      45760  HIT:      22880  MISS:      22880  HIT %:         50  MISS %:         50   MPKI: 0.4576
PSCL5 LOAD TRANSLATION INSTRUCTION	ACCESS:       4106  HIT:       2053  MISS:       2053  HIT %:         50  MISS %:         50  MPKI: 0.04106
PSCL5 TRANSLATION FROM L1D PREFETCHER INSTRUCTION	ACCESS:      41654  HIT:      20827  MISS:      20827  HIT %:         50  MISS %:         50  MPKI: 0.41654


PSCL4 TOTAL     ACCESS:      44394  HIT:      22189  MISS:      22205  HIT %:     49.982  MISS %:     50.018   MPKI: 0.4441
PSCL4 LOAD TRANSLATION INSTRUCTION	ACCESS:       2044  HIT:       1967  MISS:         77  HIT %:    96.2329  MISS %:    3.76712  MPKI: 0.00154
PSCL4 TRANSLATION FROM L1D PREFETCHER INSTRUCTION	ACCESS:      23539  HIT:      20222  MISS:       3317  HIT %:    85.9085  MISS %:    14.0915  MPKI: 0.06634
PSCL4 LOAD TRANSLATION DATA	ACCESS:       1906  HIT:          0  MISS:       1906  HIT %:          0  MISS %:        100  MPKI: 0.03812
PSCL4 TRANSLATION FROM L1D PREFETCHER DATA	ACCESS:      16905  HIT:          0  MISS:      16905  HIT %:          0  MISS %:        100  MPKI: 0.3381


PSCL3 TOTAL     ACCESS:      44510  HIT:      22247  MISS:      22263  HIT %:     49.982  MISS %:     50.018   MPKI: 0.44526
PSCL3 LOAD TRANSLATION INSTRUCTION	ACCESS:       2102  HIT:       2025  MISS:         77  HIT %:    96.3368  MISS %:    3.66318  MPKI: 0.00154
PSCL3 TRANSLATION FROM L1D PREFETCHER INSTRUCTION	ACCESS:      23539  HIT:      20222  MISS:       3317  HIT %:    85.9085  MISS %:    14.0915  MPKI: 0.06634
PSCL3 LOAD TRANSLATION DATA	ACCESS:       1964  HIT:          0  MISS:       1964  HIT %:          0  MISS %:        100  MPKI: 0.03928
PSCL3 TRANSLATION FROM L1D PREFETCHER DATA	ACCESS:      16905  HIT:          0  MISS:      16905  HIT %:          0  MISS %:        100  MPKI: 0.3381


PSCL2 TOTAL     ACCESS:      29010  HIT:      14426  MISS:      14584  HIT %:    49.7277  MISS %:    50.2723   MPKI: 0.29168
PSCL2 LOAD TRANSLATION INSTRUCTION	ACCESS:       2152  HIT:       1906  MISS:        246  HIT %:    88.5688  MISS %:    11.4312  MPKI: 0.00492
PSCL2 TRANSLATION FROM L1D PREFETCHER INSTRUCTION	ACCESS:      24539  HIT:      12520  MISS:      12019  HIT %:    51.0208  MISS %:    48.9792  MPKI: 0.24038
PSCL2 LOAD TRANSLATION DATA	ACCESS:       1818  HIT:          0  MISS:       1818  HIT %:          0  MISS %:        100  MPKI: 0.03636
PSCL2 TRANSLATION FROM L1D PREFETCHER DATA	ACCESS:        501  HIT:          0  MISS:        501  HIT %:          0  MISS %:        100  MPKI: 0.01002


LLC TOTAL     ACCESS:     922860  HIT:     889594  MISS:      33266  HIT %:    96.3953  MISS %:    3.60466   MPKI: 0.66532
LLC LOAD INSTRUCTION	ACCESS:     249943  HIT:     248892  MISS:       1051  HIT %:    99.5795  MISS %:   0.420496  MPKI: 0.02102
LLC PREFETCH INSTRUCTION	ACCESS:     176968  HIT:     176041  MISS:        927  HIT %:    99.4762  MISS %:   0.523824  MPKI: 0.01854
LLC LOAD TRANSLATION INSTRUCTION	ACCESS:        170  HIT:        163  MISS:          7  HIT %:    95.8824  MISS %:    4.11765  MPKI: 0.00014
LLC TRANSLATION FROM L1D PREFETCHER INSTRUCTION	ACCESS:       9155  HIT:       9032  MISS:        123  HIT %:    98.6565  MISS %:    1.34353  MPKI: 0.00246
LLC LOAD DATA	ACCESS:     120393  HIT:     116161  MISS:       4232  HIT %:    96.4848  MISS %:    3.51515  MPKI: 0.08464
LLC RFO DATA	ACCESS:      71704  HIT:      56837  MISS:      14867  HIT %:    79.2661  MISS %:    20.7339  MPKI: 0.29734
LLC PREFETCH DATA	ACCESS:     185345  HIT:     173743  MISS:      11602  HIT %:    93.7403  MISS %:    6.25968  MPKI: 0.23204
LLC WRITEBACK DATA	ACCESS:     107754  HIT:     107429  MISS:        325  HIT %:    99.6984  MISS %:   0.301613  MPKI: 0.0065
LLC LOAD TRANSLATION DATA	ACCESS:       1412  HIT:       1280  MISS:        132  HIT %:    90.6516  MISS %:    9.34844  MPKI: 0.00264
LLC TRANSLATION FROM L1D PREFETCHER DATA	ACCESS:         16  HIT:         16  MISS:          0  HIT %:        100  MISS %:          0  MPKI: 0

LLC AVERAGE MISS LATENCY: 157.451 cycles
LLC RQ	ACCESS:     452800	FORWARD:          0	MERGED:          0	TO_CACHE:     452793
LLC WQ	ACCESS:     107754	FORWARD:          9	MERGED:          0	TO_CACHE:     107754
LLC PQ	ACCESS:     362315	FORWARD:          0	MERGED:          0	TO_CACHE:     362313

LLC Dense regions hint to LLC: 0

RAW hits: 1924907
Loads Generated: 12637166
Loads sent to L1D: 10712259
Stores Generated: 6936960
Stores sent to L1D: 6936973
Major fault: 0 Minor fault: 2611
Allocated PAGES: 2611
I-Shadow cache 408 bytes
Touched + WorthPF tables 12288 bytes 
MMA filter 42 bytes 
FNL filter 272 bytes 
TOTAL PREFETCHER STORAGE SIZE: 19922 bytes
CPU 0 L1I next line prefetcher final stats

stream: 
stream:times selected: 1203275
stream:pref_filled: 120819
stream:pref_useful: 22470
stream:pref_late: 8375
stream:misses: 8227
stream:misses_by_poll: 0

CS: 
CS:times selected: 181165
CS:pref_filled: 56046
CS:pref_useful: 32440
CS:pref_late: 10695
CS:misses: 20014
CS:misses_by_poll: 9

CPLX: 
CPLX:times selected: 1020937
CPLX:pref_filled: 19032
CPLX:pref_useful: 3790
CPLX:pref_late: 3897
CPLX:misses: 93802
CPLX:misses_by_poll: 1

NL_L1: 
NL:times selected: 19647
NL:pref_filled: 574
NL:pref_useful: 216
NL:pref_late: 402
NL:misses: 1576
NL:misses_by_poll: 0

total selections: 2425024
total_filled: 95022
total_useful: 34065
total_late: 24650
total_polluted: 10
total_misses_after_warmup: 766842
conflicts: 5516821

test: 121269

DRAM Statistics
 CHANNEL 0
 RQ ROW_BUFFER_HIT:      11575  ROW_BUFFER_MISS:      21359
 DBUS_CONGESTED:         10
 WQ ROW_BUFFER_HIT:       1705  ROW_BUFFER_MISS:      13581  FULL:          0

 AVG_CONGESTED_CYCLE: 6

CPU 0 Branch Prediction Accuracy: 99.8083% MPKI: 0.35044 Average ROB Occupancy at Mispredict: 171.56
Branch types
NOT_BRANCH: 40861461 81.7229%
BRANCH_DIRECT_JUMP: 549503 1.09901%
BRANCH_INDIRECT: 183944 0.367888%
BRANCH_CONDITIONAL: 6187665 12.3753%
BRANCH_DIRECT_CALL: 938188 1.87638%
BRANCH_INDIRECT_CALL: 170287 0.340574%
BRANCH_RETURN: 1108498 2.217%
BRANCH_OTHER: 0 0%

DRAM PAGES: 1048576
Allocated PAGES: 2611
Average_ROB_Occupancy: 224.306
Average_Decode_Occupancy: 29.7966
Average_FTQ_Occupancy: 11.3981
Indirect max targets: 14 Average targets: 1.17834
Branch_type:  BRANCH_DIRECT_JUMP:  Count Percentage: 3.29439 5.64831 2.73342 9.73642 1.9817 6.296 1.31561 68.9941 
Branch_type:  BRANCH_INDIRECT:  Count Percentage: 11.7436 3.4653 1.22654 8.11874 3.2646 1.20802 10.7445 60.2287 
Branch_type:  BRANCH_CONDITIONAL:  Count Percentage: 22.3296 2.24288 2.18205 5.50569 1.27634 4.55391 1.43455 60.475 
Branch_type:  BRANCH_DIRECT_CALL:  Count Percentage: 0.264666 1.71636 1.29068 5.19648 2.18486 2.9754 0.864252 85.5073 
Branch_type:  BRANCH_INDIRECT_CALL:  Count Percentage: 9.55137 0.594835 2.99176 4.86862 0 3.85485 0 78.1386 
Branch_type:  BRANCH_RETURN:  Count Percentage: 3.66404 1.25068 1.05806 6.75108 3.18054 5.45093 2.95152 75.6931 
Branch_type:  BRANCH_DIRECT_JUMP:  Total Count: 36164 62004 30006 106881 21754 69114 14442 757379 
Branch_type:  BRANCH_INDIRECT:  Total Count: 43124 12725 4504 29813 11988 4436 39455 221167 
Branch_type:  BRANCH_CONDITIONAL:  Total Count: 2761413 277368 269845 680866 157840 563163 177405 7478691 
Branch_type:  BRANCH_DIRECT_CALL:  Total Count: 4969 32224 24232 97562 41020 55862 16226 1605367 
Branch_type:  BRANCH_INDIRECT_CALL:  Total Count: 32580 2029 10205 16607 0 13149 0 266533 
Branch_type:  BRANCH_RETURN:  Total Count: 81321 27758 23483 149836 70590 120980 65507 1679961 
Number of unique branch instructions: 10838
Upper 32 bits: 
aaaa
ffff
ffff0000
Unique upper 32 bits: 3
Unique upper 36 bits: 3
Unique upper 40 bits: 5
Unique upper 44 bits: 32
Unique upper 48 bits: 157
Variant_0 : 1394 0.340332
Variant_1 : 1307 0.319092
Variant_2 : 1360 0.332031
Variant_3 : 0 0
Offset_3 4494
Offset_4 258
Offset_5 484
Offset_6 547
Offset_7 640
Offset_8 587
Offset_9 517
Offset_10 431
Offset_11 355
Offset_12 324
Offset_13 242
Offset_14 245
Offset_15 201
Offset_16 227
Offset_17 172
Offset_18 154
Offset_19 257
Offset_20 144
Offset_21 235
Offset_22 416
Offset_23 241
Offset_24 350
Offset_25 117
Offset_47 93
Offset_64 1
decode_dispatch_called: 24371175 65.8579
Dispatch_width: 0 13014995 53.4032 35.1702
Dispatch_width: 1 829427 3.40331 2.24135
Dispatch_width: 2 792931 3.25356 2.14273
Dispatch_width: 3 468872 1.92388 1.26703
Dispatch_width: 4 4609393 18.9133 12.4559
Dispatch_width: 5 193106 0.792354 0.521828
Dispatch_width: 6 4462451 18.3104 12.0588
Empty_decode_cycles: 12634525 34.1421
ROB_full_cycles: 7444950 20.1184
Starvation_cycles_per_kilo_instr: 250.983
Starvation_cycles_per_kilo_instr_3: 202.958
Starvation_cycles_per_kilo_instr_0: 182.046
Branch_type_1  (3,1)  (4,7)  (5,38)  (6,75)  (7,125)  (8,150)  (9,136)  (10,113)  (11,80)  (12,55)  (13,11)  (14,2)  (15,3)  (16,4)  (18,1)  (19,5)  (20,2)  (21,1)  (22,3)  (23,2)  (24,10)  (25,12) 
Branch_type_2  (3,1)  (4,1)  (5,1)  (8,4)  (9,4)  (10,1)  (12,1)  (13,1)  (14,1)  (16,3)  (17,2)  (20,2)  (21,2)  (23,5)  (24,1)  (47,43) 
Branch_type_3  (3,4492)  (4,250)  (5,441)  (6,455)  (7,484)  (8,368)  (9,283)  (10,175)  (11,139)  (12,62)  (13,10)  (64,1) 
Branch_type_4  (6,4)  (7,8)  (8,26)  (9,55)  (10,67)  (11,70)  (12,115)  (13,103)  (14,111)  (15,96)  (16,100)  (17,81)  (18,67)  (19,124)  (20,73)  (21,124)  (22,222)  (23,136)  (24,206)  (25,101) 
Branch_type_5  (8,3)  (9,1)  (10,4)  (11,5)  (12,3)  (13,14)  (14,16)  (15,11)  (16,22)  (17,11)  (18,23)  (19,14)  (20,11)  (21,13)  (22,43)  (23,26)  (24,37) 
Branch_type_6  (5,4)  (6,13)  (7,23)  (8,36)  (9,38)  (10,71)  (11,61)  (12,88)  (13,103)  (14,115)  (15,91)  (16,98)  (17,78)  (18,63)  (19,114)  (20,56)  (21,95)  (22,148)  (23,72)  (24,96)  (25,4)  (47,50) 
Unique trigger count: 
Variant_0_evicts_0 : 0
Variant_0_evicts_1 : 0
Variant_0_evicts_2 : 0
Variant_0_evicts_3 : 0
Variant_1_evicts_0 : 0
Variant_1_evicts_1 : 0
Variant_1_evicts_2 : 0
Variant_1_evicts_3 : 0
Variant_2_evicts_0 : 0
Variant_2_evicts_1 : 0
Variant_2_evicts_2 : 0
Variant_2_evicts_3 : 0
Variant_3_evicts_0 : 0
Variant_3_evicts_1 : 0
Variant_3_evicts_2 : 0
Variant_3_evicts_3 : 0
BTB PER SET UNIQUE ADDR: 11 11 11 13 14 11 8 13 15 14 9 18 14 16 13 12 9 12 14 15 12 13 13 11 13 12 16 18 9 13 17 16 15 10 7 12 13 10 5 12 12 8 20 15 12 11 14 8 7 9 14 14 12 16 15 4 13 11 8 15 12 13 14 18 17 13 11 11 17 15 13 16 15 8 8 11 12 12 13 18 15 10 13 16 16 15 14 13 9 30 9 7 16 8 10 18 14 9 12 15 20 16 19 14 8 12 11 13 9 10 13 19 12 11 13 5 16 9 12 16 15 11 8 17 16 14 7 9 13 14 15 15 11 15 8 18 11 16 12 17 11 12 14 10 16 14 12 10 7 18 14 18 13 12 17 17 13 13 10 13 15 10 16 21 9 13 13 9 14 8 14 15 14 9 12 10 13 12 10 11 7 12 10 17 18 17 4 16 13 12 16 11 11 7 10 14 12 15 9 15 12 14 13 9 10 11 10 12 7 13 10 15 10 16 9 12 13 15 12 22 12 18 8 10 12 8 16 16 9 15 8 7 11 16 12 16 17 13 15 10 16 11 14 20 6 13 10 6 11 11 16 11 11 10 17 18 12 12 12 10 16 8 6 14 13 7 10 11 9 15 10 12 11 5 9 12 11 14 14 10 11 17 10 9 13 12 13 21 19 9 7 11 12 18 11 14 16 16 13 14 12 9 10 19 15 15 12 9 16 10 11 18 12 20 9 7 20 14 9 15 8 13 11 13 14 15 16 12 8 10 17 18 10 14 10 22 10 13 7 13 11 14 11 16 15 13 15 14 10 8 14 10 13 13 16 12 12 18 13 10 10 14 7 20 14 15 8 15 18 8 15 8 17 13 10 15 10 21 13 18 17 13 10 12 11 12 14 14 11 16 18 14 16 19 10 5 14 11 15 14 12 20 12 15 15 15 14 13 14 13 10 9 9 17 12 9 17 17 23 13 12 14 17 13 16 13 11 10 12 11 18 14 15 10 12 14 16 11 12 12 17 10 13 15 25 7 16 17 11 18 21 18 17 12 18 20 15 15 14 14 14 16 17 16 20 13 11 13 13 13 15 13 16 12 14 18 15 15 8 18 18 13 14 17 9 16 21 15 14 16 10 15 11 9 11 11 13 18 9 15 12 17 16 17 10 12 8 12 16 14 14 17 12 10 17 14 13 19 9 12 10 16 13 9 13 19 18 9 13 17 14 10 13 11 17 14 12 14 18 15 17 9 13 17 17 19 8 14 11 16 13 17 18 15 13 15 14 14 16 16 13 18 14 12 13 17 16 13 9 13 11 15 17 17 16 15 20 15 14 15 13 12 8 14 14 17 15 13 15 15 8 13 11 15 15 9 8 14 12 16 11 9 10 9 13 18 17 12 11 13 16 11 10 12 5 13 15 11 17 14 18 13 11 9 16 20 12 19 10 18 14 14 13 15 14 10 17 20 8 21 15 22 15 16 10 12 15 15 17 17 10 17 13 14 16 18 13 12 11 14 12 8 15 23 13 16 9 14 16 13 16 10 14 16 23 8 15 19 11 15 11 15 10 14 16 12 10 13 18 11 16 10 11 8 11 13 10 16 14 13 10 13 13 14 8 18 13 9 15 8 15 15 9 12 13 10 14 10 7 14 17 9 12 16 14 12 13 15 11 12 15 10 17 8 8 14 16 12 18 14 10 14 14 16 13 21 15 18 13 9 8 12 12 17 13 11 19 10 11 14 12 14 8 17 8 21 13 16 9 14 11 18 12 8 11 7 13 12 23 14 5 13 14 10 15 11 13 14 16 8 10 10 18 17 15 18 15 9 16 13 21 16 14 12 22 12 11 14 13 11 15 21 11 18 13 12 19 13 13 20 11 22 9 12 12 11 12 13 14 16 11 15 12 17 12 14 14 12 14 11 14 20 12 17 12 20 15 16 12 12 12 13 13 15 20 18 13 12 14 17 14 11 14 12 21 6 15 12 19 11 10 14 17 18 10 6 17 10 12 14 19 10 16 18 8 14 18 11 16 16 17 11 10 14 12 10 17 13 13 8 14 12 16 10 9 13 12 12 13 15 13 11 10 15 13 16 16 11 12 13 10 13 12 18 11 12 7 22 12 12 15 28 21 18 17 15 8 16 12 13 12 13 11 18 14 14 14 16 14 14 13 14 12 13 12 17 10 15 18 16 13 14 13 12 20 11 17 10 9 17 14 16 13 13 19 16 18 18 15 15 11 10 14 11 10 14 21 10 19 12 20 13 10 13 12 10 12 13 19 17 17 18 11 13 16 20 11 19 12 13 9 16 11 9 17 10 8 11 9 11 18 17 14 14 
BTB PER SET COUNT: 1009 28 2046 274 3116 23 20 1170 3517 1074 14 4940 2977 610 4493 408 8651 759 800 677 267 2012 3360 265 2376 1576 206 3465 423 664 3683 424 160 527 8 791 409 276 478 972 1419 617 1790 1599 973 381 748 10 46 1294 2007 3445 267 1037 4125 501 1231 1374 1409 146 264 538 1292 894 2497 576 2850 3919 994 163 4787 3885 1052 358 1317 320 423 551 396 2638 2201 2016 3322 3516 2877 3080 45 243 148 1640 1246 768 2505 987 1540 3505 3321 3456 1291 5313 489 606 2804 1154 2400 1014 19 952 4059 1784 487 889 861 1178 976 6 2510 434 4370 1960 624 5023 548 558 3521 2964 244 9 1848 5056 3803 1094 18 894 16 7890 2916 1021 308 132 12 2064 512 2399 4234 2376 67 18 2856 920 695 6056 4683 3960 1878 2392 2318 2797 14 24 787 29 19 3810 2313 1714 44 1738 1763 778 1156 1421 106 11 2988 2947 420 4144 1956 2635 863 2735 1607 741 2613 907 4 596 3784 3294 33 2845 1646 164 293 7277 1962 3535 23 4875 1936 419 1653 257 1127 16 290 2388 11 1573 446 1332 4239 2195 37 7826 1040 830 3110 707 1237 480 16 248 353 15 4077 590 3531 2964 199 8 991 2105 678 3497 2551 5265 2539 17 1174 3868 811 3240 1178 9192 239 1699 2077 13 1567 452 1345 5682 1868 3176 7935 543 392 16 76 1653 8 556 2243 9 24 296 14 3623 2884 632 1955 2048 1724 1204 1466 4294 2228 838 165 327 3456 3595 8132 773 3111 2133 11017 13 153 2869 148 3107 1431 454 5192 746 2145 664 1318 18 3143 42 5422 2429 1432 169 1019 14 5168 1929 361 6197 1930 10 1275 45 2992 2703 385 8200 515 930 5497 261 6952 297 2783 82 1995 380 40 4521 12 1815 34 921 1096 756 327 3065 1926 7724 1317 213 4608 664 80 42 585 2346 1226 14 3537 1596 15 8165 1463 931 717 1226 11 1472 2336 947 3611 1747 2132 16 35 1045 1749 1447 2882 1532 5616 3331 1653 1231 2397 768 1769 1578 949 1807 1107 339 318 3249 359 3761 116 2653 274 9 241 1180 1772 1375 3267 351 75 1737 540 627 530 105 1594 1819 12 30 23 2083 996 582 871 5480 1834 5056 1119 984 585 37 1052 1834 16 490 2422 4677 2874 2600 6113 1695 302 3848 2186 779 5400 88 2705 455 1786 224 4679 8 2304 189 27 2836 551 326 833 700 2113 3417 721 3719 4989 320 1487 5368 3480 7022 3724 8594 2358 1513 3450 5660 233 447 4136 27 743 950 525 27 1996 785 538 3912 4371 3270 2367 900 2640 2411 5165 3714 1649 1696 3999 131 2874 3223 4199 3323 19 575 3779 6412 3141 1896 783 1830 1465 4549 1915 36 96 1026 1517 2112 2118 601 1203 678 334 936 339 1812 22 1454 741 3503 1836 25 20 3833 1132 18 1499 85 325 789 780 2028 1532 3140 788 2704 3095 905 1797 4034 1105 69 20 3201 24 2737 1613 7365 247 535 2468 338 727 3393 3265 1236 1133 553 27 474 143 282 1343 324 3258 59 3353 2530 3208 6450 499 2792 1434 1512 1752 87 847 5868 177 223 5633 374 1616 1233 453 8336 3277 2441 1023 600 5114 3535 1344 2786 2088 10 602 568 1080 946 215 3441 991 1460 577 983 21 1983 892 119 1915 974 286 8814 2314 469 21 3676 1445 1339 2176 1858 4065 7471 3818 420 1795 1754 2047 2899 1472 5057 49 5083 866 3239 3435 2410 3369 32 3708 2908 2071 1116 5612 1122 175 2248 3348 523 3157 2311 22 2083 927 265 3142 1904 13753 3337 391 3227 4255 65 991 215 1195 3168 2450 1189 165 6816 179 601 165 2248 14 232 4187 3295 24 992 2014 1369 2252 1679 3435 12 2988 176 515 328 685 1559 145 796 2049 2899 11 679 1673 2251 510 1073 863 25 644 1819 2842 1418 882 3034 7 24 43 11 5710 4434 1726 2271 1511 3430 34 219 1508 7232 804 745 197 1098 2166 535 1588 5117 1796 1840 170 404 116 3202 314 2939 933 590 3593 106 2956 3715 4407 140 1591 84 524 36 1422 1930 341 371 560 807 4680 3286 571 1811 19 2622 2867 71 1356 13 14 801 2619 38 330 4008 5713 376 3376 858 1958 1915 1435 357 17 1990 2452 197 3770 1240 79 576 716 2625 3690 1806 1037 251 1903 1064 1408 1863 390 1368 1896 1202 1156 2861 1604 15 1754 2722 19 3336 636 4388 38 16 643 572 775 2129 1257 158 81 3692 596 453 861 125 390 66 633 6552 30 3152 2400 29 17 2742 81 1010 524 5154 2111 863 7622 522 4920 3303 3479 619 293 3663 1355 1265 4621 1882 774 11 1642 1472 4731 306 1386 815 4654 4835 3552 1455 5017 3333 5798 153 2491 1998 2203 3441 1823 4190 702 241 2997 5045 8462 944 788 2777 515 13 3427 525 1806 373 3864 2225 1902 2158 19 2035 1464 246 750 374 18 1859 195 1992 1708 174 4478 2551 457 2291 958 1269 1593 4855 987 2157 11 4840 2089 1475 199 1419 8885 2717 2755 2064 975 85 14 1363 5100 822 2187 1661 6369 3639 1070 1741 1972 2185 4708 2440 5604 10962 2032 472 1748 2864 1791 1500 3133 1431 3945 470 2174 523 2065 15 10 278 1142 3964 1671 189 3763 387 58 1480 37 10179 17 2461 946 1050 182 1182 1112 3561 1220 1599 1473 903 15 25 69 48 162 967 978 1121 2147 4956 1040 546 1005 2383 20 2415 145 3693 2046 42 1707 15 1453 3760 1019 17 1439 449 1267 4616 1385 800 
To predecode: 1193608
Predecoding something: 756258
Predecode request dropped: 0
sizeofblock_0 0
sizeofblock_1 316918
sizeofblock_2 406239
sizeofblock_3 859327
sizeofblock_4 204567
sizeofblock_5 0
sizeofblock_6 0
sizeofblock_7 0
sizeofblock_8 0
Variant_0 Correct: 1606854 Incorrect: 0 Accuracy: 1
Variant_1 Correct: 2084448 Incorrect: 0 Accuracy: 1
Variant_2 Correct: 5048349 Incorrect: 0 Accuracy: 1
Variant_3 Correct: 0 Incorrect: 0 Accuracy: -nan
