
*** ChampSim Multicore Out-of-Order Simulator ***

Warmup Instructions: 50000000
Simulation Instructions: 50000000
Number of CPUs: 1
LLC sets: 2048
LLC ways: 16
Off-chip DRAM Size: 4096 MB Channels: 1 Width: 64-bit Data Rate: 6400 MT/s
CPU 0 runs ./micro_traces/srv687.trace.gz
.gz
ITLB has LRU replacement policy
DTLB has LRU replacement policy
STLB has LRU replacement policy
CPU 0 L1I next line prefetcher
./conditional/srv687.cond
L1I has LRU replacement policy
L1D has LRU replacement policy
Initialize SRRIP state for L2C
Initialize DRRIP state for LLC
Heartbeat_Variant_0 : 1322 0.322754 per_variant_size: 0 1322 0 0 0 0 0 0 0 
Heartbeat_Variant_1 : 1223 0.298584 per_variant_size: 0 607 616 0 0 0 0 0 0 
Heartbeat_Variant_2 : 1294 0.315918 per_variant_size: 0 503 372 326 93 0 0 0 0 
Heartbeat_Variant_3 : 0 0 per_variant_size: 0 0 0 0 0 0 0 0 0 
Heartbeat_Variant_0_evicts 0 : 5894 1 : 270 2 : 259 3 : 0 
Heartbeat_Variant_1_evicts 0 : 239 1 : 0 2 : 383 3 : 0 
Heartbeat_Variant_2_evicts 0 : 252 1 : 363 2 : 0 3 : 0 
Heartbeat_Variant_3_evicts 0 : 0 1 : 0 2 : 0 3 : 0 
Heartbeat CPU 0 instructions: 10000003 cycles: 2798808 heartbeat IPC: 3.57295 cumulative IPC: 3.57295 (Simulation time: 0 hr 1 min 45 sec) 
Heartbeat_Variant_0 : 1349 0.329346 per_variant_size: 0 1349 0 0 0 0 0 0 0 
Heartbeat_Variant_1 : 1238 0.302246 per_variant_size: 0 584 654 0 0 0 0 0 0 
Heartbeat_Variant_2 : 1316 0.321289 per_variant_size: 0 504 360 353 99 0 0 0 0 
Heartbeat_Variant_3 : 0 0 per_variant_size: 0 0 0 0 0 0 0 0 0 
Heartbeat_Variant_0_evicts 0 : 5758 1 : 64 2 : 74 3 : 0 
Heartbeat_Variant_1_evicts 0 : 65 1 : 0 2 : 265 3 : 0 
Heartbeat_Variant_2_evicts 0 : 68 1 : 273 2 : 0 3 : 0 
Heartbeat_Variant_3_evicts 0 : 0 1 : 0 2 : 0 3 : 0 
Heartbeat CPU 0 instructions: 20000002 cycles: 5596748 heartbeat IPC: 3.57406 cumulative IPC: 3.5735 (Simulation time: 0 hr 3 min 22 sec) 
Heartbeat_Variant_0 : 1348 0.329102 per_variant_size: 0 1348 0 0 0 0 0 0 0 
Heartbeat_Variant_1 : 1241 0.302979 per_variant_size: 0 584 657 0 0 0 0 0 0 
Heartbeat_Variant_2 : 1324 0.323242 per_variant_size: 0 513 363 369 79 0 0 0 0 
Heartbeat_Variant_3 : 0 0 per_variant_size: 0 0 0 0 0 0 0 0 0 
Heartbeat_Variant_0_evicts 0 : 5604 1 : 11 2 : 10 3 : 0 
Heartbeat_Variant_1_evicts 0 : 10 1 : 0 2 : 206 3 : 0 
Heartbeat_Variant_2_evicts 0 : 12 1 : 207 2 : 0 3 : 0 
Heartbeat_Variant_3_evicts 0 : 0 1 : 0 2 : 0 3 : 0 
Heartbeat CPU 0 instructions: 30000002 cycles: 8393708 heartbeat IPC: 3.57531 cumulative IPC: 3.57411 (Simulation time: 0 hr 5 min 1 sec) 
Heartbeat_Variant_0 : 1357 0.331299 per_variant_size: 0 1357 0 0 0 0 0 0 0 
Heartbeat_Variant_1 : 1255 0.306396 per_variant_size: 0 588 667 0 0 0 0 0 0 
Heartbeat_Variant_2 : 1335 0.325928 per_variant_size: 0 504 367 365 99 0 0 0 0 
Heartbeat_Variant_3 : 0 0 per_variant_size: 0 0 0 0 0 0 0 0 0 
Heartbeat_Variant_0_evicts 0 : 5658 1 : 113 2 : 110 3 : 0 
Heartbeat_Variant_1_evicts 0 : 114 1 : 0 2 : 290 3 : 0 
Heartbeat_Variant_2_evicts 0 : 110 1 : 286 2 : 0 3 : 0 
Heartbeat_Variant_3_evicts 0 : 0 1 : 0 2 : 0 3 : 0 
Heartbeat CPU 0 instructions: 40000000 cycles: 11190835 heartbeat IPC: 3.5751 cumulative IPC: 3.57435 (Simulation time: 0 hr 6 min 47 sec) 
Heartbeat_Variant_0 : 1352 0.330078 per_variant_size: 0 1352 0 0 0 0 0 0 0 
Heartbeat_Variant_1 : 1262 0.308105 per_variant_size: 0 599 663 0 0 0 0 0 0 
Heartbeat_Variant_2 : 1341 0.327393 per_variant_size: 0 502 382 374 83 0 0 0 0 
Heartbeat_Variant_3 : 0 0 per_variant_size: 0 0 0 0 0 0 0 0 0 
Heartbeat_Variant_0_evicts 0 : 5692 1 : 42 2 : 41 3 : 0 
Heartbeat_Variant_1_evicts 0 : 43 1 : 0 2 : 235 3 : 0 
Heartbeat_Variant_2_evicts 0 : 45 1 : 233 2 : 0 3 : 0 
Heartbeat_Variant_3_evicts 0 : 0 1 : 0 2 : 0 3 : 0 
Heartbeat CPU 0 instructions: 50000001 cycles: 13988694 heartbeat IPC: 3.57416 cumulative IPC: 3.57432 (Simulation time: 0 hr 8 min 30 sec) 

Warmup complete CPU 0 instructions: 50000001 cycles: 13988694 (Simulation time: 0 hr 8 min 30 sec) 

Cycle: 20000000 FTQ IN: 58229963 FTQ occupancy: 19.4352 DECODE IN: 58229920 DECODE occupancy: 50.789 ROB IN: 58229889 ROB occupancy: 311.578 ROB OUT: 58229883
Heartbeat_Variant_0 : 1364 0.333008 per_variant_size: 0 1364 0 0 0 0 0 0 0 
Heartbeat_Variant_1 : 1268 0.30957 per_variant_size: 0 604 664 0 0 0 0 0 0 
Heartbeat_Variant_2 : 1340 0.327148 per_variant_size: 0 492 387 365 96 0 0 0 0 
Heartbeat_Variant_3 : 0 0 per_variant_size: 0 0 0 0 0 0 0 0 0 
Heartbeat_Variant_0_evicts 0 : 5764 1 : 89 2 : 97 3 : 0 
Heartbeat_Variant_1_evicts 0 : 93 1 : 0 2 : 285 3 : 0 
Heartbeat_Variant_2_evicts 0 : 86 1 : 292 2 : 0 3 : 0 
Heartbeat_Variant_3_evicts 0 : 0 1 : 0 2 : 0 3 : 0 
Heartbeat CPU 0 instructions: 60000000 cycles: 21378305 heartbeat IPC: 1.35325 cumulative IPC: 1.35325 (Simulation time: 0 hr 10 min 21 sec) 
Heartbeat_Variant_0 : 1365 0.333252 per_variant_size: 0 1365 0 0 0 0 0 0 0 
Heartbeat_Variant_1 : 1270 0.310059 per_variant_size: 0 607 663 0 0 0 0 0 0 
Heartbeat_Variant_2 : 1340 0.327148 per_variant_size: 0 491 389 350 110 0 0 0 0 
Heartbeat_Variant_3 : 0 0 per_variant_size: 0 0 0 0 0 0 0 0 0 
Heartbeat_Variant_0_evicts 0 : 5598 1 : 14 2 : 17 3 : 0 
Heartbeat_Variant_1_evicts 0 : 19 1 : 0 2 : 210 3 : 0 
Heartbeat_Variant_2_evicts 0 : 11 1 : 214 2 : 0 3 : 0 
Heartbeat_Variant_3_evicts 0 : 0 1 : 0 2 : 0 3 : 0 
Heartbeat CPU 0 instructions: 70000003 cycles: 28688826 heartbeat IPC: 1.36789 cumulative IPC: 1.36053 (Simulation time: 0 hr 12 min 12 sec) 
Cycle: 30000000 FTQ IN: 13565549 FTQ occupancy: 11.314 DECODE IN: 13565533 DECODE occupancy: 29.5562 ROB IN: 13565504 ROB occupancy: 227.457 ROB OUT: 13565162
Heartbeat_Variant_0 : 1366 0.333496 per_variant_size: 0 1366 0 0 0 0 0 0 0 
Heartbeat_Variant_1 : 1273 0.310791 per_variant_size: 0 602 671 0 0 0 0 0 0 
Heartbeat_Variant_2 : 1340 0.327148 per_variant_size: 0 488 390 343 119 0 0 0 0 
Heartbeat_Variant_3 : 0 0 per_variant_size: 0 0 0 0 0 0 0 0 0 
Heartbeat_Variant_0_evicts 0 : 5535 1 : 14 2 : 11 3 : 0 
Heartbeat_Variant_1_evicts 0 : 16 1 : 0 2 : 206 3 : 0 
Heartbeat_Variant_2_evicts 0 : 9 1 : 207 2 : 0 3 : 0 
Heartbeat_Variant_3_evicts 0 : 0 1 : 0 2 : 0 3 : 0 
Heartbeat CPU 0 instructions: 80000000 cycles: 35972817 heartbeat IPC: 1.37287 cumulative IPC: 1.36462 (Simulation time: 0 hr 13 min 58 sec) 
Cycle: 40000000 FTQ IN: 13317282 FTQ occupancy: 10.9875 DECODE IN: 13317251 DECODE occupancy: 28.5864 ROB IN: 13317311 ROB occupancy: 219.936 ROB OUT: 13317436
Heartbeat_Variant_0 : 1392 0.339844 per_variant_size: 0 1392 0 0 0 0 0 0 0 
Heartbeat_Variant_1 : 1293 0.315674 per_variant_size: 0 531 762 0 0 0 0 0 0 
Heartbeat_Variant_2 : 1368 0.333984 per_variant_size: 0 498 377 385 108 0 0 0 0 
Heartbeat_Variant_3 : 0 0 per_variant_size: 0 0 0 0 0 0 0 0 0 
Heartbeat_Variant_0_evicts 0 : 6045 1 : 430 2 : 429 3 : 0 
Heartbeat_Variant_1_evicts 0 : 417 1 : 0 2 : 551 3 : 0 
Heartbeat_Variant_2_evicts 0 : 427 1 : 551 2 : 0 3 : 0 
Heartbeat_Variant_3_evicts 0 : 0 1 : 0 2 : 0 3 : 0 
Heartbeat CPU 0 instructions: 90000000 cycles: 43578089 heartbeat IPC: 1.31488 cumulative IPC: 1.35184 (Simulation time: 0 hr 15 min 47 sec) 
Cycle: 50000000 FTQ IN: 13722807 FTQ occupancy: 11.3004 DECODE IN: 13722897 DECODE occupancy: 30.0726 ROB IN: 13722897 ROB occupancy: 229.795 ROB OUT: 13723026
Heartbeat_Variant_0 : 1387 0.338623 per_variant_size: 0 1387 0 0 0 0 0 0 0 
Heartbeat_Variant_1 : 1294 0.315918 per_variant_size: 0 534 760 0 0 0 0 0 0 
Heartbeat_Variant_2 : 1372 0.334961 per_variant_size: 0 501 384 372 115 0 0 0 0 
Heartbeat_Variant_3 : 0 0 per_variant_size: 0 0 0 0 0 0 0 0 0 
Heartbeat_Variant_0_evicts 0 : 5654 1 : 22 2 : 27 3 : 0 
Heartbeat_Variant_1_evicts 0 : 24 1 : 0 2 : 218 3 : 0 
Heartbeat_Variant_2_evicts 0 : 30 1 : 219 2 : 0 3 : 0 
Heartbeat_Variant_3_evicts 0 : 0 1 : 0 2 : 0 3 : 0 
Heartbeat CPU 0 instructions: 100000003 cycles: 50843747 heartbeat IPC: 1.37634 cumulative IPC: 1.35667 (Simulation time: 0 hr 17 min 41 sec) 
Finished CPU 0 instructions: 50000002 cycles: 36855053 cumulative IPC: 1.35667 (Simulation time: 0 hr 17 min 41 sec) 

ChampSim completed all CPUs

Region of Interest Statistics

CPU 0 cumulative IPC: 1.35667 instructions: 50000002 cycles: 36855053
 Fetch stage stalled: 57.8798  Sim cycles: 36855053 fetch stall cycle: 21331622
 Empty decode stage: 41.6704  Sim cycles: 36855053 fetch stall cycle: 15357654
ITLB TOTAL     ACCESS:    6884522  HIT:    6379012  MISS:     505510  HIT %:    92.6573  MISS %:     7.3427   MPKI: 10.1102
ITLB LOAD TRANSLATION INSTRUCTION	ACCESS:    5658214  HIT:    5172306  MISS:     485908  HIT %:    91.4123  MISS %:    8.58766  MPKI: 9.71816
ITLB TRANSLATION FROM L1D PREFETCHER INSTRUCTION	ACCESS:    1226308  HIT:    1206706  MISS:      19602  HIT %:    98.4015  MISS %:    1.59846  MPKI: 0.39204

ITLB AVERAGE MISS LATENCY: 65825.7 cycles
ITLB RQ	ACCESS:   10132713	FORWARD:          0	MERGED:    2773516	TO_CACHE:    7359197

DTLB TOTAL     ACCESS:    8981576  HIT:    8506520  MISS:     475056  HIT %:    94.7108  MISS %:    5.28923   MPKI: 9.50112
DTLB LOAD TRANSLATION DATA	ACCESS:    8981576  HIT:    8506520  MISS:     475056  HIT %:    94.7108  MISS %:    5.28923  MPKI: 9.50112

DTLB AVERAGE MISS LATENCY: 9.37952 cycles
DTLB RQ	ACCESS:   13345794	FORWARD:          0	MERGED:    4327844	TO_CACHE:    9017950

STLB TOTAL     ACCESS:    1230022  HIT:    1227866  MISS:       2156  HIT %:    99.8247  MISS %:   0.175281   MPKI: 0.04312
STLB LOAD TRANSLATION INSTRUCTION	ACCESS:     484879  HIT:     484623  MISS:        256  HIT %:    99.9472  MISS %:  0.0527967  MPKI: 0.00512
STLB TRANSLATION FROM L1D PREFETCHER INSTRUCTION	ACCESS:      20631  HIT:      20599  MISS:         32  HIT %:    99.8449  MISS %:   0.155106  MPKI: 0.00064
STLB LOAD TRANSLATION DATA	ACCESS:     475056  HIT:     473207  MISS:       1849  HIT %:    99.6108  MISS %:   0.389217  MPKI: 0.03698
STLB TRANSLATION FROM L1D PREFETCHER DATA	ACCESS:     249456  HIT:     249437  MISS:         19  HIT %:    99.9924  MISS %: 0.00761657  MPKI: 0.00038

STLB AVERAGE MISS LATENCY: 81.923 cycles
STLB RQ	ACCESS:    1375728	FORWARD:          0	MERGED:     120893	TO_CACHE:    1254835

STLB Hit, L1D data hit: 0
STLB Hit, L2C data hit: 0
STLB Hit, LLC data hit: 0
STLB Hit, LLC data miss: 0
STLB STLB hints to L2: 0
L1D TOTAL     ACCESS:   13092430  HIT:   11975706  MISS:    1116724  HIT %:    91.4705  MISS %:    8.52954   MPKI: 22.3345
L1D LOAD DATA	ACCESS:    6558729  HIT:    5822819  MISS:     735910  HIT %:    88.7797  MISS %:    11.2203  MPKI: 14.7182
L1D RFO DATA	ACCESS:    6204513  HIT:    5919500  MISS:     285013  HIT %:    95.4064  MISS %:    4.59364  MPKI: 5.70026
L1D PREFETCH DATA	ACCESS:     329188  HIT:     233387  MISS:      95801  HIT %:    70.8978  MISS %:    29.1022  MPKI: 1.91602

L1D PREFETCH  REQUESTED:     741145  ISSUED:     741145  USEFUL:      33772  USELESS:      70057
L1D USEFUL LOAD PREFETCHES:      33772 PREFETCH ISSUED TO LOWER LEVEL:     103951  ACCURACY: 32.4884
 TIMELY PREFETCHES:      33772 LATE PREFETCHES: 8043 DROPPED PREFETCHES: 6
L1D AVERAGE MISS LATENCY: 231977 cycles
L1D RQ	ACCESS:   10694143	FORWARD:          0	MERGED:    3934793	TO_CACHE:    6595944
L1D WQ	ACCESS:    6947035	FORWARD:     163781	MERGED:     197185	TO_CACHE:    6749850
L1D PQ	ACCESS:     370760	FORWARD:          0	MERGED:          0	TO_CACHE:     370385

L1D UNIQUE REGIONS ACCESSED: 0
L1D REGIONS CONFLICTS: 0
L1D Cross Page Prefetch Requests: 6645
L1D Same Page Prefetch Requests: 751468
L1D ROI Sum of L1D PQ occupancy: 4708147
L1D PREFETCHES PUSHED FROM L2C: 0
L1I TOTAL     ACCESS:    8761520  HIT:    5446289  MISS:    3315231  HIT %:    62.1615  MISS %:    37.8385   MPKI: 66.3046
L1I LOAD INSTRUCTION	ACCESS:    6556396  HIT:    4439274  MISS:    2117122  HIT %:    67.7091  MISS %:    32.2909  MPKI: 42.3424
L1I PREFETCH INSTRUCTION	ACCESS:    2205124  HIT:    1007015  MISS:    1198109  HIT %:     45.667  MISS %:     54.333  MPKI: 23.9622

L1I PREFETCH  REQUESTED:    3907484  ISSUED:    3904493  USEFUL:     935975  USELESS:     488648
L1I USEFUL LOAD PREFETCHES:     935975 PREFETCH ISSUED TO LOWER LEVEL:    1424619  ACCURACY: 65.7
 TIMELY PREFETCHES:     935975 LATE PREFETCHES: 226504 DROPPED PREFETCHES: 58374
L1I AVERAGE MISS LATENCY: 2.21066e+06 cycles
L1I RQ	ACCESS:    9489556	FORWARD:          0	MERGED:    2728470	TO_CACHE:    6761086
L1I PQ	ACCESS:    3904493	FORWARD:          0	MERGED:     532866	TO_CACHE:    3371627

L1BTB TOTAL     ACCESS:    5671235  HIT:    2039828  MISS:    3631407  HIT %:     35.968  MISS %:     64.032   MPKI: 72.6281
L1BTB BRANCH_DIRECT_JUMP	ACCESS:     548371  HIT:     144631  MISS:     403740	AVERAGE STALL: 45.5426
L1BTB BRANCH_INDIRECT	ACCESS:     182836  HIT:      65878  MISS:     116958	AVERAGE STALL: 97.9523
L1BTB BRANCH_CONDITIONAL	ACCESS:    2705327  HIT:    1412169  MISS:    1293158	AVERAGE STALL: 60.8804
L1BTB BRANCH_DIRECT_CALL	ACCESS:     945682  HIT:     105366  MISS:     840316	AVERAGE STALL: 59.5472
L1BTB BRANCH_INDIRECT_CALL	ACCESS:     171669  HIT:      21212  MISS:     150457	AVERAGE STALL: 127.226
L1BTB BRANCH_RETURN	ACCESS:    1117350  HIT:     290572  MISS:     826778	AVERAGE STALL: 47.6701
L1BTB BRANCH_OTHER ACCESS:          0  HIT:          0  MISS:          0	AVERAGE STALL: -nan
L1BTB TOTAL ROB OCCUPANCY AT BTB MISS: 5.0446

L2BTB TOTAL     ACCESS:    3605994  HIT:    3498586  MISS:     107408  HIT %:    97.0214  MISS %:     2.9786   MPKI: 2.14816
L2BTB BRANCH_DIRECT_JUMP	ACCESS:     399580  HIT:     393328  MISS:       6252	AVERAGE STALL: 45.5426
L2BTB BRANCH_INDIRECT	ACCESS:     106640  HIT:     103879  MISS:       2761	AVERAGE STALL: 97.9523
L2BTB BRANCH_CONDITIONAL	ACCESS:    1293158  HIT:    1269010  MISS:      24148	AVERAGE STALL: 60.8804
L2BTB BRANCH_DIRECT_CALL	ACCESS:     840316  HIT:     838201  MISS:       2115	AVERAGE STALL: 59.5472
L2BTB BRANCH_INDIRECT_CALL	ACCESS:     140928  HIT:     130614  MISS:      10314	AVERAGE STALL: 127.226
L2BTB BRANCH_RETURN	ACCESS:     825372  HIT:     763554  MISS:      61818	AVERAGE STALL: 47.6701
L2BTB BRANCH_OTHER ACCESS:          0  HIT:          0  MISS:          0	AVERAGE STALL: -nan
L2BTB TOTAL ROB OCCUPANCY AT BTB MISS: 170.555

L2C TOTAL     ACCESS:    5688806  HIT:    4893719  MISS:     795087  HIT %:    86.0237  MISS %:    13.9763   MPKI: 15.9017
L2C LOAD INSTRUCTION	ACCESS:    1890619  HIT:    1653834  MISS:     236785  HIT %:    87.4758  MISS %:    12.5242  MPKI: 4.7357
L2C PREFETCH INSTRUCTION	ACCESS:    1424612  HIT:    1263516  MISS:     161096  HIT %:    88.6919  MISS %:    11.3081  MPKI: 3.22192
L2C LOAD TRANSLATION INSTRUCTION	ACCESS:        295  HIT:         72  MISS:        223  HIT %:    24.4068  MISS %:    75.5932  MPKI: 0.00446
L2C TRANSLATION FROM L1D PREFETCHER INSTRUCTION	ACCESS:      35065  HIT:      23279  MISS:      11786  HIT %:    66.3881  MISS %:    33.6119  MPKI: 0.23572
L2C LOAD DATA	ACCESS:     727839  HIT:     611943  MISS:     115896  HIT %:    84.0767  MISS %:    15.9233  MPKI: 2.31792
L2C RFO DATA	ACCESS:     284872  HIT:     219205  MISS:      65667  HIT %:    76.9486  MISS %:    23.0514  MPKI: 1.31334
L2C PREFETCH DATA	ACCESS:     802982  HIT:     625120  MISS:     177862  HIT %:    77.8498  MISS %:    22.1502  MPKI: 3.55724
L2C WRITEBACK DATA	ACCESS:     520554  HIT:     496311  MISS:      24243  HIT %:    95.3428  MISS %:    4.65715  MPKI: 0.48486
L2C LOAD TRANSLATION DATA	ACCESS:       1932  HIT:        412  MISS:       1520  HIT %:    21.3251  MISS %:    78.6749  MPKI: 0.0304
L2C TRANSLATION FROM L1D PREFETCHER DATA	ACCESS:         36  HIT:         27  MISS:          9  HIT %:         75  MISS %:         25  MPKI: 0.00018

L2C PREFETCH  REQUESTED:    1494758  ISSUED:    1494758  USEFUL:      29312  USELESS:     324403
L2C USEFUL LOAD PREFETCHES:      29312 PREFETCH ISSUED TO LOWER LEVEL:     341181  ACCURACY: 8.59133
 TIMELY PREFETCHES:      29312 LATE PREFETCHES: 2216 DROPPED PREFETCHES: 0
L2C AVERAGE MISS LATENCY: 35.5467 cycles
L2C RQ	ACCESS:    2940724	FORWARD:          0	MERGED:          0	TO_CACHE:    2940663
L2C WQ	ACCESS:     520554	FORWARD:         61	MERGED:          0	TO_CACHE:     520554
L2C PQ	ACCESS:    3023328	FORWARD:          0	MERGED:     778086	TO_CACHE:    2245242

L2C Dense regions hint from L2: 0
PSCL5 TOTAL     ACCESS:      53884  HIT:      26942  MISS:      26942  HIT %:         50  MISS %:         50   MPKI: 0.53884
PSCL5 LOAD TRANSLATION INSTRUCTION	ACCESS:       4194  HIT:       2097  MISS:       2097  HIT %:         50  MISS %:         50  MPKI: 0.04194
PSCL5 TRANSLATION FROM L1D PREFETCHER INSTRUCTION	ACCESS:      49690  HIT:      24845  MISS:      24845  HIT %:         50  MISS %:         50  MPKI: 0.4969


PSCL4 TOTAL     ACCESS:      47935  HIT:      23965  MISS:      23970  HIT %:    49.9948  MISS %:    50.0052   MPKI: 0.4794
PSCL4 LOAD TRANSLATION INSTRUCTION	ACCESS:       3142  HIT:       1619  MISS:       1523  HIT %:    51.5277  MISS %:    48.4723  MPKI: 0.03046
PSCL4 TRANSLATION FROM L1D PREFETCHER INSTRUCTION	ACCESS:      44692  HIT:      22346  MISS:      22346  HIT %:         50  MISS %:         50  MPKI: 0.44692
PSCL4 LOAD TRANSLATION DATA	ACCESS:        101  HIT:          0  MISS:        101  HIT %:          0  MISS %:        100  MPKI: 0.00202


PSCL3 TOTAL     ACCESS:      53456  HIT:      26723  MISS:      26733  HIT %:    49.9906  MISS %:    50.0094   MPKI: 0.53466
PSCL3 LOAD TRANSLATION INSTRUCTION	ACCESS:       3955  HIT:       2077  MISS:       1878  HIT %:    52.5158  MISS %:    47.4842  MPKI: 0.03756
PSCL3 TRANSLATION FROM L1D PREFETCHER INSTRUCTION	ACCESS:      47595  HIT:      24646  MISS:      22949  HIT %:    51.7828  MISS %:    48.2172  MPKI: 0.45898
PSCL3 LOAD TRANSLATION DATA	ACCESS:        209  HIT:          0  MISS:        209  HIT %:          0  MISS %:        100  MPKI: 0.00418
PSCL3 TRANSLATION FROM L1D PREFETCHER DATA	ACCESS:       1697  HIT:          0  MISS:       1697  HIT %:          0  MISS %:        100  MPKI: 0.03394


PSCL2 TOTAL     ACCESS:      33993  HIT:      16931  MISS:      17062  HIT %:    49.8073  MISS %:    50.1927   MPKI: 0.34124
PSCL2 LOAD TRANSLATION INSTRUCTION	ACCESS:       2257  HIT:       1977  MISS:        280  HIT %:    87.5942  MISS %:    12.4058  MPKI: 0.0056
PSCL2 TRANSLATION FROM L1D PREFETCHER INSTRUCTION	ACCESS:      29573  HIT:      14954  MISS:      14619  HIT %:    50.5664  MISS %:    49.4336  MPKI: 0.29238
PSCL2 LOAD TRANSLATION DATA	ACCESS:       1828  HIT:          0  MISS:       1828  HIT %:          0  MISS %:        100  MPKI: 0.03656
PSCL2 TRANSLATION FROM L1D PREFETCHER DATA	ACCESS:        335  HIT:          0  MISS:        335  HIT %:          0  MISS %:        100  MPKI: 0.0067


LLC TOTAL     ACCESS:     873647  HIT:     841452  MISS:      32195  HIT %:    96.3149  MISS %:    3.68513   MPKI: 0.6439
LLC LOAD INSTRUCTION	ACCESS:     235521  HIT:     234466  MISS:       1055  HIT %:    99.5521  MISS %:   0.447943  MPKI: 0.0211
LLC PREFETCH INSTRUCTION	ACCESS:     159813  HIT:     158735  MISS:       1078  HIT %:    99.3255  MISS %:   0.674538  MPKI: 0.02156
LLC LOAD TRANSLATION INSTRUCTION	ACCESS:        223  HIT:        212  MISS:         11  HIT %:    95.0673  MISS %:    4.93274  MPKI: 0.00022
LLC TRANSLATION FROM L1D PREFETCHER INSTRUCTION	ACCESS:      11786  HIT:      11677  MISS:        109  HIT %:    99.0752  MISS %:   0.924826  MPKI: 0.00218
LLC LOAD DATA	ACCESS:     114999  HIT:     110649  MISS:       4350  HIT %:    96.2174  MISS %:    3.78264  MPKI: 0.087
LLC RFO DATA	ACCESS:      65589  HIT:      52319  MISS:      13270  HIT %:    79.7679  MISS %:    20.2321  MPKI: 0.2654
LLC PREFETCH DATA	ACCESS:     181360  HIT:     169488  MISS:      11872  HIT %:    93.4539  MISS %:     6.5461  MPKI: 0.23744
LLC WRITEBACK DATA	ACCESS:     102827  HIT:     102523  MISS:        304  HIT %:    99.7044  MISS %:   0.295642  MPKI: 0.00608
LLC LOAD TRANSLATION DATA	ACCESS:       1520  HIT:       1374  MISS:        146  HIT %:    90.3947  MISS %:    9.60526  MPKI: 0.00292
LLC TRANSLATION FROM L1D PREFETCHER DATA	ACCESS:          9  HIT:          9  MISS:          0  HIT %:        100  MISS %:          0  MPKI: 0

LLC AVERAGE MISS LATENCY: 158.59 cycles
LLC RQ	ACCESS:     429674	FORWARD:          0	MERGED:          0	TO_CACHE:     429650
LLC WQ	ACCESS:     102827	FORWARD:         25	MERGED:          0	TO_CACHE:     102827
LLC PQ	ACCESS:     341181	FORWARD:          0	MERGED:          0	TO_CACHE:     341180

LLC Dense regions hint to LLC: 0

RAW hits: 1937302
Loads Generated: 12631445
Loads sent to L1D: 10694143
Stores Generated: 6947026
Stores sent to L1D: 6947035
Major fault: 0 Minor fault: 2574
Allocated PAGES: 2574
I-Shadow cache 408 bytes
Touched + WorthPF tables 12288 bytes 
MMA filter 42 bytes 
FNL filter 272 bytes 
TOTAL PREFETCHER STORAGE SIZE: 19922 bytes
CPU 0 L1I next line prefetcher final stats

stream: 
stream:times selected: 1190735
stream:pref_filled: 120923
stream:pref_useful: 22826
stream:pref_late: 8018
stream:misses: 8335
stream:misses_by_poll: 0

CS: 
CS:times selected: 178318
CS:pref_filled: 55777
CS:pref_useful: 32359
CS:pref_late: 10079
CS:misses: 19441
CS:misses_by_poll: 3

CPLX: 
CPLX:times selected: 1011230
CPLX:pref_filled: 19282
CPLX:pref_useful: 3781
CPLX:pref_late: 3794
CPLX:misses: 94344
CPLX:misses_by_poll: 0

NL_L1: 
NL:times selected: 19712
NL:pref_filled: 531
NL:pref_useful: 198
NL:pref_late: 281
NL:misses: 1685
NL:misses_by_poll: 0

total selections: 2399995
total_filled: 95801
total_useful: 33772
total_late: 23552
total_polluted: 3
total_misses_after_warmup: 773129
conflicts: 5522790

test: 118352

DRAM Statistics
 CHANNEL 0
 RQ ROW_BUFFER_HIT:      10647  ROW_BUFFER_MISS:      21233
 DBUS_CONGESTED:          4
 WQ ROW_BUFFER_HIT:       1654  ROW_BUFFER_MISS:      12864  FULL:          0

 AVG_CONGESTED_CYCLE: 6

CPU 0 Branch Prediction Accuracy: 99.8079% MPKI: 0.3514 Average ROB Occupancy at Mispredict: 172.855
Branch types
NOT_BRANCH: 40852343 81.7047%
BRANCH_DIRECT_JUMP: 548371 1.09674%
BRANCH_INDIRECT: 182836 0.365672%
BRANCH_CONDITIONAL: 6181558 12.3631%
BRANCH_DIRECT_CALL: 945682 1.89136%
BRANCH_INDIRECT_CALL: 171669 0.343338%
BRANCH_RETURN: 1117350 2.2347%
BRANCH_OTHER: 0 0%

DRAM PAGES: 1048576
Allocated PAGES: 2574
Average_ROB_Occupancy: 226.949
Average_Decode_Occupancy: 29.385
Average_FTQ_Occupancy: 11.1927
Indirect max targets: 14 Average targets: 1.17891
Branch_type:  BRANCH_DIRECT_JUMP:  Count Percentage: 2.91476 6.57485 4.47909 8.35179 1.6988 6.29094 1.28634 68.4034 
Branch_type:  BRANCH_INDIRECT:  Count Percentage: 11.7523 3.43623 2.55866 15.3399 3.34634 9.22429 2.00321 52.339 
Branch_type:  BRANCH_CONDITIONAL:  Count Percentage: 20.9205 3.186 2.1372 4.24154 1.45505 4.64437 0.685972 62.7294 
Branch_type:  BRANCH_DIRECT_CALL:  Count Percentage: 0.260148 1.26589 1.44177 2.14265 2.67732 2.36419 0.621332 89.2267 
Branch_type:  BRANCH_INDIRECT_CALL:  Count Percentage: 9.55889 0.57571 2.9941 4.85546 0.938703 3.00111 0.999688 77.0763 
Branch_type:  BRANCH_RETURN:  Count Percentage: 4.50725 0.574684 1.97106 5.62669 2.92613 4.66117 1.06682 78.6662 
Branch_type:  BRANCH_DIRECT_JUMP:  Total Count: 31970 72115 49128 91605 18633 69001 14109 750270 
Branch_type:  BRANCH_INDIRECT:  Total Count: 43015 12577 9365 56146 12248 33762 7332 191567 
Branch_type:  BRANCH_CONDITIONAL:  Total Count: 2585735 393785 264154 524248 179842 574037 84785 7753254 
Branch_type:  BRANCH_DIRECT_CALL:  Total Count: 4905 23868 27184 40399 50480 44576 11715 1682338 
Branch_type:  BRANCH_INDIRECT_CALL:  Total Count: 32759 1973 10261 16640 3217 10285 3426 264146 
Branch_type:  BRANCH_RETURN:  Total Count: 100469 12810 43936 125422 65225 103900 23780 1753511 
Number of unique branch instructions: 10765
Upper 32 bits: 
aaaa
ffff
ffff0000
Unique upper 32 bits: 3
Unique upper 36 bits: 3
Unique upper 40 bits: 5
Unique upper 44 bits: 32
Unique upper 48 bits: 158
Variant_0 : 1387 0.338623
Variant_1 : 1294 0.315918
Variant_2 : 1372 0.334961
Variant_3 : 0 0
Offset_3 4455
Offset_4 258
Offset_5 483
Offset_6 538
Offset_7 638
Offset_8 572
Offset_9 524
Offset_10 426
Offset_11 355
Offset_12 327
Offset_13 236
Offset_14 247
Offset_15 194
Offset_16 232
Offset_17 167
Offset_18 149
Offset_19 257
Offset_20 143
Offset_21 235
Offset_22 413
Offset_23 241
Offset_24 344
Offset_25 117
Offset_47 92
Offset_64 2
decode_dispatch_called: 24245484 65.7861
Dispatch_width: 0 12877610 53.1134 34.9412
Dispatch_width: 1 834412 3.44152 2.26404
Dispatch_width: 2 783095 3.22986 2.1248
Dispatch_width: 3 470750 1.9416 1.2773
Dispatch_width: 4 4644170 19.1548 12.6012
Dispatch_width: 5 202353 0.834601 0.549051
Dispatch_width: 6 4433094 18.2842 12.0285
Empty_decode_cycles: 12609569 34.2139
ROB_full_cycles: 7323455 19.871
Starvation_cycles_per_kilo_instr: 250.985
Starvation_cycles_per_kilo_instr_3: 202.52
Starvation_cycles_per_kilo_instr_0: 181.637
Branch_type_1  (3,1)  (4,9)  (5,39)  (6,72)  (7,125)  (8,149)  (9,136)  (10,111)  (11,79)  (12,55)  (13,11)  (14,2)  (15,3)  (16,4)  (18,1)  (19,5)  (20,2)  (21,1)  (22,3)  (23,2)  (24,10)  (25,12) 
Branch_type_2  (3,1)  (4,1)  (5,1)  (8,4)  (9,4)  (10,1)  (12,1)  (13,1)  (14,1)  (16,3)  (17,2)  (20,2)  (21,2)  (23,5)  (24,1)  (47,41) 
Branch_type_3  (3,4453)  (4,248)  (5,439)  (6,450)  (7,483)  (8,353)  (9,289)  (10,171)  (11,140)  (12,62)  (13,10)  (64,2) 
Branch_type_4  (6,3)  (7,8)  (8,25)  (9,56)  (10,68)  (11,70)  (12,117)  (13,100)  (14,112)  (15,92)  (16,102)  (17,78)  (18,65)  (19,125)  (20,73)  (21,124)  (22,218)  (23,136)  (24,199)  (25,101) 
Branch_type_5  (8,3)  (9,1)  (10,4)  (11,5)  (12,3)  (13,14)  (14,16)  (15,11)  (16,22)  (17,11)  (18,23)  (19,14)  (20,11)  (21,13)  (22,43)  (23,26)  (24,38) 
Branch_type_6  (5,4)  (6,13)  (7,22)  (8,38)  (9,38)  (10,71)  (11,61)  (12,89)  (13,100)  (14,116)  (15,88)  (16,101)  (17,76)  (18,60)  (19,113)  (20,55)  (21,95)  (22,149)  (23,72)  (24,96)  (25,4)  (47,51) 
Unique trigger count: 
Variant_0_evicts_0 : 0
Variant_0_evicts_1 : 0
Variant_0_evicts_2 : 0
Variant_0_evicts_3 : 0
Variant_1_evicts_0 : 0
Variant_1_evicts_1 : 0
Variant_1_evicts_2 : 0
Variant_1_evicts_3 : 0
Variant_2_evicts_0 : 0
Variant_2_evicts_1 : 0
Variant_2_evicts_2 : 0
Variant_2_evicts_3 : 0
Variant_3_evicts_0 : 0
Variant_3_evicts_1 : 0
Variant_3_evicts_2 : 0
Variant_3_evicts_3 : 0
BTB PER SET UNIQUE ADDR: 13 16 11 19 10 15 12 13 13 14 14 15 15 11 11 12 6 10 14 10 13 12 16 13 11 12 15 11 7 10 15 10 13 8 8 14 10 10 8 9 8 10 13 11 8 10 13 8 16 11 13 13 13 13 13 5 14 13 13 17 14 17 10 13 13 13 12 9 15 14 11 14 13 9 7 10 8 9 10 17 18 7 12 14 15 16 14 12 12 16 7 8 14 9 6 14 10 7 12 16 15 21 10 11 10 11 8 11 8 11 6 16 11 13 15 7 16 14 13 16 15 10 10 9 13 12 8 12 16 17 9 14 9 14 10 14 12 13 11 19 11 11 12 9 11 16 13 8 7 14 15 11 11 15 12 14 18 12 12 7 16 10 11 12 12 18 16 9 10 11 9 14 11 13 8 9 8 13 10 8 7 10 11 14 14 15 10 15 15 15 13 12 12 13 13 16 11 12 12 14 14 10 11 9 11 11 12 12 6 13 8 13 15 10 10 11 14 11 14 22 7 15 11 13 12 11 15 14 9 13 11 8 9 13 10 17 15 11 18 9 19 12 14 12 9 15 10 9 14 10 17 11 13 13 9 15 9 10 10 9 12 11 5 9 10 9 11 15 6 14 9 18 10 7 8 12 12 14 14 13 11 11 11 10 15 8 11 14 16 14 12 6 16 20 8 13 13 12 13 16 12 9 10 14 12 14 12 7 19 11 13 12 7 16 14 9 13 14 11 15 9 13 7 12 12 17 12 14 9 7 14 12 10 11 9 13 7 9 7 20 11 7 7 17 19 12 13 13 14 14 10 11 9 10 17 19 14 15 9 14 14 13 11 19 12 15 8 12 14 15 12 6 14 15 12 9 12 16 11 12 13 11 8 9 10 13 14 13 15 15 10 7 10 21 10 10 11 13 10 12 10 10 10 9 14 11 11 14 15 6 14 10 6 15 10 12 15 12 20 19 10 11 9 13 16 12 14 12 15 12 16 11 15 13 10 13 11 10 13 9 13 9 14 18 15 12 10 14 12 14 14 16 17 13 11 22 17 14 16 16 10 13 14 14 20 11 11 15 8 14 11 13 11 13 14 16 10 15 10 14 15 14 13 17 9 16 20 11 16 18 10 15 10 7 9 10 11 17 11 13 13 18 9 20 12 8 11 8 18 11 13 15 14 8 15 12 14 17 5 11 12 11 11 10 8 20 14 8 8 19 11 14 15 16 14 15 13 8 12 15 15 11 14 12 19 12 9 8 11 16 14 16 15 9 14 12 14 13 15 16 11 19 19 14 16 13 11 14 11 13 17 15 15 21 9 17 17 12 9 13 13 11 8 10 17 10 14 12 16 12 8 11 7 12 17 12 8 13 9 11 14 8 8 10 10 19 17 12 10 7 16 11 14 12 4 9 14 15 16 15 10 10 11 13 11 14 9 17 13 14 9 13 13 13 13 9 16 17 10 15 9 19 10 16 10 13 13 14 17 12 7 9 9 11 12 11 11 15 8 13 16 4 14 13 12 14 10 12 7 9 14 14 11 13 16 10 10 17 11 15 9 18 14 11 13 17 13 16 19 12 14 12 10 9 10 11 8 19 11 13 5 14 12 16 7 13 10 7 13 9 13 15 9 18 12 9 13 13 14 13 15 10 12 20 7 12 11 7 10 9 13 12 12 8 7 18 10 14 18 14 11 10 14 11 13 20 16 16 9 14 11 12 12 14 12 11 20 11 9 11 11 7 9 16 14 15 11 12 8 14 10 19 10 9 11 8 12 11 13 13 6 12 10 11 13 14 14 15 12 7 10 9 14 8 17 16 8 14 17 9 15 11 14 9 21 14 11 11 10 15 10 16 11 15 11 16 18 14 10 15 9 17 10 12 12 14 10 7 11 7 16 14 11 12 10 13 10 11 8 14 20 16 12 13 7 16 15 18 13 10 9 9 16 14 15 21 11 11 12 13 11 11 10 10 15 7 12 12 17 12 14 17 6 14 14 5 14 11 10 11 15 10 15 13 16 14 14 17 12 12 14 10 7 11 11 13 13 9 6 8 13 13 13 13 6 17 11 11 9 14 13 10 11 11 6 13 15 9 15 15 11 19 14 9 8 8 9 12 15 8 12 15 17 8 11 15 11 14 20 14 9 22 14 15 11 8 13 12 8 16 13 15 11 16 12 14 11 12 10 12 11 12 11 17 14 8 16 9 11 15 14 12 16 14 16 14 17 19 20 13 12 15 12 12 13 17 13 12 15 12 10 10 18 14 12 12 10 13 13 11 12 19 10 8 11 14 10 16 9 9 10 18 14 9 11 10 11 7 8 12 12 17 13 9 
BTB PER SET COUNT: 1386 992 2549 7440 5608 2932 2891 846 3449 2568 74 5899 21277 3770 5722 2868 2904 1905 3378 59 509 206 3382 2879 2798 1301 939 204 1458 89 4269 1286 19 38 22 1865 1442 1409 16 18 1566 593 2140 198 4096 1519 994 13 1068 342 408 2549 122 378 2631 749 3918 3599 2886 38 359 5399 486 1621 1587 284 1066 3430 1580 350 7435 4078 28 466 1406 1395 318 2138 742 6239 2133 1880 891 2650 671 2446 75 18 2298 1189 10 830 1711 1304 497 1255 4000 8 88 7661 510 6260 2688 1619 1664 1293 23 1261 1999 2605 1971 466 76 1129 183 995 1738 249 3343 1087 1466 3888 55 11 4070 2526 12 2107 1033 5686 5064 1294 1255 2741 312 4334 1909 22 196 764 14 941 609 886 3819 2598 101 510 1140 1437 4445 5292 1537 1243 3391 4519 1204 2313 19 1370 2501 17 15 5394 196 3199 950 3537 2493 516 816 1044 2900 331 13 16 1287 1249 208 1915 9 2587 9787 1672 1875 447 2009 403 3569 2241 20 3192 1622 240 5417 3583 2493 1977 1596 3997 4500 483 2790 2091 4444 6479 17 2151 6 2906 1713 1491 1398 14148 2415 5507 3920 2306 988 2833 14 128 159 3104 631 1720 3368 22 3117 3979 298 12 772 1251 1472 487 880 1788 3396 14 848 1818 497 657 107 7404 2002 11 133 255 726 3651 1367 8727 276 1165 803 807 17 18 1998 2950 7 515 15 301 1759 4265 1992 2373 589 5494 2286 243 10 1872 1489 4861 2064 664 228 2540 2464 3288 5214 753 1426 981 3723 1493 3901 496 2521 3196 276 1137 4786 755 587 39 5136 3141 2257 924 2647 3222 1510 746 727 1622 3482 2507 822 2245 1104 2220 21 39 777 1230 636 5569 9 1037 5229 1159 3291 287 857 109 2068 18 14 3058 2601 149 22 4495 538 3901 473 2148 1917 3099 2224 3112 4125 468 5710 699 13 1843 2260 142 894 10791 590 5930 965 3210 95 59 2387 600 342 5768 2850 3863 1542 3859 62 1110 38 1223 2759 11 494 1504 79 1342 3391 186 587 1355 13 2905 3651 50 2014 7913 287 2602 22 1746 236 5659 269 1015 1694 565 1814 796 1364 502 1084 13 1057 1131 975 7 580 2294 1177 2328 11 2162 28 63 6652 5585 20 2931 13 138 68 2234 1475 2869 1573 5146 3215 15 3793 666 111 33 1774 330 4653 14 2552 1158 65 1581 4015 21 2191 18 15 2547 975 938 1371 3676 34 4188 1747 4044 4656 827 35 472 3288 4081 95 2719 1447 572 13 2583 86 646 2799 51 3384 1263 2406 228 1452 1774 1028 2464 5936 1911 12 1036 486 2413 4506 2258 2253 3705 1008 94 1981 3193 2304 6979 1875 2047 42 2938 575 3858 709 377 1639 17 1328 150 745 1770 3174 4089 2714 1883 2036 1196 79 1777 1935 824 30 1388 11 2664 1183 147 17 2473 264 19 3463 2461 1852 1608 3448 988 435 2673 2513 873 682 4174 4648 2288 629 134 389 2490 4222 1075 1586 4580 44 75 537 5194 848 1979 781 2200 404 742 1110 520 2189 392 15 2880 3330 6038 4522 3234 3266 5204 2406 5868 10 2200 964 21 1164 5907 1888 160 4501 924 652 1959 406 1987 7 2193 2065 1610 2006 2920 1634 2340 204 1085 1967 85 507 3123 1821 2985 1952 9 257 1850 1772 1999 16 14 432 1620 522 2122 3932 14 19 7341 3331 19 1468 2822 1532 7569 920 390 2173 4913 2581 62 534 4807 16 2760 15 1703 14 4068 454 130 4992 847 2430 2443 346 13 1235 16 3278 275 2178 421 218 1679 6219 4 1567 160 976 4482 19 548 2026 16 2291 1672 2785 1061 483 14 925 6197 186 1288 275 2018 1717 3044 512 3413 972 818 2545 955 1766 2529 768 241 1697 809 17 1941 145 117 5 103 6183 4001 509 1455 1477 835 2310 27 3444 783 355 2431 2747 423 2940 802 1941 20 727 1243 5202 4419 378 16 32 7 1283 117 277 1951 20 847 248 2235 336 501 7199 9140 1688 1772 2702 453 700 1587 1471 3899 305 743 3693 3510 5834 4056 4284 959 263 19 15 101 515 7 771 3366 514 1982 3039 5809 35 2780 277 723 4588 872 44 10 3967 186 1481 22 1615 1842 5804 2346 4573 357 1357 981 667 7 1096 1001 1184 989 2204 2552 11 1266 2254 4444 2319 1332 352 9 2365 2231 470 603 3442 7761 1780 7883 1601 2869 242 3872 842 3387 2394 2924 12 4387 23 901 994 344 667 1471 2824 1413 990 905 724 1212 871 6454 882 1597 1011 4337 4944 2908 4700 772 488 284 546 4814 2338 1857 245 5498 7331 2208 4111 3851 1430 851 255 304 1781 11 2985 1670 2290 357 558 528 2955 180 2276 52 1476 4668 611 5 1721 982 2731 177 2122 3256 566 7923 3798 4435 3129 767 4112 889 4269 439 7 2247 190 15 2425 12 6 16 744 24 2590 1072 1471 1885 290 218 1900 784 21 2057 141 1787 6 2495 3906 90 1192 315 2064 746 4239 270 20 1526 391 1391 1252 23 882 153 1732 964 907 2040 4296 3147 1369 1234 4599 2472 2109 1264 2569 3201 227 862 850 965 1490 2055 4045 2179 3710 3729 845 22 115 92 20 1826 3908 766 2833 9 2046 4958 90 1021 1078 4171 81 2056 2710 3182 969 2746 2762 5000 208 7121 312 2299 22 2295 23 2973 1432 1403 2407 4866 27 57 942 1518 22 2153 316 591 478 4014 1202 11 856 1559 408 2107 917 1966 69 4820 1144 451 344 19 474 7 250 625 1358 1343 376 806 
To predecode: 1198109
Predecoding something: 757559
Predecode request dropped: 0
sizeofblock_0 0
sizeofblock_1 302774
sizeofblock_2 469616
sizeofblock_3 808486
sizeofblock_4 205548
sizeofblock_5 0
sizeofblock_6 0
sizeofblock_7 0
sizeofblock_8 0
Variant_0 Correct: 1612497 Incorrect: 0 Accuracy: 1
Variant_1 Correct: 2090814 Incorrect: 0 Accuracy: 1
Variant_2 Correct: 5058373 Incorrect: 0 Accuracy: 1
Variant_3 Correct: 0 Incorrect: 0 Accuracy: -nan
