
*** ChampSim Multicore Out-of-Order Simulator ***

Warmup Instructions: 50000000
Simulation Instructions: 50000000
Number of CPUs: 1
LLC sets: 2048
LLC ways: 16
Off-chip DRAM Size: 4096 MB Channels: 1 Width: 64-bit Data Rate: 6400 MT/s
CPU 0 runs ./micro_traces/srv649.trace.gz
.gz
ITLB has LRU replacement policy
DTLB has LRU replacement policy
STLB has LRU replacement policy
L1I has LRU replacement policy
L1D has LRU replacement policy
Initialize SRRIP state for L2C
Initialize DRRIP state for LLC
Heartbeat_Variant_0 : 1323 0.322998 per_variant_size: 0 1323 0 0 0 0 0 0 0 
Heartbeat_Variant_1 : 1208 0.294922 per_variant_size: 0 580 628 0 0 0 0 0 0 
Heartbeat_Variant_2 : 1311 0.320068 per_variant_size: 0 533 365 222 191 0 0 0 0 
Heartbeat_Variant_3 : 0 0 per_variant_size: 0 0 0 0 0 0 0 0 0 
Heartbeat_Variant_0_evicts 0 : 5842 1 : 286 2 : 225 3 : 0 
Heartbeat_Variant_1_evicts 0 : 277 1 : 0 2 : 412 3 : 0 
Heartbeat_Variant_2_evicts 0 : 217 1 : 416 2 : 0 3 : 0 
Heartbeat_Variant_3_evicts 0 : 0 1 : 0 2 : 0 3 : 0 
Heartbeat CPU 0 instructions: 10000001 cycles: 2797565 heartbeat IPC: 3.57454 cumulative IPC: 3.57454 (Simulation time: 0 hr 1 min 18 sec) 
Heartbeat_Variant_0 : 1349 0.329346 per_variant_size: 0 1349 0 0 0 0 0 0 0 
Heartbeat_Variant_1 : 1239 0.30249 per_variant_size: 0 586 653 0 0 0 0 0 0 
Heartbeat_Variant_2 : 1337 0.326416 per_variant_size: 0 538 377 212 210 0 0 0 0 
Heartbeat_Variant_3 : 0 0 per_variant_size: 0 0 0 0 0 0 0 0 0 
Heartbeat_Variant_0_evicts 0 : 5688 1 : 92 2 : 104 3 : 0 
Heartbeat_Variant_1_evicts 0 : 96 1 : 0 2 : 281 3 : 0 
Heartbeat_Variant_2_evicts 0 : 100 1 : 285 2 : 0 3 : 0 
Heartbeat_Variant_3_evicts 0 : 0 1 : 0 2 : 0 3 : 0 
Heartbeat CPU 0 instructions: 20000003 cycles: 5593612 heartbeat IPC: 3.57648 cumulative IPC: 3.57551 (Simulation time: 0 hr 2 min 35 sec) 
Heartbeat_Variant_0 : 1349 0.329346 per_variant_size: 0 1349 0 0 0 0 0 0 0 
Heartbeat_Variant_1 : 1257 0.306885 per_variant_size: 0 597 660 0 0 0 0 0 0 
Heartbeat_Variant_2 : 1341 0.327393 per_variant_size: 0 539 373 213 216 0 0 0 0 
Heartbeat_Variant_3 : 0 0 per_variant_size: 0 0 0 0 0 0 0 0 0 
Heartbeat_Variant_0_evicts 0 : 5570 1 : 67 2 : 57 3 : 0 
Heartbeat_Variant_1_evicts 0 : 70 1 : 0 2 : 253 3 : 0 
Heartbeat_Variant_2_evicts 0 : 57 1 : 250 2 : 0 3 : 0 
Heartbeat_Variant_3_evicts 0 : 0 1 : 0 2 : 0 3 : 0 
Heartbeat CPU 0 instructions: 30000003 cycles: 8390266 heartbeat IPC: 3.5757 cumulative IPC: 3.57557 (Simulation time: 0 hr 3 min 50 sec) 
Heartbeat_Variant_0 : 1357 0.331299 per_variant_size: 0 1357 0 0 0 0 0 0 0 
Heartbeat_Variant_1 : 1257 0.306885 per_variant_size: 0 597 660 0 0 0 0 0 0 
Heartbeat_Variant_2 : 1353 0.330322 per_variant_size: 0 533 390 227 203 0 0 0 0 
Heartbeat_Variant_3 : 0 0 per_variant_size: 0 0 0 0 0 0 0 0 0 
Heartbeat_Variant_0_evicts 0 : 5747 1 : 89 2 : 113 3 : 0 
Heartbeat_Variant_1_evicts 0 : 85 1 : 0 2 : 261 3 : 0 
Heartbeat_Variant_2_evicts 0 : 113 1 : 263 2 : 0 3 : 0 
Heartbeat_Variant_3_evicts 0 : 0 1 : 0 2 : 0 3 : 0 
Heartbeat CPU 0 instructions: 40000003 cycles: 11186836 heartbeat IPC: 3.57581 cumulative IPC: 3.57563 (Simulation time: 0 hr 5 min 6 sec) 
Heartbeat_Variant_0 : 1365 0.333252 per_variant_size: 0 1365 0 0 0 0 0 0 0 
Heartbeat_Variant_1 : 1257 0.306885 per_variant_size: 0 597 660 0 0 0 0 0 0 
Heartbeat_Variant_2 : 1353 0.330322 per_variant_size: 0 527 391 236 199 0 0 0 0 
Heartbeat_Variant_3 : 0 0 per_variant_size: 0 0 0 0 0 0 0 0 0 
Heartbeat_Variant_0_evicts 0 : 5641 1 : 52 2 : 38 3 : 0 
Heartbeat_Variant_1_evicts 0 : 49 1 : 0 2 : 225 3 : 0 
Heartbeat_Variant_2_evicts 0 : 35 1 : 223 2 : 0 3 : 0 
Heartbeat_Variant_3_evicts 0 : 0 1 : 0 2 : 0 3 : 0 
Heartbeat CPU 0 instructions: 50000000 cycles: 13983264 heartbeat IPC: 3.57599 cumulative IPC: 3.5757 (Simulation time: 0 hr 6 min 22 sec) 

Warmup complete CPU 0 instructions: 50000004 cycles: 13983265 (Simulation time: 0 hr 6 min 22 sec) 

Cycle: 20000000 FTQ IN: 55421425 FTQ occupancy: 15.8825 DECODE IN: 55421407 DECODE occupancy: 9.51749 ROB IN: 55421407 ROB occupancy: 259.221 ROB OUT: 55421336
Heartbeat_Variant_0 : 1371 0.334717 per_variant_size: 0 1371 0 0 0 0 0 0 0 
Heartbeat_Variant_1 : 1274 0.311035 per_variant_size: 0 612 662 0 0 0 0 0 0 
Heartbeat_Variant_2 : 1346 0.328613 per_variant_size: 0 512 386 254 194 0 0 0 0 
Heartbeat_Variant_3 : 0 0 per_variant_size: 0 0 0 0 0 0 0 0 0 
Heartbeat_Variant_0_evicts 0 : 5633 1 : 56 2 : 76 3 : 0 
Heartbeat_Variant_1_evicts 0 : 58 1 : 0 2 : 259 3 : 0 
Heartbeat_Variant_2_evicts 0 : 71 1 : 252 2 : 0 3 : 0 
Heartbeat_Variant_3_evicts 0 : 0 1 : 0 2 : 0 3 : 0 
Heartbeat CPU 0 instructions: 60000001 cycles: 25070502 heartbeat IPC: 0.901938 cumulative IPC: 0.901938 (Simulation time: 0 hr 7 min 38 sec) 
Cycle: 30000000 FTQ IN: 9055175 FTQ occupancy: 14.8558 DECODE IN: 9055175 DECODE occupancy: 4.96605 ROB IN: 9055169 ROB occupancy: 54.0063 ROB OUT: 9055212
Heartbeat_Variant_0 : 1380 0.336914 per_variant_size: 0 1380 0 0 0 0 0 0 0 
Heartbeat_Variant_1 : 1283 0.313232 per_variant_size: 0 627 656 0 0 0 0 0 0 
Heartbeat_Variant_2 : 1353 0.330322 per_variant_size: 0 513 394 260 186 0 0 0 0 
Heartbeat_Variant_3 : 0 0 per_variant_size: 0 0 0 0 0 0 0 0 0 
Heartbeat_Variant_0_evicts 0 : 5648 1 : 114 2 : 120 3 : 0 
Heartbeat_Variant_1_evicts 0 : 104 1 : 0 2 : 326 3 : 0 
Heartbeat_Variant_2_evicts 0 : 129 1 : 314 2 : 0 3 : 0 
Heartbeat_Variant_3_evicts 0 : 0 1 : 0 2 : 0 3 : 0 
Heartbeat CPU 0 instructions: 70000000 cycles: 36252879 heartbeat IPC: 0.894264 cumulative IPC: 0.898085 (Simulation time: 0 hr 8 min 51 sec) 
Cycle: 40000000 FTQ IN: 8880842 FTQ occupancy: 14.8562 DECODE IN: 8880845 DECODE occupancy: 4.95915 ROB IN: 8880851 ROB occupancy: 56.0412 ROB OUT: 8880862
Heartbeat_Variant_0 : 1393 0.340088 per_variant_size: 0 1393 0 0 0 0 0 0 0 
Heartbeat_Variant_1 : 1282 0.312988 per_variant_size: 0 606 676 0 0 0 0 0 0 
Heartbeat_Variant_2 : 1360 0.332031 per_variant_size: 0 516 371 272 201 0 0 0 0 
Heartbeat_Variant_3 : 0 0 per_variant_size: 0 0 0 0 0 0 0 0 0 
Heartbeat_Variant_0_evicts 0 : 5755 1 : 121 2 : 136 3 : 0 
Heartbeat_Variant_1_evicts 0 : 125 1 : 0 2 : 291 3 : 0 
Heartbeat_Variant_2_evicts 0 : 125 1 : 304 2 : 0 3 : 0 
Heartbeat_Variant_3_evicts 0 : 0 1 : 0 2 : 0 3 : 0 
Heartbeat CPU 0 instructions: 80000003 cycles: 47304431 heartbeat IPC: 0.904851 cumulative IPC: 0.900329 (Simulation time: 0 hr 10 min 1 sec) 
Cycle: 50000000 FTQ IN: 9070833 FTQ occupancy: 14.8959 DECODE IN: 9070830 DECODE occupancy: 4.98466 ROB IN: 9070830 ROB occupancy: 54.0058 ROB OUT: 9070720
Heartbeat_Variant_0 : 1403 0.342529 per_variant_size: 0 1403 0 0 0 0 0 0 0 
Heartbeat_Variant_1 : 1277 0.311768 per_variant_size: 0 582 695 0 0 0 0 0 0 
Heartbeat_Variant_2 : 1360 0.332031 per_variant_size: 0 504 380 273 203 0 0 0 0 
Heartbeat_Variant_3 : 0 0 per_variant_size: 0 0 0 0 0 0 0 0 0 
Heartbeat_Variant_0_evicts 0 : 5590 1 : 94 2 : 77 3 : 0 
Heartbeat_Variant_1_evicts 0 : 82 1 : 0 2 : 273 3 : 0 
Heartbeat_Variant_2_evicts 0 : 79 1 : 266 2 : 0 3 : 0 
Heartbeat_Variant_3_evicts 0 : 0 1 : 0 2 : 0 3 : 0 
Heartbeat CPU 0 instructions: 90000002 cycles: 58521000 heartbeat IPC: 0.891538 cumulative IPC: 0.898115 (Simulation time: 0 hr 11 min 11 sec) 
Cycle: 60000000 FTQ IN: 8913520 FTQ occupancy: 14.9293 DECODE IN: 8913524 DECODE occupancy: 4.96121 ROB IN: 8913512 ROB occupancy: 55.9016 ROB OUT: 8913587
Heartbeat_Variant_0 : 1403 0.342529 per_variant_size: 0 1403 0 0 0 0 0 0 0 
Heartbeat_Variant_1 : 1279 0.312256 per_variant_size: 0 583 696 0 0 0 0 0 0 
Heartbeat_Variant_2 : 1359 0.331787 per_variant_size: 0 504 381 271 203 0 0 0 0 
Heartbeat_Variant_3 : 0 0 per_variant_size: 0 0 0 0 0 0 0 0 0 
Heartbeat_Variant_0_evicts 0 : 5512 1 : 8 2 : 6 3 : 0 
Heartbeat_Variant_1_evicts 0 : 8 1 : 0 2 : 198 3 : 0 
Heartbeat_Variant_2_evicts 0 : 6 1 : 197 2 : 0 3 : 0 
Heartbeat_Variant_3_evicts 0 : 0 1 : 0 2 : 0 3 : 0 
Heartbeat CPU 0 instructions: 100000001 cycles: 69561050 heartbeat IPC: 0.905793 cumulative IPC: 0.89964 (Simulation time: 0 hr 12 min 18 sec) 
Finished CPU 0 instructions: 50000001 cycles: 55577791 cumulative IPC: 0.89964 (Simulation time: 0 hr 12 min 18 sec) 

ChampSim completed all CPUs

Region of Interest Statistics

CPU 0 cumulative IPC: 0.89964 instructions: 50000001 cycles: 55577791
 Fetch stage stalled: 27.6568  Sim cycles: 55577791 fetch stall cycle: 15371060
 Empty decode stage: 68.4242  Sim cycles: 55577791 fetch stall cycle: 38028680
ITLB TOTAL     ACCESS:    7347931  HIT:    6852205  MISS:     495726  HIT %:    93.2535  MISS %:    6.74647   MPKI: 9.91452
ITLB LOAD TRANSLATION INSTRUCTION	ACCESS:    7347931  HIT:    6852205  MISS:     495726  HIT %:    93.2535  MISS %:    6.74647  MPKI: 9.91452

ITLB AVERAGE MISS LATENCY: 9.04746 cycles
ITLB RQ	ACCESS:    8470264	FORWARD:          0	MERGED:     921341	TO_CACHE:    7548923

DTLB TOTAL     ACCESS:   10261017  HIT:    9779056  MISS:     481961  HIT %:     95.303  MISS %:    4.69701   MPKI: 9.63922
DTLB LOAD TRANSLATION DATA	ACCESS:   10261017  HIT:    9779056  MISS:     481961  HIT %:     95.303  MISS %:    4.69701  MPKI: 9.63922

DTLB AVERAGE MISS LATENCY: 9.29909 cycles
DTLB RQ	ACCESS:   14397270	FORWARD:          0	MERGED:    4105996	TO_CACHE:   10291274

STLB TOTAL     ACCESS:    1234980  HIT:    1232956  MISS:       2024  HIT %:    99.8361  MISS %:   0.163889   MPKI: 0.04048
STLB LOAD TRANSLATION INSTRUCTION	ACCESS:     495726  HIT:     495458  MISS:        268  HIT %:    99.9459  MISS %:  0.0540621  MPKI: 0.00536
STLB LOAD TRANSLATION DATA	ACCESS:     481947  HIT:     480209  MISS:       1738  HIT %:    99.6394  MISS %:   0.360621  MPKI: 0.03476
STLB TRANSLATION FROM L1D PREFETCHER DATA	ACCESS:     257307  HIT:     257289  MISS:         18  HIT %:     99.993  MISS %: 0.00699553  MPKI: 0.00036

STLB AVERAGE MISS LATENCY: 72.2589 cycles
STLB RQ	ACCESS:    1364697	FORWARD:          0	MERGED:     129681	TO_CACHE:    1235016

STLB Hit, L1D data hit: 0
STLB Hit, L2C data hit: 0
STLB Hit, LLC data hit: 0
STLB Hit, LLC data miss: 0
STLB STLB hints to L2: 0
L1D TOTAL     ACCESS:   14185561  HIT:   13033265  MISS:    1152296  HIT %:     91.877  MISS %:    8.12302   MPKI: 23.0459
L1D LOAD DATA	ACCESS:    7561476  HIT:    6798508  MISS:     762968  HIT %:    89.9098  MISS %:    10.0902  MPKI: 15.2594
L1D RFO DATA	ACCESS:    6294054  HIT:    6004600  MISS:     289454  HIT %:    95.4012  MISS %:    4.59885  MPKI: 5.78908
L1D PREFETCH DATA	ACCESS:     330031  HIT:     230157  MISS:      99874  HIT %:     69.738  MISS %:     30.262  MPKI: 1.99748

L1D PREFETCH  REQUESTED:     774142  ISSUED:     774142  USEFUL:      44497  USELESS:      68379
L1D USEFUL LOAD PREFETCHES:      44497 PREFETCH ISSUED TO LOWER LEVEL:     112955  ACCURACY: 39.3936
 TIMELY PREFETCHES:      44497 LATE PREFETCHES: 13014 DROPPED PREFETCHES: 7
L1D AVERAGE MISS LATENCY: 477199 cycles
L1D RQ	ACCESS:   11379210	FORWARD:          0	MERGED:    3628393	TO_CACHE:    7592908
L1D WQ	ACCESS:    6928288	FORWARD:     158031	MERGED:     123926	TO_CACHE:    6804362
L1D PQ	ACCESS:     387132	FORWARD:          0	MERGED:          0	TO_CACHE:     387010

L1D UNIQUE REGIONS ACCESSED: 0
L1D REGIONS CONFLICTS: 0
L1D Cross Page Prefetch Requests: 5700
L1D Same Page Prefetch Requests: 787655
L1D ROI Sum of L1D PQ occupancy: 4901760
L1D PREFETCHES PUSHED FROM L2C: 0
L1I TOTAL     ACCESS:    7922567  HIT:    5155103  MISS:    2767464  HIT %:    65.0686  MISS %:    34.9314   MPKI: 55.3493
L1I LOAD INSTRUCTION	ACCESS:    7922567  HIT:    5155103  MISS:    2767464  HIT %:    65.0686  MISS %:    34.9314  MPKI: 55.3493

L1I AVERAGE MISS LATENCY: 16.9567 cycles
L1I RQ	ACCESS:   15531166	FORWARD:          0	MERGED:    7060902	TO_CACHE:    8470264

L1BTB TOTAL     ACCESS:    5677310  HIT:    2046711  MISS:    3630599  HIT %:    36.0507  MISS %:    63.9493   MPKI: 72.612
L1BTB BRANCH_DIRECT_JUMP	ACCESS:     545246  HIT:     142502  MISS:     402744	AVERAGE STALL: 21.7023
L1BTB BRANCH_INDIRECT	ACCESS:     181516  HIT:      65185  MISS:     116331	AVERAGE STALL: 49.2806
L1BTB BRANCH_CONDITIONAL	ACCESS:    2716782  HIT:    1424797  MISS:    1291985	AVERAGE STALL: 27.7758
L1BTB BRANCH_DIRECT_CALL	ACCESS:     945045  HIT:     103912  MISS:     841133	AVERAGE STALL: 31.7576
L1BTB BRANCH_INDIRECT_CALL	ACCESS:     171836  HIT:      21386  MISS:     150450	AVERAGE STALL: 69.1071
L1BTB BRANCH_RETURN	ACCESS:    1116885  HIT:     288929  MISS:     827956	AVERAGE STALL: 33.3965
L1BTB BRANCH_OTHER ACCESS:          0  HIT:          0  MISS:          0	AVERAGE STALL: -nan
L1BTB TOTAL ROB OCCUPANCY AT BTB MISS: 0.626373

L2BTB TOTAL     ACCESS:    3605373  HIT:    3539771  MISS:      65602  HIT %:    98.1804  MISS %:    1.81956   MPKI: 1.31204
L2BTB BRANCH_DIRECT_JUMP	ACCESS:     398660  HIT:     394613  MISS:       4047	AVERAGE STALL: 21.7023
L2BTB BRANCH_INDIRECT	ACCESS:     106040  HIT:     103348  MISS:       2692	AVERAGE STALL: 49.2806
L2BTB BRANCH_CONDITIONAL	ACCESS:    1291985  HIT:    1286564  MISS:       5421	AVERAGE STALL: 27.7758
L2BTB BRANCH_DIRECT_CALL	ACCESS:     841133  HIT:     839432  MISS:       1701	AVERAGE STALL: 31.7576
L2BTB BRANCH_INDIRECT_CALL	ACCESS:     141014  HIT:     130906  MISS:      10108	AVERAGE STALL: 69.1071
L2BTB BRANCH_RETURN	ACCESS:     826541  HIT:     784908  MISS:      41633	AVERAGE STALL: 33.3965
L2BTB BRANCH_OTHER ACCESS:          0  HIT:          0  MISS:          0	AVERAGE STALL: -nan
L2BTB TOTAL ROB OCCUPANCY AT BTB MISS: 34.6652

L2C TOTAL     ACCESS:    4538035  HIT:    4053493  MISS:     484542  HIT %:    89.3226  MISS %:    10.6774   MPKI: 9.69084
L2C LOAD INSTRUCTION	ACCESS:    2767463  HIT:    2510710  MISS:     256753  HIT %:    90.7224  MISS %:    9.27756  MPKI: 5.13506
L2C LOAD TRANSLATION INSTRUCTION	ACCESS:        308  HIT:         67  MISS:        241  HIT %:    21.7532  MISS %:    78.2468  MPKI: 0.00482
L2C LOAD DATA	ACCESS:     749923  HIT:     667518  MISS:      82405  HIT %:    89.0115  MISS %:    10.9885  MPKI: 1.6481
L2C RFO DATA	ACCESS:     289361  HIT:     236992  MISS:      52369  HIT %:    81.9018  MISS %:    18.0982  MPKI: 1.04738
L2C PREFETCH DATA	ACCESS:     201863  HIT:     124306  MISS:      77557  HIT %:    61.5794  MISS %:    38.4206  MPKI: 1.55114
L2C WRITEBACK DATA	ACCESS:     527239  HIT:     513382  MISS:      13857  HIT %:    97.3718  MISS %:    2.62822  MPKI: 0.27714
L2C LOAD TRANSLATION DATA	ACCESS:       1848  HIT:        496  MISS:       1352  HIT %:    26.8398  MISS %:    73.1602  MPKI: 0.02704
L2C TRANSLATION FROM L1D PREFETCHER DATA	ACCESS:         30  HIT:         22  MISS:          8  HIT %:    73.3333  MISS %:    26.6667  MPKI: 0.00016

L2C PREFETCH  REQUESTED:      96342  ISSUED:      96342  USEFUL:       8278  USELESS:      69574
L2C USEFUL LOAD PREFETCHES:       8278 PREFETCH ISSUED TO LOWER LEVEL:      77894  ACCURACY: 10.6273
 TIMELY PREFETCHES:       8278 LATE PREFETCHES: 337 DROPPED PREFETCHES: 0
L2C AVERAGE MISS LATENCY: 38.066 cycles
L2C RQ	ACCESS:    3808989	FORWARD:          0	MERGED:          0	TO_CACHE:    3808933
L2C WQ	ACCESS:     527239	FORWARD:         58	MERGED:          0	TO_CACHE:     527239
L2C PQ	ACCESS:     209297	FORWARD:          0	MERGED:       3724	TO_CACHE:     205571

L2C Dense regions hint from L2: 0
PSCL5 TOTAL     ACCESS:       4068  HIT:       2034  MISS:       2034  HIT %:         50  MISS %:         50   MPKI: 0.04068
PSCL5 LOAD TRANSLATION INSTRUCTION	ACCESS:       4008  HIT:       2004  MISS:       2004  HIT %:         50  MISS %:         50  MPKI: 0.04008
PSCL5 TRANSLATION FROM L1D PREFETCHER INSTRUCTION	ACCESS:         60  HIT:         30  MISS:         30  HIT %:         50  MISS %:         50  MPKI: 0.0006


PSCL4 TOTAL     ACCESS:       3952  HIT:       1968  MISS:       1984  HIT %:    49.7976  MISS %:    50.2024   MPKI: 0.03968
PSCL4 LOAD TRANSLATION INSTRUCTION	ACCESS:       2384  HIT:       1938  MISS:        446  HIT %:    81.2919  MISS %:    18.7081  MPKI: 0.00892
PSCL4 TRANSLATION FROM L1D PREFETCHER INSTRUCTION	ACCESS:         36  HIT:         30  MISS:          6  HIT %:    83.3333  MISS %:    16.6667  MPKI: 0.00012
PSCL4 LOAD TRANSLATION DATA	ACCESS:       1508  HIT:          0  MISS:       1508  HIT %:          0  MISS %:        100  MPKI: 0.03016
PSCL4 TRANSLATION FROM L1D PREFETCHER DATA	ACCESS:         24  HIT:          0  MISS:         24  HIT %:          0  MISS %:        100  MPKI: 0.00048


PSCL3 TOTAL     ACCESS:       4006  HIT:       1995  MISS:       2011  HIT %:    49.8003  MISS %:    50.1997   MPKI: 0.04022
PSCL3 LOAD TRANSLATION INSTRUCTION	ACCESS:       2411  HIT:       1965  MISS:        446  HIT %:    81.5015  MISS %:    18.4985  MPKI: 0.00892
PSCL3 TRANSLATION FROM L1D PREFETCHER INSTRUCTION	ACCESS:         36  HIT:         30  MISS:          6  HIT %:    83.3333  MISS %:    16.6667  MPKI: 0.00012
PSCL3 LOAD TRANSLATION DATA	ACCESS:       1535  HIT:          0  MISS:       1535  HIT %:          0  MISS %:        100  MPKI: 0.0307
PSCL3 TRANSLATION FROM L1D PREFETCHER DATA	ACCESS:         24  HIT:          0  MISS:         24  HIT %:          0  MISS %:        100  MPKI: 0.00048


PSCL2 TOTAL     ACCESS:       3945  HIT:       1911  MISS:       2034  HIT %:    48.4411  MISS %:    51.5589   MPKI: 0.04068
PSCL2 LOAD TRANSLATION INSTRUCTION	ACCESS:       2149  HIT:       1881  MISS:        268  HIT %:    87.5291  MISS %:    12.4709  MPKI: 0.00536
PSCL2 TRANSLATION FROM L1D PREFETCHER INSTRUCTION	ACCESS:         30  HIT:         30  MISS:          0  HIT %:        100  MISS %:          0  MPKI: 0
PSCL2 LOAD TRANSLATION DATA	ACCESS:       1736  HIT:          0  MISS:       1736  HIT %:          0  MISS %:        100  MPKI: 0.03472
PSCL2 TRANSLATION FROM L1D PREFETCHER DATA	ACCESS:         30  HIT:          0  MISS:         30  HIT %:          0  MISS %:        100  MPKI: 0.0006


LLC TOTAL     ACCESS:     547857  HIT:     519933  MISS:      27924  HIT %:     94.903  MISS %:    5.09695   MPKI: 0.55848
LLC LOAD INSTRUCTION	ACCESS:     256753  HIT:     255873  MISS:        880  HIT %:    99.6573  MISS %:   0.342742  MPKI: 0.0176
LLC LOAD TRANSLATION INSTRUCTION	ACCESS:        241  HIT:        212  MISS:         29  HIT %:    87.9668  MISS %:    12.0332  MPKI: 0.00058
LLC LOAD DATA	ACCESS:      82077  HIT:      78470  MISS:       3607  HIT %:    95.6053  MISS %:    4.39465  MPKI: 0.07214
LLC RFO DATA	ACCESS:      52360  HIT:      39375  MISS:      12985  HIT %:    75.2005  MISS %:    24.7995  MPKI: 0.2597
LLC PREFETCH DATA	ACCESS:      77894  HIT:      67861  MISS:      10033  HIT %:    87.1197  MISS %:    12.8803  MPKI: 0.20066
LLC WRITEBACK DATA	ACCESS:      77172  HIT:      76851  MISS:        321  HIT %:     99.584  MISS %:   0.415954  MPKI: 0.00642
LLC LOAD TRANSLATION DATA	ACCESS:       1352  HIT:       1283  MISS:         69  HIT %:    94.8964  MISS %:    5.10355  MPKI: 0.00138
LLC TRANSLATION FROM L1D PREFETCHER DATA	ACCESS:          8  HIT:          8  MISS:          0  HIT %:        100  MISS %:          0  MPKI: 0

LLC AVERAGE MISS LATENCY: 153.711 cycles
LLC RQ	ACCESS:     392791	FORWARD:          0	MERGED:          0	TO_CACHE:     392791
LLC WQ	ACCESS:      77172	FORWARD:          0	MERGED:          0	TO_CACHE:      77172
LLC PQ	ACCESS:      77894	FORWARD:          0	MERGED:          0	TO_CACHE:      77894

LLC Dense regions hint to LLC: 0

RAW hits: 1233406
Loads Generated: 12612616
Loads sent to L1D: 11379210
Stores Generated: 6928273
Stores sent to L1D: 6928288
Major fault: 0 Minor fault: 2567
Allocated PAGES: 2567

stream: 
stream:times selected: 1227760
stream:pref_filled: 124240
stream:pref_useful: 28338
stream:pref_late: 8284
stream:misses: 8149
stream:misses_by_poll: 0

CS: 
CS:times selected: 190835
CS:pref_filled: 69232
CS:pref_useful: 45439
CS:pref_late: 9727
CS:misses: 22748
CS:misses_by_poll: 2

CPLX: 
CPLX:times selected: 1035859
CPLX:pref_filled: 23858
CPLX:pref_useful: 6480
CPLX:pref_late: 4124
CPLX:misses: 117813
CPLX:misses_by_poll: 1

NL_L1: 
NL:times selected: 11812
NL:pref_filled: 1461
NL:pref_useful: 299
NL:pref_late: 153
NL:misses: 1359
NL:misses_by_poll: 0

total selections: 2466266
total_filled: 99874
total_useful: 44497
total_late: 24385
total_polluted: 3
total_misses_after_warmup: 794400
conflicts: 5961361

test: 117971

DRAM Statistics
 CHANNEL 0
 RQ ROW_BUFFER_HIT:       9993  ROW_BUFFER_MISS:      17604
 DBUS_CONGESTED:          7
 WQ ROW_BUFFER_HIT:       1375  ROW_BUFFER_MISS:      12191  FULL:          0

 AVG_CONGESTED_CYCLE: 7

CPU 0 Branch Prediction Accuracy: 99.8139% MPKI: 0.34088 Average ROB Occupancy at Mispredict: 72.1988
Branch types
NOT_BRANCH: 40841261 81.6825%
BRANCH_DIRECT_JUMP: 545246 1.09049%
BRANCH_INDIRECT: 181516 0.363032%
BRANCH_CONDITIONAL: 6197937 12.3959%
BRANCH_DIRECT_CALL: 945045 1.89009%
BRANCH_INDIRECT_CALL: 171836 0.343672%
BRANCH_RETURN: 1116885 2.23377%
BRANCH_OTHER: 0 0%

DRAM PAGES: 1048576
Allocated PAGES: 2567
Average_ROB_Occupancy: 55.4798
Average_Decode_Occupancy: 4.96682
Average_FTQ_Occupancy: 14.8792
Indirect max targets: 14 Average targets: 1.15182
Branch_type:  BRANCH_DIRECT_JUMP:  Count Percentage: 2.90115 7.61233 3.32714 7.29826 1.87396 3.03863 0.980301 72.9682 
Branch_type:  BRANCH_INDIRECT:  Count Percentage: 11.7623 3.42909 2.53583 9.67335 3.34915 4.018 2.00982 63.2225 
Branch_type:  BRANCH_CONDITIONAL:  Count Percentage: 21.1288 6.70916 1.7912 4.51871 2.0632 2.8199 0.64694 60.3221 
Branch_type:  BRANCH_DIRECT_CALL:  Count Percentage: 0.73498 1.24578 1.12771 3.7675 2.50496 2.07336 0.439743 88.106 
Branch_type:  BRANCH_INDIRECT_CALL:  Count Percentage: 9.55962 0.568938 2.99533 4.85133 0.969974 2.99416 0.998347 77.0623 
Branch_type:  BRANCH_RETURN:  Count Percentage: 4.21151 3.79209 2.05901 5.53926 4.23103 4.40887 1.0666 74.6916 
Branch_type:  BRANCH_DIRECT_JUMP:  Total Count: 31675 83112 36326 79683 20460 33176 10703 796673 
Branch_type:  BRANCH_INDIRECT:  Total Count: 42822 12484 9232 35217 12193 14628 7317 230169 
Branch_type:  BRANCH_CONDITIONAL:  Total Count: 2618975 831619 222024 560106 255739 349534 80190 7477084 
Branch_type:  BRANCH_DIRECT_CALL:  Total Count: 13819 23423 21203 70836 47098 38983 8268 1656557 
Branch_type:  BRANCH_INDIRECT_CALL:  Total Count: 32681 1945 10240 16585 3316 10236 3413 263449 
Branch_type:  BRANCH_RETURN:  Total Count: 93616 84293 45769 123130 94050 98003 23709 1660292 
Number of unique branch instructions: 10075
Upper 32 bits: 
aaaa
ffff
ffff0000
Unique upper 32 bits: 3
Unique upper 36 bits: 3
Unique upper 40 bits: 5
Unique upper 44 bits: 32
Unique upper 48 bits: 157
Variant_0 : 1403 0.342529
Variant_1 : 1279 0.312256
Variant_2 : 1359 0.331787
Variant_3 : 0 0
Offset_3 4143
Offset_4 261
Offset_5 465
Offset_6 510
Offset_7 588
Offset_8 520
Offset_9 483
Offset_10 388
Offset_11 310
Offset_12 277
Offset_13 210
Offset_14 228
Offset_15 188
Offset_16 225
Offset_17 154
Offset_18 118
Offset_19 239
Offset_20 138
Offset_21 261
Offset_22 395
Offset_23 241
Offset_24 350
Offset_25 88
Offset_47 86
decode_dispatch_called: 30342065 54.5939
Dispatch_width: 0 18237637 60.1068 32.8146
Dispatch_width: 1 2317150 7.63676 4.1692
Dispatch_width: 2 1118947 3.68777 2.0133
Dispatch_width: 3 1075860 3.54577 1.93577
Dispatch_width: 4 1029913 3.39434 1.8531
Dispatch_width: 5 1277885 4.2116 2.29927
Dispatch_width: 6 5284673 17.417 9.50861
Empty_decode_cycles: 25235726 45.4061
ROB_full_cycles: 527304 0.948767
Starvation_cycles_per_kilo_instr: 497.658
Starvation_cycles_per_kilo_instr_3: 474.58
Starvation_cycles_per_kilo_instr_0: 429.461
Branch_type_1  (3,1)  (4,10)  (5,39)  (6,70)  (7,115)  (8,132)  (9,128)  (10,100)  (11,69)  (12,43)  (13,8)  (14,2)  (15,3)  (16,4)  (18,1)  (19,4)  (20,2)  (21,1)  (22,3)  (23,2)  (24,10)  (25,12) 
Branch_type_2  (3,1)  (5,1)  (8,3)  (9,3)  (12,1)  (13,1)  (14,1)  (16,3)  (17,2)  (20,2)  (21,2)  (23,5)  (24,1)  (47,40) 
Branch_type_3  (3,4141)  (4,251)  (5,421)  (6,425)  (7,443)  (8,325)  (9,268)  (10,157)  (11,123)  (12,50)  (13,7) 
Branch_type_4  (6,3)  (7,8)  (8,25)  (9,52)  (10,61)  (11,61)  (12,99)  (13,89)  (14,101)  (15,89)  (16,100)  (17,69)  (18,53)  (19,117)  (20,71)  (21,141)  (22,210)  (23,136)  (24,200)  (25,72) 
Branch_type_5  (8,2)  (9,1)  (10,4)  (11,5)  (12,3)  (13,14)  (14,16)  (15,11)  (16,20)  (17,11)  (18,16)  (19,13)  (20,11)  (21,13)  (22,42)  (23,26)  (24,41) 
Branch_type_6  (5,4)  (6,12)  (7,22)  (8,33)  (9,31)  (10,66)  (11,52)  (12,81)  (13,91)  (14,108)  (15,85)  (16,98)  (17,72)  (18,48)  (19,105)  (20,52)  (21,104)  (22,140)  (23,72)  (24,98)  (25,4)  (47,46) 
Unique trigger count: 
Variant_0_evicts_0 : 0
Variant_0_evicts_1 : 0
Variant_0_evicts_2 : 0
Variant_0_evicts_3 : 0
Variant_1_evicts_0 : 0
Variant_1_evicts_1 : 0
Variant_1_evicts_2 : 0
Variant_1_evicts_3 : 0
Variant_2_evicts_0 : 0
Variant_2_evicts_1 : 0
Variant_2_evicts_2 : 0
Variant_2_evicts_3 : 0
Variant_3_evicts_0 : 0
Variant_3_evicts_1 : 0
Variant_3_evicts_2 : 0
Variant_3_evicts_3 : 0
BTB PER SET UNIQUE ADDR: 15 11 7 9 13 14 10 17 10 11 11 22 12 12 8 12 6 8 12 9 9 9 14 9 10 10 13 13 12 14 12 15 15 7 8 11 14 10 7 10 9 7 13 13 9 11 13 10 15 8 12 10 11 16 13 4 11 9 6 11 10 14 9 8 15 14 10 12 13 12 10 11 15 10 11 6 6 13 9 20 11 8 14 12 11 12 16 11 10 20 8 7 11 11 6 11 10 10 16 13 17 17 13 9 12 7 10 9 9 8 8 13 12 8 7 8 12 14 11 13 10 12 9 10 14 9 7 11 15 9 9 17 11 11 10 13 9 14 8 13 7 11 10 11 12 9 10 8 5 9 14 14 12 7 5 15 15 12 11 11 12 15 15 14 10 8 13 11 13 9 10 12 11 10 11 9 12 11 14 12 10 15 12 10 18 16 5 11 10 12 10 10 8 11 12 15 7 11 11 11 12 12 10 14 7 7 11 11 14 12 9 15 10 15 9 10 13 11 12 14 6 12 6 7 7 10 13 9 9 13 7 5 12 10 12 10 11 14 9 6 11 10 12 12 7 11 10 12 12 8 13 8 13 10 11 10 9 8 8 12 13 10 6 9 13 7 10 10 11 10 11 13 10 8 8 8 11 12 10 9 10 10 7 10 11 6 10 13 16 14 9 8 10 14 9 16 16 7 12 11 10 10 9 11 10 15 9 10 17 10 9 17 9 16 8 7 13 10 11 18 11 11 11 11 13 11 9 9 10 6 12 10 10 10 12 12 9 7 7 18 14 9 7 13 13 16 13 11 12 10 11 8 10 13 9 12 12 12 7 11 10 12 9 10 10 16 6 13 12 7 11 9 14 11 8 15 10 14 14 11 11 12 6 13 10 13 16 11 13 7 14 11 14 12 10 8 10 10 17 10 10 13 8 11 13 11 17 16 14 15 13 5 7 13 11 13 10 9 14 15 10 13 10 10 9 14 10 11 12 11 13 9 12 11 12 8 17 9 9 17 14 9 9 14 16 9 11 7 9 12 14 11 13 7 16 19 14 14 8 12 10 11 10 15 12 15 11 10 12 15 10 12 12 12 18 21 7 16 7 12 15 14 11 19 10 16 20 12 15 16 5 10 13 10 11 7 15 17 7 9 13 15 10 9 8 9 9 9 15 9 13 13 15 9 14 15 11 22 6 8 6 10 8 7 14 13 15 9 6 19 14 11 19 8 12 16 11 10 9 15 15 11 15 9 15 12 11 11 8 10 12 11 14 14 11 13 13 9 18 14 10 16 14 11 11 15 8 11 12 11 10 8 19 16 16 10 12 16 7 9 15 13 6 13 14 11 11 15 14 17 9 11 9 10 12 8 8 12 9 11 14 10 11 6 7 16 15 7 12 11 15 11 10 8 4 11 8 15 11 10 17 7 8 11 11 13 10 19 8 14 10 16 13 11 8 10 11 17 11 16 9 12 15 13 13 15 9 12 18 11 7 12 8 8 11 11 11 8 10 9 14 9 13 16 9 12 10 14 11 9 14 11 8 14 16 12 15 16 12 12 9 13 14 9 14 13 10 17 10 12 14 10 14 8 10 11 7 11 8 17 8 9 17 10 5 13 10 9 8 10 11 14 9 12 9 10 11 12 10 9 12 8 13 14 9 12 12 11 9 8 13 11 11 7 8 11 15 15 16 9 8 11 14 13 20 13 13 12 8 12 15 12 16 15 9 10 14 12 7 7 12 8 6 10 13 9 8 11 13 12 16 13 9 8 11 10 11 13 14 13 10 13 13 13 10 7 10 8 7 6 8 6 14 10 15 21 15 12 13 8 15 11 9 18 14 10 14 11 10 11 10 11 10 13 12 17 16 17 10 16 11 15 5 8 14 9 8 14 11 12 11 13 13 10 10 14 11 9 9 11 14 11 7 6 13 14 11 15 11 12 10 14 8 11 9 19 12 11 9 13 13 13 7 6 17 9 16 6 18 9 12 11 16 9 13 7 10 12 8 11 8 9 12 11 11 16 18 10 17 11 10 9 14 8 8 9 17 11 8 11 12 9 11 10 7 7 13 10 10 11 9 13 9 13 15 9 22 12 12 11 14 15 12 14 11 9 7 10 11 8 14 13 14 11 11 12 7 8 13 18 7 16 8 12 10 10 16 12 6 13 11 12 10 15 10 17 8 15 10 13 13 18 11 11 14 10 10 11 7 16 11 10 15 9 14 12 15 13 13 14 10 11 16 13 10 19 15 11 12 14 13 20 12 12 12 8 8 10 16 9 16 13 12 11 10 11 6 15 7 14 11 10 9 8 12 14 7 9 8 7 8 12 10 8 
BTB PER SET COUNT: 30 11 1955 11 1476 19 987 30 416 14 16 1007 5688 22 8 18 986 8 21 10 11 13 719 66 20 10 16 236 117 16 17 182 23 10 12 13 16 12 8 2267 10 14 17 19 1472 12 15 15 778 8 21 13 20 20 17 4 15 9 10 20 12 24 14 8 20 258 11 17 19 17 1477 211 17 14 14 6 10 80 16 33 939 11 172 449 13 1884 21 15 13 43 12 7 15 437 6 11 276 173 23 16 22 20 20 12 1230 11 12 13 984 11 9 28 629 16 9 1138 25 23 1474 20 17 15 12 10 16 28 7 14 26 926 11 5063 16 14 12 17 990 18 10 15 8 16 18 14 17 13 268 979 6 11 15 17 1358 8 8 27 21 15 14 17 23 116 19 18 1474 14 26 16 25 10 16 13 11 13 15 13 15 13 409 13 39 23 1265 13 20 28 8 25 599 792 11 12 9 16 15 101 8 293 14 18 12 131 995 14 9 7 12 15 18 2045 16 26 16 34 15 732 17 13 2876 19 7 12 9 7 8 23 13 19 12 16 8 5 17 17 12 14106 19 17 11 9 15 12 14 12 9 546 417 20 501 10 17 12 19 14 11 147 9 13 8 14 993 13 7 310 16 7 13 13 267 10 23 20 13 13 10 10 14 13 15 9 11 14 12 10 13 6 10 22 26 20 9 10 13 80 11 27 576 9 17 27 13 12 13 12 10 20 12 12 24 376 9 24 14 27 1559 597 19 10 14 28 18 2939 18 13 21 70 14 12 15 7 16 19 16 13 12 22 15 984 10 30 14 1165 7 20 21 22 16 17 18 16 13 8 16 15 10 12 15 17 497 19 11 13 12 14 12 846 13 16 22 8 19 9 26 1463 989 27 15 19 17 56 990 12 8 17 11 13 777 12 14 8 21 14 24 386 12 978 11 20 1148 542 13 21 9 11 21 14 28 24 16 18 1206 5 8 15 12 21 12 715 326 28 12 19 12 15 18 20 1220 18 15 19 24 12 19 19 504 14 25 74 12 30 20 9 23 25 1270 12 16 9 10 13 25 2932 13 11 210 855 16 20 12 14 35 11 16 694 14 18 5886 13 17 24 15 17 17 14 35 26 12 23 8 14 28 21 13 28 15 23 31 16 23 20 5 14 617 11 11 13 2298 996 8 10 23 33 12 9 10 13 12 15 25 10 265 22 42 475 19 24 27 33 6 10 8 14 10 9 29 17 25 13 7 44 25 12 29 8 15 26 211 12 11 20 28 11 19 13 24 14 17 15 10 11 15 17 240 24 13 16 21 9 32 22 10 108 16 14 19 24 93 12 13 12 15 11 25 21 55 11 13 23 10 10 24 16 11 3103 20 14 13 17 30 30 15 15 13 10 21 8 1199 391 248 12 15 11 110 6 8 21 18 10 13 13 18 172 15 8 4 12 448 20 12 16 28 8 13 429 18 20 13 381 9 20 16 29 16 164 10 11 12 993 13 771 12 13 23 19 456 124 981 19 1614 14 8 22 8 8 825 514 25 11 10 985 392 11 19 18 23 23 14 638 1477 12 21 15 984 17 52 18 22 19 13 14 15 21 175 9 843 19 10 21 17 29 22 10 20 9 2030 18 12 142 9 25 879 12 557 13 8 19 11 9 13 11 290 125 748 12 11 14 500 19 18 11 18 8 14 950 487 16 14 11 980 8 122 3162 13 13 8 17 535 21 22 13 17 15 682 22 33 13 236 12 10 22 1488 14 323 475 13 18 20 1170 9 7 13 15 6 359 19 13 10 1057 16 13 76 19 10 9 17 12 12 14 24 17 1278 20 1364 18 12 7 14 10 7 7 15 7 16 13 56 26 48 12 18 8 25 14 11 25 507 15 20 16 11 14 13 7810 15 377 14 116 29 27 15 594 18 827 7 9 186 25 8 20 12 13 13 17 20 13 502 22 11 10 9 134 19 30 7 8 919 15 15 20 11 5615 16 563 21 15 10 21 15 15 12 18 984 18 967 6 757 12 21 6 29 16 15 47 23 9 15 10 11 17 8 13 9 10 130 13 501 645 20 11 20 390 10 374 591 8 8 12 29 19 14 16 19 10 23 393 10 16 13 11 13 393 9 490 16 19 115 120 550 302 20 17 22 256 223 469 15 14 10 10 11 18 23 18 330 13 51 15 7 11 402 25 7 125 8 14 12 13 26 19 6 19 87 351 15 503 11 20 169 17 10 502 15 26 135 11 17 16 1086 12 7 64 22 11 20 11 1133 20 20 21 758 22 17 16 22 47 12 1869 15 67 17 16 18 847 378 995 26 8 9 1478 27 11 17 19 21 15 13 13 7 22 7 834 15 442 10 8 18 21 10 20 9 8 11 62 11 11 
To predecode: 0
Predecoding something: 0
Predecode request dropped: 0
sizeofblock_0 0
sizeofblock_1 38136
sizeofblock_2 40939
sizeofblock_3 40652
sizeofblock_4 18256
sizeofblock_5 0
sizeofblock_6 0
sizeofblock_7 0
sizeofblock_8 0
Variant_0 Correct: 1607571 Incorrect: 0 Accuracy: 1
Variant_1 Correct: 2083790 Incorrect: 0 Accuracy: 1
Variant_2 Correct: 3633586 Incorrect: 0 Accuracy: 1
Variant_3 Correct: 0 Incorrect: 0 Accuracy: -nan
