
*** ChampSim Multicore Out-of-Order Simulator ***

Warmup Instructions: 50000000
Simulation Instructions: 50000000
Number of CPUs: 1
LLC sets: 2048
LLC ways: 16
Off-chip DRAM Size: 4096 MB Channels: 1 Width: 64-bit Data Rate: 6400 MT/s
CPU 0 runs ./micro_traces/srv696.trace.gz
.gz
ITLB has LRU replacement policy
DTLB has LRU replacement policy
STLB has LRU replacement policy
FDIP Prefetcher at L1I
L1I has LRU replacement policy
L1D has LRU replacement policy
Initialize SRRIP state for L2C
Initialize DRRIP state for LLC
Heartbeat_Variant_0 : 1297 0.31665 per_variant_size: 0 1297 0 0 0 0 0 0 0 
Heartbeat_Variant_1 : 2475 0.604248 per_variant_size: 0 582 1893 0 0 0 0 0 0 
Heartbeat_Variant_2 : 0 0 per_variant_size: 0 0 0 0 0 0 0 0 0 
Heartbeat_Variant_3 : 0 0 per_variant_size: 0 0 0 0 0 0 0 0 0 
Heartbeat_Variant_0_evicts 0 : 5756 1 : 356 2 : 0 3 : 0 
Heartbeat_Variant_1_evicts 0 : 310 1 : 0 2 : 0 3 : 0 
Heartbeat_Variant_2_evicts 0 : 0 1 : 0 2 : 0 3 : 0 
Heartbeat_Variant_3_evicts 0 : 0 1 : 0 2 : 0 3 : 0 
Heartbeat CPU 0 instructions: 10000001 cycles: 2797350 heartbeat IPC: 3.57481 cumulative IPC: 3.57481 (Simulation time: 0 hr 1 min 31 sec) 
Heartbeat_Variant_0 : 1355 0.330811 per_variant_size: 0 1355 0 0 0 0 0 0 0 
Heartbeat_Variant_1 : 2579 0.629639 per_variant_size: 0 485 2094 0 0 0 0 0 0 
Heartbeat_Variant_2 : 0 0 per_variant_size: 0 0 0 0 0 0 0 0 0 
Heartbeat_Variant_3 : 0 0 per_variant_size: 0 0 0 0 0 0 0 0 0 
Heartbeat_Variant_0_evicts 0 : 5676 1 : 306 2 : 0 3 : 0 
Heartbeat_Variant_1_evicts 0 : 288 1 : 0 2 : 0 3 : 0 
Heartbeat_Variant_2_evicts 0 : 0 1 : 0 2 : 0 3 : 0 
Heartbeat_Variant_3_evicts 0 : 0 1 : 0 2 : 0 3 : 0 
Heartbeat CPU 0 instructions: 20000000 cycles: 5594838 heartbeat IPC: 3.57464 cumulative IPC: 3.57472 (Simulation time: 0 hr 3 min 5 sec) 
Heartbeat_Variant_0 : 1356 0.331055 per_variant_size: 0 1356 0 0 0 0 0 0 0 
Heartbeat_Variant_1 : 2585 0.631104 per_variant_size: 0 484 2101 0 0 0 0 0 0 
Heartbeat_Variant_2 : 0 0 per_variant_size: 0 0 0 0 0 0 0 0 0 
Heartbeat_Variant_3 : 0 0 per_variant_size: 0 0 0 0 0 0 0 0 0 
Heartbeat_Variant_0_evicts 0 : 5602 1 : 20 2 : 0 3 : 0 
Heartbeat_Variant_1_evicts 0 : 19 1 : 0 2 : 0 3 : 0 
Heartbeat_Variant_2_evicts 0 : 0 1 : 0 2 : 0 3 : 0 
Heartbeat_Variant_3_evicts 0 : 0 1 : 0 2 : 0 3 : 0 
Heartbeat CPU 0 instructions: 30000002 cycles: 8392006 heartbeat IPC: 3.57505 cumulative IPC: 3.57483 (Simulation time: 0 hr 4 min 37 sec) 
Heartbeat_Variant_0 : 1358 0.331543 per_variant_size: 0 1358 0 0 0 0 0 0 0 
Heartbeat_Variant_1 : 2602 0.635254 per_variant_size: 0 494 2108 0 0 0 0 0 0 
Heartbeat_Variant_2 : 0 0 per_variant_size: 0 0 0 0 0 0 0 0 0 
Heartbeat_Variant_3 : 0 0 per_variant_size: 0 0 0 0 0 0 0 0 0 
Heartbeat_Variant_0_evicts 0 : 5606 1 : 98 2 : 0 3 : 0 
Heartbeat_Variant_1_evicts 0 : 99 1 : 0 2 : 0 3 : 0 
Heartbeat_Variant_2_evicts 0 : 0 1 : 0 2 : 0 3 : 0 
Heartbeat_Variant_3_evicts 0 : 0 1 : 0 2 : 0 3 : 0 
Heartbeat CPU 0 instructions: 40000003 cycles: 11189863 heartbeat IPC: 3.57416 cumulative IPC: 3.57466 (Simulation time: 0 hr 6 min 7 sec) 
Heartbeat_Variant_0 : 1363 0.332764 per_variant_size: 0 1363 0 0 0 0 0 0 0 
Heartbeat_Variant_1 : 2605 0.635986 per_variant_size: 0 487 2118 0 0 0 0 0 0 
Heartbeat_Variant_2 : 0 0 per_variant_size: 0 0 0 0 0 0 0 0 0 
Heartbeat_Variant_3 : 0 0 per_variant_size: 0 0 0 0 0 0 0 0 0 
Heartbeat_Variant_0_evicts 0 : 5539 1 : 73 2 : 0 3 : 0 
Heartbeat_Variant_1_evicts 0 : 72 1 : 0 2 : 0 3 : 0 
Heartbeat_Variant_2_evicts 0 : 0 1 : 0 2 : 0 3 : 0 
Heartbeat_Variant_3_evicts 0 : 0 1 : 0 2 : 0 3 : 0 
Heartbeat CPU 0 instructions: 50000003 cycles: 13985012 heartbeat IPC: 3.57763 cumulative IPC: 3.57526 (Simulation time: 0 hr 7 min 37 sec) 

Warmup complete CPU 0 instructions: 50000003 cycles: 13985012 (Simulation time: 0 hr 7 min 37 sec) 

Cycle: 20000000 FTQ IN: 58378241 FTQ occupancy: 20.9349 DECODE IN: 58378241 DECODE occupancy: 54.0004 ROB IN: 58378234 ROB occupancy: 320.273 ROB OUT: 58378075
Heartbeat_Variant_0 : 1372 0.334961 per_variant_size: 0 1372 0 0 0 0 0 0 0 
Heartbeat_Variant_1 : 2607 0.636475 per_variant_size: 0 494 2113 0 0 0 0 0 0 
Heartbeat_Variant_2 : 0 0 per_variant_size: 0 0 0 0 0 0 0 0 0 
Heartbeat_Variant_3 : 0 0 per_variant_size: 0 0 0 0 0 0 0 0 0 
Heartbeat_Variant_0_evicts 0 : 5618 1 : 145 2 : 0 3 : 0 
Heartbeat_Variant_1_evicts 0 : 138 1 : 0 2 : 0 3 : 0 
Heartbeat_Variant_2_evicts 0 : 0 1 : 0 2 : 0 3 : 0 
Heartbeat_Variant_3_evicts 0 : 0 1 : 0 2 : 0 3 : 0 
Heartbeat CPU 0 instructions: 60000000 cycles: 21153717 heartbeat IPC: 1.39495 cumulative IPC: 1.39495 (Simulation time: 0 hr 9 min 25 sec) 
Heartbeat_Variant_0 : 1377 0.336182 per_variant_size: 0 1377 0 0 0 0 0 0 0 
Heartbeat_Variant_1 : 2629 0.641846 per_variant_size: 0 499 2130 0 0 0 0 0 0 
Heartbeat_Variant_2 : 0 0 per_variant_size: 0 0 0 0 0 0 0 0 0 
Heartbeat_Variant_3 : 0 0 per_variant_size: 0 0 0 0 0 0 0 0 0 
Heartbeat_Variant_0_evicts 0 : 5759 1 : 216 2 : 0 3 : 0 
Heartbeat_Variant_1_evicts 0 : 223 1 : 0 2 : 0 3 : 0 
Heartbeat_Variant_2_evicts 0 : 0 1 : 0 2 : 0 3 : 0 
Heartbeat_Variant_3_evicts 0 : 0 1 : 0 2 : 0 3 : 0 
Heartbeat CPU 0 instructions: 70000000 cycles: 28239637 heartbeat IPC: 1.41125 cumulative IPC: 1.40305 (Simulation time: 0 hr 11 min 12 sec) 
Cycle: 30000000 FTQ IN: 14136853 FTQ occupancy: 16.0612 DECODE IN: 14136668 DECODE occupancy: 40.059 ROB IN: 14136615 ROB occupancy: 254.658 ROB OUT: 14136531
Heartbeat_Variant_0 : 1379 0.33667 per_variant_size: 0 1379 0 0 0 0 0 0 0 
Heartbeat_Variant_1 : 2631 0.642334 per_variant_size: 0 493 2138 0 0 0 0 0 0 
Heartbeat_Variant_2 : 0 0 per_variant_size: 0 0 0 0 0 0 0 0 0 
Heartbeat_Variant_3 : 0 0 per_variant_size: 0 0 0 0 0 0 0 0 0 
Heartbeat_Variant_0_evicts 0 : 5567 1 : 86 2 : 0 3 : 0 
Heartbeat_Variant_1_evicts 0 : 85 1 : 0 2 : 0 3 : 0 
Heartbeat_Variant_2_evicts 0 : 0 1 : 0 2 : 0 3 : 0 
Heartbeat_Variant_3_evicts 0 : 0 1 : 0 2 : 0 3 : 0 
Heartbeat CPU 0 instructions: 80000001 cycles: 35384100 heartbeat IPC: 1.39969 cumulative IPC: 1.40193 (Simulation time: 0 hr 13 min 0 sec) 
Cycle: 40000000 FTQ IN: 14010734 FTQ occupancy: 16.2192 DECODE IN: 14010839 DECODE occupancy: 40.2265 ROB IN: 14010883 ROB occupancy: 253.751 ROB OUT: 14010969
Heartbeat_Variant_0 : 1381 0.337158 per_variant_size: 0 1381 0 0 0 0 0 0 0 
Heartbeat_Variant_1 : 2635 0.643311 per_variant_size: 0 493 2142 0 0 0 0 0 0 
Heartbeat_Variant_2 : 0 0 per_variant_size: 0 0 0 0 0 0 0 0 0 
Heartbeat_Variant_3 : 0 0 per_variant_size: 0 0 0 0 0 0 0 0 0 
Heartbeat_Variant_0_evicts 0 : 5648 1 : 78 2 : 0 3 : 0 
Heartbeat_Variant_1_evicts 0 : 77 1 : 0 2 : 0 3 : 0 
Heartbeat_Variant_2_evicts 0 : 0 1 : 0 2 : 0 3 : 0 
Heartbeat_Variant_3_evicts 0 : 0 1 : 0 2 : 0 3 : 0 
Heartbeat CPU 0 instructions: 90000001 cycles: 42469822 heartbeat IPC: 1.41129 cumulative IPC: 1.40426 (Simulation time: 0 hr 14 min 45 sec) 
Heartbeat_Variant_0 : 1383 0.337646 per_variant_size: 0 1383 0 0 0 0 0 0 0 
Heartbeat_Variant_1 : 2640 0.644531 per_variant_size: 0 500 2140 0 0 0 0 0 0 
Heartbeat_Variant_2 : 0 0 per_variant_size: 0 0 0 0 0 0 0 0 0 
Heartbeat_Variant_3 : 0 0 per_variant_size: 0 0 0 0 0 0 0 0 0 
Heartbeat_Variant_0_evicts 0 : 5660 1 : 66 2 : 0 3 : 0 
Heartbeat_Variant_1_evicts 0 : 66 1 : 0 2 : 0 3 : 0 
Heartbeat_Variant_2_evicts 0 : 0 1 : 0 2 : 0 3 : 0 
Heartbeat_Variant_3_evicts 0 : 0 1 : 0 2 : 0 3 : 0 
Heartbeat CPU 0 instructions: 100000001 cycles: 49641759 heartbeat IPC: 1.39432 cumulative IPC: 1.40226 (Simulation time: 0 hr 16 min 28 sec) 
Finished CPU 0 instructions: 50000002 cycles: 35656748 cumulative IPC: 1.40226 (Simulation time: 0 hr 16 min 28 sec) 

ChampSim completed all CPUs

Region of Interest Statistics

CPU 0 cumulative IPC: 1.40226 instructions: 50000002 cycles: 35656748
 Fetch stage stalled: 37.6719  Sim cycles: 35656748 fetch stall cycle: 13432577
 Empty decode stage: 20.1012  Sim cycles: 35656748 fetch stall cycle: 7167437
ITLB TOTAL     ACCESS:    5850912  HIT:    5357169  MISS:     493743  HIT %:    91.5613  MISS %:    8.43874   MPKI: 9.87486
ITLB LOAD TRANSLATION INSTRUCTION	ACCESS:    5704626  HIT:    5210883  MISS:     493743  HIT %:    91.3449  MISS %:    8.65513  MPKI: 9.87486
ITLB TRANSLATION FROM L1D PREFETCHER INSTRUCTION	ACCESS:     146286  HIT:     146286  MISS:          0  HIT %:        100  MISS %:          0  MPKI: 0

ITLB AVERAGE MISS LATENCY: 9.04994 cycles
ITLB RQ	ACCESS:    7902647	FORWARD:          0	MERGED:    1533280	TO_CACHE:    6369367

DTLB TOTAL     ACCESS:    8954083  HIT:    8481943  MISS:     472140  HIT %:    94.7271  MISS %:     5.2729   MPKI: 9.4428
DTLB LOAD TRANSLATION DATA	ACCESS:    8954083  HIT:    8481943  MISS:     472140  HIT %:    94.7271  MISS %:     5.2729  MPKI: 9.4428

DTLB AVERAGE MISS LATENCY: 9.33384 cycles
DTLB RQ	ACCESS:   13323553	FORWARD:          0	MERGED:    4333040	TO_CACHE:    8990513

STLB TOTAL     ACCESS:    1216025  HIT:    1213973  MISS:       2052  HIT %:    99.8313  MISS %:   0.168747   MPKI: 0.04104
STLB LOAD TRANSLATION INSTRUCTION	ACCESS:     493743  HIT:     493496  MISS:        247  HIT %:      99.95  MISS %:   0.050026  MPKI: 0.00494
STLB LOAD TRANSLATION DATA	ACCESS:     472140  HIT:     470364  MISS:       1776  HIT %:    99.6238  MISS %:    0.37616  MPKI: 0.03552
STLB TRANSLATION FROM L1D PREFETCHER DATA	ACCESS:     250142  HIT:     250113  MISS:         29  HIT %:    99.9884  MISS %:  0.0115934  MPKI: 0.00058

STLB AVERAGE MISS LATENCY: 74.5049 cycles
STLB RQ	ACCESS:    1337806	FORWARD:          0	MERGED:     121736	TO_CACHE:    1216070

STLB Hit, L1D data hit: 0
STLB Hit, L2C data hit: 0
STLB Hit, LLC data hit: 0
STLB Hit, LLC data miss: 0
STLB STLB hints to L2: 0
L1D TOTAL     ACCESS:   13072614  HIT:   11951902  MISS:    1120712  HIT %:     91.427  MISS %:    8.57298   MPKI: 22.4142
L1D LOAD DATA	ACCESS:    6538107  HIT:    5801187  MISS:     736920  HIT %:    88.7288  MISS %:    11.2712  MPKI: 14.7384
L1D RFO DATA	ACCESS:    6203941  HIT:    5916972  MISS:     286969  HIT %:    95.3744  MISS %:    4.62559  MPKI: 5.73938
L1D PREFETCH DATA	ACCESS:     330566  HIT:     233743  MISS:      96823  HIT %:    70.7099  MISS %:    29.2901  MPKI: 1.93646

L1D PREFETCH  REQUESTED:     744225  ISSUED:     744225  USEFUL:      35204  USELESS:      69697
L1D USEFUL LOAD PREFETCHES:      35204 PREFETCH ISSUED TO LOWER LEVEL:     104947  ACCURACY: 33.5446
 TIMELY PREFETCHES:      35204 LATE PREFETCHES: 8055 DROPPED PREFETCHES: 14
L1D AVERAGE MISS LATENCY: 230722 cycles
L1D RQ	ACCESS:   10688380	FORWARD:          0	MERGED:    3951774	TO_CACHE:    6572627
L1D WQ	ACCESS:    6949900	FORWARD:     164358	MERGED:     198974	TO_CACHE:    6750926
L1D PQ	ACCESS:     372302	FORWARD:          0	MERGED:          0	TO_CACHE:     371923

L1D UNIQUE REGIONS ACCESSED: 0
L1D REGIONS CONFLICTS: 0
L1D Cross Page Prefetch Requests: 6997
L1D Same Page Prefetch Requests: 745481
L1D ROI Sum of L1D PQ occupancy: 4729282
L1D PREFETCHES PUSHED FROM L2C: 0
L1I TOTAL     ACCESS:    7099736  HIT:    4335897  MISS:    2763839  HIT %:    61.0712  MISS %:    38.9288   MPKI: 55.2768
L1I LOAD INSTRUCTION	ACCESS:    6434141  HIT:    3670302  MISS:    2763839  HIT %:    57.0442  MISS %:    42.9558  MPKI: 55.2768
L1I PREFETCH INSTRUCTION	ACCESS:     665595  HIT:     665595  MISS:          0  HIT %:        100  MISS %:          0  MPKI: 0

L1I PREFETCH  REQUESTED:    1614217  ISSUED:    1614217  USEFUL:          0  USELESS:          0
L1I USEFUL LOAD PREFETCHES:          0 PREFETCH ISSUED TO LOWER LEVEL:          0  ACCURACY: -nan
 TIMELY PREFETCHES:          0 LATE PREFETCHES: 0 DROPPED PREFETCHES: 0
L1I AVERAGE MISS LATENCY: 16.9747 cycles
L1I RQ	ACCESS:    9652095	FORWARD:          0	MERGED:    2944276	TO_CACHE:    6707819
L1I PQ	ACCESS:    1614217	FORWARD:          0	MERGED:     419389	TO_CACHE:    1194828

L1BTB TOTAL     ACCESS:    5669009  HIT:    2041749  MISS:    3627260  HIT %:     36.016  MISS %:     63.984   MPKI: 72.5452
L1BTB BRANCH_DIRECT_JUMP	ACCESS:     546686 HIT:     144126 MISS:     402560 AVERAGE STALL: 59.6833 AVERAGE FETCH STALL: 15.565 AVERAGE FETCH QUEUE STALL: 21.6106 AVERAGE DECODE STALL: 21.5989 AVERAGE EXECUTE STALL: 2.27233e+15
L1BTB BRANCH_INDIRECT	ACCESS:     182830 HIT:      65901 MISS:     116929 AVERAGE STALL: 117.568 AVERAGE FETCH STALL: 11.4332 AVERAGE FETCH QUEUE STALL: 19.9331 AVERAGE DECODE STALL: 14.0875 AVERAGE EXECUTE STALL: 71.152
L1BTB BRANCH_CONDITIONAL	ACCESS:    2708704 HIT:    1417330 MISS:    1291374 AVERAGE STALL: 71.0433 AVERAGE FETCH STALL: 23.282 AVERAGE FETCH QUEUE STALL: 25.1393 AVERAGE DECODE STALL: 21.925 AVERAGE EXECUTE STALL: 3.59516e+15
L1BTB BRANCH_DIRECT_CALL	ACCESS:     944188 HIT:     104115 MISS:     840073 AVERAGE STALL: 77.1333 AVERAGE FETCH STALL: 23.9585 AVERAGE FETCH QUEUE STALL: 30.7759 AVERAGE DECODE STALL: 21.6774 AVERAGE EXECUTE STALL: 9.56781e+15
L1BTB BRANCH_INDIRECT_CALL	ACCESS:     171217 HIT:      20768 MISS:     150449 AVERAGE STALL: 148.873 AVERAGE FETCH STALL: 12.5271 AVERAGE FETCH QUEUE STALL: 21.9421 AVERAGE DECODE STALL: 12.9066 AVERAGE EXECUTE STALL: 101.002
L1BTB BRANCH_RETURN	ACCESS:    1115384 HIT:     289509 MISS:     825875 AVERAGE STALL: 53.5889 AVERAGE FETCH STALL: 16.9488 AVERAGE FETCH QUEUE STALL: 7.41497 AVERAGE DECODE STALL: 6.74204 AVERAGE EXECUTE STALL: 4.13104e+14
L1BTB BRANCH_OTHER ACCESS:          0 HIT:          0 MISS:          0 AVERAGE STALL: -nan AVERAGE FETCH STALL: -nan AVERAGE FETCH QUEUE STALL: -nan AVERAGE DECODE STALL: -nan AVERAGE EXECUTE STALL: -nan
L1BTB TOTAL ROB OCCUPANCY AT BTB MISS: 2.93704

L2BTB TOTAL     ACCESS:    3601901  HIT:    3534652  MISS:      67249  HIT %:     98.133  MISS %:    1.86704   MPKI: 1.34498
L2BTB BRANCH_DIRECT_JUMP	ACCESS:     398407 HIT:     394439 MISS:       3968 AVERAGE STALL: 59.6833 AVERAGE FETCH STALL: 15.565 AVERAGE FETCH QUEUE STALL: 21.6106 AVERAGE DECODE STALL: 21.5989 AVERAGE EXECUTE STALL: 2.27233e+15
L2BTB BRANCH_INDIRECT	ACCESS:     106673 HIT:     103989 MISS:       2684 AVERAGE STALL: 117.568 AVERAGE FETCH STALL: 11.4332 AVERAGE FETCH QUEUE STALL: 19.9331 AVERAGE DECODE STALL: 14.0875 AVERAGE EXECUTE STALL: 71.152
L2BTB BRANCH_CONDITIONAL	ACCESS:    1291374 HIT:    1286188 MISS:       5186 AVERAGE STALL: 71.0433 AVERAGE FETCH STALL: 23.282 AVERAGE FETCH QUEUE STALL: 25.1393 AVERAGE DECODE STALL: 21.925 AVERAGE EXECUTE STALL: 3.59516e+15
L2BTB BRANCH_DIRECT_CALL	ACCESS:     840073 HIT:     838126 MISS:       1947 AVERAGE STALL: 77.1333 AVERAGE FETCH STALL: 23.9585 AVERAGE FETCH QUEUE STALL: 30.7759 AVERAGE DECODE STALL: 21.6774 AVERAGE EXECUTE STALL: 9.56781e+15
L2BTB BRANCH_INDIRECT_CALL	ACCESS:     140902 HIT:     130703 MISS:      10199 AVERAGE STALL: 148.873 AVERAGE FETCH STALL: 12.5271 AVERAGE FETCH QUEUE STALL: 21.9421 AVERAGE DECODE STALL: 12.9066 AVERAGE EXECUTE STALL: 101.002
L2BTB BRANCH_RETURN	ACCESS:     824472 HIT:     781207 MISS:      43265 AVERAGE STALL: 53.5889 AVERAGE FETCH STALL: 16.9488 AVERAGE FETCH QUEUE STALL: 7.41497 AVERAGE DECODE STALL: 6.74204 AVERAGE EXECUTE STALL: 4.13104e+14
L2BTB BRANCH_OTHER ACCESS:          0 HIT:          0 MISS:          0 AVERAGE STALL: -nan AVERAGE FETCH STALL: -nan AVERAGE FETCH QUEUE STALL: -nan AVERAGE DECODE STALL: -nan AVERAGE EXECUTE STALL: -nan
L2BTB TOTAL ROB OCCUPANCY AT BTB MISS: 158.417

L2C TOTAL     ACCESS:    4489925  HIT:    4059471  MISS:     430454  HIT %:    90.4129  MISS %:    9.58711   MPKI: 8.60908
L2C LOAD INSTRUCTION	ACCESS:    2763839  HIT:    2534311  MISS:     229528  HIT %:    91.6953  MISS %:    8.30468  MPKI: 4.59056
L2C LOAD TRANSLATION INSTRUCTION	ACCESS:        279  HIT:         69  MISS:        210  HIT %:    24.7312  MISS %:    75.2688  MPKI: 0.0042
L2C LOAD DATA	ACCESS:     728853  HIT:     660841  MISS:      68012  HIT %:    90.6686  MISS %:    9.33137  MPKI: 1.36024
L2C RFO DATA	ACCESS:     286857  HIT:     238954  MISS:      47903  HIT %:    83.3007  MISS %:    16.6993  MPKI: 0.95806
L2C PREFETCH DATA	ACCESS:     185115  HIT:     115610  MISS:      69505  HIT %:    62.4531  MISS %:    37.5469  MPKI: 1.3901
L2C WRITEBACK DATA	ACCESS:     523074  HIT:     509070  MISS:      14004  HIT %:    97.3227  MISS %:    2.67725  MPKI: 0.28008
L2C LOAD TRANSLATION DATA	ACCESS:       1851  HIT:        574  MISS:       1277  HIT %:    31.0103  MISS %:    68.9897  MPKI: 0.02554
L2C TRANSLATION FROM L1D PREFETCHER DATA	ACCESS:         57  HIT:         42  MISS:         15  HIT %:    73.6842  MISS %:    26.3158  MPKI: 0.0003

L2C PREFETCH  REQUESTED:      87722  ISSUED:      87722  USEFUL:       7960  USELESS:      62295
L2C USEFUL LOAD PREFETCHES:       7960 PREFETCH ISSUED TO LOWER LEVEL:      70172  ACCURACY: 11.3436
 TIMELY PREFETCHES:       7960 LATE PREFETCHES: 667 DROPPED PREFETCHES: 0
L2C AVERAGE MISS LATENCY: 40.1556 cycles
L2C RQ	ACCESS:    3781791	FORWARD:          0	MERGED:          0	TO_CACHE:    3781736
L2C WQ	ACCESS:     523074	FORWARD:         55	MERGED:          0	TO_CACHE:     523074
L2C PQ	ACCESS:     192669	FORWARD:          0	MERGED:       3306	TO_CACHE:     189363

L2C Dense regions hint from L2: 0
PSCL5 TOTAL     ACCESS:       4138  HIT:       2069  MISS:       2069  HIT %:         50  MISS %:         50   MPKI: 0.04138
PSCL5 LOAD TRANSLATION INSTRUCTION	ACCESS:       4024  HIT:       2012  MISS:       2012  HIT %:         50  MISS %:         50  MPKI: 0.04024
PSCL5 TRANSLATION FROM L1D PREFETCHER INSTRUCTION	ACCESS:        114  HIT:         57  MISS:         57  HIT %:         50  MISS %:         50  MPKI: 0.00114


PSCL4 TOTAL     ACCESS:       3679  HIT:       1834  MISS:       1845  HIT %:    49.8505  MISS %:    50.1495   MPKI: 0.0369
PSCL4 LOAD TRANSLATION INSTRUCTION	ACCESS:       1875  HIT:       1778  MISS:         97  HIT %:    94.8267  MISS %:    5.17333  MPKI: 0.00194
PSCL4 TRANSLATION FROM L1D PREFETCHER INSTRUCTION	ACCESS:         56  HIT:         56  MISS:          0  HIT %:        100  MISS %:          0  MPKI: 0
PSCL4 LOAD TRANSLATION DATA	ACCESS:       1692  HIT:          0  MISS:       1692  HIT %:          0  MISS %:        100  MPKI: 0.03384
PSCL4 TRANSLATION FROM L1D PREFETCHER DATA	ACCESS:         56  HIT:          0  MISS:         56  HIT %:          0  MISS %:        100  MPKI: 0.00112


PSCL3 TOTAL     ACCESS:       3723  HIT:       1856  MISS:       1867  HIT %:    49.8523  MISS %:    50.1477   MPKI: 0.03734
PSCL3 LOAD TRANSLATION INSTRUCTION	ACCESS:       1897  HIT:       1800  MISS:         97  HIT %:    94.8867  MISS %:    5.11334  MPKI: 0.00194
PSCL3 TRANSLATION FROM L1D PREFETCHER INSTRUCTION	ACCESS:         56  HIT:         56  MISS:          0  HIT %:        100  MISS %:          0  MPKI: 0
PSCL3 LOAD TRANSLATION DATA	ACCESS:       1714  HIT:          0  MISS:       1714  HIT %:          0  MISS %:        100  MPKI: 0.03428
PSCL3 TRANSLATION FROM L1D PREFETCHER DATA	ACCESS:         56  HIT:          0  MISS:         56  HIT %:          0  MISS %:        100  MPKI: 0.00112


PSCL2 TOTAL     ACCESS:       4039  HIT:       1970  MISS:       2069  HIT %:    48.7744  MISS %:    51.2256   MPKI: 0.04138
PSCL2 LOAD TRANSLATION INSTRUCTION	ACCESS:       2157  HIT:       1913  MISS:        244  HIT %:     88.688  MISS %:     11.312  MPKI: 0.00488
PSCL2 TRANSLATION FROM L1D PREFETCHER INSTRUCTION	ACCESS:         57  HIT:         57  MISS:          0  HIT %:        100  MISS %:          0  MPKI: 0
PSCL2 LOAD TRANSLATION DATA	ACCESS:       1768  HIT:          0  MISS:       1768  HIT %:          0  MISS %:        100  MPKI: 0.03536
PSCL2 TRANSLATION FROM L1D PREFETCHER DATA	ACCESS:         57  HIT:          0  MISS:         57  HIT %:          0  MISS %:        100  MPKI: 0.00114


LLC TOTAL     ACCESS:     486598  HIT:     456574  MISS:      30024  HIT %:    93.8298  MISS %:    6.17019   MPKI: 0.60048
LLC LOAD INSTRUCTION	ACCESS:     229528  HIT:     228514  MISS:       1014  HIT %:    99.5582  MISS %:   0.441776  MPKI: 0.02028
LLC LOAD TRANSLATION INSTRUCTION	ACCESS:        210  HIT:        184  MISS:         26  HIT %:     87.619  MISS %:     12.381  MPKI: 0.00052
LLC LOAD DATA	ACCESS:      67464  HIT:      64028  MISS:       3436  HIT %:    94.9069  MISS %:    5.09309  MPKI: 0.06872
LLC RFO DATA	ACCESS:      47776  HIT:      32408  MISS:      15368  HIT %:    67.8332  MISS %:    32.1668  MPKI: 0.30736
LLC PREFETCH DATA	ACCESS:      70172  HIT:      60505  MISS:       9667  HIT %:    86.2238  MISS %:    13.7762  MPKI: 0.19334
LLC WRITEBACK DATA	ACCESS:      70156  HIT:      69746  MISS:        410  HIT %:    99.4156  MISS %:   0.584412  MPKI: 0.0082
LLC LOAD TRANSLATION DATA	ACCESS:       1277  HIT:       1175  MISS:        102  HIT %:    92.0125  MISS %:    7.98747  MPKI: 0.00204
LLC TRANSLATION FROM L1D PREFETCHER DATA	ACCESS:         15  HIT:         14  MISS:          1  HIT %:    93.3333  MISS %:    6.66667  MPKI: 2e-05

LLC AVERAGE MISS LATENCY: 157.963 cycles
LLC RQ	ACCESS:     346278	FORWARD:          0	MERGED:          0	TO_CACHE:     346270
LLC WQ	ACCESS:      70156	FORWARD:          8	MERGED:          0	TO_CACHE:      70156
LLC PQ	ACCESS:      70172	FORWARD:          0	MERGED:          0	TO_CACHE:      70172

LLC Dense regions hint to LLC: 0

RAW hits: 1951131
Loads Generated: 12639511
Loads sent to L1D: 10688380
Stores Generated: 6949900
Stores sent to L1D: 6949900
Major fault: 0 Minor fault: 2551
Allocated PAGES: 2551

stream: 
stream:times selected: 1182934
stream:pref_filled: 124088
stream:pref_useful: 24459
stream:pref_late: 6640
stream:misses: 8129
stream:misses_by_poll: 0

CS: 
CS:times selected: 177510
CS:pref_filled: 59884
CS:pref_useful: 36593
CS:pref_late: 7058
CS:misses: 16872
CS:misses_by_poll: 7

CPLX: 
CPLX:times selected: 1004201
CPLX:pref_filled: 20197
CPLX:pref_useful: 4789
CPLX:pref_late: 3117
CPLX:misses: 93769
CPLX:misses_by_poll: 1

NL_L1: 
NL:times selected: 21054
NL:pref_filled: 858
NL:pref_useful: 400
NL:pref_late: 294
NL:misses: 1865
NL:misses_by_poll: 0

total selections: 2385699
total_filled: 96823
total_useful: 35204
total_late: 18430
total_polluted: 8
total_misses_after_warmup: 771440
conflicts: 5519821

test: 119083

DRAM Statistics
 CHANNEL 0
 RQ ROW_BUFFER_HIT:      11230  ROW_BUFFER_MISS:      18367
 DBUS_CONGESTED:         10
 WQ ROW_BUFFER_HIT:       1466  ROW_BUFFER_MISS:      12519  FULL:          0

 AVG_CONGESTED_CYCLE: 5

CPU 0 Branch Prediction Accuracy: 99.8224% MPKI: 0.3247 Average ROB Occupancy at Mispredict: 200.528
Branch types
NOT_BRANCH: 40859959 81.7199%
BRANCH_DIRECT_JUMP: 546686 1.09337%
BRANCH_INDIRECT: 182830 0.36566%
BRANCH_CONDITIONAL: 6179284 12.3586%
BRANCH_DIRECT_CALL: 944188 1.88838%
BRANCH_INDIRECT_CALL: 171217 0.342434%
BRANCH_RETURN: 1115384 2.23077%
BRANCH_OTHER: 0 0%

DRAM PAGES: 1048576
Allocated PAGES: 2551
Average_ROB_Occupancy: 255.044
Average_Decode_Occupancy: 40.0276
Average_FTQ_Occupancy: 16.1259
Indirect max targets: 14 Average targets: 1.14915
Branch_type:  BRANCH_DIRECT_JUMP:  Count Percentage: 3.63652 6.64181 3.55445 8.24334 1.87287 6.34168 1.66038 68.0489 
Branch_type:  BRANCH_INDIRECT:  Count Percentage: 6.10941 3.41666 8.1456 9.68486 3.34739 2.81294 3.89059 62.5925 
Branch_type:  BRANCH_CONDITIONAL:  Count Percentage: 25.1231 3.49214 0.870614 4.98018 2.0006 4.0397 2.35348 57.1402 
Branch_type:  BRANCH_DIRECT_CALL:  Count Percentage: 0.90379 1.30861 0.419143 4.0103 2.34684 2.61171 3.39465 85.005 
Branch_type:  BRANCH_INDIRECT_CALL:  Count Percentage: 5.2889 0 7.29899 0 0 1.71739 5.00058 80.6941 
Branch_type:  BRANCH_RETURN:  Count Percentage: 8.32406 1.22665 1.18992 4.45199 3.27473 4.31622 2.89822 74.3182 
Branch_type:  BRANCH_DIRECT_JUMP:  Total Count: 39791 72675 38893 90199 20493 69391 18168 744595 
Branch_type:  BRANCH_INDIRECT:  Total Count: 22314 12479 29751 35373 12226 10274 14210 228613 
Branch_type:  BRANCH_CONDITIONAL:  Total Count: 3103920 431448 107563 615293 247171 499099 290769 7059575 
Branch_type:  BRANCH_DIRECT_CALL:  Total Count: 17095 24752 7928 75854 44390 49400 64209 1607851 
Branch_type:  BRANCH_INDIRECT_CALL:  Total Count: 18142 0 25037 0 0 5891 17153 276797 
Branch_type:  BRANCH_RETURN:  Total Count: 186065 27419 26598 99514 73199 96479 64783 1661211 
Number of unique branch instructions: 9855
Upper 32 bits: 
aaaa
ffff
ffff0000
Unique upper 32 bits: 3
Unique upper 36 bits: 3
Unique upper 40 bits: 5
Unique upper 44 bits: 32
Unique upper 48 bits: 153
Variant_0 : 1383 0.337646
Variant_1 : 2640 0.644531
Variant_2 : 0 0
Variant_3 : 0 0
Offset_3 4064
Offset_4 244
Offset_5 448
Offset_6 500
Offset_7 578
Offset_8 514
Offset_9 464
Offset_10 375
Offset_11 313
Offset_12 269
Offset_13 203
Offset_14 225
Offset_15 189
Offset_16 219
Offset_17 144
Offset_18 126
Offset_19 235
Offset_20 139
Offset_21 235
Offset_22 389
Offset_23 241
Offset_24 331
Offset_25 88
Offset_47 82
decode_dispatch_called: 26587891 74.5662
Dispatch_width: 0 14373985 54.0621 40.3121
Dispatch_width: 1 1031067 3.87796 2.89165
Dispatch_width: 2 847576 3.18783 2.37704
Dispatch_width: 3 487923 1.83513 1.36839
Dispatch_width: 4 6593664 24.7995 18.4921
Dispatch_width: 5 86996 0.327202 0.243982
Dispatch_width: 6 3166680 11.9102 8.88101
Empty_decode_cycles: 9068857 25.4338
ROB_full_cycles: 10530926 29.5342
Starvation_cycles_per_kilo_instr: 219.591
Starvation_cycles_per_kilo_instr_3: 152.785
Starvation_cycles_per_kilo_instr_0: 129.119
Branch_type_1  (3,1)  (4,7)  (5,36)  (6,69)  (7,114)  (8,127)  (9,123)  (10,98)  (11,70)  (12,44)  (13,5)  (14,2)  (15,3)  (16,4)  (18,1)  (19,4)  (20,2)  (21,1)  (22,3)  (23,2)  (24,10)  (25,12) 
Branch_type_2  (3,1)  (5,1)  (8,3)  (9,3)  (12,1)  (13,1)  (14,1)  (16,3)  (17,2)  (20,2)  (21,2)  (23,5)  (24,1)  (47,38) 
Branch_type_3  (3,4062)  (4,237)  (5,407)  (6,415)  (7,433)  (8,323)  (9,255)  (10,150)  (11,128)  (12,51)  (13,4) 
Branch_type_4  (6,4)  (7,8)  (8,26)  (9,51)  (10,60)  (11,59)  (12,95)  (13,88)  (14,99)  (15,89)  (16,98)  (17,64)  (18,57)  (19,114)  (20,72)  (21,124)  (22,207)  (23,136)  (24,193)  (25,72) 
Branch_type_5  (8,2)  (9,1)  (10,3)  (11,5)  (12,3)  (13,14)  (14,16)  (15,11)  (16,20)  (17,11)  (18,16)  (19,12)  (20,10)  (21,13)  (22,42)  (23,26)  (24,36) 
Branch_type_6  (5,4)  (6,12)  (7,23)  (8,33)  (9,31)  (10,64)  (11,51)  (12,75)  (13,91)  (14,107)  (15,86)  (16,94)  (17,67)  (18,52)  (19,105)  (20,53)  (21,95)  (22,137)  (23,72)  (24,91)  (25,4)  (47,44) 
Unique trigger count: 
Variant_0_evicts_0 : 0
Variant_0_evicts_1 : 0
Variant_0_evicts_2 : 0
Variant_0_evicts_3 : 0
Variant_1_evicts_0 : 0
Variant_1_evicts_1 : 0
Variant_1_evicts_2 : 0
Variant_1_evicts_3 : 0
Variant_2_evicts_0 : 0
Variant_2_evicts_1 : 0
Variant_2_evicts_2 : 0
Variant_2_evicts_3 : 0
Variant_3_evicts_0 : 0
Variant_3_evicts_1 : 0
Variant_3_evicts_2 : 0
Variant_3_evicts_3 : 0
BTB PER SET UNIQUE ADDR: 8 10 8 9 8 10 7 13 8 12 12 13 11 8 10 7 8 10 9 15 7 9 13 15 12 10 14 12 10 11 10 9 12 10 8 8 8 13 7 12 11 9 10 12 10 10 11 10 8 9 8 12 8 9 7 6 9 9 9 10 8 11 10 12 13 10 10 6 12 6 10 12 12 8 12 5 9 10 8 13 10 9 9 10 10 13 11 9 9 18 10 8 10 10 7 13 11 9 8 10 13 11 9 9 8 13 9 10 6 9 7 13 12 12 12 6 8 13 9 10 12 7 10 9 10 8 5 9 18 8 8 13 10 11 8 9 10 13 9 12 8 12 9 11 10 11 12 11 10 15 13 11 6 7 9 9 10 11 10 8 14 7 10 8 10 10 11 7 12 11 9 10 11 12 9 8 14 9 10 11 9 7 9 13 9 11 5 10 9 10 10 9 10 12 8 9 8 8 8 11 12 12 8 12 10 10 11 7 10 9 4 12 10 15 7 7 8 10 7 13 5 15 6 11 11 9 12 13 7 13 9 6 9 8 6 8 13 10 12 7 12 9 12 15 10 7 9 8 11 12 13 12 9 7 10 12 9 9 9 7 10 5 4 10 8 7 8 7 9 9 8 9 14 7 5 6 6 11 9 10 8 9 10 5 8 8 9 13 12 12 11 7 10 11 7 10 8 7 6 10 6 8 6 13 9 10 9 7 12 10 7 16 6 17 11 9 11 9 11 11 7 11 8 10 13 15 10 8 7 9 8 13 8 13 7 11 11 12 11 15 6 8 5 10 9 8 9 8 11 12 11 10 11 7 10 10 8 11 10 8 11 16 8 10 7 13 9 9 10 11 9 5 10 11 10 13 8 11 9 11 9 7 8 8 9 6 10 8 8 9 13 9 8 15 10 9 6 9 11 11 8 10 10 8 9 8 11 11 8 10 11 9 5 12 11 8 10 10 16 15 7 12 8 12 16 6 16 9 15 6 16 9 8 12 9 12 11 7 10 12 11 6 10 8 14 7 8 10 8 10 13 12 12 9 6 11 12 12 6 14 11 12 12 15 13 7 8 13 8 15 8 10 11 10 12 14 10 16 7 13 12 7 12 13 8 13 12 12 12 11 7 12 12 10 11 8 10 9 5 12 13 11 10 18 5 6 7 10 9 9 10 9 10 10 9 12 9 11 10 9 7 11 9 9 9 11 10 5 7 11 18 11 11 8 10 10 9 15 9 10 11 9 10 8 10 11 9 9 11 7 10 10 11 9 9 11 8 11 13 9 7 15 10 13 11 12 10 10 8 14 11 14 11 12 12 10 10 16 9 6 11 9 9 8 10 13 11 9 12 9 5 7 11 8 11 11 9 11 12 8 10 7 7 7 8 9 11 9 11 12 10 14 4 10 6 13 10 7 7 10 13 7 7 7 10 10 8 11 7 10 10 12 9 10 7 8 13 10 8 15 9 9 12 11 9 7 8 8 13 7 9 12 8 11 8 8 14 10 9 10 9 10 13 8 9 8 11 11 9 8 10 7 9 14 15 8 8 6 9 11 9 11 10 12 10 10 4 12 12 9 8 10 6 6 10 9 11 12 8 9 8 11 6 15 6 13 10 9 9 7 9 11 7 8 7 9 12 11 9 11 10 12 12 12 10 11 10 6 11 13 9 8 8 7 9 12 10 11 11 9 10 9 7 9 12 14 8 8 12 9 10 9 8 13 10 10 11 14 7 10 10 5 9 9 8 12 6 8 10 10 10 12 13 7 12 11 7 8 13 9 5 11 13 9 11 9 9 11 7 8 10 7 10 9 7 11 5 8 11 11 12 8 14 15 10 8 8 9 10 10 12 9 10 8 10 14 11 15 6 13 7 13 7 11 11 10 8 7 7 11 12 9 10 6 8 12 11 10 13 6 10 12 10 11 9 13 9 13 9 11 6 7 9 9 10 12 12 10 12 11 8 6 9 8 10 10 8 5 9 12 9 13 10 10 12 8 10 6 8 12 11 6 9 12 12 10 13 8 12 9 13 8 11 8 9 13 16 11 9 11 9 8 11 10 6 10 6 13 12 12 10 11 6 14 13 9 13 10 9 13 9 9 8 8 6 12 8 10 13 8 13 12 11 10 12 12 10 10 7 12 7 8 11 10 12 12 11 11 9 10 11 6 8 10 7 12 8 7 12 12 7 11 9 11 8 12 7 9 8 12 11 10 11 11 7 7 12 10 13 13 11 16 11 9 9 13 10 11 11 9 9 12 9 9 10 7 4 12 11 8 15 12 8 10 10 12 6 8 14 10 7 13 10 7 10 7 8 9 7 8 5 11 10 8 
BTB PER SET COUNT: 976 12 1482 10 1247 12 7 442 10 14 16 319 135 11 10 7 2004 2042 14 19 11 431 656 20 23 11 16 12 12 44 13 1032 14 12 9 838 8 17 7 552 14 16 12 2123 1482 29 11 11 10 10 8 99 11 11 7 364 22 11 11 13 8 11 499 16 18 10 10 2948 18 6 15 416 14 8 16 5 19 10 11 20 14 14 449 10 15 19 13 19 11 25 11 810 11 693 7 16 151 1002 8 11 18 15 9 9 2161 14 11 12 966 1215 7 45 1109 27 20 6 8 26 599 107 17 47 16 10 10 150 5 15 27 970 8 15 12 15 16 12 997 13 15 17 9 17 10 13 16 202 245 13 10 40 14 12 6 7 9 9 1000 12 15 9 16 7 17 8 63 18 13 9 14 1612 13 10 14 24 11 12 18 11 15 436 25 285 15 19 14 15 5 13 11 1290 11 10 11 16 8 65 10 8 8 168 15 24 13 19 14 10 13 9 12 1628 4 20 13 22 8 998 10 13 2000 16 7 20 8 15 13 11 13 92 11 19 9 7 9 9 6 9 21 493 23 7 17 11 495 19 15 8 11 10 13 14 25 14 11 7 14 14 69 382 10 8 1002 5 4 494 9 7 8 7 1920 12 10 12 613 9 5 6 6 12 10 10 13 10 10 5 9 8 9 17 12 16 17 10 10 12 7 20 8 8 6 523 6 8 6 19 10 168 12 488 16 615 7 23 7 22 509 85 13 9 17 21 15 3146 13 12 14 531 525 9 8 12 9 15 8 21 8 11 12 445 12 16 8 188 5 20 9 10 14 10 15 205 14 10 13 7 13 10 9 13 233 8 12 19 12 18 7 1397 11 10 11 12 14 363 12 453 10 320 9 15 13 1486 10 7 13 8 11 6 11 9 11 1143 529 9 8 20 12 10 6 9 12 15 8 12 624 9 10 9 16 671 8 18 19 11 6 16 13 8 10 12 23 21 8 17 9 14 20 6 1136 10 18 6 29 11 8 13 14 20 12 586 10 16 13 8 13 9 19 7 466 10 11 11 16 15 14 9 7 18 15 13 6 21 15 19 30 23 16 8 14820 15 9 23 8 12 12 13 18 18 17 24 7 15 19 8 14 18 13 20 493 13 222 12 117 14 13 10 13 10 1645 10 5 17 15 19 12 64 5 8 7 11 10 12 11 12 452 394 10 14 9 17 12 12 7 11 10 522 12 16 13 6 11 139 21 16 13 9 12 11 879 407 12 11 13 9 33 9 12 16 10 11 14 1522 12 10 15 19 11 14 10 12 20 9 7 23 13 16 17 17 122 14 8 33 19 22 11 18 1483 15 13 185 10 6 14 12 12 1746 11 17 17 11 18 16 5 740 13 10 14 20 1708 374 76 8 12 7 8 7 15 11 14 2442 12 15 11 15 4 18 6 19 448 7 9 11 15 9 9 970 10 14 8 15 8 12 17 19 976 10 7 12 15 10 8 28 10 11 12 16 9 9 9 11 17 7 12 17 9 12 8 490 20 10 861 11 13 14 16 8 20629 8 15 1005 1481 10 13 8 17 19 672 8 9 6 11 18 14 14 986 47 11 15 4 15 356 10 8 15 6 7 427 11 1002 243 9 11 16 21 7 20 8 162 10 11 11 11 207 16 971 9 9 122 13 16 22 14 11 1328 16 24 13 15 13 6 365 1068 347 9 157 7 14 1934 13 14 12 10 40 10 7 16 17 20 859 10 21 10 1482 11 613 1489 1484 14 11 539 7 13 13 6 13 447 2897 14 6 9 14 13 10 17 19 7 14 15 8 857 21 11 1451 26 380 9 11 11 10 16 7 8 61 8 12 11 1081 17 178 13 12 16 15 10 321 19 11 10 10 19 12 58 20 7792 21 8 14 695 15 2582 9 2124 7 949 8 17 1270 10 9 7 8 11 13 11 15 6 30 1911 15 13 23 6 18 738 12 12 10 20 492 24 11 14 8 997 10 9 1004 19 13 15 20 11 10 6 9 10 13 12 11 6 13 18 167 23 16 11 16 8 10 8 9 18 13 6 9 16 14 11 15 14 15 13 23 9 17 8 10 24 23 14 14 12 11 10 15 14 6 12 6 17 13 247 66 69 6 24 18 14 29 1112 11 19 12 128 490 1472 6 616 9 11 15 22 13 15 952 14 19 17 10 15 10 26 7 1361 13 10 12 13 18 13 11 14 391 46 9 119 7 17 9 10 13 12 7 11 535 13 9 16 7 11 12 14 67 2353 19 12 1480 7 20 10 16 562 2050 677 1734 410 15 294 15 12 13 10 10 14 268 11 12 12 6 1492 15 1947 18 245 8 14 11 120 6 8 19 13 7 111 16 8 14 7 11 11 8 13 6 13 10 10 
To predecode: 0
Predecoding something: 0
Predecode request dropped: 0
sizeofblock_0 0
sizeofblock_1 45979
sizeofblock_2 93547
sizeofblock_3 0
sizeofblock_4 0
sizeofblock_5 0
sizeofblock_6 0
sizeofblock_7 0
sizeofblock_8 0
Variant_0 Correct: 1616138 Incorrect: 0 Accuracy: 1
Variant_1 Correct: 5743324 Incorrect: 0 Accuracy: 1
Variant_2 Correct: 0 Incorrect: 0 Accuracy: -nan
Variant_3 Correct: 0 Incorrect: 0 Accuracy: -nan
