
*** ChampSim Multicore Out-of-Order Simulator ***

Warmup Instructions: 50000000
Simulation Instructions: 50000000
Number of CPUs: 1
LLC sets: 2048
LLC ways: 16
Off-chip DRAM Size: 4096 MB Channels: 1 Width: 64-bit Data Rate: 6400 MT/s
CPU 0 runs ./micro_traces/srv633.trace.gz
.gz
ITLB has LRU replacement policy
DTLB has LRU replacement policy
STLB has LRU replacement policy
FDIP Prefetcher at L1I
L1I has LRU replacement policy
L1D has LRU replacement policy
Initialize SRRIP state for L2C
Initialize DRRIP state for LLC
Heartbeat_Variant_0 : 1296 0.316406 per_variant_size: 0 1296 0 0 0 0 0 0 0 
Heartbeat_Variant_1 : 2483 0.606201 per_variant_size: 0 587 1896 0 0 0 0 0 0 
Heartbeat_Variant_2 : 0 0 per_variant_size: 0 0 0 0 0 0 0 0 0 
Heartbeat_Variant_3 : 0 0 per_variant_size: 0 0 0 0 0 0 0 0 0 
Heartbeat_Variant_0_evicts 0 : 5717 1 : 324 2 : 0 3 : 0 
Heartbeat_Variant_1_evicts 0 : 273 1 : 0 2 : 0 3 : 0 
Heartbeat_Variant_2_evicts 0 : 0 1 : 0 2 : 0 3 : 0 
Heartbeat_Variant_3_evicts 0 : 0 1 : 0 2 : 0 3 : 0 
Heartbeat CPU 0 instructions: 10000003 cycles: 2797094 heartbeat IPC: 3.57514 cumulative IPC: 3.57514 (Simulation time: 0 hr 1 min 43 sec) 
Heartbeat_Variant_0 : 1376 0.335938 per_variant_size: 0 1376 0 0 0 0 0 0 0 
Heartbeat_Variant_1 : 2666 0.650879 per_variant_size: 0 455 2211 0 0 0 0 0 0 
Heartbeat_Variant_2 : 0 0 per_variant_size: 0 0 0 0 0 0 0 0 0 
Heartbeat_Variant_3 : 0 0 per_variant_size: 0 0 0 0 0 0 0 0 0 
Heartbeat_Variant_0_evicts 0 : 6127 1 : 1083 2 : 0 3 : 0 
Heartbeat_Variant_1_evicts 0 : 1062 1 : 0 2 : 0 3 : 0 
Heartbeat_Variant_2_evicts 0 : 0 1 : 0 2 : 0 3 : 0 
Heartbeat_Variant_3_evicts 0 : 0 1 : 0 2 : 0 3 : 0 
Heartbeat CPU 0 instructions: 20000000 cycles: 5594577 heartbeat IPC: 3.57464 cumulative IPC: 3.57489 (Simulation time: 0 hr 3 min 21 sec) 
Heartbeat_Variant_0 : 1376 0.335938 per_variant_size: 0 1376 0 0 0 0 0 0 0 
Heartbeat_Variant_1 : 2669 0.651611 per_variant_size: 0 439 2230 0 0 0 0 0 0 
Heartbeat_Variant_2 : 0 0 per_variant_size: 0 0 0 0 0 0 0 0 0 
Heartbeat_Variant_3 : 0 0 per_variant_size: 0 0 0 0 0 0 0 0 0 
Heartbeat_Variant_0_evicts 0 : 5573 1 : 93 2 : 0 3 : 0 
Heartbeat_Variant_1_evicts 0 : 94 1 : 0 2 : 0 3 : 0 
Heartbeat_Variant_2_evicts 0 : 0 1 : 0 2 : 0 3 : 0 
Heartbeat_Variant_3_evicts 0 : 0 1 : 0 2 : 0 3 : 0 
Heartbeat CPU 0 instructions: 30000001 cycles: 8392406 heartbeat IPC: 3.5742 cumulative IPC: 3.57466 (Simulation time: 0 hr 5 min 0 sec) 
Heartbeat_Variant_0 : 1371 0.334717 per_variant_size: 0 1371 0 0 0 0 0 0 0 
Heartbeat_Variant_1 : 2690 0.656738 per_variant_size: 0 443 2247 0 0 0 0 0 0 
Heartbeat_Variant_2 : 0 0 per_variant_size: 0 0 0 0 0 0 0 0 0 
Heartbeat_Variant_3 : 0 0 per_variant_size: 0 0 0 0 0 0 0 0 0 
Heartbeat_Variant_0_evicts 0 : 5786 1 : 416 2 : 0 3 : 0 
Heartbeat_Variant_1_evicts 0 : 424 1 : 0 2 : 0 3 : 0 
Heartbeat_Variant_2_evicts 0 : 0 1 : 0 2 : 0 3 : 0 
Heartbeat_Variant_3_evicts 0 : 0 1 : 0 2 : 0 3 : 0 
Heartbeat CPU 0 instructions: 40000000 cycles: 11187773 heartbeat IPC: 3.57735 cumulative IPC: 3.57533 (Simulation time: 0 hr 6 min 37 sec) 
Heartbeat_Variant_0 : 1375 0.335693 per_variant_size: 0 1375 0 0 0 0 0 0 0 
Heartbeat_Variant_1 : 2688 0.65625 per_variant_size: 0 440 2248 0 0 0 0 0 0 
Heartbeat_Variant_2 : 0 0 per_variant_size: 0 0 0 0 0 0 0 0 0 
Heartbeat_Variant_3 : 0 0 per_variant_size: 0 0 0 0 0 0 0 0 0 
Heartbeat_Variant_0_evicts 0 : 5782 1 : 209 2 : 0 3 : 0 
Heartbeat_Variant_1_evicts 0 : 205 1 : 0 2 : 0 3 : 0 
Heartbeat_Variant_2_evicts 0 : 0 1 : 0 2 : 0 3 : 0 
Heartbeat_Variant_3_evicts 0 : 0 1 : 0 2 : 0 3 : 0 
Heartbeat CPU 0 instructions: 50000003 cycles: 13983699 heartbeat IPC: 3.57663 cumulative IPC: 3.57559 (Simulation time: 0 hr 8 min 15 sec) 

Warmup complete CPU 0 instructions: 50000003 cycles: 13983699 (Simulation time: 0 hr 8 min 15 sec) 

Cycle: 20000000 FTQ IN: 57913264 FTQ occupancy: 18.6062 DECODE IN: 57913248 DECODE occupancy: 48.0297 ROB IN: 57913248 ROB occupancy: 296.213 ROB OUT: 57913214
Heartbeat_Variant_0 : 1376 0.335938 per_variant_size: 0 1376 0 0 0 0 0 0 0 
Heartbeat_Variant_1 : 2687 0.656006 per_variant_size: 0 447 2240 0 0 0 0 0 0 
Heartbeat_Variant_2 : 0 0 per_variant_size: 0 0 0 0 0 0 0 0 0 
Heartbeat_Variant_3 : 0 0 per_variant_size: 0 0 0 0 0 0 0 0 0 
Heartbeat_Variant_0_evicts 0 : 5589 1 : 105 2 : 0 3 : 0 
Heartbeat_Variant_1_evicts 0 : 104 1 : 0 2 : 0 3 : 0 
Heartbeat_Variant_2_evicts 0 : 0 1 : 0 2 : 0 3 : 0 
Heartbeat_Variant_3_evicts 0 : 0 1 : 0 2 : 0 3 : 0 
Heartbeat CPU 0 instructions: 60000000 cycles: 21670365 heartbeat IPC: 1.30095 cumulative IPC: 1.30095 (Simulation time: 0 hr 9 min 45 sec) 
Heartbeat_Variant_0 : 1369 0.334229 per_variant_size: 0 1369 0 0 0 0 0 0 0 
Heartbeat_Variant_1 : 2695 0.657959 per_variant_size: 0 470 2225 0 0 0 0 0 0 
Heartbeat_Variant_2 : 0 0 per_variant_size: 0 0 0 0 0 0 0 0 0 
Heartbeat_Variant_3 : 0 0 per_variant_size: 0 0 0 0 0 0 0 0 0 
Heartbeat_Variant_0_evicts 0 : 5790 1 : 319 2 : 0 3 : 0 
Heartbeat_Variant_1_evicts 0 : 326 1 : 0 2 : 0 3 : 0 
Heartbeat_Variant_2_evicts 0 : 0 1 : 0 2 : 0 3 : 0 
Heartbeat_Variant_3_evicts 0 : 0 1 : 0 2 : 0 3 : 0 
Heartbeat CPU 0 instructions: 70000001 cycles: 29335158 heartbeat IPC: 1.30467 cumulative IPC: 1.30281 (Simulation time: 0 hr 11 min 16 sec) 
Cycle: 30000000 FTQ IN: 12968540 FTQ occupancy: 8.59565 DECODE IN: 12968531 DECODE occupancy: 20.176 ROB IN: 12968521 ROB occupancy: 170.721 ROB OUT: 12968482
Heartbeat_Variant_0 : 1371 0.334717 per_variant_size: 0 1371 0 0 0 0 0 0 0 
Heartbeat_Variant_1 : 2695 0.657959 per_variant_size: 0 481 2214 0 0 0 0 0 0 
Heartbeat_Variant_2 : 0 0 per_variant_size: 0 0 0 0 0 0 0 0 0 
Heartbeat_Variant_3 : 0 0 per_variant_size: 0 0 0 0 0 0 0 0 0 
Heartbeat_Variant_0_evicts 0 : 5577 1 : 92 2 : 0 3 : 0 
Heartbeat_Variant_1_evicts 0 : 91 1 : 0 2 : 0 3 : 0 
Heartbeat_Variant_2_evicts 0 : 0 1 : 0 2 : 0 3 : 0 
Heartbeat_Variant_3_evicts 0 : 0 1 : 0 2 : 0 3 : 0 
Heartbeat CPU 0 instructions: 80000001 cycles: 36946085 heartbeat IPC: 1.3139 cumulative IPC: 1.30648 (Simulation time: 0 hr 12 min 46 sec) 
Cycle: 40000000 FTQ IN: 12983157 FTQ occupancy: 8.59376 DECODE IN: 12983082 DECODE occupancy: 20.2177 ROB IN: 12983032 ROB occupancy: 171.973 ROB OUT: 12982753
Heartbeat_Variant_0 : 1385 0.338135 per_variant_size: 0 1385 0 0 0 0 0 0 0 
Heartbeat_Variant_1 : 2684 0.655273 per_variant_size: 0 450 2234 0 0 0 0 0 0 
Heartbeat_Variant_2 : 0 0 per_variant_size: 0 0 0 0 0 0 0 0 0 
Heartbeat_Variant_3 : 0 0 per_variant_size: 0 0 0 0 0 0 0 0 0 
Heartbeat_Variant_0_evicts 0 : 5761 1 : 371 2 : 0 3 : 0 
Heartbeat_Variant_1_evicts 0 : 357 1 : 0 2 : 0 3 : 0 
Heartbeat_Variant_2_evicts 0 : 0 1 : 0 2 : 0 3 : 0 
Heartbeat_Variant_3_evicts 0 : 0 1 : 0 2 : 0 3 : 0 
Heartbeat CPU 0 instructions: 90000002 cycles: 44695013 heartbeat IPC: 1.2905 cumulative IPC: 1.30245 (Simulation time: 0 hr 14 min 16 sec) 
Cycle: 50000000 FTQ IN: 12960240 FTQ occupancy: 8.42551 DECODE IN: 12960331 DECODE occupancy: 19.8654 ROB IN: 12960331 ROB occupancy: 169.752 ROB OUT: 12960586
Heartbeat_Variant_0 : 1379 0.33667 per_variant_size: 0 1379 0 0 0 0 0 0 0 
Heartbeat_Variant_1 : 2694 0.657715 per_variant_size: 0 428 2266 0 0 0 0 0 0 
Heartbeat_Variant_2 : 0 0 per_variant_size: 0 0 0 0 0 0 0 0 0 
Heartbeat_Variant_3 : 0 0 per_variant_size: 0 0 0 0 0 0 0 0 0 
Heartbeat_Variant_0_evicts 0 : 5683 1 : 341 2 : 0 3 : 0 
Heartbeat_Variant_1_evicts 0 : 347 1 : 0 2 : 0 3 : 0 
Heartbeat_Variant_2_evicts 0 : 0 1 : 0 2 : 0 3 : 0 
Heartbeat_Variant_3_evicts 0 : 0 1 : 0 2 : 0 3 : 0 
Heartbeat CPU 0 instructions: 100000001 cycles: 52421817 heartbeat IPC: 1.2942 cumulative IPC: 1.30079 (Simulation time: 0 hr 15 min 44 sec) 
Finished CPU 0 instructions: 50000002 cycles: 38438119 cumulative IPC: 1.30079 (Simulation time: 0 hr 15 min 44 sec) 

ChampSim completed all CPUs

Region of Interest Statistics

CPU 0 cumulative IPC: 1.30079 instructions: 50000002 cycles: 38438119
 Fetch stage stalled: 65.1254  Sim cycles: 38438119 fetch stall cycle: 25032960
 Empty decode stage: 63.4607  Sim cycles: 38438119 fetch stall cycle: 24393109
ITLB TOTAL     ACCESS:    5862731  HIT:    5364426  MISS:     498305  HIT %:    91.5005  MISS %:    8.49954   MPKI: 9.9661
ITLB LOAD TRANSLATION INSTRUCTION	ACCESS:    5754830  HIT:    5256525  MISS:     498305  HIT %:    91.3411  MISS %:     8.6589  MPKI: 9.9661
ITLB TRANSLATION FROM L1D PREFETCHER INSTRUCTION	ACCESS:     107901  HIT:     107901  MISS:          0  HIT %:        100  MISS %:          0  MPKI: 0

ITLB AVERAGE MISS LATENCY: 9.06154 cycles
ITLB RQ	ACCESS:    7981737	FORWARD:          0	MERGED:    1708342	TO_CACHE:    6273395

DTLB TOTAL     ACCESS:    9127957  HIT:    8651431  MISS:     476526  HIT %:    94.7795  MISS %:    5.22051   MPKI: 9.53052
DTLB LOAD TRANSLATION DATA	ACCESS:    9127957  HIT:    8651431  MISS:     476526  HIT %:    94.7795  MISS %:    5.22051  MPKI: 9.53052

DTLB AVERAGE MISS LATENCY: 9.32058 cycles
DTLB RQ	ACCESS:   13478895	FORWARD:          0	MERGED:    4313004	TO_CACHE:    9165891

STLB TOTAL     ACCESS:    1218628  HIT:    1216413  MISS:       2215  HIT %:    99.8182  MISS %:   0.181762   MPKI: 0.0443
STLB LOAD TRANSLATION INSTRUCTION	ACCESS:     498305  HIT:     497888  MISS:        417  HIT %:    99.9163  MISS %:  0.0836837  MPKI: 0.00834
STLB LOAD TRANSLATION DATA	ACCESS:     476486  HIT:     474716  MISS:       1770  HIT %:    99.6285  MISS %:   0.371469  MPKI: 0.0354
STLB TRANSLATION FROM L1D PREFETCHER DATA	ACCESS:     243837  HIT:     243809  MISS:         28  HIT %:    99.9885  MISS %:  0.0114831  MPKI: 0.00056

STLB AVERAGE MISS LATENCY: 69.1025 cycles
STLB RQ	ACCESS:    1335269	FORWARD:          0	MERGED:     116587	TO_CACHE:    1218682

STLB Hit, L1D data hit: 0
STLB Hit, L2C data hit: 0
STLB Hit, LLC data hit: 0
STLB Hit, LLC data miss: 0
STLB STLB hints to L2: 0
L1D TOTAL     ACCESS:   13218079  HIT:   12098194  MISS:    1119885  HIT %:    91.5276  MISS %:    8.47237   MPKI: 22.3977
L1D LOAD DATA	ACCESS:    6670085  HIT:    5932348  MISS:     737737  HIT %:    88.9396  MISS %:    11.0604  MPKI: 14.7547
L1D RFO DATA	ACCESS:    6226343  HIT:    5937660  MISS:     288683  HIT %:    95.3635  MISS %:    4.63648  MPKI: 5.77366
L1D PREFETCH DATA	ACCESS:     321651  HIT:     228186  MISS:      93465  HIT %:    70.9421  MISS %:    29.0579  MPKI: 1.8693

L1D PREFETCH  REQUESTED:     721229  ISSUED:     721229  USEFUL:      34359  USELESS:      67380
L1D USEFUL LOAD PREFETCHES:      34359 PREFETCH ISSUED TO LOWER LEVEL:     101771  ACCURACY: 33.7611
 TIMELY PREFETCHES:      34359 LATE PREFETCHES: 8279 DROPPED PREFETCHES: 17
L1D AVERAGE MISS LATENCY: 247206 cycles
L1D RQ	ACCESS:   10772819	FORWARD:          0	MERGED:    3904022	TO_CACHE:    6705554
L1D WQ	ACCESS:    6962760	FORWARD:     163596	MERGED:     189419	TO_CACHE:    6773341
L1D PQ	ACCESS:     360791	FORWARD:          0	MERGED:          0	TO_CACHE:     360438

L1D UNIQUE REGIONS ACCESSED: 0
L1D REGIONS CONFLICTS: 0
L1D Cross Page Prefetch Requests: 5884
L1D Same Page Prefetch Requests: 735216
L1D ROI Sum of L1D PQ occupancy: 4584921
L1D PREFETCHES PUSHED FROM L2C: 0
L1I TOTAL     ACCESS:    7237641  HIT:    4458160  MISS:    2779481  HIT %:    61.5969  MISS %:    38.4031   MPKI: 55.5896
L1I LOAD INSTRUCTION	ACCESS:    6603570  HIT:    3824089  MISS:    2779481  HIT %:    57.9094  MISS %:    42.0906  MPKI: 55.5896
L1I PREFETCH INSTRUCTION	ACCESS:     634071  HIT:     634071  MISS:          0  HIT %:        100  MISS %:          0  MPKI: 0

L1I PREFETCH  REQUESTED:    1525393  ISSUED:    1525393  USEFUL:          0  USELESS:          0
L1I USEFUL LOAD PREFETCHES:          0 PREFETCH ISSUED TO LOWER LEVEL:          0  ACCURACY: -nan
 TIMELY PREFETCHES:          0 LATE PREFETCHES: 0 DROPPED PREFETCHES: 0
L1I AVERAGE MISS LATENCY: 17.3934 cycles
L1I RQ	ACCESS:    9441226	FORWARD:          0	MERGED:    2559902	TO_CACHE:    6881324
L1I PQ	ACCESS:    1525393	FORWARD:          0	MERGED:     424980	TO_CACHE:    1100413

L1BTB TOTAL     ACCESS:    5667942  HIT:    2022283  MISS:    3645659  HIT %:    35.6793  MISS %:    64.3207   MPKI: 72.9132
L1BTB BRANCH_DIRECT_JUMP	ACCESS:     547874 HIT:     143871 MISS:     404003 AVERAGE STALL: 36.7105 AVERAGE FETCH STALL: 17.6863 AVERAGE FETCH QUEUE STALL: 7.48984 AVERAGE DECODE STALL: 10.6426 AVERAGE EXECUTE STALL: 2.03696e+15
L1BTB BRANCH_INDIRECT	ACCESS:     182502 HIT:      65489 MISS:     117013 AVERAGE STALL: 77.2539 AVERAGE FETCH STALL: 11.247 AVERAGE FETCH QUEUE STALL: 6.9247 AVERAGE DECODE STALL: 7.29356 AVERAGE EXECUTE STALL: 50.8258
L1BTB BRANCH_CONDITIONAL	ACCESS:    2694431 HIT:    1397415 MISS:    1297016 AVERAGE STALL: 42.8758 AVERAGE FETCH STALL: 21.8801 AVERAGE FETCH QUEUE STALL: 12.1914 AVERAGE DECODE STALL: 8.12361 AVERAGE EXECUTE STALL: 2.59996e+15
L1BTB BRANCH_DIRECT_CALL	ACCESS:     949386 HIT:     104697 MISS:     844689 AVERAGE STALL: 52.5134 AVERAGE FETCH STALL: 26.9027 AVERAGE FETCH QUEUE STALL: 15.2447 AVERAGE DECODE STALL: 9.69173 AVERAGE EXECUTE STALL: 5.10001e+15
L1BTB BRANCH_INDIRECT_CALL	ACCESS:     172183 HIT:      21016 MISS:     151167 AVERAGE STALL: 102.989 AVERAGE FETCH STALL: 12.6482 AVERAGE FETCH QUEUE STALL: 5.68891 AVERAGE DECODE STALL: 7.50679 AVERAGE EXECUTE STALL: 76.6539
L1BTB BRANCH_RETURN	ACCESS:    1121566 HIT:     289795 MISS:     831771 AVERAGE STALL: 39.3759 AVERAGE FETCH STALL: 15.8348 AVERAGE FETCH QUEUE STALL: 3.81056 AVERAGE DECODE STALL: 5.04303 AVERAGE EXECUTE STALL: 4.29573e+14
L1BTB BRANCH_OTHER ACCESS:          0 HIT:          0 MISS:          0 AVERAGE STALL: -nan AVERAGE FETCH STALL: -nan AVERAGE FETCH QUEUE STALL: -nan AVERAGE DECODE STALL: -nan AVERAGE EXECUTE STALL: -nan
L1BTB TOTAL ROB OCCUPANCY AT BTB MISS: 1.98293

L2BTB TOTAL     ACCESS:    3620342  HIT:    3550054  MISS:      70288  HIT %:    98.0585  MISS %:    1.94147   MPKI: 1.40576
L2BTB BRANCH_DIRECT_JUMP	ACCESS:     399924 HIT:     394942 MISS:       4982 AVERAGE STALL: 36.7105 AVERAGE FETCH STALL: 17.6863 AVERAGE FETCH QUEUE STALL: 7.48984 AVERAGE DECODE STALL: 10.6426 AVERAGE EXECUTE STALL: 2.03696e+15
L2BTB BRANCH_INDIRECT	ACCESS:     106661 HIT:     103903 MISS:       2758 AVERAGE STALL: 77.2539 AVERAGE FETCH STALL: 11.247 AVERAGE FETCH QUEUE STALL: 6.9247 AVERAGE DECODE STALL: 7.29356 AVERAGE EXECUTE STALL: 50.8258
L2BTB BRANCH_CONDITIONAL	ACCESS:    1297016 HIT:    1289862 MISS:       7154 AVERAGE STALL: 42.8758 AVERAGE FETCH STALL: 21.8801 AVERAGE FETCH QUEUE STALL: 12.1914 AVERAGE DECODE STALL: 8.12361 AVERAGE EXECUTE STALL: 2.59996e+15
L2BTB BRANCH_DIRECT_CALL	ACCESS:     844689 HIT:     841037 MISS:       3652 AVERAGE STALL: 52.5134 AVERAGE FETCH STALL: 26.9027 AVERAGE FETCH QUEUE STALL: 15.2447 AVERAGE DECODE STALL: 9.69173 AVERAGE EXECUTE STALL: 5.10001e+15
L2BTB BRANCH_INDIRECT_CALL	ACCESS:     141700 HIT:     131504 MISS:      10196 AVERAGE STALL: 102.989 AVERAGE FETCH STALL: 12.6482 AVERAGE FETCH QUEUE STALL: 5.68891 AVERAGE DECODE STALL: 7.50679 AVERAGE EXECUTE STALL: 76.6539
L2BTB BRANCH_RETURN	ACCESS:     830352 HIT:     788806 MISS:      41546 AVERAGE STALL: 39.3759 AVERAGE FETCH STALL: 15.8348 AVERAGE FETCH QUEUE STALL: 3.81056 AVERAGE DECODE STALL: 5.04303 AVERAGE EXECUTE STALL: 4.29573e+14
L2BTB BRANCH_OTHER ACCESS:          0 HIT:          0 MISS:          0 AVERAGE STALL: -nan AVERAGE FETCH STALL: -nan AVERAGE FETCH QUEUE STALL: -nan AVERAGE DECODE STALL: -nan AVERAGE EXECUTE STALL: -nan
L2BTB TOTAL ROB OCCUPANCY AT BTB MISS: 102.849

L2C TOTAL     ACCESS:    4517000  HIT:    3992803  MISS:     524197  HIT %:     88.395  MISS %:     11.605   MPKI: 10.4839
L2C LOAD INSTRUCTION	ACCESS:    2779481  HIT:    2496199  MISS:     283282  HIT %:    89.8081  MISS %:    10.1919  MPKI: 5.66564
L2C LOAD TRANSLATION INSTRUCTION	ACCESS:        467  HIT:        150  MISS:        317  HIT %:    32.1199  MISS %:    67.8801  MPKI: 0.00634
L2C LOAD DATA	ACCESS:     729417  HIT:     644842  MISS:      84575  HIT %:    88.4051  MISS %:    11.5949  MPKI: 1.6915
L2C RFO DATA	ACCESS:     288630  HIT:     230200  MISS:      58430  HIT %:    79.7561  MISS %:    20.2439  MPKI: 1.1686
L2C PREFETCH DATA	ACCESS:     190652  HIT:     113757  MISS:      76895  HIT %:    59.6674  MISS %:    40.3326  MPKI: 1.5379
L2C WRITEBACK DATA	ACCESS:     526424  HIT:     507113  MISS:      19311  HIT %:    96.3317  MISS %:    3.66834  MPKI: 0.38622
L2C LOAD TRANSLATION DATA	ACCESS:       1870  HIT:        501  MISS:       1369  HIT %:    26.7914  MISS %:    73.2086  MPKI: 0.02738
L2C TRANSLATION FROM L1D PREFETCHER DATA	ACCESS:         59  HIT:         41  MISS:         18  HIT %:    69.4915  MISS %:    30.5085  MPKI: 0.00036

L2C PREFETCH  REQUESTED:      97395  ISSUED:      97395  USEFUL:       8314  USELESS:      68971
L2C USEFUL LOAD PREFETCHES:       8314 PREFETCH ISSUED TO LOWER LEVEL:      77241  ACCURACY: 10.7637
 TIMELY PREFETCHES:       8314 LATE PREFETCHES: 346 DROPPED PREFETCHES: 0
L2C AVERAGE MISS LATENCY: 37.6363 cycles
L2C RQ	ACCESS:    3799992	FORWARD:          0	MERGED:          0	TO_CACHE:    3799926
L2C WQ	ACCESS:     526424	FORWARD:         66	MERGED:          0	TO_CACHE:     526424
L2C PQ	ACCESS:     199166	FORWARD:          0	MERGED:       4024	TO_CACHE:     195142

L2C Dense regions hint from L2: 0
PSCL5 TOTAL     ACCESS:       4468  HIT:       2234  MISS:       2234  HIT %:         50  MISS %:         50   MPKI: 0.04468
PSCL5 LOAD TRANSLATION INSTRUCTION	ACCESS:       4350  HIT:       2175  MISS:       2175  HIT %:         50  MISS %:         50  MPKI: 0.0435
PSCL5 TRANSLATION FROM L1D PREFETCHER INSTRUCTION	ACCESS:        118  HIT:         59  MISS:         59  HIT %:         50  MISS %:         50  MPKI: 0.00118


PSCL4 TOTAL     ACCESS:       3006  HIT:       1500  MISS:       1506  HIT %:    49.9002  MISS %:    50.0998   MPKI: 0.03012
PSCL4 LOAD TRANSLATION INSTRUCTION	ACCESS:       2537  HIT:       1465  MISS:       1072  HIT %:    57.7454  MISS %:    42.2546  MPKI: 0.02144
PSCL4 TRANSLATION FROM L1D PREFETCHER INSTRUCTION	ACCESS:         70  HIT:         35  MISS:         35  HIT %:         50  MISS %:         50  MPKI: 0.0007
PSCL4 LOAD TRANSLATION DATA	ACCESS:        399  HIT:          0  MISS:        399  HIT %:          0  MISS %:        100  MPKI: 0.00798


PSCL3 TOTAL     ACCESS:       4291  HIT:       2137  MISS:       2154  HIT %:    49.8019  MISS %:    50.1981   MPKI: 0.04308
PSCL3 LOAD TRANSLATION INSTRUCTION	ACCESS:       3789  HIT:       2093  MISS:       1696  HIT %:    55.2388  MISS %:    44.7612  MPKI: 0.03392
PSCL3 TRANSLATION FROM L1D PREFETCHER INSTRUCTION	ACCESS:         88  HIT:         44  MISS:         44  HIT %:         50  MISS %:         50  MPKI: 0.00088
PSCL3 LOAD TRANSLATION DATA	ACCESS:        414  HIT:          0  MISS:        414  HIT %:          0  MISS %:        100  MPKI: 0.00828


PSCL2 TOTAL     ACCESS:       4327  HIT:       2093  MISS:       2234  HIT %:    48.3707  MISS %:    51.6293   MPKI: 0.04468
PSCL2 LOAD TRANSLATION INSTRUCTION	ACCESS:       2451  HIT:       2034  MISS:        417  HIT %:    82.9865  MISS %:    17.0135  MPKI: 0.00834
PSCL2 TRANSLATION FROM L1D PREFETCHER INSTRUCTION	ACCESS:         59  HIT:         59  MISS:          0  HIT %:        100  MISS %:          0  MPKI: 0
PSCL2 LOAD TRANSLATION DATA	ACCESS:       1758  HIT:          0  MISS:       1758  HIT %:          0  MISS %:        100  MPKI: 0.03516
PSCL2 TRANSLATION FROM L1D PREFETCHER DATA	ACCESS:         59  HIT:          0  MISS:         59  HIT %:          0  MISS %:        100  MPKI: 0.00118


LLC TOTAL     ACCESS:     588480  HIT:     559565  MISS:      28915  HIT %:    95.0865  MISS %:    4.91351   MPKI: 0.5783
LLC LOAD INSTRUCTION	ACCESS:     283282  HIT:     282341  MISS:        941  HIT %:    99.6678  MISS %:   0.332178  MPKI: 0.01882
LLC LOAD TRANSLATION INSTRUCTION	ACCESS:        317  HIT:        293  MISS:         24  HIT %:     92.429  MISS %:    7.57098  MPKI: 0.00048
LLC LOAD DATA	ACCESS:      84228  HIT:      80722  MISS:       3506  HIT %:    95.8375  MISS %:    4.16251  MPKI: 0.07012
LLC RFO DATA	ACCESS:      58419  HIT:      44481  MISS:      13938  HIT %:    76.1413  MISS %:    23.8587  MPKI: 0.27876
LLC PREFETCH DATA	ACCESS:      77241  HIT:      67203  MISS:      10038  HIT %:    87.0043  MISS %:    12.9957  MPKI: 0.20076
LLC WRITEBACK DATA	ACCESS:      83606  HIT:      83215  MISS:        391  HIT %:    99.5323  MISS %:    0.46767  MPKI: 0.00782
LLC LOAD TRANSLATION DATA	ACCESS:       1369  HIT:       1292  MISS:         77  HIT %:    94.3755  MISS %:    5.62454  MPKI: 0.00154
LLC TRANSLATION FROM L1D PREFETCHER DATA	ACCESS:         18  HIT:         18  MISS:          0  HIT %:        100  MISS %:          0  MPKI: 0

LLC AVERAGE MISS LATENCY: 156.887 cycles
LLC RQ	ACCESS:     427645	FORWARD:          0	MERGED:          0	TO_CACHE:     427633
LLC WQ	ACCESS:      83606	FORWARD:         12	MERGED:          0	TO_CACHE:      83606
LLC PQ	ACCESS:      77241	FORWARD:          0	MERGED:          0	TO_CACHE:      77241

LLC Dense regions hint to LLC: 0

RAW hits: 1869067
Loads Generated: 12641886
Loads sent to L1D: 10772819
Stores Generated: 6962748
Stores sent to L1D: 6962760
Major fault: 0 Minor fault: 2609
Allocated PAGES: 2609

stream: 
stream:times selected: 1170396
stream:pref_filled: 119583
stream:pref_useful: 23673
stream:pref_late: 6735
stream:misses: 6583
stream:misses_by_poll: 0

CS: 
CS:times selected: 177800
CS:pref_filled: 59090
CS:pref_useful: 35613
CS:pref_late: 6863
CS:misses: 15903
CS:misses_by_poll: 0

CPLX: 
CPLX:times selected: 991536
CPLX:pref_filled: 19696
CPLX:pref_useful: 4316
CPLX:pref_late: 3106
CPLX:misses: 90573
CPLX:misses_by_poll: 1

NL_L1: 
NL:times selected: 19247
NL:pref_filled: 549
NL:pref_useful: 248
NL:pref_late: 203
NL:misses: 1056
NL:misses_by_poll: 0

total selections: 2358979
total_filled: 93465
total_useful: 34359
total_late: 18359
total_polluted: 1
total_misses_after_warmup: 773207
conflicts: 5587190

test: 112097

DRAM Statistics
 CHANNEL 0
 RQ ROW_BUFFER_HIT:      10642  ROW_BUFFER_MISS:      17881
 DBUS_CONGESTED:         18
 WQ ROW_BUFFER_HIT:       1367  ROW_BUFFER_MISS:      12124  FULL:          0

 AVG_CONGESTED_CYCLE: 4

CPU 0 Branch Prediction Accuracy: 99.821% MPKI: 0.3275 Average ROB Occupancy at Mispredict: 151.779
Branch types
NOT_BRANCH: 40852444 81.7049%
BRANCH_DIRECT_JUMP: 547874 1.09575%
BRANCH_INDIRECT: 182502 0.365004%
BRANCH_CONDITIONAL: 6173865 12.3477%
BRANCH_DIRECT_CALL: 949386 1.89877%
BRANCH_INDIRECT_CALL: 172183 0.344366%
BRANCH_RETURN: 1121566 2.24313%
BRANCH_OTHER: 0 0%

DRAM PAGES: 1048576
Allocated PAGES: 2609
Average_ROB_Occupancy: 172.601
Average_Decode_Occupancy: 20.0657
Average_FTQ_Occupancy: 8.50781
Indirect max targets: 14 Average targets: 1.1746
Branch_type:  BRANCH_DIRECT_JUMP:  Count Percentage: 3.28651 5.30834 4.9489 7.46411 2.76391 6.51678 1.58569 68.1258 
Branch_type:  BRANCH_INDIRECT:  Count Percentage: 19.7443 13.0943 5.30973 3.77515 3.34992 1.20101 3.22705 50.2985 
Branch_type:  BRANCH_CONDITIONAL:  Count Percentage: 22.046 6.18827 2.57121 4.05516 2.50539 7.98923 0.953545 53.6912 
Branch_type:  BRANCH_DIRECT_CALL:  Count Percentage: 0.777438 1.31549 1.00463 4.69667 3.38466 2.73808 0.696991 85.386 
Branch_type:  BRANCH_INDIRECT_CALL:  Count Percentage: 9.57961 0 3.00416 4.30284 0.861033 2.99659 0.997215 78.2586 
Branch_type:  BRANCH_RETURN:  Count Percentage: 5.12397 5.91904 2.59448 3.98772 4.76711 8.08586 1.18359 68.3382 
Branch_type:  BRANCH_DIRECT_JUMP:  Total Count: 35997 58142 54205 81754 30273 71378 17368 746178 
Branch_type:  BRANCH_INDIRECT:  Total Count: 72154 47852 19404 13796 12242 4389 11793 183812 
Branch_type:  BRANCH_CONDITIONAL:  Total Count: 2721477 763915 317405 500592 309280 986236 117711 6627949 
Branch_type:  BRANCH_DIRECT_CALL:  Total Count: 14728 24921 19032 88975 64120 51871 13204 1617577 
Branch_type:  BRANCH_INDIRECT_CALL:  Total Count: 32921 0 10324 14787 2959 10298 3427 268941 
Branch_type:  BRANCH_RETURN:  Total Count: 114723 132524 58089 89283 106733 181038 26500 1530056 
Number of unique branch instructions: 10676
Upper 32 bits: 
aaaa
ffff
ffff0000
Unique upper 32 bits: 3
Unique upper 36 bits: 3
Unique upper 40 bits: 5
Unique upper 44 bits: 32
Unique upper 48 bits: 158
Variant_0 : 1379 0.33667
Variant_1 : 2694 0.657715
Variant_2 : 0 0
Variant_3 : 0 0
Offset_3 4428
Offset_4 258
Offset_5 477
Offset_6 535
Offset_7 634
Offset_8 572
Offset_9 511
Offset_10 415
Offset_11 340
Offset_12 307
Offset_13 240
Offset_14 245
Offset_15 194
Offset_16 227
Offset_17 165
Offset_18 148
Offset_19 261
Offset_20 141
Offset_21 235
Offset_22 411
Offset_23 241
Offset_24 349
Offset_25 117
Offset_47 94
Offset_64 1
decode_dispatch_called: 21611441 56.224
Dispatch_width: 0 11133142 51.515 28.9638
Dispatch_width: 1 648678 3.00155 1.68759
Dispatch_width: 2 698468 3.23194 1.81712
Dispatch_width: 3 459347 2.12548 1.19503
Dispatch_width: 4 2584327 11.9581 6.72334
Dispatch_width: 5 285890 1.32286 0.743767
Dispatch_width: 6 5801589 26.845 15.0933
Empty_decode_cycles: 16826678 43.776
ROB_full_cycles: 3959272 10.3004
Starvation_cycles_per_kilo_instr: 286.773
Starvation_cycles_per_kilo_instr_3: 258.07
Starvation_cycles_per_kilo_instr_0: 240.005
Branch_type_1  (3,1)  (4,9)  (5,39)  (6,72)  (7,124)  (8,148)  (9,133)  (10,109)  (11,76)  (12,47)  (13,11)  (14,2)  (15,3)  (16,4)  (18,1)  (19,5)  (20,2)  (21,1)  (22,3)  (23,2)  (24,10)  (25,12) 
Branch_type_2  (3,1)  (4,1)  (5,1)  (8,4)  (9,4)  (10,1)  (12,1)  (13,1)  (14,1)  (16,3)  (17,2)  (20,2)  (21,2)  (23,5)  (24,1)  (47,43) 
Branch_type_3  (3,4426)  (4,248)  (5,433)  (6,447)  (7,481)  (8,354)  (9,280)  (10,167)  (11,129)  (12,54)  (13,10)  (64,1) 
Branch_type_4  (6,3)  (7,8)  (8,25)  (9,56)  (10,66)  (11,69)  (12,114)  (13,102)  (14,110)  (15,92)  (16,99)  (17,76)  (18,63)  (19,128)  (20,72)  (21,124)  (22,217)  (23,136)  (24,204)  (25,101) 
Branch_type_5  (8,3)  (9,1)  (10,4)  (11,5)  (12,3)  (13,14)  (14,16)  (15,11)  (16,22)  (17,11)  (18,23)  (19,14)  (20,11)  (21,13)  (22,43)  (23,26)  (24,38) 
Branch_type_6  (5,4)  (6,13)  (7,21)  (8,38)  (9,37)  (10,68)  (11,61)  (12,88)  (13,102)  (14,116)  (15,88)  (16,99)  (17,76)  (18,61)  (19,114)  (20,54)  (21,95)  (22,148)  (23,72)  (24,96)  (25,4)  (47,51) 
Unique trigger count: 
Variant_0_evicts_0 : 0
Variant_0_evicts_1 : 0
Variant_0_evicts_2 : 0
Variant_0_evicts_3 : 0
Variant_1_evicts_0 : 0
Variant_1_evicts_1 : 0
Variant_1_evicts_2 : 0
Variant_1_evicts_3 : 0
Variant_2_evicts_0 : 0
Variant_2_evicts_1 : 0
Variant_2_evicts_2 : 0
Variant_2_evicts_3 : 0
Variant_3_evicts_0 : 0
Variant_3_evicts_1 : 0
Variant_3_evicts_2 : 0
Variant_3_evicts_3 : 0
BTB PER SET UNIQUE ADDR: 14 13 11 17 17 12 8 12 11 12 13 14 19 13 15 10 14 14 11 13 8 13 15 16 10 16 11 13 12 15 13 15 14 9 11 10 11 12 10 10 12 15 17 18 13 13 17 13 13 9 15 10 14 11 13 10 11 12 12 11 12 14 15 12 14 16 11 8 17 14 11 13 16 13 10 8 10 19 11 20 19 9 12 18 16 15 11 16 11 18 12 10 8 9 11 14 14 10 16 18 19 16 16 10 13 16 10 13 8 10 13 20 16 11 11 6 9 10 11 9 16 11 12 12 14 14 8 17 15 12 8 13 12 15 12 16 10 18 12 18 13 14 14 10 13 15 17 12 7 19 13 13 14 11 13 17 14 12 17 13 11 10 16 14 9 16 17 9 10 13 12 14 16 11 14 13 16 13 14 17 13 12 14 20 17 18 6 12 15 10 13 12 9 12 11 12 8 15 8 15 15 15 9 7 11 13 14 12 13 15 13 13 15 15 14 16 13 15 13 17 7 14 8 14 13 14 11 14 8 17 13 13 12 18 12 13 12 15 13 9 13 16 15 17 12 11 12 11 12 17 20 13 13 9 15 20 10 10 9 9 18 11 5 17 14 10 9 9 10 9 14 15 8 6 7 10 14 14 12 15 12 12 10 10 15 14 11 18 16 11 9 13 16 18 11 16 12 14 17 15 8 10 13 25 17 18 9 14 16 11 13 23 16 14 14 9 18 12 9 16 12 9 10 12 13 21 14 11 13 9 13 20 9 14 12 19 12 11 12 23 11 17 12 14 13 13 12 17 16 11 15 12 8 15 12 13 13 12 11 8 9 14 11 16 14 19 9 15 17 12 9 10 14 12 13 21 13 11 15 12 16 10 10 10 12 14 17 18 12 14 13 13 14 17 10 9 14 13 19 14 13 10 11 15 15 14 16 17 12 10 17 10 9 21 12 13 15 19 16 13 13 13 14 12 17 10 16 11 16 13 18 15 13 14 9 14 20 12 12 17 18 11 11 16 21 10 10 14 20 16 17 23 18 11 18 22 13 16 12 19 14 11 12 11 18 11 9 11 18 18 17 19 14 13 9 20 12 16 12 16 18 17 12 10 11 14 12 15 15 14 14 15 15 9 11 9 16 11 10 18 12 20 11 21 17 10 12 16 16 12 13 17 16 9 14 17 11 18 10 11 14 10 16 14 13 20 19 10 12 14 16 18 15 12 12 15 12 13 16 14 17 11 11 9 14 16 8 10 12 16 12 20 16 8 13 17 14 13 17 20 13 13 13 17 13 15 15 12 17 14 17 16 16 18 11 16 18 19 16 14 11 11 9 14 15 10 12 12 18 13 7 14 12 12 14 10 10 11 13 12 16 14 11 8 8 13 22 14 13 16 15 17 13 14 6 22 10 13 16 16 19 11 11 11 15 17 12 19 12 16 11 20 16 14 11 11 14 15 12 11 17 12 18 19 14 16 13 16 15 13 15 14 10 10 16 12 13 14 10 15 13 7 18 21 12 16 8 9 13 14 19 16 13 13 18 12 14 15 14 13 11 12 10 17 16 10 11 14 11 20 13 16 14 10 11 14 12 14 13 19 11 15 16 18 11 18 15 9 10 11 14 15 11 11 10 10 19 10 7 13 10 13 15 13 13 16 10 13 9 14 17 10 17 13 11 18 11 15 15 15 13 13 16 17 21 20 9 14 11 14 13 13 11 17 13 12 17 14 13 12 13 12 12 14 14 15 12 14 13 17 14 11 15 15 14 7 15 19 16 16 8 15 11 11 12 14 12 16 13 9 12 10 19 13 14 20 11 11 15 18 20 15 19 17 19 9 13 14 13 11 12 17 9 15 12 14 17 14 10 18 15 16 8 17 12 15 12 13 11 16 16 17 13 13 12 15 16 15 11 15 16 14 15 16 12 16 15 23 12 14 11 13 10 11 13 17 17 10 18 15 14 12 9 11 18 11 12 10 19 13 14 14 19 10 11 11 13 10 9 16 18 8 15 14 14 13 15 12 17 13 13 13 16 13 10 17 19 15 12 9 11 14 18 13 9 16 14 17 13 17 11 13 9 14 12 15 19 9 10 17 16 13 12 16 11 12 9 16 11 14 17 17 13 11 10 16 11 9 20 17 6 16 15 13 11 14 14 21 10 15 11 12 13 16 11 12 12 14 12 13 15 13 9 15 13 10 16 10 10 15 12 14 13 13 13 13 18 15 11 19 13 17 13 11 9 12 20 11 13 16 12 14 16 14 14 9 13 14 17 14 19 19 10 10 18 16 12 12 13 15 13 14 12 10 13 16 9 9 8 9 14 23 16 13 
BTB PER SET COUNT: 805 18 1574 31 727 14 15 102 1213 18 25 498 16869 19 16 14 1636 25 133 15 15 670 223 20 23 19 22 27 392 27 282 179 22 15 17 31 13 14 18 1216 14 27 21 966 55 24 20 14 17 11 21 13 27 12 17 388 15 15 205 17 14 18 84 21 20 348 17 10 22 22 1493 124 30 17 11 10 18 32 18 28 833 22 222 34 28 22 16 36 16 30 19 11 494 388 18 17 265 1013 18 4728 36 1297 24 13 2195 20 16 17 1672 14 17 44 267 20 20 7 10 11 1293 11 21 16 29 18 24 21 12 29 22 979 12 16 15 20 240 30 866 31 18 35 20 32 26 14 25 213 227 18 12 124 29 303 863 16 18 33 838 17 21 1274 13 87 278 17 10 380 25 10 16 1281 17 19 25 21 27 19 44 15 147 125 27 22 203 33 30 534 7 19 159 11 21 15 11 17 12 19 13 978 9 24 26 21 987 12 13 19 24 307 14 144 23 17 23 23 19 261 21 18 2968 33 7 29 137 30 14 26 16 18 675 23 26 17 17 31 17 18 18 213 32 10 21 21 252 25 15 24 148 14 567 26 25 18 21 15 28 37 89 15 18 15 215 13 8 210 19 10 10 14 25 13 19 19 44 9 775 15 23 26 18 21 18 27 10 10 20 23 12 27 26 17 12 16 20 792 16 23 266 20 22 92 14 12 20 43 27 39 9 116 161 609 20 36 21 20 847 600 30 17 15 33 25 4434 10 22 15 171 21 15 23 15 23 30 23 21 18 33 21 23 13 46 19 1450 21 58 339 21 17 35 20 15 2167 1445 8 23 19 20 15 25 143 11 11 18 18 38 23 936 9 18 33 25 13 81 17 14 17 36 20 12 262 274 20 11 465 13 15 22 318 28 17 19 19 16 24 251 13 15 18 16 676 16 19 14 1170 28 20 22 20 213 14 14 20 11 11 509 23 17 28 3749 161 17 23 18 23 16 27 13 27 11 25 91 59 25 20 25 179 37 24 17 12 25 441 17 16 28 474 12 765 20 27 25 937 193 22 15 37 119 15 19 17 32 17 19 15 15 34 21 14760 13 24 27 32 26 29 20 12 33 19 29 14 26 23 40 17 16 383 141 317 21 1578 16 622 21 834 10 15 15 1557 14 15 31 17 27 13 178 27 12 14 20 23 17 513 129 152 175 20 29 13 27 13 18 22 16 26 21 13 649 33 1228 15 1880 25 31 32 22 21 21 582 982 19 25 28 15 37 9 29 54 10 14 15 786 14 30 317 187 15 31 30 15 27 25 22 19 19 30 23 21 26 16 25 24 1301 21 20 30 1490 22 26 570 23 22 12 17 12 1788 23 23 15 18 29 29 12 132 14 25 27 15 780 916 259 15 20 25 15 9 8 17 43 2205 14 27 24 29 28 24 6 36 375 14 20 33 32 16 32 224 21 29 17 317 14 198 22 194 193 18 12 11 27 559 14 12 29 20 25 393 28 157 26 26 19 18 26 23 10 13 1224 499 17 16 11 53 25 8 913 35 119 20 8 1008 2350 32 40 23 445 13 52 28 21 23 23 27 14 17 1485 29 24 17 15 24 13 31 17 26 27 14 2491 27 896 83 20 28 12 32 25 26 17 215 24 10 12 19 25 221 182 29 18 13 788 13 10 26 15 1223 21 343 17 25 13 20 9 30 37 13 146 139 17 2020 18 22 19 25 1227 16 65 29 29 25 9 16 14 21 1492 22 1108 1500 1497 17 29 23 24 24 19 19 13 396 363 24 20 260 15 133 82 330 19 24 21 7 22 999 21 30 1447 27 15 13 17 24 12 20 16 13 308 81 25 22 266 35 12 17 19 255 30 20 29 50 108 10 27 20 17 14 14 3548 15 26 17 336 142 1178 17 1699 17 950 17 29 15 41 22 18 17 33 22 28 18 16 40 1958 21 23 12 122 24 364 23 25 307 22 441 38 20 22 328 925 17 14 842 21 99 10 37 20 18 17 1038 16 31 11 16 16 32 45 141 21 37 14 18 15 19 16 23 18 23 9 29 17 118 616 20 13 23 32 21 1296 1656 49 12 23 37 26 15 11 14 25 26 530 15 28 22 24 158 33 15 780 15 24 14 30 305 1082 16 78 24 853 16 25 12 608 15 28 11 25 24 26 304 18 11 2388 11 15 577 24 6 29 23 20 14 29 113 27 12 18 17 18 334 302 13 16 34 27 16 32 508 21 493 22 15 10 27 19 42 181 64 25 15 15 300 20 25 25 119 225 954 32 15 631 10 68 35 951 17 33 20 20 29 412 17 9 18 280 27 18 38 796 11 14 25 39 16 22 29 22 1423 16 13 13 17 26 12 314 9 12 19 30 29 16 
To predecode: 0
Predecoding something: 0
Predecode request dropped: 0
sizeofblock_0 0
sizeofblock_1 50562
sizeofblock_2 95568
sizeofblock_3 0
sizeofblock_4 0
sizeofblock_5 0
sizeofblock_6 0
sizeofblock_7 0
sizeofblock_8 0
Variant_0 Correct: 1615775 Incorrect: 0 Accuracy: 1
Variant_1 Correct: 5745750 Incorrect: 0 Accuracy: 1
Variant_2 Correct: 0 Incorrect: 0 Accuracy: -nan
Variant_3 Correct: 0 Incorrect: 0 Accuracy: -nan
