
*** ChampSim Multicore Out-of-Order Simulator ***

Warmup Instructions: 50000000
Simulation Instructions: 50000000
Number of CPUs: 1
LLC sets: 2048
LLC ways: 16
Off-chip DRAM Size: 4096 MB Channels: 1 Width: 64-bit Data Rate: 6400 MT/s
CPU 0 runs ./micro_traces/srv674.trace.gz
.gz
ITLB has LRU replacement policy
DTLB has LRU replacement policy
STLB has LRU replacement policy
FDIP Prefetcher at L1I
L1I has LRU replacement policy
L1D has LRU replacement policy
Initialize SRRIP state for L2C
Initialize DRRIP state for LLC
Heartbeat_Variant_0 : 1296 0.316406 per_variant_size: 0 1296 0 0 0 0 0 0 0 
Heartbeat_Variant_1 : 2480 0.605469 per_variant_size: 0 565 1915 0 0 0 0 0 0 
Heartbeat_Variant_2 : 0 0 per_variant_size: 0 0 0 0 0 0 0 0 0 
Heartbeat_Variant_3 : 0 0 per_variant_size: 0 0 0 0 0 0 0 0 0 
Heartbeat_Variant_0_evicts 0 : 5764 1 : 328 2 : 0 3 : 0 
Heartbeat_Variant_1_evicts 0 : 288 1 : 0 2 : 0 3 : 0 
Heartbeat_Variant_2_evicts 0 : 0 1 : 0 2 : 0 3 : 0 
Heartbeat_Variant_3_evicts 0 : 0 1 : 0 2 : 0 3 : 0 
Heartbeat CPU 0 instructions: 10000003 cycles: 2797548 heartbeat IPC: 3.57456 cumulative IPC: 3.57456 (Simulation time: 0 hr 1 min 38 sec) 
Heartbeat_Variant_0 : 1347 0.328857 per_variant_size: 0 1347 0 0 0 0 0 0 0 
Heartbeat_Variant_1 : 2580 0.629883 per_variant_size: 0 487 2093 0 0 0 0 0 0 
Heartbeat_Variant_2 : 0 0 per_variant_size: 0 0 0 0 0 0 0 0 0 
Heartbeat_Variant_3 : 0 0 per_variant_size: 0 0 0 0 0 0 0 0 0 
Heartbeat_Variant_0_evicts 0 : 5794 1 : 335 2 : 0 3 : 0 
Heartbeat_Variant_1_evicts 0 : 323 1 : 0 2 : 0 3 : 0 
Heartbeat_Variant_2_evicts 0 : 0 1 : 0 2 : 0 3 : 0 
Heartbeat_Variant_3_evicts 0 : 0 1 : 0 2 : 0 3 : 0 
Heartbeat CPU 0 instructions: 20000000 cycles: 5594721 heartbeat IPC: 3.57504 cumulative IPC: 3.5748 (Simulation time: 0 hr 3 min 8 sec) 
Heartbeat_Variant_0 : 1347 0.328857 per_variant_size: 0 1347 0 0 0 0 0 0 0 
Heartbeat_Variant_1 : 2580 0.629883 per_variant_size: 0 478 2102 0 0 0 0 0 0 
Heartbeat_Variant_2 : 0 0 per_variant_size: 0 0 0 0 0 0 0 0 0 
Heartbeat_Variant_3 : 0 0 per_variant_size: 0 0 0 0 0 0 0 0 0 
Heartbeat_Variant_0_evicts 0 : 5611 1 : 2 2 : 0 3 : 0 
Heartbeat_Variant_1_evicts 0 : 2 1 : 0 2 : 0 3 : 0 
Heartbeat_Variant_2_evicts 0 : 0 1 : 0 2 : 0 3 : 0 
Heartbeat_Variant_3_evicts 0 : 0 1 : 0 2 : 0 3 : 0 
Heartbeat CPU 0 instructions: 30000001 cycles: 8391354 heartbeat IPC: 3.57573 cumulative IPC: 3.57511 (Simulation time: 0 hr 4 min 37 sec) 
Heartbeat_Variant_0 : 1356 0.331055 per_variant_size: 0 1356 0 0 0 0 0 0 0 
Heartbeat_Variant_1 : 2600 0.634766 per_variant_size: 0 483 2117 0 0 0 0 0 0 
Heartbeat_Variant_2 : 0 0 per_variant_size: 0 0 0 0 0 0 0 0 0 
Heartbeat_Variant_3 : 0 0 per_variant_size: 0 0 0 0 0 0 0 0 0 
Heartbeat_Variant_0_evicts 0 : 5686 1 : 169 2 : 0 3 : 0 
Heartbeat_Variant_1_evicts 0 : 166 1 : 0 2 : 0 3 : 0 
Heartbeat_Variant_2_evicts 0 : 0 1 : 0 2 : 0 3 : 0 
Heartbeat_Variant_3_evicts 0 : 0 1 : 0 2 : 0 3 : 0 
Heartbeat CPU 0 instructions: 40000000 cycles: 11187737 heartbeat IPC: 3.57605 cumulative IPC: 3.57534 (Simulation time: 0 hr 6 min 10 sec) 
Heartbeat_Variant_0 : 1361 0.332275 per_variant_size: 0 1361 0 0 0 0 0 0 0 
Heartbeat_Variant_1 : 2600 0.634766 per_variant_size: 0 478 2122 0 0 0 0 0 0 
Heartbeat_Variant_2 : 0 0 per_variant_size: 0 0 0 0 0 0 0 0 0 
Heartbeat_Variant_3 : 0 0 per_variant_size: 0 0 0 0 0 0 0 0 0 
Heartbeat_Variant_0_evicts 0 : 5707 1 : 96 2 : 0 3 : 0 
Heartbeat_Variant_1_evicts 0 : 91 1 : 0 2 : 0 3 : 0 
Heartbeat_Variant_2_evicts 0 : 0 1 : 0 2 : 0 3 : 0 
Heartbeat_Variant_3_evicts 0 : 0 1 : 0 2 : 0 3 : 0 
Heartbeat CPU 0 instructions: 50000000 cycles: 13984865 heartbeat IPC: 3.5751 cumulative IPC: 3.57529 (Simulation time: 0 hr 7 min 43 sec) 

Warmup complete CPU 0 instructions: 50000004 cycles: 13984866 (Simulation time: 0 hr 7 min 43 sec) 

Cycle: 20000000 FTQ IN: 58351368 FTQ occupancy: 20.9462 DECODE IN: 58351256 DECODE occupancy: 53.9913 ROB IN: 58351196 ROB occupancy: 320.521 ROB OUT: 58350844
Heartbeat_Variant_0 : 1371 0.334717 per_variant_size: 0 1371 0 0 0 0 0 0 0 
Heartbeat_Variant_1 : 2603 0.635498 per_variant_size: 0 483 2120 0 0 0 0 0 0 
Heartbeat_Variant_2 : 0 0 per_variant_size: 0 0 0 0 0 0 0 0 0 
Heartbeat_Variant_3 : 0 0 per_variant_size: 0 0 0 0 0 0 0 0 0 
Heartbeat_Variant_0_evicts 0 : 5687 1 : 81 2 : 0 3 : 0 
Heartbeat_Variant_1_evicts 0 : 73 1 : 0 2 : 0 3 : 0 
Heartbeat_Variant_2_evicts 0 : 0 1 : 0 2 : 0 3 : 0 
Heartbeat_Variant_3_evicts 0 : 0 1 : 0 2 : 0 3 : 0 
Heartbeat CPU 0 instructions: 60000002 cycles: 21167057 heartbeat IPC: 1.39233 cumulative IPC: 1.39233 (Simulation time: 0 hr 9 min 33 sec) 
Heartbeat_Variant_0 : 1378 0.336426 per_variant_size: 0 1378 0 0 0 0 0 0 0 
Heartbeat_Variant_1 : 2692 0.657227 per_variant_size: 0 442 2250 0 0 0 0 0 0 
Heartbeat_Variant_2 : 0 0 per_variant_size: 0 0 0 0 0 0 0 0 0 
Heartbeat_Variant_3 : 0 0 per_variant_size: 0 0 0 0 0 0 0 0 0 
Heartbeat_Variant_0_evicts 0 : 6171 1 : 930 2 : 0 3 : 0 
Heartbeat_Variant_1_evicts 0 : 943 1 : 0 2 : 0 3 : 0 
Heartbeat_Variant_2_evicts 0 : 0 1 : 0 2 : 0 3 : 0 
Heartbeat_Variant_3_evicts 0 : 0 1 : 0 2 : 0 3 : 0 
Heartbeat CPU 0 instructions: 70000002 cycles: 28510074 heartbeat IPC: 1.36184 cumulative IPC: 1.37692 (Simulation time: 0 hr 11 min 19 sec) 
Cycle: 30000000 FTQ IN: 13751613 FTQ occupancy: 15.2921 DECODE IN: 13751617 DECODE occupancy: 37.7991 ROB IN: 13751617 ROB occupancy: 245.78 ROB OUT: 13751620
Heartbeat_Variant_0 : 1383 0.337646 per_variant_size: 0 1383 0 0 0 0 0 0 0 
Heartbeat_Variant_1 : 2688 0.65625 per_variant_size: 0 430 2258 0 0 0 0 0 0 
Heartbeat_Variant_2 : 0 0 per_variant_size: 0 0 0 0 0 0 0 0 0 
Heartbeat_Variant_3 : 0 0 per_variant_size: 0 0 0 0 0 0 0 0 0 
Heartbeat_Variant_0_evicts 0 : 5670 1 : 45 2 : 0 3 : 0 
Heartbeat_Variant_1_evicts 0 : 40 1 : 0 2 : 0 3 : 0 
Heartbeat_Variant_2_evicts 0 : 0 1 : 0 2 : 0 3 : 0 
Heartbeat_Variant_3_evicts 0 : 0 1 : 0 2 : 0 3 : 0 
Heartbeat CPU 0 instructions: 80000003 cycles: 35605342 heartbeat IPC: 1.40939 cumulative IPC: 1.38757 (Simulation time: 0 hr 13 min 8 sec) 
Cycle: 40000000 FTQ IN: 13939445 FTQ occupancy: 16.1804 DECODE IN: 13939448 DECODE occupancy: 40.1008 ROB IN: 13939448 ROB occupancy: 256.052 ROB OUT: 13939449
Heartbeat_Variant_0 : 1374 0.335449 per_variant_size: 0 1374 0 0 0 0 0 0 0 
Heartbeat_Variant_1 : 2702 0.659668 per_variant_size: 0 440 2262 0 0 0 0 0 0 
Heartbeat_Variant_2 : 0 0 per_variant_size: 0 0 0 0 0 0 0 0 0 
Heartbeat_Variant_3 : 0 0 per_variant_size: 0 0 0 0 0 0 0 0 0 
Heartbeat_Variant_0_evicts 0 : 5729 1 : 394 2 : 0 3 : 0 
Heartbeat_Variant_1_evicts 0 : 403 1 : 0 2 : 0 3 : 0 
Heartbeat_Variant_2_evicts 0 : 0 1 : 0 2 : 0 3 : 0 
Heartbeat_Variant_3_evicts 0 : 0 1 : 0 2 : 0 3 : 0 
Heartbeat CPU 0 instructions: 90000000 cycles: 42857074 heartbeat IPC: 1.37898 cumulative IPC: 1.38542 (Simulation time: 0 hr 14 min 57 sec) 
Heartbeat_Variant_0 : 1373 0.335205 per_variant_size: 0 1373 0 0 0 0 0 0 0 
Heartbeat_Variant_1 : 2703 0.659912 per_variant_size: 0 444 2259 0 0 0 0 0 0 
Heartbeat_Variant_2 : 0 0 per_variant_size: 0 0 0 0 0 0 0 0 0 
Heartbeat_Variant_3 : 0 0 per_variant_size: 0 0 0 0 0 0 0 0 0 
Heartbeat_Variant_0_evicts 0 : 5729 1 : 93 2 : 0 3 : 0 
Heartbeat_Variant_1_evicts 0 : 94 1 : 0 2 : 0 3 : 0 
Heartbeat_Variant_2_evicts 0 : 0 1 : 0 2 : 0 3 : 0 
Heartbeat_Variant_3_evicts 0 : 0 1 : 0 2 : 0 3 : 0 
Heartbeat CPU 0 instructions: 100000003 cycles: 49924543 heartbeat IPC: 1.41493 cumulative IPC: 1.39122 (Simulation time: 0 hr 16 min 36 sec) 
Finished CPU 0 instructions: 50000003 cycles: 35939678 cumulative IPC: 1.39122 (Simulation time: 0 hr 16 min 36 sec) 

ChampSim completed all CPUs

Region of Interest Statistics

CPU 0 cumulative IPC: 1.39122 instructions: 50000003 cycles: 35939678
 Fetch stage stalled: 38.6813  Sim cycles: 35939678 fetch stall cycle: 13901938
 Empty decode stage: 21.4111  Sim cycles: 35939678 fetch stall cycle: 7695089
ITLB TOTAL     ACCESS:    5833502  HIT:    5344196  MISS:     489306  HIT %:    91.6121  MISS %:    8.38786   MPKI: 9.78612
ITLB LOAD TRANSLATION INSTRUCTION	ACCESS:    5683118  HIT:    5193812  MISS:     489306  HIT %:    91.3902  MISS %:    8.60982  MPKI: 9.78612
ITLB TRANSLATION FROM L1D PREFETCHER INSTRUCTION	ACCESS:     150384  HIT:     150384  MISS:          0  HIT %:        100  MISS %:          0  MPKI: 0

ITLB AVERAGE MISS LATENCY: 9.05712 cycles
ITLB RQ	ACCESS:    7877995	FORWARD:          0	MERGED:    1527179	TO_CACHE:    6350816

DTLB TOTAL     ACCESS:    8960732  HIT:    8489543  MISS:     471189  HIT %:    94.7416  MISS %:    5.25838   MPKI: 9.42378
DTLB LOAD TRANSLATION DATA	ACCESS:    8960732  HIT:    8489543  MISS:     471189  HIT %:    94.7416  MISS %:    5.25838  MPKI: 9.42378

DTLB AVERAGE MISS LATENCY: 9.34534 cycles
DTLB RQ	ACCESS:   13324702	FORWARD:          0	MERGED:    4327268	TO_CACHE:    8997434

STLB TOTAL     ACCESS:    1213147  HIT:    1211105  MISS:       2042  HIT %:    99.8317  MISS %:   0.168323   MPKI: 0.04084
STLB LOAD TRANSLATION INSTRUCTION	ACCESS:     489306  HIT:     489077  MISS:        229  HIT %:    99.9532  MISS %:   0.046801  MPKI: 0.00458
STLB LOAD TRANSLATION DATA	ACCESS:     471188  HIT:     469391  MISS:       1797  HIT %:    99.6186  MISS %:   0.381376  MPKI: 0.03594
STLB TRANSLATION FROM L1D PREFETCHER DATA	ACCESS:     252653  HIT:     252637  MISS:         16  HIT %:    99.9937  MISS %:  0.0063328  MPKI: 0.00032

STLB AVERAGE MISS LATENCY: 79.5426 cycles
STLB RQ	ACCESS:    1335500	FORWARD:          0	MERGED:     122318	TO_CACHE:    1213182

STLB Hit, L1D data hit: 0
STLB Hit, L2C data hit: 0
STLB Hit, LLC data hit: 0
STLB Hit, LLC data miss: 0
STLB STLB hints to L2: 0
L1D TOTAL     ACCESS:   13082302  HIT:   11973935  MISS:    1108367  HIT %:    91.5277  MISS %:    8.47226   MPKI: 22.1673
L1D LOAD DATA	ACCESS:    6548677  HIT:    5820655  MISS:     728022  HIT %:    88.8829  MISS %:    11.1171  MPKI: 14.5604
L1D RFO DATA	ACCESS:    6199149  HIT:    5914347  MISS:     284802  HIT %:    95.4058  MISS %:    4.59421  MPKI: 5.69604
L1D PREFETCH DATA	ACCESS:     334476  HIT:     238933  MISS:      95543  HIT %:     71.435  MISS %:     28.565  MPKI: 1.91086

L1D PREFETCH  REQUESTED:     750378  ISSUED:     750378  USEFUL:      33856  USELESS:      69490
L1D USEFUL LOAD PREFETCHES:      33856 PREFETCH ISSUED TO LOWER LEVEL:     103428  ACCURACY: 32.7339
 TIMELY PREFETCHES:      33856 LATE PREFETCHES: 7829 DROPPED PREFETCHES: 5
L1D AVERAGE MISS LATENCY: 223331 cycles
L1D RQ	ACCESS:   10697385	FORWARD:          0	MERGED:    3950875	TO_CACHE:    6583215
L1D WQ	ACCESS:    6936973	FORWARD:     163663	MERGED:     195486	TO_CACHE:    6741487
L1D PQ	ACCESS:     375373	FORWARD:          0	MERGED:          0	TO_CACHE:     375005

L1D UNIQUE REGIONS ACCESSED: 0
L1D REGIONS CONFLICTS: 0
L1D Cross Page Prefetch Requests: 6401
L1D Same Page Prefetch Requests: 757225
L1D ROI Sum of L1D PQ occupancy: 4778693
L1D PREFETCHES PUSHED FROM L2C: 0
L1I TOTAL     ACCESS:    7077172  HIT:    4332812  MISS:    2744360  HIT %:    61.2224  MISS %:    38.7776   MPKI: 54.8872
L1I LOAD INSTRUCTION	ACCESS:    6413406  HIT:    3669046  MISS:    2744360  HIT %:     57.209  MISS %:     42.791  MPKI: 54.8872
L1I PREFETCH INSTRUCTION	ACCESS:     663766  HIT:     663766  MISS:          0  HIT %:        100  MISS %:          0  MPKI: 0

L1I PREFETCH  REQUESTED:    1606746  ISSUED:    1606746  USEFUL:          0  USELESS:          0
L1I USEFUL LOAD PREFETCHES:          0 PREFETCH ISSUED TO LOWER LEVEL:          0  ACCURACY: -nan
 TIMELY PREFETCHES:          0 LATE PREFETCHES: 0 DROPPED PREFETCHES: 0
L1I AVERAGE MISS LATENCY: 17.4568 cycles
L1I RQ	ACCESS:    9639781	FORWARD:          0	MERGED:    2949387	TO_CACHE:    6690394
L1I PQ	ACCESS:    1606746	FORWARD:          0	MERGED:     419145	TO_CACHE:    1187601

L1BTB TOTAL     ACCESS:    5671765  HIT:    2062011  MISS:    3609754  HIT %:    36.3557  MISS %:    63.6443   MPKI: 72.1951
L1BTB BRANCH_DIRECT_JUMP	ACCESS:     549503 HIT:     146607 MISS:     402896 AVERAGE STALL: 60.062 AVERAGE FETCH STALL: 17.547 AVERAGE FETCH QUEUE STALL: 20.1025 AVERAGE DECODE STALL: 21.5343 AVERAGE EXECUTE STALL: 2.05649e+15
L1BTB BRANCH_INDIRECT	ACCESS:     183944 HIT:      66799 MISS:     117145 AVERAGE STALL: 118.592 AVERAGE FETCH STALL: 11.8194 AVERAGE FETCH QUEUE STALL: 22.6945 AVERAGE DECODE STALL: 13.7266 AVERAGE EXECUTE STALL: 69.3914
L1BTB BRANCH_CONDITIONAL	ACCESS:    2721345 HIT:    1433658 MISS:    1287687 AVERAGE STALL: 73.0364 AVERAGE FETCH STALL: 23.1649 AVERAGE FETCH QUEUE STALL: 29.7396 AVERAGE DECODE STALL: 19.3948 AVERAGE EXECUTE STALL: 2.70917e+15
L1BTB BRANCH_DIRECT_CALL	ACCESS:     938188 HIT:     104847 MISS:     833341 AVERAGE STALL: 84.9871 AVERAGE FETCH STALL: 28.4975 AVERAGE FETCH QUEUE STALL: 37.4227 AVERAGE DECODE STALL: 18.2561 AVERAGE EXECUTE STALL: 5.41119e+15
L1BTB BRANCH_INDIRECT_CALL	ACCESS:     170287 HIT:      20707 MISS:     149580 AVERAGE STALL: 148.849 AVERAGE FETCH STALL: 12.5312 AVERAGE FETCH QUEUE STALL: 20.2161 AVERAGE DECODE STALL: 13.2923 AVERAGE EXECUTE STALL: 102.323
L1BTB BRANCH_RETURN	ACCESS:    1108498 HIT:     289393 MISS:     819105 AVERAGE STALL: 54.0496 AVERAGE FETCH STALL: 17.29 AVERAGE FETCH QUEUE STALL: 6.83055 AVERAGE DECODE STALL: 6.68262 AVERAGE EXECUTE STALL: 4.28476e+14
L1BTB BRANCH_OTHER ACCESS:          0 HIT:          0 MISS:          0 AVERAGE STALL: -nan AVERAGE FETCH STALL: -nan AVERAGE FETCH QUEUE STALL: -nan AVERAGE DECODE STALL: -nan AVERAGE EXECUTE STALL: -nan
L1BTB TOTAL ROB OCCUPANCY AT BTB MISS: 3.06993

L2BTB TOTAL     ACCESS:    3584176  HIT:    3513967  MISS:      70209  HIT %:    98.0411  MISS %:    1.95886   MPKI: 1.40418
L2BTB BRANCH_DIRECT_JUMP	ACCESS:     398615 HIT:     393876 MISS:       4739 AVERAGE STALL: 60.062 AVERAGE FETCH STALL: 17.547 AVERAGE FETCH QUEUE STALL: 20.1025 AVERAGE DECODE STALL: 21.5343 AVERAGE EXECUTE STALL: 2.05649e+15
L2BTB BRANCH_INDIRECT	ACCESS:     106891 HIT:     104159 MISS:       2732 AVERAGE STALL: 118.592 AVERAGE FETCH STALL: 11.8194 AVERAGE FETCH QUEUE STALL: 22.6945 AVERAGE DECODE STALL: 13.7266 AVERAGE EXECUTE STALL: 69.3914
L2BTB BRANCH_CONDITIONAL	ACCESS:    1287687 HIT:    1280689 MISS:       6998 AVERAGE STALL: 73.0364 AVERAGE FETCH STALL: 23.1649 AVERAGE FETCH QUEUE STALL: 29.7396 AVERAGE DECODE STALL: 19.3948 AVERAGE EXECUTE STALL: 2.70917e+15
L2BTB BRANCH_DIRECT_CALL	ACCESS:     833341 HIT:     829839 MISS:       3502 AVERAGE STALL: 84.9871 AVERAGE FETCH STALL: 28.4975 AVERAGE FETCH QUEUE STALL: 37.4227 AVERAGE DECODE STALL: 18.2561 AVERAGE EXECUTE STALL: 5.41119e+15
L2BTB BRANCH_INDIRECT_CALL	ACCESS:     139930 HIT:     129413 MISS:      10517 AVERAGE STALL: 148.849 AVERAGE FETCH STALL: 12.5312 AVERAGE FETCH QUEUE STALL: 20.2161 AVERAGE DECODE STALL: 13.2923 AVERAGE EXECUTE STALL: 102.323
L2BTB BRANCH_RETURN	ACCESS:     817712 HIT:     775991 MISS:      41721 AVERAGE STALL: 54.0496 AVERAGE FETCH STALL: 17.29 AVERAGE FETCH QUEUE STALL: 6.83055 AVERAGE DECODE STALL: 6.68262 AVERAGE EXECUTE STALL: 4.28476e+14
L2BTB BRANCH_OTHER ACCESS:          0 HIT:          0 MISS:          0 AVERAGE STALL: -nan AVERAGE FETCH STALL: -nan AVERAGE FETCH QUEUE STALL: -nan AVERAGE DECODE STALL: -nan AVERAGE EXECUTE STALL: -nan
L2BTB TOTAL ROB OCCUPANCY AT BTB MISS: 157.839

L2C TOTAL     ACCESS:    4454841  HIT:    3960658  MISS:     494183  HIT %:    88.9068  MISS %:    11.0932   MPKI: 9.88366
L2C LOAD INSTRUCTION	ACCESS:    2744360  HIT:    2474045  MISS:     270315  HIT %:    90.1502  MISS %:    9.84984  MPKI: 5.4063
L2C LOAD TRANSLATION INSTRUCTION	ACCESS:        273  HIT:         86  MISS:        187  HIT %:    31.5018  MISS %:    68.4982  MPKI: 0.00374
L2C LOAD DATA	ACCESS:     720175  HIT:     640152  MISS:      80023  HIT %:    88.8884  MISS %:    11.1116  MPKI: 1.60046
L2C RFO DATA	ACCESS:     284704  HIT:     233980  MISS:      50724  HIT %:    82.1836  MISS %:    17.8164  MPKI: 1.01448
L2C PREFETCH DATA	ACCESS:     186008  HIT:     109694  MISS:      76314  HIT %:    58.9727  MISS %:    41.0273  MPKI: 1.52628
L2C WRITEBACK DATA	ACCESS:     517394  HIT:     502089  MISS:      15305  HIT %:    97.0419  MISS %:    2.95809  MPKI: 0.3061
L2C LOAD TRANSLATION DATA	ACCESS:       1890  HIT:        591  MISS:       1299  HIT %:    31.2698  MISS %:    68.7302  MPKI: 0.02598
L2C TRANSLATION FROM L1D PREFETCHER DATA	ACCESS:         37  HIT:         21  MISS:         16  HIT %:    56.7568  MISS %:    43.2432  MPKI: 0.00032

L2C PREFETCH  REQUESTED:      90714  ISSUED:      90714  USEFUL:       8099  USELESS:      68835
L2C USEFUL LOAD PREFETCHES:       8099 PREFETCH ISSUED TO LOWER LEVEL:      76921  ACCURACY: 10.529
 TIMELY PREFETCHES:       8099 LATE PREFETCHES: 607 DROPPED PREFETCHES: 0
L2C AVERAGE MISS LATENCY: 38.6794 cycles
L2C RQ	ACCESS:    3751499	FORWARD:          0	MERGED:          0	TO_CACHE:    3751439
L2C WQ	ACCESS:     517394	FORWARD:         60	MERGED:          0	TO_CACHE:     517394
L2C PQ	ACCESS:     194142	FORWARD:          0	MERGED:       3160	TO_CACHE:     190982

L2C Dense regions hint from L2: 0
PSCL5 TOTAL     ACCESS:       4096  HIT:       2048  MISS:       2048  HIT %:         50  MISS %:         50   MPKI: 0.04096
PSCL5 LOAD TRANSLATION INSTRUCTION	ACCESS:       4024  HIT:       2012  MISS:       2012  HIT %:         50  MISS %:         50  MPKI: 0.04024
PSCL5 TRANSLATION FROM L1D PREFETCHER INSTRUCTION	ACCESS:         72  HIT:         36  MISS:         36  HIT %:         50  MISS %:         50  MPKI: 0.00072


PSCL4 TOTAL     ACCESS:       3955  HIT:       1971  MISS:       1984  HIT %:    49.8357  MISS %:    50.1643   MPKI: 0.03968
PSCL4 LOAD TRANSLATION INSTRUCTION	ACCESS:       2053  HIT:       1935  MISS:        118  HIT %:    94.2523  MISS %:    5.74769  MPKI: 0.00236
PSCL4 TRANSLATION FROM L1D PREFETCHER INSTRUCTION	ACCESS:         38  HIT:         36  MISS:          2  HIT %:    94.7368  MISS %:    5.26316  MPKI: 4e-05
PSCL4 LOAD TRANSLATION DATA	ACCESS:       1830  HIT:          0  MISS:       1830  HIT %:          0  MISS %:        100  MPKI: 0.0366
PSCL4 TRANSLATION FROM L1D PREFETCHER DATA	ACCESS:         34  HIT:          0  MISS:         34  HIT %:          0  MISS %:        100  MPKI: 0.00068


PSCL3 TOTAL     ACCESS:       4045  HIT:       2016  MISS:       2029  HIT %:    49.8393  MISS %:    50.1607   MPKI: 0.04058
PSCL3 LOAD TRANSLATION INSTRUCTION	ACCESS:       2098  HIT:       1980  MISS:        118  HIT %:    94.3756  MISS %:     5.6244  MPKI: 0.00236
PSCL3 TRANSLATION FROM L1D PREFETCHER INSTRUCTION	ACCESS:         38  HIT:         36  MISS:          2  HIT %:    94.7368  MISS %:    5.26316  MPKI: 4e-05
PSCL3 LOAD TRANSLATION DATA	ACCESS:       1875  HIT:          0  MISS:       1875  HIT %:          0  MISS %:        100  MPKI: 0.0375
PSCL3 TRANSLATION FROM L1D PREFETCHER DATA	ACCESS:         34  HIT:          0  MISS:         34  HIT %:          0  MISS %:        100  MPKI: 0.00068


PSCL2 TOTAL     ACCESS:       3964  HIT:       1917  MISS:       2047  HIT %:    48.3602  MISS %:    51.6398   MPKI: 0.04094
PSCL2 LOAD TRANSLATION INSTRUCTION	ACCESS:       2126  HIT:       1882  MISS:        244  HIT %:     88.523  MISS %:     11.477  MPKI: 0.00488
PSCL2 TRANSLATION FROM L1D PREFETCHER INSTRUCTION	ACCESS:         35  HIT:         35  MISS:          0  HIT %:        100  MISS %:          0  MPKI: 0
PSCL2 LOAD TRANSLATION DATA	ACCESS:       1768  HIT:          0  MISS:       1768  HIT %:          0  MISS %:        100  MPKI: 0.03536
PSCL2 TRANSLATION FROM L1D PREFETCHER DATA	ACCESS:         35  HIT:          0  MISS:         35  HIT %:          0  MISS %:        100  MPKI: 0.0007


LLC TOTAL     ACCESS:     553138  HIT:     522741  MISS:      30397  HIT %:    94.5046  MISS %:    5.49537   MPKI: 0.60794
LLC LOAD INSTRUCTION	ACCESS:     270315  HIT:     269044  MISS:       1271  HIT %:    99.5298  MISS %:   0.470192  MPKI: 0.02542
LLC LOAD TRANSLATION INSTRUCTION	ACCESS:        187  HIT:        142  MISS:         45  HIT %:    75.9358  MISS %:    24.0642  MPKI: 0.0009
LLC LOAD DATA	ACCESS:      79445  HIT:      75764  MISS:       3681  HIT %:    95.3666  MISS %:    4.63339  MPKI: 0.07362
LLC RFO DATA	ACCESS:      50688  HIT:      35912  MISS:      14776  HIT %:    70.8491  MISS %:    29.1509  MPKI: 0.29552
LLC PREFETCH DATA	ACCESS:      76921  HIT:      66802  MISS:      10119  HIT %:    86.8449  MISS %:    13.1551  MPKI: 0.20238
LLC WRITEBACK DATA	ACCESS:      74267  HIT:      73885  MISS:        382  HIT %:    99.4856  MISS %:    0.51436  MPKI: 0.00764
LLC LOAD TRANSLATION DATA	ACCESS:       1299  HIT:       1177  MISS:        122  HIT %:    90.6082  MISS %:    9.39184  MPKI: 0.00244
LLC TRANSLATION FROM L1D PREFETCHER DATA	ACCESS:         16  HIT:         15  MISS:          1  HIT %:      93.75  MISS %:       6.25  MPKI: 2e-05

LLC AVERAGE MISS LATENCY: 154.634 cycles
LLC RQ	ACCESS:     401957	FORWARD:          0	MERGED:          0	TO_CACHE:     401950
LLC WQ	ACCESS:      74267	FORWARD:          7	MERGED:          0	TO_CACHE:      74267
LLC PQ	ACCESS:      76921	FORWARD:          0	MERGED:          0	TO_CACHE:      76921

LLC Dense regions hint to LLC: 0

RAW hits: 1939781
Loads Generated: 12637166
Loads sent to L1D: 10697385
Stores Generated: 6936960
Stores sent to L1D: 6936973
Major fault: 0 Minor fault: 2611
Allocated PAGES: 2611

stream: 
stream:times selected: 1201111
stream:pref_filled: 123188
stream:pref_useful: 24003
stream:pref_late: 7197
stream:misses: 8016
stream:misses_by_poll: 0

CS: 
CS:times selected: 178040
CS:pref_filled: 59473
CS:pref_useful: 35970
CS:pref_late: 6938
CS:misses: 15858
CS:misses_by_poll: 10

CPLX: 
CPLX:times selected: 1021938
CPLX:pref_filled: 19707
CPLX:pref_useful: 4505
CPLX:pref_late: 3248
CPLX:misses: 92580
CPLX:misses_by_poll: 0

NL_L1: 
NL:times selected: 19099
NL:pref_filled: 598
NL:pref_useful: 224
NL:pref_late: 371
NL:misses: 1530
NL:misses_by_poll: 0

total selections: 2420188
total_filled: 95543
total_useful: 33856
total_late: 18863
total_polluted: 10
total_misses_after_warmup: 762562
conflicts: 5505505

test: 121162

DRAM Statistics
 CHANNEL 0
 RQ ROW_BUFFER_HIT:      11333  ROW_BUFFER_MISS:      18677
 DBUS_CONGESTED:         15
 WQ ROW_BUFFER_HIT:       1736  ROW_BUFFER_MISS:      12897  FULL:          0

 AVG_CONGESTED_CYCLE: 4

CPU 0 Branch Prediction Accuracy: 99.8083% MPKI: 0.35044 Average ROB Occupancy at Mispredict: 185.859
Branch types
NOT_BRANCH: 40861461 81.7229%
BRANCH_DIRECT_JUMP: 549503 1.09901%
BRANCH_INDIRECT: 183944 0.367888%
BRANCH_CONDITIONAL: 6187665 12.3753%
BRANCH_DIRECT_CALL: 938188 1.87638%
BRANCH_INDIRECT_CALL: 170287 0.340574%
BRANCH_RETURN: 1108498 2.217%
BRANCH_OTHER: 0 0%

DRAM PAGES: 1048576
Allocated PAGES: 2611
Average_ROB_Occupancy: 253.897
Average_Decode_Occupancy: 39.2749
Average_FTQ_Occupancy: 15.864
Indirect max targets: 14 Average targets: 1.17834
Branch_type:  BRANCH_DIRECT_JUMP:  Count Percentage: 3.29439 5.64831 2.73342 9.73642 1.9817 6.296 1.31561 68.9941 
Branch_type:  BRANCH_INDIRECT:  Count Percentage: 11.7436 3.4653 1.22654 8.11874 3.2646 1.20802 10.7445 60.2287 
Branch_type:  BRANCH_CONDITIONAL:  Count Percentage: 22.3296 2.24288 2.18205 5.50569 1.27634 4.55391 1.43455 60.475 
Branch_type:  BRANCH_DIRECT_CALL:  Count Percentage: 0.264666 1.71636 1.29068 5.19648 2.18486 2.9754 0.864252 85.5073 
Branch_type:  BRANCH_INDIRECT_CALL:  Count Percentage: 9.55137 0.594835 2.99176 4.86862 0 3.85485 0 78.1386 
Branch_type:  BRANCH_RETURN:  Count Percentage: 3.66404 1.25068 1.05806 6.75108 3.18054 5.45093 2.95152 75.6931 
Branch_type:  BRANCH_DIRECT_JUMP:  Total Count: 36164 62004 30006 106881 21754 69114 14442 757379 
Branch_type:  BRANCH_INDIRECT:  Total Count: 43124 12725 4504 29813 11988 4436 39455 221167 
Branch_type:  BRANCH_CONDITIONAL:  Total Count: 2761413 277368 269845 680866 157840 563163 177405 7478691 
Branch_type:  BRANCH_DIRECT_CALL:  Total Count: 4969 32224 24232 97562 41020 55862 16226 1605367 
Branch_type:  BRANCH_INDIRECT_CALL:  Total Count: 32580 2029 10205 16607 0 13149 0 266533 
Branch_type:  BRANCH_RETURN:  Total Count: 81321 27758 23483 149836 70590 120980 65507 1679961 
Number of unique branch instructions: 10838
Upper 32 bits: 
aaaa
ffff
ffff0000
Unique upper 32 bits: 3
Unique upper 36 bits: 3
Unique upper 40 bits: 5
Unique upper 44 bits: 32
Unique upper 48 bits: 157
Variant_0 : 1373 0.335205
Variant_1 : 2703 0.659912
Variant_2 : 0 0
Variant_3 : 0 0
Offset_3 4494
Offset_4 258
Offset_5 484
Offset_6 547
Offset_7 640
Offset_8 587
Offset_9 517
Offset_10 431
Offset_11 355
Offset_12 324
Offset_13 242
Offset_14 245
Offset_15 201
Offset_16 227
Offset_17 172
Offset_18 154
Offset_19 257
Offset_20 144
Offset_21 235
Offset_22 416
Offset_23 241
Offset_24 350
Offset_25 117
Offset_47 93
Offset_64 1
decode_dispatch_called: 26480474 73.6803
Dispatch_width: 0 14218993 53.6961 39.5635
Dispatch_width: 1 1046633 3.95247 2.91219
Dispatch_width: 2 858384 3.24157 2.3884
Dispatch_width: 3 494603 1.8678 1.3762
Dispatch_width: 4 6665413 25.171 18.5461
Dispatch_width: 5 87837 0.331705 0.244401
Dispatch_width: 6 3108611 11.7393 8.64952
Empty_decode_cycles: 9459204 26.3197
ROB_full_cycles: 10596296 29.4836
Starvation_cycles_per_kilo_instr: 222.348
Starvation_cycles_per_kilo_instr_3: 154.815
Starvation_cycles_per_kilo_instr_0: 130.819
Branch_type_1  (3,1)  (4,7)  (5,38)  (6,75)  (7,125)  (8,150)  (9,136)  (10,113)  (11,80)  (12,55)  (13,11)  (14,2)  (15,3)  (16,4)  (18,1)  (19,5)  (20,2)  (21,1)  (22,3)  (23,2)  (24,10)  (25,12) 
Branch_type_2  (3,1)  (4,1)  (5,1)  (8,4)  (9,4)  (10,1)  (12,1)  (13,1)  (14,1)  (16,3)  (17,2)  (20,2)  (21,2)  (23,5)  (24,1)  (47,43) 
Branch_type_3  (3,4492)  (4,250)  (5,441)  (6,455)  (7,484)  (8,368)  (9,283)  (10,175)  (11,139)  (12,62)  (13,10)  (64,1) 
Branch_type_4  (6,4)  (7,8)  (8,26)  (9,55)  (10,67)  (11,70)  (12,115)  (13,103)  (14,111)  (15,96)  (16,100)  (17,81)  (18,67)  (19,124)  (20,73)  (21,124)  (22,222)  (23,136)  (24,206)  (25,101) 
Branch_type_5  (8,3)  (9,1)  (10,4)  (11,5)  (12,3)  (13,14)  (14,16)  (15,11)  (16,22)  (17,11)  (18,23)  (19,14)  (20,11)  (21,13)  (22,43)  (23,26)  (24,37) 
Branch_type_6  (5,4)  (6,13)  (7,23)  (8,36)  (9,38)  (10,71)  (11,61)  (12,88)  (13,103)  (14,115)  (15,91)  (16,98)  (17,78)  (18,63)  (19,114)  (20,56)  (21,95)  (22,148)  (23,72)  (24,96)  (25,4)  (47,50) 
Unique trigger count: 
Variant_0_evicts_0 : 0
Variant_0_evicts_1 : 0
Variant_0_evicts_2 : 0
Variant_0_evicts_3 : 0
Variant_1_evicts_0 : 0
Variant_1_evicts_1 : 0
Variant_1_evicts_2 : 0
Variant_1_evicts_3 : 0
Variant_2_evicts_0 : 0
Variant_2_evicts_1 : 0
Variant_2_evicts_2 : 0
Variant_2_evicts_3 : 0
Variant_3_evicts_0 : 0
Variant_3_evicts_1 : 0
Variant_3_evicts_2 : 0
Variant_3_evicts_3 : 0
BTB PER SET UNIQUE ADDR: 16 14 13 13 14 9 7 13 10 12 14 11 10 16 11 11 13 14 13 17 13 14 16 13 8 15 9 16 13 18 11 11 16 9 11 12 9 10 5 13 10 11 13 12 10 13 12 12 7 11 13 11 12 12 12 5 11 9 12 9 12 16 11 15 12 17 9 7 14 12 13 12 15 11 11 12 9 16 13 19 15 11 12 16 12 14 18 9 11 14 10 9 7 12 7 18 11 9 15 13 19 18 10 11 10 13 7 13 6 16 9 15 15 11 12 7 14 15 11 16 11 12 9 14 12 14 7 12 13 13 8 9 8 12 10 17 10 17 11 17 11 13 15 14 11 12 14 12 7 10 14 13 8 10 12 16 11 13 15 12 10 13 12 14 10 14 16 11 11 11 14 11 14 13 11 11 13 13 14 15 7 13 11 15 18 15 7 13 16 11 13 12 12 15 15 11 9 13 8 13 9 14 10 12 13 9 11 11 9 12 15 14 14 11 14 14 11 14 13 18 7 10 6 12 11 12 11 19 12 14 14 9 6 21 12 12 14 11 14 11 12 17 15 15 7 13 11 11 12 11 15 12 11 11 11 12 10 13 10 10 16 11 7 13 12 9 12 14 13 13 14 11 11 7 8 9 12 17 10 12 11 14 12 8 11 10 10 15 15 13 6 11 17 12 10 12 10 10 15 9 8 11 8 20 12 11 12 7 18 14 11 17 9 20 13 7 14 11 11 12 10 11 11 9 13 13 13 12 9 11 16 14 12 14 13 17 9 9 9 17 7 13 12 12 14 15 12 16 12 15 12 12 8 15 13 13 12 17 8 7 12 14 12 15 9 14 7 19 15 13 10 9 12 14 9 12 15 13 11 14 15 14 9 10 14 14 15 12 13 12 15 8 12 14 10 9 13 14 18 14 12 14 11 11 15 10 12 12 13 11 11 11 13 12 11 9 13 17 18 14 11 14 14 10 15 13 17 13 10 12 17 12 12 12 12 12 16 13 11 17 11 10 9 9 20 7 11 11 11 11 13 16 13 12 10 16 14 12 12 12 15 16 12 16 14 12 8 10 10 13 14 15 15 14 11 18 11 14 11 11 17 10 12 8 7 12 14 14 16 13 11 13 12 10 13 12 15 13 13 17 11 15 9 18 14 10 7 13 15 15 15 12 11 12 13 16 11 18 12 8 11 14 10 12 15 13 12 9 10 19 17 12 10 13 14 13 13 13 12 17 14 11 14 12 16 9 7 12 9 11 12 19 10 9 15 14 13 11 16 13 14 13 11 16 15 12 17 12 11 17 13 14 13 17 12 11 16 18 12 15 9 16 9 11 12 15 10 12 16 16 9 13 19 11 14 11 11 7 13 13 10 8 14 10 13 14 15 12 11 13 15 12 8 13 5 10 10 12 12 16 11 15 7 7 14 17 8 13 14 10 8 12 14 11 15 15 20 12 12 15 12 12 13 16 10 14 12 8 16 10 11 14 12 10 10 13 15 17 16 13 12 10 14 19 8 11 9 9 13 12 16 13 10 16 16 8 11 15 14 13 8 16 13 15 11 15 12 15 12 10 10 12 13 8 9 14 10 11 6 14 9 15 8 15 7 18 14 11 14 10 15 19 10 8 9 13 14 10 10 13 8 9 12 13 9 9 13 16 11 14 17 9 11 10 10 13 15 13 16 14 10 12 18 15 12 16 12 13 14 13 11 12 11 13 15 13 18 16 8 13 13 12 16 11 11 15 15 16 8 13 13 12 14 10 11 12 11 12 10 11 10 11 13 11 11 10 12 13 10 11 4 8 15 9 11 17 10 13 11 9 19 16 15 14 14 12 15 10 12 12 13 19 16 9 11 15 13 18 7 13 14 19 10 15 17 10 10 11 9 13 15 18 17 11 9 13 13 12 10 6 10 12 12 14 13 12 16 17 14 11 11 12 8 10 10 16 19 11 14 17 13 13 12 10 13 11 9 10 20 11 9 19 15 13 12 9 13 7 12 20 19 6 12 15 11 14 15 12 16 14 13 9 12 12 11 15 17 12 12 10 13 11 11 12 6 13 11 16 10 14 12 12 11 7 13 14 17 8 15 12 12 12 11 15 13 10 7 12 14 11 14 17 13 9 15 11 11 12 18 17 8 18 17 13 10 11 15 18 11 12 11 13 10 14 8 8 13 12 14 11 14 14 11 17 13 14 15 9 11 14 11 12 13 10 16 13 17 16 10 15 13 12 12 10 13 13 14 12 12 14 17 12 16 12 14 9 9 17 18 9 12 15 11 15 13 9 9 13 11 12 13 14 12 10 12 11 11 9 9 12 13 14 13 9 
BTB PER SET COUNT: 385 18 1974 19 14 9 8 601 1028 17 16 15 17 302 13 13 2094 15 152 29 16 21 527 21 16 20 12 19 404 24 19 468 26 11 15 863 13 12 8 46 12 16 20 19 964 73 16 14 8 17 16 13 23 20 15 390 11 10 304 11 19 20 161 29 17 289 11 441 22 18 815 15 19 16 15 13 11 221 18 28 18 16 14 518 15 27 30 12 16 26 15 11 515 474 8 32 334 959 23 20 44 309 13 12 2442 16 9 16 1216 26 11 27 1206 13 22 13 20 32 1414 23 395 15 9 18 14 21 7 20 28 1031 9 16 13 17 11 28 815 29 13 25 14 23 16 20 14 423 237 17 10 45 24 199 395 16 19 38 1183 20 16 13 14 15 23 20 524 86 20 12 17 240 19 14 16 18 19 12 24 17 21 18 1022 13 1299 18 25 480 11 23 53 13 16 17 19 21 18 17 10 371 12 20 11 21 601 21 20 11 16 24 11 795 21 18 18 20 27 1296 13 20 1907 22 10 12 7 17 14 13 13 102 722 27 19 17 8 29 17 16 18 163 25 15 675 26 134 848 13 16 13 13 455 12 19 21 14 13 13 20 11 44 10 22 24 14 7 525 19 10 17 23 29 14 26 16 693 10 10 9 18 20 12 1009 15 22 15 12 14 13 11 19 24 14 6 14 23 19 10 17 14 15 27 994 10 13 8 30 19 22 14 10 123 23 345 24 16 33 1472 9 20 24 12 18 13 2523 16 9 15 568 542 20 9 13 18 16 17 28 17 29 13 19 18 22 9 1370 15 14 171 20 16 27 12 144 17 131 10 19 17 20 18 23 363 10 17 19 14 24 11 1294 7 36 20 13 15 401 16 1478 14 13 18 25 168 976 33 27 101 15 21 21 1363 15 18 14 20 11 15 139 16 11 18 18 32 1750 13 22 828 17 22 12 17 523 22 19 13 15 19 17 12 10 16 7086 175 19 13 16 33 12 22 14 66 17 14 13 23 15 17 18 521 19 26 48 12 20 18 14 18 12 405 8 380 25 18 11 664 26 20 16 13 30 18 15 15 22 18 276 16 272 18 24 9467 14 13 13 18 20 23 19 16 22 13 22 14 14 26 10 21 11 1022 327 532 16 18 93 375 15 3517 13 15 15 23 18 23 24 19 26 11 40 21 12 12 15 23 27 24 24 13 173 14 22 14 32 22 323 15 17 10 158 22 633 968 1242 12 664 23 14 14 13 18 20 515 719 17 25 18 11 34 16 20 11 8 20 15 715 15 36 51 180 19 21 17 11 25 18 22 89 13 21 19 13 82 20 20 32 18 19 22 22 18 16 35 181 18 20 11 16 10 3142 15 19 18 16 18 24 15 25 25 18 18 19 1039 399 182 16 13 9 17 11 22 23 25 1261 13 17 25 1471 9 17 5 14 272 15 740 176 18 18 11 1023 17 24 12 23 523 14 9 24 35 12 20 26 29 23 17 19 13 16 15 31 12 23 323 10 23 12 16 31 16 13 15 525 20 122 153 175 16 12 19 32 13357 16 15 1049 2039 21 28 22 15 21 27 16 14 27 18 18 12 36 14 24 1222 18 19 18 16 14 12 21 17 11 2431 23 861 210 7 17 12 29 8 21 9 439 14 16 56 13 19 382 1000 9 11 133 524 13 16 76 12 969 14 449 13 9 17 28 15 1210 24 10 118 12 13 1264 445 21 107 20 26 15 241 45 206 19 668 16 22 20 1471 17 1322 1923 1473 17 28 503 9 21 20 17 21 373 14 22 22 23 12 19 19 272 19 11 15 17 13 14 13 14 2307 16 112 12 12 11 17 20 147 24 4 110 29 9 848 23 11 27 19 253 24 22 283 318 19 18 20 14 20 62 14 5180 23 10 15 38 248 1592 11 960 25 831 16 20 30 11 15 16 10 32 22 27 27 13 27 994 20 15 11 6 16 873 18 17 16 16 27 32 14 5138 513 624 8 13 971 22 295 15 29 23 18 397 833 11 590 17 18 14 28 15 951 52 23 18 17 9 18 7 90 33 26 8 15 28 13 1415 17 14 32 23 21 1531 25 65 13 19 31 21 17 13 18 17 21 118 6 15 14 23 134 30 23 1034 21 11 19 61 840 960 22 19 20 17 342 21 21 12 10 21 20 26 21 31 764 17 60 2986 11 34 589 31 8 26 25 15 12 14 42 29 19 16 521 45 119 2717 15 10 142 15 17 15 151 19 406 22 20 19 972 12 19 19 14 1203 17 10 850 18 21 18 12 41 754 16 90 349 16 30 17 1026 18 21 29 16 137 134 25 9 10 974 34 10 17 1498 18 24 20 18 11 19 19 21 19 21 20 14 14 18 21 62 10 17 17 22 21 12 
To predecode: 0
Predecoding something: 0
Predecode request dropped: 0
sizeofblock_0 0
sizeofblock_1 45340
sizeofblock_2 94875
sizeofblock_3 0
sizeofblock_4 0
sizeofblock_5 0
sizeofblock_6 0
sizeofblock_7 0
sizeofblock_8 0
Variant_0 Correct: 1606911 Incorrect: 0 Accuracy: 1
Variant_1 Correct: 5710292 Incorrect: 0 Accuracy: 1
Variant_2 Correct: 0 Incorrect: 0 Accuracy: -nan
Variant_3 Correct: 0 Incorrect: 0 Accuracy: -nan
