
*** ChampSim Multicore Out-of-Order Simulator ***

Warmup Instructions: 50000000
Simulation Instructions: 50000000
Number of CPUs: 1
LLC sets: 2048
LLC ways: 16
Off-chip DRAM Size: 4096 MB Channels: 1 Width: 64-bit Data Rate: 6400 MT/s
CPU 0 runs ./micro_traces/srv615.trace.gz
.gz
ITLB has LRU replacement policy
DTLB has LRU replacement policy
STLB has LRU replacement policy
FDIP Prefetcher at L1I
L1I has LRU replacement policy
L1D has LRU replacement policy
Initialize SRRIP state for L2C
Initialize DRRIP state for LLC
Heartbeat_Variant_0 : 1296 0.158203 per_variant_size: 0 1296 0 0 0 0 0 0 0 
Heartbeat_Variant_1 : 1338 0.16333 per_variant_size: 0 909 429 0 0 0 0 0 0 
Heartbeat_Variant_2 : 1594 0.19458 per_variant_size: 0 919 434 171 70 0 0 0 0 
Heartbeat_Variant_3 : 0 0 per_variant_size: 0 0 0 0 0 0 0 0 0 
Heartbeat_Variant_0_evicts 0 : 5470 1 : 0 2 : 0 3 : 0 
Heartbeat_Variant_1_evicts 0 : 1 1 : 0 2 : 192 3 : 0 
Heartbeat_Variant_2_evicts 0 : 1 1 : 193 2 : 0 3 : 0 
Heartbeat_Variant_3_evicts 0 : 0 1 : 0 2 : 0 3 : 0 
Heartbeat CPU 0 instructions: 10000001 cycles: 2795360 heartbeat IPC: 3.57736 cumulative IPC: 3.57736 (Simulation time: 0 hr 1 min 27 sec) 
Heartbeat_Variant_0 : 1392 0.169922 per_variant_size: 0 1392 0 0 0 0 0 0 0 
Heartbeat_Variant_1 : 1437 0.175415 per_variant_size: 0 951 486 0 0 0 0 0 0 
Heartbeat_Variant_2 : 1692 0.206543 per_variant_size: 0 935 464 204 89 0 0 0 0 
Heartbeat_Variant_3 : 0 0 per_variant_size: 0 0 0 0 0 0 0 0 0 
Heartbeat_Variant_0_evicts 0 : 5548 1 : 1 2 : 1 3 : 0 
Heartbeat_Variant_1_evicts 0 : 1 1 : 0 2 : 196 3 : 0 
Heartbeat_Variant_2_evicts 0 : 3 1 : 196 2 : 0 3 : 0 
Heartbeat_Variant_3_evicts 0 : 0 1 : 0 2 : 0 3 : 0 
Heartbeat CPU 0 instructions: 20000001 cycles: 5592317 heartbeat IPC: 3.57531 cumulative IPC: 3.57634 (Simulation time: 0 hr 3 min 6 sec) 
Heartbeat_Variant_0 : 1392 0.169922 per_variant_size: 0 1392 0 0 0 0 0 0 0 
Heartbeat_Variant_1 : 1442 0.176025 per_variant_size: 0 952 490 0 0 0 0 0 0 
Heartbeat_Variant_2 : 1692 0.206543 per_variant_size: 0 934 464 208 86 0 0 0 0 
Heartbeat_Variant_3 : 0 0 per_variant_size: 0 0 0 0 0 0 0 0 0 
Heartbeat_Variant_0_evicts 0 : 5653 1 : 0 2 : 0 3 : 0 
Heartbeat_Variant_1_evicts 0 : 0 1 : 0 2 : 197 3 : 0 
Heartbeat_Variant_2_evicts 0 : 0 1 : 197 2 : 0 3 : 0 
Heartbeat_Variant_3_evicts 0 : 0 1 : 0 2 : 0 3 : 0 
Heartbeat CPU 0 instructions: 30000001 cycles: 8388455 heartbeat IPC: 3.57636 cumulative IPC: 3.57634 (Simulation time: 0 hr 4 min 47 sec) 
Heartbeat_Variant_0 : 1392 0.169922 per_variant_size: 0 1392 0 0 0 0 0 0 0 
Heartbeat_Variant_1 : 1442 0.176025 per_variant_size: 0 951 491 0 0 0 0 0 0 
Heartbeat_Variant_2 : 1692 0.206543 per_variant_size: 0 934 464 206 88 0 0 0 0 
Heartbeat_Variant_3 : 0 0 per_variant_size: 0 0 0 0 0 0 0 0 0 
Heartbeat_Variant_0_evicts 0 : 5579 1 : 0 2 : 0 3 : 0 
Heartbeat_Variant_1_evicts 0 : 0 1 : 0 2 : 196 3 : 0 
Heartbeat_Variant_2_evicts 0 : 0 1 : 196 2 : 0 3 : 0 
Heartbeat_Variant_3_evicts 0 : 0 1 : 0 2 : 0 3 : 0 
Heartbeat CPU 0 instructions: 40000002 cycles: 11183842 heartbeat IPC: 3.57732 cumulative IPC: 3.57659 (Simulation time: 0 hr 6 min 28 sec) 
Heartbeat_Variant_0 : 1397 0.170532 per_variant_size: 0 1397 0 0 0 0 0 0 0 
Heartbeat_Variant_1 : 1460 0.178223 per_variant_size: 0 956 504 0 0 0 0 0 0 
Heartbeat_Variant_2 : 1699 0.207397 per_variant_size: 0 932 465 212 90 0 0 0 0 
Heartbeat_Variant_3 : 0 0 per_variant_size: 0 0 0 0 0 0 0 0 0 
Heartbeat_Variant_0_evicts 0 : 5603 1 : 0 2 : 0 3 : 0 
Heartbeat_Variant_1_evicts 0 : 0 1 : 0 2 : 196 3 : 0 
Heartbeat_Variant_2_evicts 0 : 0 1 : 197 2 : 0 3 : 0 
Heartbeat_Variant_3_evicts 0 : 0 1 : 0 2 : 0 3 : 0 
Heartbeat CPU 0 instructions: 50000001 cycles: 13979221 heartbeat IPC: 3.57733 cumulative IPC: 3.57674 (Simulation time: 0 hr 8 min 10 sec) 

Warmup complete CPU 0 instructions: 50000001 cycles: 13979221 (Simulation time: 0 hr 8 min 10 sec) 

Cycle: 20000000 FTQ IN: 58384118 FTQ occupancy: 19.9995 DECODE IN: 58383987 DECODE occupancy: 52.4064 ROB IN: 58383927 ROB occupancy: 316.491 ROB OUT: 58383575
Heartbeat_Variant_0 : 1397 0.170532 per_variant_size: 0 1397 0 0 0 0 0 0 0 
Heartbeat_Variant_1 : 1463 0.178589 per_variant_size: 0 960 503 0 0 0 0 0 0 
Heartbeat_Variant_2 : 1699 0.207397 per_variant_size: 0 931 466 214 88 0 0 0 0 
Heartbeat_Variant_3 : 0 0 per_variant_size: 0 0 0 0 0 0 0 0 0 
Heartbeat_Variant_0_evicts 0 : 5548 1 : 0 2 : 0 3 : 0 
Heartbeat_Variant_1_evicts 0 : 0 1 : 0 2 : 196 3 : 0 
Heartbeat_Variant_2_evicts 0 : 0 1 : 195 2 : 0 3 : 0 
Heartbeat_Variant_3_evicts 0 : 0 1 : 0 2 : 0 3 : 0 
Heartbeat CPU 0 instructions: 60000000 cycles: 21153964 heartbeat IPC: 1.39378 cumulative IPC: 1.39378 (Simulation time: 0 hr 9 min 59 sec) 
Heartbeat_Variant_0 : 1397 0.170532 per_variant_size: 0 1397 0 0 0 0 0 0 0 
Heartbeat_Variant_1 : 1469 0.179321 per_variant_size: 0 962 507 0 0 0 0 0 0 
Heartbeat_Variant_2 : 1706 0.208252 per_variant_size: 0 934 469 212 91 0 0 0 0 
Heartbeat_Variant_3 : 0 0 per_variant_size: 0 0 0 0 0 0 0 0 0 
Heartbeat_Variant_0_evicts 0 : 5574 1 : 0 2 : 0 3 : 0 
Heartbeat_Variant_1_evicts 0 : 0 1 : 0 2 : 195 3 : 0 
Heartbeat_Variant_2_evicts 0 : 0 1 : 195 2 : 0 3 : 0 
Heartbeat_Variant_3_evicts 0 : 0 1 : 0 2 : 0 3 : 0 
Heartbeat CPU 0 instructions: 70000001 cycles: 28424760 heartbeat IPC: 1.37537 cumulative IPC: 1.38451 (Simulation time: 0 hr 11 min 39 sec) 
Cycle: 30000000 FTQ IN: 13817216 FTQ occupancy: 13.1651 DECODE IN: 13817257 DECODE occupancy: 34.4703 ROB IN: 13817257 ROB occupancy: 240.915 ROB OUT: 13817257
Heartbeat_Variant_0 : 1397 0.170532 per_variant_size: 0 1397 0 0 0 0 0 0 0 
Heartbeat_Variant_1 : 1469 0.179321 per_variant_size: 0 962 507 0 0 0 0 0 0 
Heartbeat_Variant_2 : 1706 0.208252 per_variant_size: 0 934 469 213 90 0 0 0 0 
Heartbeat_Variant_3 : 0 0 per_variant_size: 0 0 0 0 0 0 0 0 0 
Heartbeat_Variant_0_evicts 0 : 5582 1 : 0 2 : 0 3 : 0 
Heartbeat_Variant_1_evicts 0 : 0 1 : 0 2 : 195 3 : 0 
Heartbeat_Variant_2_evicts 0 : 0 1 : 195 2 : 0 3 : 0 
Heartbeat_Variant_3_evicts 0 : 0 1 : 0 2 : 0 3 : 0 
Heartbeat CPU 0 instructions: 80000003 cycles: 35561213 heartbeat IPC: 1.40126 cumulative IPC: 1.39005 (Simulation time: 0 hr 13 min 26 sec) 
Cycle: 40000000 FTQ IN: 13859638 FTQ occupancy: 13.1666 DECODE IN: 13859728 DECODE occupancy: 34.4378 ROB IN: 13859788 ROB occupancy: 240.817 ROB OUT: 13860099
Heartbeat_Variant_0 : 1397 0.170532 per_variant_size: 0 1397 0 0 0 0 0 0 0 
Heartbeat_Variant_1 : 1468 0.179199 per_variant_size: 0 962 506 0 0 0 0 0 0 
Heartbeat_Variant_2 : 1707 0.208374 per_variant_size: 0 935 469 214 89 0 0 0 0 
Heartbeat_Variant_3 : 0 0 per_variant_size: 0 0 0 0 0 0 0 0 0 
Heartbeat_Variant_0_evicts 0 : 5555 1 : 0 2 : 0 3 : 0 
Heartbeat_Variant_1_evicts 0 : 0 1 : 0 2 : 195 3 : 0 
Heartbeat_Variant_2_evicts 0 : 0 1 : 196 2 : 0 3 : 0 
Heartbeat_Variant_3_evicts 0 : 0 1 : 0 2 : 0 3 : 0 
Heartbeat CPU 0 instructions: 90000001 cycles: 42838302 heartbeat IPC: 1.37418 cumulative IPC: 1.38605 (Simulation time: 0 hr 15 min 12 sec) 
Heartbeat_Variant_0 : 1397 0.170532 per_variant_size: 0 1397 0 0 0 0 0 0 0 
Heartbeat_Variant_1 : 1469 0.179321 per_variant_size: 0 964 505 0 0 0 0 0 0 
Heartbeat_Variant_2 : 1706 0.208252 per_variant_size: 0 934 469 215 88 0 0 0 0 
Heartbeat_Variant_3 : 0 0 per_variant_size: 0 0 0 0 0 0 0 0 0 
Heartbeat_Variant_0_evicts 0 : 5519 1 : 0 2 : 0 3 : 0 
Heartbeat_Variant_1_evicts 0 : 0 1 : 0 2 : 195 3 : 0 
Heartbeat_Variant_2_evicts 0 : 0 1 : 194 2 : 0 3 : 0 
Heartbeat_Variant_3_evicts 0 : 0 1 : 0 2 : 0 3 : 0 
Heartbeat CPU 0 instructions: 100000000 cycles: 49993783 heartbeat IPC: 1.39753 cumulative IPC: 1.38833 (Simulation time: 0 hr 17 min 0 sec) 
Finished CPU 0 instructions: 50000003 cycles: 36014563 cumulative IPC: 1.38833 (Simulation time: 0 hr 17 min 0 sec) 

ChampSim completed all CPUs

Region of Interest Statistics

CPU 0 cumulative IPC: 1.38833 instructions: 50000003 cycles: 36014563
 Fetch stage stalled: 53.1242  Sim cycles: 36014563 fetch stall cycle: 19132437
 Empty decode stage: 33.8693  Sim cycles: 36014563 fetch stall cycle: 12197879
ITLB TOTAL     ACCESS:    5860285  HIT:    5362606  MISS:     497679  HIT %:    91.5076  MISS %:     8.4924   MPKI: 9.95358
ITLB LOAD TRANSLATION INSTRUCTION	ACCESS:    5739272  HIT:    5241593  MISS:     497679  HIT %:    91.3285  MISS %:    8.67147  MPKI: 9.95358
ITLB TRANSLATION FROM L1D PREFETCHER INSTRUCTION	ACCESS:     121013  HIT:     121013  MISS:          0  HIT %:        100  MISS %:          0  MPKI: 0

ITLB AVERAGE MISS LATENCY: 9.04488 cycles
ITLB RQ	ACCESS:    8014017	FORWARD:          0	MERGED:    1706058	TO_CACHE:    6307959

DTLB TOTAL     ACCESS:    8970002  HIT:    8496494  MISS:     473508  HIT %:    94.7212  MISS %:    5.27879   MPKI: 9.47016
DTLB LOAD TRANSLATION DATA	ACCESS:    8970002  HIT:    8496494  MISS:     473508  HIT %:    94.7212  MISS %:    5.27879  MPKI: 9.47016

DTLB AVERAGE MISS LATENCY: 9.305 cycles
DTLB RQ	ACCESS:   13345852	FORWARD:          0	MERGED:    4339603	TO_CACHE:    9006249

STLB TOTAL     ACCESS:    1216955  HIT:    1215144  MISS:       1811  HIT %:    99.8512  MISS %:   0.148814   MPKI: 0.03622
STLB LOAD TRANSLATION INSTRUCTION	ACCESS:     497679  HIT:     497480  MISS:        199  HIT %:      99.96  MISS %:  0.0399856  MPKI: 0.00398
STLB LOAD TRANSLATION DATA	ACCESS:     473507  HIT:     471922  MISS:       1585  HIT %:    99.6653  MISS %:   0.334736  MPKI: 0.0317
STLB TRANSLATION FROM L1D PREFETCHER DATA	ACCESS:     245769  HIT:     245742  MISS:         27  HIT %:     99.989  MISS %:  0.0109859  MPKI: 0.00054

STLB AVERAGE MISS LATENCY: 75.5428 cycles
STLB RQ	ACCESS:    1336923	FORWARD:          0	MERGED:     119925	TO_CACHE:    1216998

STLB Hit, L1D data hit: 0
STLB Hit, L2C data hit: 0
STLB Hit, LLC data hit: 0
STLB Hit, LLC data miss: 0
STLB STLB hints to L2: 0
L1D TOTAL     ACCESS:   13093238  HIT:   11967641  MISS:    1125597  HIT %:    91.4032  MISS %:    8.59678   MPKI: 22.5119
L1D LOAD DATA	ACCESS:    6553845  HIT:    5809304  MISS:     744541  HIT %:    88.6396  MISS %:    11.3604  MPKI: 14.8908
L1D RFO DATA	ACCESS:    6215004  HIT:    5928657  MISS:     286347  HIT %:    95.3926  MISS %:    4.60735  MPKI: 5.72694
L1D PREFETCH DATA	ACCESS:     324389  HIT:     229680  MISS:      94709  HIT %:    70.8039  MISS %:    29.1961  MPKI: 1.89418

L1D PREFETCH  REQUESTED:     731834  ISSUED:     731834  USEFUL:      33821  USELESS:      68796
L1D USEFUL LOAD PREFETCHES:      33821 PREFETCH ISSUED TO LOWER LEVEL:     102640  ACCURACY: 32.9511
 TIMELY PREFETCHES:      33821 LATE PREFETCHES: 7902 DROPPED PREFETCHES: 9
L1D AVERAGE MISS LATENCY: 223432 cycles
L1D RQ	ACCESS:   10682840	FORWARD:          0	MERGED:    3929081	TO_CACHE:    6588239
L1D WQ	ACCESS:    6956185	FORWARD:     165884	MERGED:     198572	TO_CACHE:    6757613
L1D PQ	ACCESS:     366099	FORWARD:          0	MERGED:          0	TO_CACHE:     365735

L1D UNIQUE REGIONS ACCESSED: 0
L1D REGIONS CONFLICTS: 0
L1D Cross Page Prefetch Requests: 6858
L1D Same Page Prefetch Requests: 743657
L1D ROI Sum of L1D PQ occupancy: 4639552
L1D PREFETCHES PUSHED FROM L2C: 0
L1I TOTAL     ACCESS:    7177937  HIT:    4397900  MISS:    2780037  HIT %:    61.2697  MISS %:    38.7303   MPKI: 55.6007
L1I LOAD INSTRUCTION	ACCESS:    6508631  HIT:    3728594  MISS:    2780037  HIT %:    57.2869  MISS %:    42.7131  MPKI: 55.6007
L1I PREFETCH INSTRUCTION	ACCESS:     669306  HIT:     669306  MISS:          0  HIT %:        100  MISS %:          0  MPKI: 0

L1I PREFETCH  REQUESTED:    1622263  ISSUED:    1622263  USEFUL:          0  USELESS:          0
L1I USEFUL LOAD PREFETCHES:          0 PREFETCH ISSUED TO LOWER LEVEL:          0  ACCURACY: -nan
 TIMELY PREFETCHES:          0 LATE PREFETCHES: 0 DROPPED PREFETCHES: 0
L1I AVERAGE MISS LATENCY: 17.1116 cycles
L1I RQ	ACCESS:    9510375	FORWARD:          0	MERGED:    2677420	TO_CACHE:    6832955
L1I PQ	ACCESS:    1622263	FORWARD:          0	MERGED:     441201	TO_CACHE:    1181062

L1BTB TOTAL     ACCESS:    5670802  HIT:    2023727  MISS:    3647075  HIT %:    35.6868  MISS %:    64.3132   MPKI: 72.9415
L1BTB BRANCH_DIRECT_JUMP	ACCESS:     547751  HIT:     142928  MISS:     404823	AVERAGE STALL: 52.5852
L1BTB BRANCH_INDIRECT	ACCESS:     182288  HIT:      65403  MISS:     116885	AVERAGE STALL: 105.345
L1BTB BRANCH_CONDITIONAL	ACCESS:    2697445  HIT:    1398942  MISS:    1298503	AVERAGE STALL: 38.563
L1BTB BRANCH_DIRECT_CALL	ACCESS:     949112  HIT:     105114  MISS:     843998	AVERAGE STALL: 67.9599
L1BTB BRANCH_INDIRECT_CALL	ACCESS:     172546  HIT:      21336  MISS:     151210	AVERAGE STALL: 135.974
L1BTB BRANCH_RETURN	ACCESS:    1121660  HIT:     290004  MISS:     831656	AVERAGE STALL: 47.4207
L1BTB BRANCH_OTHER ACCESS:          0  HIT:          0  MISS:          0	AVERAGE STALL: -nan
L1BTB TOTAL ROB OCCUPANCY AT BTB MISS: 2.21428

L2BTB TOTAL     ACCESS:    3621816  HIT:    3563056  MISS:      58760  HIT %:    98.3776  MISS %:    1.62239   MPKI: 1.1752
L2BTB BRANCH_DIRECT_JUMP	ACCESS:     400750  HIT:     397208  MISS:       3542	AVERAGE STALL: 52.5852
L2BTB BRANCH_INDIRECT	ACCESS:     106572  HIT:     103905  MISS:       2667	AVERAGE STALL: 105.345
L2BTB BRANCH_CONDITIONAL	ACCESS:    1298503  HIT:    1297230  MISS:       1273	AVERAGE STALL: 38.563
L2BTB BRANCH_DIRECT_CALL	ACCESS:     843998  HIT:     843624  MISS:        374	AVERAGE STALL: 67.9599
L2BTB BRANCH_INDIRECT_CALL	ACCESS:     141757  HIT:     131684  MISS:      10073	AVERAGE STALL: 135.974
L2BTB BRANCH_RETURN	ACCESS:     830236  HIT:     789405  MISS:      40831	AVERAGE STALL: 47.4207
L2BTB BRANCH_OTHER ACCESS:          0  HIT:          0  MISS:          0	AVERAGE STALL: -nan
L2BTB TOTAL ROB OCCUPANCY AT BTB MISS: 137.434

L2C TOTAL     ACCESS:    4512347  HIT:    4047092  MISS:     465255  HIT %:    89.6893  MISS %:    10.3107   MPKI: 9.3051
L2C LOAD INSTRUCTION	ACCESS:    2780037  HIT:    2526323  MISS:     253714  HIT %:    90.8737  MISS %:    9.12628  MPKI: 5.07428
L2C LOAD TRANSLATION INSTRUCTION	ACCESS:        224  HIT:         54  MISS:        170  HIT %:    24.1071  MISS %:    75.8929  MPKI: 0.0034
L2C LOAD DATA	ACCESS:     736610  HIT:     665066  MISS:      71544  HIT %:    90.2874  MISS %:     9.7126  MPKI: 1.43088
L2C RFO DATA	ACCESS:     286296  HIT:     234826  MISS:      51470  HIT %:    82.0221  MISS %:    17.9779  MPKI: 1.0294
L2C PREFETCH DATA	ACCESS:     182398  HIT:     110919  MISS:      71479  HIT %:    60.8115  MISS %:    39.1885  MPKI: 1.42958
L2C WRITEBACK DATA	ACCESS:     525109  HIT:     509403  MISS:      15706  HIT %:     97.009  MISS %:      2.991  MPKI: 0.31412
L2C LOAD TRANSLATION DATA	ACCESS:       1620  HIT:        466  MISS:       1154  HIT %:    28.7654  MISS %:    71.2346  MPKI: 0.02308
L2C TRANSLATION FROM L1D PREFETCHER DATA	ACCESS:         53  HIT:         35  MISS:         18  HIT %:    66.0377  MISS %:    33.9623  MPKI: 0.00036

L2C PREFETCH  REQUESTED:      87347  ISSUED:      87347  USEFUL:       8348  USELESS:      63548
L2C USEFUL LOAD PREFETCHES:       8348 PREFETCH ISSUED TO LOWER LEVEL:      71923  ACCURACY: 11.6069
 TIMELY PREFETCHES:       8348 LATE PREFETCHES: 444 DROPPED PREFETCHES: 0
L2C AVERAGE MISS LATENCY: 38.1002 cycles
L2C RQ	ACCESS:    3804893	FORWARD:          0	MERGED:          0	TO_CACHE:    3804842
L2C WQ	ACCESS:     525109	FORWARD:         51	MERGED:          0	TO_CACHE:     525109
L2C PQ	ACCESS:     189987	FORWARD:          0	MERGED:       3624	TO_CACHE:     186363

L2C Dense regions hint from L2: 0
PSCL5 TOTAL     ACCESS:       3646  HIT:       1823  MISS:       1823  HIT %:         50  MISS %:         50   MPKI: 0.03646
PSCL5 LOAD TRANSLATION INSTRUCTION	ACCESS:       3540  HIT:       1770  MISS:       1770  HIT %:         50  MISS %:         50  MPKI: 0.0354
PSCL5 TRANSLATION FROM L1D PREFETCHER INSTRUCTION	ACCESS:        106  HIT:         53  MISS:         53  HIT %:         50  MISS %:         50  MPKI: 0.00106


PSCL4 TOTAL     ACCESS:       3564  HIT:       1780  MISS:       1784  HIT %:    49.9439  MISS %:    50.0561   MPKI: 0.03568
PSCL4 LOAD TRANSLATION INSTRUCTION	ACCESS:       1846  HIT:       1732  MISS:        114  HIT %:    93.8245  MISS %:    6.17551  MPKI: 0.00228
PSCL4 TRANSLATION FROM L1D PREFETCHER INSTRUCTION	ACCESS:         48  HIT:         48  MISS:          0  HIT %:        100  MISS %:          0  MPKI: 0
PSCL4 LOAD TRANSLATION DATA	ACCESS:       1622  HIT:          0  MISS:       1622  HIT %:          0  MISS %:        100  MPKI: 0.03244
PSCL4 TRANSLATION FROM L1D PREFETCHER DATA	ACCESS:         48  HIT:          0  MISS:         48  HIT %:          0  MISS %:        100  MPKI: 0.00096


PSCL3 TOTAL     ACCESS:       3582  HIT:       1789  MISS:       1793  HIT %:    49.9442  MISS %:    50.0558   MPKI: 0.03586
PSCL3 LOAD TRANSLATION INSTRUCTION	ACCESS:       1855  HIT:       1741  MISS:        114  HIT %:    93.8544  MISS %:    6.14555  MPKI: 0.00228
PSCL3 TRANSLATION FROM L1D PREFETCHER INSTRUCTION	ACCESS:         48  HIT:         48  MISS:          0  HIT %:        100  MISS %:          0  MPKI: 0
PSCL3 LOAD TRANSLATION DATA	ACCESS:       1631  HIT:          0  MISS:       1631  HIT %:          0  MISS %:        100  MPKI: 0.03262
PSCL3 TRANSLATION FROM L1D PREFETCHER DATA	ACCESS:         48  HIT:          0  MISS:         48  HIT %:          0  MISS %:        100  MPKI: 0.00096


PSCL2 TOTAL     ACCESS:       3580  HIT:       1757  MISS:       1823  HIT %:    49.0782  MISS %:    50.9218   MPKI: 0.03646
PSCL2 LOAD TRANSLATION INSTRUCTION	ACCESS:       1902  HIT:       1704  MISS:        198  HIT %:    89.5899  MISS %:    10.4101  MPKI: 0.00396
PSCL2 TRANSLATION FROM L1D PREFETCHER INSTRUCTION	ACCESS:         53  HIT:         53  MISS:          0  HIT %:        100  MISS %:          0  MPKI: 0
PSCL2 LOAD TRANSLATION DATA	ACCESS:       1572  HIT:          0  MISS:       1572  HIT %:          0  MISS %:        100  MPKI: 0.03144
PSCL2 TRANSLATION FROM L1D PREFETCHER DATA	ACCESS:         53  HIT:          0  MISS:         53  HIT %:          0  MISS %:        100  MPKI: 0.00106


LLC TOTAL     ACCESS:     521304  HIT:     494194  MISS:      27110  HIT %:    94.7996  MISS %:    5.20042   MPKI: 0.5422
LLC LOAD INSTRUCTION	ACCESS:     253714  HIT:     252942  MISS:        772  HIT %:    99.6957  MISS %:    0.30428  MPKI: 0.01544
LLC LOAD TRANSLATION INSTRUCTION	ACCESS:        170  HIT:        148  MISS:         22  HIT %:    87.0588  MISS %:    12.9412  MPKI: 0.00044
LLC LOAD DATA	ACCESS:      71120  HIT:      67747  MISS:       3373  HIT %:    95.2573  MISS %:    4.74269  MPKI: 0.06746
LLC RFO DATA	ACCESS:      51441  HIT:      38652  MISS:      12789  HIT %:    75.1385  MISS %:    24.8615  MPKI: 0.25578
LLC PREFETCH DATA	ACCESS:      71923  HIT:      62201  MISS:       9722  HIT %:    86.4828  MISS %:    13.5172  MPKI: 0.19444
LLC WRITEBACK DATA	ACCESS:      71764  HIT:      71416  MISS:        348  HIT %:    99.5151  MISS %:   0.484923  MPKI: 0.00696
LLC LOAD TRANSLATION DATA	ACCESS:       1154  HIT:       1071  MISS:         83  HIT %:    92.8076  MISS %:    7.19237  MPKI: 0.00166
LLC TRANSLATION FROM L1D PREFETCHER DATA	ACCESS:         18  HIT:         17  MISS:          1  HIT %:    94.4444  MISS %:    5.55556  MPKI: 2e-05

LLC AVERAGE MISS LATENCY: 155.122 cycles
LLC RQ	ACCESS:     377627	FORWARD:          0	MERGED:          0	TO_CACHE:     377618
LLC WQ	ACCESS:      71764	FORWARD:          9	MERGED:          0	TO_CACHE:      71764
LLC PQ	ACCESS:      71923	FORWARD:          0	MERGED:          0	TO_CACHE:      71923

LLC Dense regions hint to LLC: 0

RAW hits: 1949710
Loads Generated: 12632550
Loads sent to L1D: 10682840
Stores Generated: 6956176
Stores sent to L1D: 6956185
Major fault: 0 Minor fault: 2481
Allocated PAGES: 2481

stream: 
stream:times selected: 1176368
stream:pref_filled: 121697
stream:pref_useful: 24306
stream:pref_late: 6850
stream:misses: 7819
stream:misses_by_poll: 0

CS: 
CS:times selected: 175550
CS:pref_filled: 58527
CS:pref_useful: 35278
CS:pref_late: 6923
CS:misses: 15939
CS:misses_by_poll: 3

CPLX: 
CPLX:times selected: 999710
CPLX:pref_filled: 19517
CPLX:pref_useful: 4603
CPLX:pref_late: 3118
CPLX:misses: 94106
CPLX:misses_by_poll: 1

NL_L1: 
NL:times selected: 20891
NL:pref_filled: 719
NL:pref_useful: 330
NL:pref_late: 290
NL:misses: 1747
NL:misses_by_poll: 0

total selections: 2372519
total_filled: 94709
total_useful: 33821
total_late: 18602
total_polluted: 4
total_misses_after_warmup: 778937
conflicts: 5528055

test: 115214

DRAM Statistics
 CHANNEL 0
 RQ ROW_BUFFER_HIT:       9814  ROW_BUFFER_MISS:      16940
 DBUS_CONGESTED:          7
 WQ ROW_BUFFER_HIT:       1269  ROW_BUFFER_MISS:      11696  FULL:          0

 AVG_CONGESTED_CYCLE: 5

CPU 0 Branch Prediction Accuracy: 99.8257% MPKI: 0.31912 Average ROB Occupancy at Mispredict: 191.829
Branch types
NOT_BRANCH: 40846897 81.6938%
BRANCH_DIRECT_JUMP: 547751 1.0955%
BRANCH_INDIRECT: 182288 0.364576%
BRANCH_CONDITIONAL: 6179445 12.3589%
BRANCH_DIRECT_CALL: 949112 1.89822%
BRANCH_INDIRECT_CALL: 172546 0.345092%
BRANCH_RETURN: 1121660 2.24332%
BRANCH_OTHER: 0 0%

DRAM PAGES: 1048576
Allocated PAGES: 2481
Average_ROB_Occupancy: 243.026
Average_Decode_Occupancy: 34.553
Average_FTQ_Occupancy: 13.1242
Indirect max targets: 14 Average targets: 1.14576
Branch_type:  BRANCH_DIRECT_JUMP:  Count Percentage: 3.28165 5.97631 3.65442 7.17978 2.92367 6.32151 1.29156 69.3711 
Branch_type:  BRANCH_INDIRECT:  Count Percentage: 6.12122 0.788748 8.14555 9.6825 3.34841 2.8139 0.937785 68.1619 
Branch_type:  BRANCH_CONDITIONAL:  Count Percentage: 20.8927 3.48023 1.53093 7.18912 3.07247 3.54878 0.573501 59.7123 
Branch_type:  BRANCH_DIRECT_CALL:  Count Percentage: 0.901908 1.28065 0.724844 3.62232 2.78686 2.60827 0.885744 87.1894 
Branch_type:  BRANCH_INDIRECT_CALL:  Count Percentage: 9.54037 0 2.99243 0 0.000290245 1.70984 0.99351 84.7636 
Branch_type:  BRANCH_RETURN:  Count Percentage: 4.74589 4.79182 1.02068 4.82809 4.10445 3.40967 0.580772 76.5186 
Branch_type:  BRANCH_DIRECT_JUMP:  Total Count: 35953 65475 40037 78660 32031 69257 14150 760013 
Branch_type:  BRANCH_INDIRECT:  Total Count: 22343 2879 29732 35342 12222 10271 3423 248797 
Branch_type:  BRANCH_CONDITIONAL:  Total Count: 2581475 430012 189160 888278 379630 438482 70861 7377965 
Branch_type:  BRANCH_DIRECT_CALL:  Total Count: 17074 24244 13722 68574 52758 49377 16768 1650580 
Branch_type:  BRANCH_INDIRECT_CALL:  Total Count: 32870 0 10310 0 1 5891 3423 292041 
Branch_type:  BRANCH_RETURN:  Total Count: 106232 107260 22847 108072 91874 76322 13000 1712792 
Number of unique branch instructions: 9763
Upper 32 bits: 
aaaa
ffff
ffff0000
Unique upper 32 bits: 3
Unique upper 36 bits: 3
Unique upper 40 bits: 5
Unique upper 44 bits: 32
Unique upper 48 bits: 154
Variant_0 : 1397 0.170532
Variant_1 : 1469 0.179321
Variant_2 : 1706 0.208252
Variant_3 : 0 0
Offset_3 4036
Offset_4 241
Offset_5 442
Offset_6 503
Offset_7 572
Offset_8 499
Offset_9 459
Offset_10 377
Offset_11 303
Offset_12 265
Offset_13 201
Offset_14 223
Offset_15 190
Offset_16 218
Offset_17 145
Offset_18 120
Offset_19 235
Offset_20 135
Offset_21 235
Offset_22 391
Offset_23 241
Offset_24 325
Offset_25 88
Offset_47 80
decode_dispatch_called: 25620646 71.1397
Dispatch_width: 0 13670000 53.3554 37.9569
Dispatch_width: 1 986741 3.85135 2.73984
Dispatch_width: 2 839482 3.27658 2.33095
Dispatch_width: 3 511114 1.99493 1.41919
Dispatch_width: 4 5864292 22.8889 16.2831
Dispatch_width: 5 150604 0.587823 0.418175
Dispatch_width: 6 3598413 14.045 9.99155
Empty_decode_cycles: 10393917 28.8603
ROB_full_cycles: 9248261 25.6792
Starvation_cycles_per_kilo_instr: 231.679
Starvation_cycles_per_kilo_instr_3: 171.53
Starvation_cycles_per_kilo_instr_0: 148.157
Branch_type_1  (3,1)  (4,7)  (5,36)  (6,71)  (7,115)  (8,125)  (9,124)  (10,98)  (11,67)  (12,43)  (13,8)  (14,2)  (15,3)  (16,4)  (18,1)  (19,4)  (20,2)  (21,1)  (22,3)  (23,2)  (24,10)  (25,12) 
Branch_type_2  (3,1)  (5,1)  (8,3)  (9,3)  (12,1)  (13,1)  (14,1)  (16,3)  (17,2)  (20,2)  (21,2)  (23,5)  (24,1)  (47,36) 
Branch_type_3  (3,4034)  (4,234)  (5,401)  (6,417)  (7,428)  (8,312)  (9,251)  (10,154)  (11,122)  (12,50)  (13,7) 
Branch_type_4  (6,3)  (7,8)  (8,24)  (9,50)  (10,59)  (11,58)  (12,93)  (13,84)  (14,98)  (15,90)  (16,98)  (17,63)  (18,54)  (19,115)  (20,71)  (21,124)  (22,207)  (23,136)  (24,186)  (25,72) 
Branch_type_5  (8,2)  (9,1)  (10,3)  (11,5)  (12,3)  (13,14)  (14,16)  (15,11)  (16,20)  (17,13)  (18,16)  (19,12)  (20,10)  (21,13)  (22,42)  (23,26)  (24,36) 
Branch_type_6  (5,4)  (6,12)  (7,21)  (8,33)  (9,30)  (10,63)  (11,51)  (12,75)  (13,87)  (14,106)  (15,86)  (16,93)  (17,67)  (18,49)  (19,104)  (20,50)  (21,95)  (22,139)  (23,72)  (24,92)  (25,4)  (47,44) 
Unique trigger count: 
Variant_0_evicts_0 : 0
Variant_0_evicts_1 : 0
Variant_0_evicts_2 : 0
Variant_0_evicts_3 : 0
Variant_1_evicts_0 : 0
Variant_1_evicts_1 : 0
Variant_1_evicts_2 : 0
Variant_1_evicts_3 : 0
Variant_2_evicts_0 : 0
Variant_2_evicts_1 : 0
Variant_2_evicts_2 : 0
Variant_2_evicts_3 : 0
Variant_3_evicts_0 : 0
Variant_3_evicts_1 : 0
Variant_3_evicts_2 : 0
Variant_3_evicts_3 : 0
BTB PER SET UNIQUE ADDR: 3 3 1 5 2 3 3 1 2 4 4 2 2 6 7 5 2 4 3 1 2 3 3 7 3 4 3 1 2 6 3 3 2 2 4 2 3 3 3 3 3 5 4 2 3 2 2 4 6 2 3 3 2 1 4 3 4 3 5 4 1 3 1 3 6 1 3 5 2 3 2 2 4 5 4 5 4 3 5 3 7 6 2 4 3 3 3 1 5 3 2 3 3 4 3 1 4 3 2 5 2 3 3 3 2 5 2 3 3 3 6 1 0 3 1 2 3 6 4 5 4 3 3 3 7 2 2 2 6 1 1 3 2 2 4 2 3 2 3 3 2 4 5 5 5 5 7 3 4 5 3 3 3 4 3 2 3 1 5 3 4 2 3 7 3 2 1 3 5 7 4 3 3 3 3 4 1 6 2 1 4 2 3 4 3 2 4 4 4 2 3 4 3 5 1 3 2 4 3 4 3 3 5 1 2 5 1 3 4 4 2 3 6 2 3 3 5 3 1 4 3 3 3 4 3 2 2 1 6 3 1 4 4 3 2 3 3 3 3 5 2 5 4 4 3 4 3 3 5 4 1 2 2 1 2 3 2 2 4 2 5 4 5 3 3 2 4 3 4 3 6 4 1 4 3 2 4 2 3 2 4 2 1 4 4 4 4 4 5 3 4 3 5 3 3 5 3 1 2 2 4 3 2 4 2 2 2 5 5 2 2 3 5 4 4 4 2 3 2 2 7 5 1 3 10 2 1 4 3 4 3 6 2 2 2 2 2 2 4 3 3 4 4 2 3 4 5 2 2 3 3 5 2 2 3 3 4 3 2 3 4 5 2 2 2 4 3 3 2 3 6 3 8 4 1 3 2 2 2 2 3 6 4 4 4 2 1 3 3 4 5 3 2 4 2 3 4 2 2 2 2 4 5 3 1 4 5 2 4 3 1 2 1 5 4 2 3 3 3 3 3 3 3 7 5 2 3 4 1 3 3 2 4 3 3 1 2 2 3 2 2 3 2 1 2 0 4 3 4 2 2 2 2 3 5 1 2 3 6 2 3 5 4 7 1 3 3 5 2 4 2 2 5 4 4 5 1 3 3 3 3 1 4 3 2 4 2 4 4 4 3 5 2 2 3 4 5 3 3 2 1 2 3 3 5 3 2 2 2 2 4 2 4 3 4 5 5 2 4 4 2 2 4 5 3 3 1 5 2 3 5 3 3 1 3 4 4 5 3 4 3 3 5 5 2 4 2 4 1 3 2 4 1 3 3 5 2 0 5 5 1 3 3 4 2 2 5 4 3 2 3 2 2 3 2 2 4 2 3 3 1 4 2 4 4 2 2 1 4 4 4 4 4 4 2 4 6 3 4 3 4 3 2 2 1 2 3 2 1 1 1 4 2 3 1 2 2 4 3 3 3 1 4 3 3 3 2 5 2 3 2 2 3 3 2 1 3 3 3 3 1 5 1 1 2 2 4 2 2 2 3 2 3 3 3 4 2 1 3 2 2 2 2 3 2 1 2 2 3 3 5 4 3 3 3 1 2 3 3 2 3 5 3 3 6 4 2 4 5 3 5 3 2 2 2 4 3 3 2 6 3 2 4 2 4 3 2 3 5 4 4 2 2 3 5 3 3 3 3 3 2 3 2 4 4 2 5 3 2 5 2 2 5 2 2 1 6 2 3 4 4 7 4 6 3 2 5 1 3 2 6 4 4 4 5 5 2 1 1 3 3 2 4 3 2 3 4 5 2 6 4 2 1 3 2 3 3 3 0 3 3 3 4 3 3 6 3 2 4 4 4 3 3 5 3 2 8 1 1 2 5 3 2 2 5 3 5 3 3 4 4 3 1 3 2 4 4 3 2 2 4 4 3 2 3 1 3 2 7 5 2 5 1 4 5 3 4 3 2 2 0 5 3 3 3 2 2 4 2 3 3 4 2 4 3 1 6 5 3 3 1 2 4 5 6 3 5 2 4 3 4 1 3 3 2 2 3 3 1 2 4 2 2 3 1 3 6 3 2 0 5 3 2 3 2 2 3 3 3 2 3 3 3 3 3 2 3 5 6 3 2 2 1 4 4 4 2 1 2 2 3 1 4 5 1 2 5 1 2 2 3 7 3 2 3 4 4 2 2 4 3 3 4 5 2 1 2 2 5 2 2 3 3 2 6 4 4 4 4 2 3 2 5 5 3 2 6 3 1 3 4 1 1 5 4 3 2 7 4 3 2 1 3 4 4 2 4 4 4 1 3 3 2 5 5 3 3 4 2 2 7 4 4 1 3 3 5 4 3 2 3 4 4 4 3 3 3 3 3 2 2 3 3 5 5 3 3 5 4 1 2 4 3 2 2 4 4 2 1 3 4 4 3 3 6 1 6 5 2 3 3 3 5 2 2 5 5 2 1 3 3 4 4 3 2 3 6 2 2 2 2 5 3 2 2 4 3 3 4 2 6 1 3 1 3 3 3 1 1 6 3 4 3 5 2 1 5 3 1 3 3 5 5 6 3 4 1 3 2 2 2 2 1 1 6 2 3 5 4 5 3 2 2 6 1 4 4 5 1 1 4 3 3 1 2 2 3 3 2 3 3 3 3 2 2 4 2 5 4 1 3 4 0 2 2 1 4 3 2 3 4 3 3 2 2 2 2 5 4 3 6 5 5 2 1 2 2 3 1 3 1 2 4 3 2 1 6 2 2 5 5 5 2 0 2 3 3 2 4 1 2 3 1 3 4 2 3 1 5 2 5 2 3 4 2 4 3 3 4 5 5 1 3 5 3 5 5 4 3 1 3 1 2 1 3 4 2 2 1 2 2 4 6 2 2 2 2 2 2 4 1 4 2 1 2 1 2 3 2 4 3 2 3 3 2 2 3 3 2 5 5 3 2 2 1 3 3 2 5 2 4 3 5 4 3 3 3 2 4 3 4 3 5 5 3 1 3 4 3 3 2 2 2 6 3 3 2 2 3 3 3 6 3 3 3 4 3 3 2 1 3 4 2 2 6 1 2 3 5 4 1 5 3 2 5 5 3 3 3 7 3 2 3 5 6 5 3 3 3 2 4 3 3 7 2 2 3 0 4 2 4 3 3 2 4 1 1 3 3 5 3 3 2 7 2 4 2 4 0 4 1 1 2 2 4 2 5 6 3 1 1 3 4 3 0 4 5 4 3 5 4 4 3 1 1 2 5 5 2 5 2 2 3 1 6 2 2 2 1 4 2 3 5 3 4 3 4 5 1 5 3 3 3 3 4 4 4 4 4 2 5 3 3 2 3 5 4 3 3 2 3 2 2 3 3 1 3 1 2 4 4 2 4 2 4 3 3 2 3 3 2 1 4 0 4 3 4 2 4 6 3 4 2 5 3 2 2 1 5 2 3 2 1 5 3 5 4 2 2 3 5 2 6 6 4 4 2 2 6 3 1 5 4 2 3 2 4 5 2 7 3 2 3 3 2 2 5 3 3 3 3 3 3 1 5 3 3 2 2 1 4 3 6 3 6 5 3 4 2 1 3 4 3 4 2 3 2 3 1 1 2 4 3 5 2 3 3 5 3 5 4 3 3 2 2 4 5 2 6 3 2 2 4 3 3 3 3 3 3 5 5 2 3 2 5 2 2 3 3 4 5 2 2 2 4 3 2 3 4 3 3 4 4 2 4 5 2 1 2 2 1 3 1 5 4 4 4 2 2 2 2 5 3 3 2 3 2 3 3 6 3 3 4 1 3 4 1 2 2 3 6 5 3 2 4 2 1 3 3 3 3 3 2 4 3 3 2 4 3 1 2 3 2 2 2 2 3 3 4 4 4 3 3 1 0 1 6 6 3 2 3 4 3 1 2 4 2 3 4 1 2 4 3 2 3 5 3 2 4 3 3 1 3 5 2 2 4 1 3 5 2 2 5 1 2 4 4 2 2 1 2 2 3 3 3 4 1 5 3 6 6 3 2 6 1 4 3 5 3 4 4 3 3 4 3 3 1 2 2 2 2 2 4 4 5 2 4 3 2 4 3 3 3 5 0 5 5 6 4 6 4 7 2 3 6 4 3 4 3 1 3 2 3 2 2 4 3 2 6 2 1 4 3 4 2 3 2 2 3 3 3 5 6 2 4 2 1 3 0 3 2 5 5 2 6 5 2 3 4 2 6 3 2 1 3 5 4 2 4 2 1 2 4 2 3 2 2 3 3 2 2 2 4 4 4 2 3 4 3 4 2 3 4 3 3 3 2 3 4 2 1 3 5 2 3 4 3 4 3 2 1 4 3 3 3 3 3 3 3 1 3 3 1 2 4 3 2 3 2 3 2 1 2 4 2 2 3 0 2 5 2 2 3 2 3 3 3 1 3 3 4 5 3 2 2 3 2 3 3 3 1 2 7 1 1 4 3 3 2 1 3 1 6 2 2 3 4 1 3 2 2 3 2 5 5 3 2 3 1 4 4 5 3 3 5 3 3 3 3 3 3 4 5 2 5 3 7 2 2 5 4 4 2 4 4 2 2 3 2 2 4 2 3 3 4 5 3 3 1 3 2 3 3 5 4 2 2 1 4 3 0 2 5 6 2 4 3 2 3 3 3 6 5 4 2 2 4 4 5 3 2 5 3 2 2 2 3 2 2 4 3 2 2 4 1 3 4 3 
BTB PER SET COUNT: 3 1476 1473 5 2 3 3 1 2 4 52 2 2 6 735 5 2 4 3 1 2 3 3 105 484 183 3 1 2 516 3 3 2 993 486 2 3 3 3 3 3 996 4 2 3 2 483 4 6 2 3 3 2 1 4 3 4 963 5 1476 1 3 1 3 6 1 5 5 2 3 4 2 4 965 4 251 5 3 996 3 7 6 2 6 4 3 3 1 488 994 2 3 3 4 3 1 4 3 2 7 3 5 3 3 2 5 2 3 3 3 8 1 0 3 1 3 3 8 5 1477 6 3 1504 3 7 2 2 2 469 1 1 3 2 2 4 2 3 2 3 963 2 4 5 6 5 5 11 3 8 23 3 3 3 5 3 2 3 1 5 3 4 2 4 7 3 2 1 3 5 7 5 4 5 3 3 4 1 7 2 1 7 2 4 4 3 3 4 4 4 3 3 4 3 5 1 3 2 4 1475 5 3 1476 6 1 2 5 1 3 34 4 4 5 6 2 3 3 24 483 1 4 3 3 3 516 3 2 2 1 6 3 257 4 4 3 2 3 3 3 3 5 2 5 4 4 3 4 7779 105 5 6 1 2 2 1 2 10 2 2 4 2 5 4 5 3 3 2 5 3 4 4 6 4 1 4 3 2 8 2 3 2 4 2 1 4 5 4 4 4 5 3 5 3 5 3 3 8 3 1 2 2 5 3 2 4 2 2 2 5 5 2 961 3 6 4 5 4 3 3 2 2 7 7 1 3 1991 2 1 7 3 4 3 8 2 2 2 2 2 2 4 3 3 4 4 3 3 4 5 2 2 3 3 5 3 2 3 5 4 3 2 14 8 258 2 2 2 4 3 3 2 4 6 3 1480 5 1 3 2 2 2 2 5 422 4 4 4 2 1 3 3 6 5 3 2 5 2 5 4 2 2 4 2 10 5 3 1 4 5 2 4 3 1 2 1 5 4 2 3 6 3 3 3 3 3 488 5 2 3 4 481 3 4 2 5 3 3 1 2 2 3 2 2 3 2 1 384 0 1478 4 4 3 2 361 2 3 369 1 2 4 966 2 3 6 4 7 1 3 3 5 2 4 2 5 7 4 4 9 1 5 4 6 3 1 4 3 68 4 2 4 62 5 994 5 3 2 3 997 5 3 3 2 1 2 3 3 5 4 2 2 2 2 4 2 4 1924 4 5 5 483 4 4 2 2 4 5 3 3 1 5 2 3 2467 3 3 1 3 4 4 89 3 4 3 4 5 5 2 1476 2 4 1 3 2 4 961 3 3 5 2 0 5 5 1 4 3 5 2 2 966 6 3 2 3 3 2 3 2 2 4 2 3 3 2 4 2 4 4 2 2 1 4 1027 4 6 4 4 3 5 1478 3 4 3 4 3 962 2 1 2 964 2 1 1 1 5 2 3 1 2 2 4 14732 3 3 1 4 4 3 3 2 5 2 3 962 2 3 3 2 1 3 3 3 3 1 5 1 1 2 3 4 3 2 2 3 2 3 3 4 5 2 1 3 2 2 2 2 4 2 1 3 2 3 4 5 6 3 2946 3 1 2 3 3 2 994 367 3 3 6 4 2 4 5 3 5 3 2 2 2 4 3 3 2 7 3 2 4 2 4 3 2 3 5 4 6 3 2 3 5 484 3 3 3 3 2 3 2 5 4 2 9 3 2 6 2 2 5 2 2 2 6 2 3 161 4 7 4 6 3 2 5 1 3 2 998 5 4 4 5 5 2 1 1 994 5 2 4 36 3 3 4 3432 2 6 7 2 1 3 2 3 3 3 0 3 3 3 5 3 3 8 3 2 267 4 7 3 3 5 3 993 8 1 1 2 5 3 4 2 5 3 5 3 3 5 6 5 2 3 2 4 4 3 2 2 6 4 3 2 3 1 3 2 287 495 2 5 1 4 5 3 4 3 2 2 0 996 963 3 3 2 2 4 3 994 4 4 2 6 3 1 6 5 3 3 1 2 5 5 486 3 5 3 6 3 4 1 3 4 2 2 3 3 1 2 4 2 2 3 1 3 6 3 2 0 1477 3 2 3 2 2 368 3 3 2 3 3 3 964 4 2 3 6 47 3 2 2 1 6 4 4 2 1 2 2 483 1 4 5 1 2 7 1 2 2 5 7 3 2 3 5 4 2 2 4 3 4 4 6 2 1 2 2 5 2 2 3 4 3 967 5 4 4 1924 2 3 3 5 7 3 2 487 3 1 3 4 1 1 7 5 3 2 13 4 3 2 1 3 4 4 4 4 1038 4 1 5 4 2 5 5 3 3 1476 2 2 7 4 4 1 3 3 5 4 3 2 3 4 4 4 3 3 4 3 4 2 2 3 3 5 6 3 3 516 4 1 2 4 3 2 2 5 4 2 1 3 4 484 3 3 8 1 489 6 2 7 3 3 5 2 2 5 5 240 1 3 3 4 4 3 2 6 6 2 2 2 2 447 3 2 4 4 9 3 4 5 7 1 3 1 3 3 4 1 1 6 3 4 5 6 2 1 15 3 1 3 4 6 7 2470 367 355 1 3 2 2 2 2 1 1 6 2 3 28 6 5 3 2 2 7 1 4 4 5 1 1 4 3 3 1 2 2 3 3 2 3 4 20617 3 2 2 4 2 965 4 1 3 4 0 2 2 1 5 3 2 3 4 3 3 2 4 2 2 5 4 3 6 5 6 2 1 2 2 5 1 963 1 2 4 3 2 1 997 2 2 5 5 5 2 0 1994 3 3 2 96 1 2 3 1 4 4 2 3 1 5 2 1480 2 3 1476 2 5 3 3 4 5 369 1 3 6 3 5 5 5 3 1 3 1 2 1 3 15 2 2 1 2 2 12 6 2 2 2 1474 2 2 4 1 6 2 1 2 1 2 3 2 4 3 2 3 3 2 2 3 3 2 5 5 3 2 2 1 3 3 2 6 2 4 3 5 995 3 3 3 2 4 3 5 3 5 5 3 1 3 6 3 3 3 2 2 6 3 5 2 2 3 3 3 6 4 3 3 4 6 3 2 1 3 4 2 2 6 1 2 1475 5 4 1 5 3 4 9 5 3 3 3 372 3 2 3 5 6 5 3 3 48 2 4 3 3 7 3 2 3 0 5 2 7 3 4 2 4 1 1 3 3 7 3 3 2 9 2 4 2 4 0 487 1 1 2 2 4 2 5 10 3 1 1 3 4 3 0 4 5 5 6 5 4 4 3 1 1 2 5 5 2 60 2 2 4 1 10 2 2 2 1 4 3 3 5 3 4 6 6 7 1 2467 3 3 3 2979 4 4 4 4 4 2 5 5 5 2 3 6 4 3 3 2 3 2 2 3 3 1 3 1 2 4 4 2 4 2 4 1481 3 2 4 3 2 1 4 0 4 3 4 2 4 7 4 5 2 5 3 2 2 1 5 2 3 2 1 5 4 5 4 2 2 3 242 2 6 6 4 995 2 2 6 3 1 5 4 2 3 483 4 5 2 998 3 2 3 3 2 2 5 3 994 3 3 3 3 1 5 3 3 3 2 1 4 3 6 4 6 5 3 4 2 1 3 4 3 6 2 3 2 4 1 1 2 4 6 369 2 3 3 485 3 5 4 3 3 2 2 4 5 2 6 3 2 2 54 3 3 3 3 3 3 5 7 2 5 2 5 2 2 4 3 4 5 2 2 2 4 3 2 3 5 3 3 4 6 2 4 5 2 1 963 2 1 3 1 5 4 4 4 2 2 2 2 5 3 3 2 3 2 3 3 6 3 4 4 1 3 2945 1 3 2 3 8 5 3 2 8 2 1 3 3 5 3 3 2 4 3 3 993 5 3 1 2 4 3 2 2 2 3 3 4 4 4 4 5 2 0 1 7 6 3 2 3 4 3 1 2 4 2 3 5 1 2 4 3 2 3 964 120 2 4 3 4 1 3 5 2 2 4 1 3 6 2 2 5 1 2 4 514 2 2 961 2 2 4 3 3 4 1 5 3 6 6 3 4 6 1 4 153 8 5 4 4 3 3 4 3 3 1 2 2 2 2 2 4 4 6 2 4 3 2 4 3 3 3 6 0 5 5 6 4 487 4 9 2 3 1478 4 3 5 3 1 3 2 3 2 4 4 3 2 8 2 1 4 3 4 2 3 2 2 3 3 3 5 22 3 4 2 1 3 0 3 2 5 6 2 6 5 2 3 4 2 7 5 2 620 3 5 4 2 4 2 1 2 4 2 3 2 2 3 3 2 2 2 4 4 5 2 3 4 1476 4 2 3 4 4 3 3 2 3 7 2 1 3 7 2 3 4 3 4 3 2 1 4 4 3 3 3 3 3 3 1 3 3 1 2 8 3 2 3 1474 3 2 1 2 4 2 2 3 0 2 5 2 2 3 4 3 3 3 1 3 3 4 5 3 2 2 3 2 3 3 4 2 2 7 1 1 4 3 4 2 1 3 1 7 22 2 3 4 1 3 2 2 3 2 21 5 3 2 3 1 4 4 5 3 3 5 4 3 963 3 3 3 502 8 2 3842 3 9 2 482 6 4 4 2 7 4 2 2 3 2 2 132 2 6 3 4 672 3 483 1 3 2 3 3 5 4 2 1358 1 4 3 0 2 13 1478 2 5 3 2 3 1475 3 6 5 1476 2 2 4 4 1361 3 2 5 4 2 2 2 125 2 2 4 3 2 2 4 1 3 4 795 
To predecode: 0
Predecoding something: 0
Predecode request dropped: 0
sizeofblock_0 0
sizeofblock_1 39571
sizeofblock_2 46210
sizeofblock_3 26865
sizeofblock_4 11685
sizeofblock_5 0
sizeofblock_6 0
sizeofblock_7 0
sizeofblock_8 0
