
*** ChampSim Multicore Out-of-Order Simulator ***

Warmup Instructions: 50000000
Simulation Instructions: 50000000
Number of CPUs: 1
LLC sets: 2048
LLC ways: 16
Off-chip DRAM Size: 4096 MB Channels: 1 Width: 64-bit Data Rate: 6400 MT/s
CPU 0 runs ./micro_traces/srv660.trace.gz
.gz
ITLB has LRU replacement policy
DTLB has LRU replacement policy
STLB has LRU replacement policy
L1I has LRU replacement policy
L1D has LRU replacement policy
Initialize SRRIP state for L2C
Initialize DRRIP state for LLC
Heartbeat_Variant_0 : 1325 0.323486 per_variant_size: 0 1325 0 0 0 0 0 0 0 
Heartbeat_Variant_1 : 1208 0.294922 per_variant_size: 0 580 628 0 0 0 0 0 0 
Heartbeat_Variant_2 : 1277 0.311768 per_variant_size: 0 491 370 211 205 0 0 0 0 
Heartbeat_Variant_3 : 0 0 per_variant_size: 0 0 0 0 0 0 0 0 0 
Heartbeat_Variant_0_evicts 0 : 5806 1 : 227 2 : 224 3 : 0 
Heartbeat_Variant_1_evicts 0 : 209 1 : 0 2 : 378 3 : 0 
Heartbeat_Variant_2_evicts 0 : 207 1 : 367 2 : 0 3 : 0 
Heartbeat_Variant_3_evicts 0 : 0 1 : 0 2 : 0 3 : 0 
Heartbeat CPU 0 instructions: 10000001 cycles: 2796218 heartbeat IPC: 3.57626 cumulative IPC: 3.57626 (Simulation time: 0 hr 1 min 3 sec) 
Heartbeat_Variant_0 : 1342 0.327637 per_variant_size: 0 1342 0 0 0 0 0 0 0 
Heartbeat_Variant_1 : 1243 0.303467 per_variant_size: 0 593 650 0 0 0 0 0 0 
Heartbeat_Variant_2 : 1338 0.32666 per_variant_size: 0 545 369 228 196 0 0 0 0 
Heartbeat_Variant_3 : 0 0 per_variant_size: 0 0 0 0 0 0 0 0 0 
Heartbeat_Variant_0_evicts 0 : 5695 1 : 149 2 : 152 3 : 0 
Heartbeat_Variant_1_evicts 0 : 156 1 : 0 2 : 340 3 : 0 
Heartbeat_Variant_2_evicts 0 : 158 1 : 346 2 : 0 3 : 0 
Heartbeat_Variant_3_evicts 0 : 0 1 : 0 2 : 0 3 : 0 
Heartbeat CPU 0 instructions: 20000002 cycles: 5592363 heartbeat IPC: 3.57635 cumulative IPC: 3.57631 (Simulation time: 0 hr 2 min 20 sec) 
Heartbeat_Variant_0 : 1373 0.335205 per_variant_size: 0 1373 0 0 0 0 0 0 0 
Heartbeat_Variant_1 : 1253 0.305908 per_variant_size: 0 578 675 0 0 0 0 0 0 
Heartbeat_Variant_2 : 1355 0.330811 per_variant_size: 0 546 372 226 211 0 0 0 0 
Heartbeat_Variant_3 : 0 0 per_variant_size: 0 0 0 0 0 0 0 0 0 
Heartbeat_Variant_0_evicts 0 : 5605 1 : 167 2 : 153 3 : 0 
Heartbeat_Variant_1_evicts 0 : 150 1 : 0 2 : 343 3 : 0 
Heartbeat_Variant_2_evicts 0 : 157 1 : 334 2 : 0 3 : 0 
Heartbeat_Variant_3_evicts 0 : 0 1 : 0 2 : 0 3 : 0 
Heartbeat CPU 0 instructions: 30000002 cycles: 8387705 heartbeat IPC: 3.57738 cumulative IPC: 3.57666 (Simulation time: 0 hr 3 min 39 sec) 
Heartbeat_Variant_0 : 1382 0.337402 per_variant_size: 0 1382 0 0 0 0 0 0 0 
Heartbeat_Variant_1 : 1272 0.310547 per_variant_size: 0 592 680 0 0 0 0 0 0 
Heartbeat_Variant_2 : 1352 0.330078 per_variant_size: 0 529 370 233 220 0 0 0 0 
Heartbeat_Variant_3 : 0 0 per_variant_size: 0 0 0 0 0 0 0 0 0 
Heartbeat_Variant_0_evicts 0 : 5741 1 : 132 2 : 143 3 : 0 
Heartbeat_Variant_1_evicts 0 : 134 1 : 0 2 : 353 3 : 0 
Heartbeat_Variant_2_evicts 0 : 141 1 : 342 2 : 0 3 : 0 
Heartbeat_Variant_3_evicts 0 : 0 1 : 0 2 : 0 3 : 0 
Heartbeat CPU 0 instructions: 40000002 cycles: 11184312 heartbeat IPC: 3.57576 cumulative IPC: 3.57644 (Simulation time: 0 hr 4 min 58 sec) 
Heartbeat_Variant_0 : 1380 0.336914 per_variant_size: 0 1380 0 0 0 0 0 0 0 
Heartbeat_Variant_1 : 1278 0.312012 per_variant_size: 0 596 682 0 0 0 0 0 0 
Heartbeat_Variant_2 : 1358 0.331543 per_variant_size: 0 525 377 235 221 0 0 0 0 
Heartbeat_Variant_3 : 0 0 per_variant_size: 0 0 0 0 0 0 0 0 0 
Heartbeat_Variant_0_evicts 0 : 5671 1 : 84 2 : 88 3 : 0 
Heartbeat_Variant_1_evicts 0 : 91 1 : 0 2 : 257 3 : 0 
Heartbeat_Variant_2_evicts 0 : 88 1 : 260 2 : 0 3 : 0 
Heartbeat_Variant_3_evicts 0 : 0 1 : 0 2 : 0 3 : 0 
Heartbeat CPU 0 instructions: 50000000 cycles: 13982305 heartbeat IPC: 3.57399 cumulative IPC: 3.57595 (Simulation time: 0 hr 6 min 15 sec) 

Warmup complete CPU 0 instructions: 50000004 cycles: 13982306 (Simulation time: 0 hr 6 min 15 sec) 

Cycle: 20000000 FTQ IN: 55502667 FTQ occupancy: 16.0257 DECODE IN: 55502649 DECODE occupancy: 9.52043 ROB IN: 55502637 ROB occupancy: 260.596 ROB OUT: 55502285
Heartbeat_Variant_0 : 1406 0.343262 per_variant_size: 0 1406 0 0 0 0 0 0 0 
Heartbeat_Variant_1 : 1284 0.313477 per_variant_size: 0 538 746 0 0 0 0 0 0 
Heartbeat_Variant_2 : 1362 0.33252 per_variant_size: 0 514 373 252 223 0 0 0 0 
Heartbeat_Variant_3 : 0 0 per_variant_size: 0 0 0 0 0 0 0 0 0 
Heartbeat_Variant_0_evicts 0 : 5842 1 : 321 2 : 311 3 : 0 
Heartbeat_Variant_1_evicts 0 : 312 1 : 0 2 : 492 3 : 0 
Heartbeat_Variant_2_evicts 0 : 298 1 : 489 2 : 0 3 : 0 
Heartbeat_Variant_3_evicts 0 : 0 1 : 0 2 : 0 3 : 0 
Heartbeat CPU 0 instructions: 60000001 cycles: 25048383 heartbeat IPC: 0.903663 cumulative IPC: 0.903662 (Simulation time: 0 hr 7 min 29 sec) 
Cycle: 30000000 FTQ IN: 9086808 FTQ occupancy: 15.259 DECODE IN: 9086826 DECODE occupancy: 4.92193 ROB IN: 9086838 ROB occupancy: 55.8164 ROB OUT: 9087154
Heartbeat_Variant_0 : 1406 0.343262 per_variant_size: 0 1406 0 0 0 0 0 0 0 
Heartbeat_Variant_1 : 1281 0.312744 per_variant_size: 0 536 745 0 0 0 0 0 0 
Heartbeat_Variant_2 : 1367 0.33374 per_variant_size: 0 511 375 256 225 0 0 0 0 
Heartbeat_Variant_3 : 0 0 per_variant_size: 0 0 0 0 0 0 0 0 0 
Heartbeat_Variant_0_evicts 0 : 5699 1 : 29 2 : 39 3 : 0 
Heartbeat_Variant_1_evicts 0 : 29 1 : 0 2 : 229 3 : 0 
Heartbeat_Variant_2_evicts 0 : 40 1 : 232 2 : 0 3 : 0 
Heartbeat_Variant_3_evicts 0 : 0 1 : 0 2 : 0 3 : 0 
Heartbeat CPU 0 instructions: 70000001 cycles: 35802304 heartbeat IPC: 0.929893 cumulative IPC: 0.91659 (Simulation time: 0 hr 8 min 41 sec) 
Cycle: 40000000 FTQ IN: 9320213 FTQ occupancy: 15.3965 DECODE IN: 9320195 DECODE occupancy: 5.01561 ROB IN: 9320195 ROB occupancy: 57.9599 ROB OUT: 9320223
Heartbeat_Variant_0 : 1411 0.344482 per_variant_size: 0 1411 0 0 0 0 0 0 0 
Heartbeat_Variant_1 : 1279 0.312256 per_variant_size: 0 536 743 0 0 0 0 0 0 
Heartbeat_Variant_2 : 1366 0.333496 per_variant_size: 0 502 377 263 224 0 0 0 0 
Heartbeat_Variant_3 : 0 0 per_variant_size: 0 0 0 0 0 0 0 0 0 
Heartbeat_Variant_0_evicts 0 : 5619 1 : 48 2 : 66 3 : 0 
Heartbeat_Variant_1_evicts 0 : 42 1 : 0 2 : 268 3 : 0 
Heartbeat_Variant_2_evicts 0 : 67 1 : 265 2 : 0 3 : 0 
Heartbeat_Variant_3_evicts 0 : 0 1 : 0 2 : 0 3 : 0 
Heartbeat CPU 0 instructions: 80000000 cycles: 46734088 heartbeat IPC: 0.914764 cumulative IPC: 0.915981 (Simulation time: 0 hr 9 min 52 sec) 
Cycle: 50000000 FTQ IN: 9090273 FTQ occupancy: 15.4336 DECODE IN: 9090277 DECODE occupancy: 4.98337 ROB IN: 9090267 ROB occupancy: 57.9221 ROB OUT: 9090263
Heartbeat_Variant_0 : 1414 0.345215 per_variant_size: 0 1414 0 0 0 0 0 0 0 
Heartbeat_Variant_1 : 1280 0.3125 per_variant_size: 0 539 741 0 0 0 0 0 0 
Heartbeat_Variant_2 : 1367 0.33374 per_variant_size: 0 499 381 265 222 0 0 0 0 
Heartbeat_Variant_3 : 0 0 per_variant_size: 0 0 0 0 0 0 0 0 0 
Heartbeat_Variant_0_evicts 0 : 5580 1 : 38 2 : 47 3 : 0 
Heartbeat_Variant_1_evicts 0 : 36 1 : 0 2 : 226 3 : 0 
Heartbeat_Variant_2_evicts 0 : 48 1 : 224 2 : 0 3 : 0 
Heartbeat_Variant_3_evicts 0 : 0 1 : 0 2 : 0 3 : 0 
Heartbeat CPU 0 instructions: 90000003 cycles: 57566286 heartbeat IPC: 0.923174 cumulative IPC: 0.917768 (Simulation time: 0 hr 11 min 3 sec) 
Cycle: 60000000 FTQ IN: 9250355 FTQ occupancy: 15.3953 DECODE IN: 9250351 DECODE occupancy: 4.98808 ROB IN: 9250361 ROB occupancy: 56.8437 ROB OUT: 9250251
Heartbeat_Variant_0 : 1409 0.343994 per_variant_size: 0 1409 0 0 0 0 0 0 0 
Heartbeat_Variant_1 : 1281 0.312744 per_variant_size: 0 558 723 0 0 0 0 0 0 
Heartbeat_Variant_2 : 1372 0.334961 per_variant_size: 0 512 377 268 215 0 0 0 0 
Heartbeat_Variant_3 : 0 0 per_variant_size: 0 0 0 0 0 0 0 0 0 
Heartbeat_Variant_0_evicts 0 : 5677 1 : 60 2 : 64 3 : 0 
Heartbeat_Variant_1_evicts 0 : 68 1 : 0 2 : 245 3 : 0 
Heartbeat_Variant_2_evicts 0 : 61 1 : 252 2 : 0 3 : 0 
Heartbeat_Variant_3_evicts 0 : 0 1 : 0 2 : 0 3 : 0 
Heartbeat CPU 0 instructions: 100000002 cycles: 68466567 heartbeat IPC: 0.917407 cumulative IPC: 0.917696 (Simulation time: 0 hr 12 min 17 sec) 
Finished CPU 0 instructions: 50000002 cycles: 54484262 cumulative IPC: 0.917696 (Simulation time: 0 hr 12 min 17 sec) 

ChampSim completed all CPUs

Region of Interest Statistics

CPU 0 cumulative IPC: 0.917696 instructions: 50000002 cycles: 54484262
 Fetch stage stalled: 21.9446  Sim cycles: 54484262 fetch stall cycle: 11956355
 Empty decode stage: 68.2924  Sim cycles: 54484262 fetch stall cycle: 37208601
ITLB TOTAL     ACCESS:    7278885  HIT:    6785864  MISS:     493021  HIT %:    93.2267  MISS %:     6.7733   MPKI: 9.86042
ITLB LOAD TRANSLATION INSTRUCTION	ACCESS:    7278885  HIT:    6785864  MISS:     493021  HIT %:    93.2267  MISS %:     6.7733  MPKI: 9.86042

ITLB AVERAGE MISS LATENCY: 9.05988 cycles
ITLB RQ	ACCESS:    8349678	FORWARD:          0	MERGED:     864384	TO_CACHE:    7485294

DTLB TOTAL     ACCESS:   10187668  HIT:    9709400  MISS:     478268  HIT %:    95.3054  MISS %:    4.69458   MPKI: 9.56536
DTLB LOAD TRANSLATION DATA	ACCESS:   10187668  HIT:    9709400  MISS:     478268  HIT %:    95.3054  MISS %:    4.69458  MPKI: 9.56536

DTLB AVERAGE MISS LATENCY: 9.30674 cycles
DTLB RQ	ACCESS:   14327457	FORWARD:          0	MERGED:    4108439	TO_CACHE:   10219018

STLB TOTAL     ACCESS:    1231662  HIT:    1229603  MISS:       2059  HIT %:    99.8328  MISS %:   0.167172   MPKI: 0.04118
STLB LOAD TRANSLATION INSTRUCTION	ACCESS:     493021  HIT:     492745  MISS:        276  HIT %:     99.944  MISS %:  0.0559814  MPKI: 0.00552
STLB LOAD TRANSLATION DATA	ACCESS:     478230  HIT:     476460  MISS:       1770  HIT %:    99.6299  MISS %:   0.370115  MPKI: 0.0354
STLB TRANSLATION FROM L1D PREFETCHER DATA	ACCESS:     260411  HIT:     260398  MISS:         13  HIT %:     99.995  MISS %: 0.00499211  MPKI: 0.00026

STLB AVERAGE MISS LATENCY: 76.3876 cycles
STLB RQ	ACCESS:    1363610	FORWARD:          0	MERGED:     131919	TO_CACHE:    1231691

STLB Hit, L1D data hit: 0
STLB Hit, L2C data hit: 0
STLB Hit, LLC data hit: 0
STLB Hit, LLC data miss: 0
STLB STLB hints to L2: 0
L1D TOTAL     ACCESS:   14112102  HIT:   12965795  MISS:    1146307  HIT %:    91.8771  MISS %:    8.12287   MPKI: 22.9261
L1D LOAD DATA	ACCESS:    7502381  HIT:    6746686  MISS:     755695  HIT %:    89.9273  MISS %:    10.0727  MPKI: 15.1139
L1D RFO DATA	ACCESS:    6274203  HIT:    5985343  MISS:     288860  HIT %:    95.3961  MISS %:    4.60393  MPKI: 5.7772
L1D PREFETCH DATA	ACCESS:     335518  HIT:     233766  MISS:     101752  HIT %:    69.6732  MISS %:    30.3268  MPKI: 2.03504

L1D PREFETCH  REQUESTED:     784723  ISSUED:     784723  USEFUL:      44690  USELESS:      68985
L1D USEFUL LOAD PREFETCHES:      44690 PREFETCH ISSUED TO LOWER LEVEL:     113702  ACCURACY: 39.3045
 TIMELY PREFETCHES:      44690 LATE PREFETCHES: 11901 DROPPED PREFETCHES: 3
L1D AVERAGE MISS LATENCY: 434159 cycles
L1D RQ	ACCESS:   11340962	FORWARD:          0	MERGED:    3648137	TO_CACHE:    7536724
L1D WQ	ACCESS:    6921301	FORWARD:     156182	MERGED:     130568	TO_CACHE:    6790733
L1D PQ	ACCESS:     392402	FORWARD:          0	MERGED:          0	TO_CACHE:     392321

L1D UNIQUE REGIONS ACCESSED: 0
L1D REGIONS CONFLICTS: 0
L1D Cross Page Prefetch Requests: 5750
L1D Same Page Prefetch Requests: 788834
L1D ROI Sum of L1D PQ occupancy: 4986825
L1D PREFETCHES PUSHED FROM L2C: 0
L1I TOTAL     ACCESS:    7861537  HIT:    5106417  MISS:    2755120  HIT %:    64.9544  MISS %:    35.0456   MPKI: 55.1024
L1I LOAD INSTRUCTION	ACCESS:    7861537  HIT:    5106417  MISS:    2755120  HIT %:    64.9544  MISS %:    35.0456  MPKI: 55.1024

L1I AVERAGE MISS LATENCY: 17.4589 cycles
L1I RQ	ACCESS:   15761581	FORWARD:          0	MERGED:    7411903	TO_CACHE:    8349678

L1BTB TOTAL     ACCESS:    5676377  HIT:    2059302  MISS:    3617075  HIT %:    36.2785  MISS %:    63.7215   MPKI: 72.3415
L1BTB BRANCH_DIRECT_JUMP	ACCESS:     546038  HIT:     143447  MISS:     402591	AVERAGE STALL: 22.5217
L1BTB BRANCH_INDIRECT	ACCESS:     181869  HIT:      65565  MISS:     116304	AVERAGE STALL: 49.3619
L1BTB BRANCH_CONDITIONAL	ACCESS:    2723046  HIT:    1434457  MISS:    1288589	AVERAGE STALL: 30.4306
L1BTB BRANCH_DIRECT_CALL	ACCESS:     941171  HIT:     105059  MISS:     836112	AVERAGE STALL: 37.8684
L1BTB BRANCH_INDIRECT_CALL	ACCESS:     171553  HIT:      21589  MISS:     149964	AVERAGE STALL: 67.0866
L1BTB BRANCH_RETURN	ACCESS:    1112700  HIT:     289185  MISS:     823515	AVERAGE STALL: 33.209
L1BTB BRANCH_OTHER ACCESS:          0  HIT:          0  MISS:          0	AVERAGE STALL: -nan
L1BTB TOTAL ROB OCCUPANCY AT BTB MISS: 0.707

L2BTB TOTAL     ACCESS:    3591733  HIT:    3520884  MISS:      70849  HIT %:    98.0274  MISS %:    1.97256   MPKI: 1.41698
L2BTB BRANCH_DIRECT_JUMP	ACCESS:     398442  HIT:     392583  MISS:       5859	AVERAGE STALL: 22.5217
L2BTB BRANCH_INDIRECT	ACCESS:     106028  HIT:     103388  MISS:       2640	AVERAGE STALL: 49.3619
L2BTB BRANCH_CONDITIONAL	ACCESS:    1288589  HIT:    1282913  MISS:       5676	AVERAGE STALL: 30.4306
L2BTB BRANCH_DIRECT_CALL	ACCESS:     836112  HIT:     834357  MISS:       1755	AVERAGE STALL: 37.8684
L2BTB BRANCH_INDIRECT_CALL	ACCESS:     140452  HIT:     130181  MISS:      10271	AVERAGE STALL: 67.0866
L2BTB BRANCH_RETURN	ACCESS:     822110  HIT:     777462  MISS:      44648	AVERAGE STALL: 33.209
L2BTB BRANCH_OTHER ACCESS:          0  HIT:          0  MISS:          0	AVERAGE STALL: -nan
L2BTB TOTAL ROB OCCUPANCY AT BTB MISS: 36.0947

L2C TOTAL     ACCESS:    4518102  HIT:    3990039  MISS:     528063  HIT %:    88.3123  MISS %:    11.6877   MPKI: 10.5613
L2C LOAD INSTRUCTION	ACCESS:    2755120  HIT:    2456622  MISS:     298498  HIT %:    89.1657  MISS %:    10.8343  MPKI: 5.96996
L2C LOAD TRANSLATION INSTRUCTION	ACCESS:        322  HIT:         68  MISS:        254  HIT %:     21.118  MISS %:     78.882  MPKI: 0.00508
L2C LOAD DATA	ACCESS:     743778  HIT:     665888  MISS:      77890  HIT %:    89.5278  MISS %:    10.4722  MPKI: 1.5578
L2C RFO DATA	ACCESS:     288801  HIT:     230361  MISS:      58440  HIT %:    79.7646  MISS %:    20.2354  MPKI: 1.1688
L2C PREFETCH DATA	ACCESS:     203711  HIT:     130574  MISS:      73137  HIT %:    64.0977  MISS %:    35.9023  MPKI: 1.46274
L2C WRITEBACK DATA	ACCESS:     524466  HIT:     506023  MISS:      18443  HIT %:    96.4835  MISS %:    3.51653  MPKI: 0.36886
L2C LOAD TRANSLATION DATA	ACCESS:       1884  HIT:        487  MISS:       1397  HIT %:    25.8493  MISS %:    74.1507  MPKI: 0.02794
L2C TRANSLATION FROM L1D PREFETCHER DATA	ACCESS:         20  HIT:         16  MISS:          4  HIT %:         80  MISS %:         20  MPKI: 8e-05

L2C PREFETCH  REQUESTED:      97886  ISSUED:      97886  USEFUL:       8220  USELESS:      65670
L2C USEFUL LOAD PREFETCHES:       8220 PREFETCH ISSUED TO LOWER LEVEL:      73763  ACCURACY: 11.1438
 TIMELY PREFETCHES:       8220 LATE PREFETCHES: 626 DROPPED PREFETCHES: 0
L2C AVERAGE MISS LATENCY: 37.6661 cycles
L2C RQ	ACCESS:    3789949	FORWARD:          0	MERGED:          0	TO_CACHE:    3789924
L2C WQ	ACCESS:     524466	FORWARD:         25	MERGED:          0	TO_CACHE:     524466
L2C PQ	ACCESS:     211588	FORWARD:          0	MERGED:       3873	TO_CACHE:     207715

L2C Dense regions hint from L2: 0
PSCL5 TOTAL     ACCESS:       4124  HIT:       2062  MISS:       2062  HIT %:         50  MISS %:         50   MPKI: 0.04124
PSCL5 LOAD TRANSLATION INSTRUCTION	ACCESS:       4086  HIT:       2043  MISS:       2043  HIT %:         50  MISS %:         50  MPKI: 0.04086
PSCL5 TRANSLATION FROM L1D PREFETCHER INSTRUCTION	ACCESS:         38  HIT:         19  MISS:         19  HIT %:         50  MISS %:         50  MPKI: 0.00038


PSCL4 TOTAL     ACCESS:       3905  HIT:       1945  MISS:       1960  HIT %:    49.8079  MISS %:    50.1921   MPKI: 0.0392
PSCL4 LOAD TRANSLATION INSTRUCTION	ACCESS:       2839  HIT:       1926  MISS:        913  HIT %:    67.8408  MISS %:    32.1592  MPKI: 0.01826
PSCL4 TRANSLATION FROM L1D PREFETCHER INSTRUCTION	ACCESS:         29  HIT:         19  MISS:         10  HIT %:    65.5172  MISS %:    34.4828  MPKI: 0.0002
PSCL4 LOAD TRANSLATION DATA	ACCESS:       1028  HIT:          0  MISS:       1028  HIT %:          0  MISS %:        100  MPKI: 0.02056
PSCL4 TRANSLATION FROM L1D PREFETCHER DATA	ACCESS:          9  HIT:          0  MISS:          9  HIT %:          0  MISS %:        100  MPKI: 0.00018


PSCL3 TOTAL     ACCESS:       4021  HIT:       2003  MISS:       2018  HIT %:    49.8135  MISS %:    50.1865   MPKI: 0.04036
PSCL3 LOAD TRANSLATION INSTRUCTION	ACCESS:       2897  HIT:       1984  MISS:        913  HIT %:    68.4846  MISS %:    31.5154  MPKI: 0.01826
PSCL3 TRANSLATION FROM L1D PREFETCHER INSTRUCTION	ACCESS:         29  HIT:         19  MISS:         10  HIT %:    65.5172  MISS %:    34.4828  MPKI: 0.0002
PSCL3 LOAD TRANSLATION DATA	ACCESS:       1086  HIT:          0  MISS:       1086  HIT %:          0  MISS %:        100  MPKI: 0.02172
PSCL3 TRANSLATION FROM L1D PREFETCHER DATA	ACCESS:          9  HIT:          0  MISS:          9  HIT %:          0  MISS %:        100  MPKI: 0.00018


PSCL2 TOTAL     ACCESS:       3989  HIT:       1927  MISS:       2062  HIT %:    48.3078  MISS %:    51.6922   MPKI: 0.04124
PSCL2 LOAD TRANSLATION INSTRUCTION	ACCESS:       2202  HIT:       1909  MISS:        293  HIT %:    86.6939  MISS %:    13.3061  MPKI: 0.00586
PSCL2 TRANSLATION FROM L1D PREFETCHER INSTRUCTION	ACCESS:         18  HIT:         18  MISS:          0  HIT %:        100  MISS %:          0  MPKI: 0
PSCL2 LOAD TRANSLATION DATA	ACCESS:       1751  HIT:          0  MISS:       1751  HIT %:          0  MISS %:        100  MPKI: 0.03502
PSCL2 TRANSLATION FROM L1D PREFETCHER DATA	ACCESS:         18  HIT:          0  MISS:         18  HIT %:          0  MISS %:        100  MPKI: 0.00036


LLC TOTAL     ACCESS:     592172  HIT:     562779  MISS:      29393  HIT %:    95.0364  MISS %:    4.96359   MPKI: 0.58786
LLC LOAD INSTRUCTION	ACCESS:     298498  HIT:     297383  MISS:       1115  HIT %:    99.6265  MISS %:   0.373537  MPKI: 0.0223
LLC LOAD TRANSLATION INSTRUCTION	ACCESS:        254  HIT:        212  MISS:         42  HIT %:    83.4646  MISS %:    16.5354  MPKI: 0.00084
LLC LOAD DATA	ACCESS:      77271  HIT:      73612  MISS:       3659  HIT %:    95.2647  MISS %:    4.73528  MPKI: 0.07318
LLC RFO DATA	ACCESS:      58433  HIT:      44210  MISS:      14223  HIT %:    75.6593  MISS %:    24.3407  MPKI: 0.28446
LLC PREFETCH DATA	ACCESS:      73763  HIT:      63860  MISS:       9903  HIT %:    86.5746  MISS %:    13.4254  MPKI: 0.19806
LLC WRITEBACK DATA	ACCESS:      82552  HIT:      82185  MISS:        367  HIT %:    99.5554  MISS %:   0.444568  MPKI: 0.00734
LLC LOAD TRANSLATION DATA	ACCESS:       1397  HIT:       1313  MISS:         84  HIT %:    93.9871  MISS %:    6.01288  MPKI: 0.00168
LLC TRANSLATION FROM L1D PREFETCHER DATA	ACCESS:          4  HIT:          4  MISS:          0  HIT %:        100  MISS %:          0  MPKI: 0

LLC AVERAGE MISS LATENCY: 155.186 cycles
LLC RQ	ACCESS:     435857	FORWARD:          0	MERGED:          0	TO_CACHE:     435857
LLC WQ	ACCESS:      82552	FORWARD:          0	MERGED:          0	TO_CACHE:      82552
LLC PQ	ACCESS:      73763	FORWARD:          0	MERGED:          0	TO_CACHE:      73763

LLC Dense regions hint to LLC: 0

RAW hits: 1273681
Loads Generated: 12614643
Loads sent to L1D: 11340962
Stores Generated: 6921284
Stores sent to L1D: 6921301
Major fault: 0 Minor fault: 2641
Allocated PAGES: 2641

stream: 
stream:times selected: 1230712
stream:pref_filled: 125761
stream:pref_useful: 29089
stream:pref_late: 7455
stream:misses: 7942
stream:misses_by_poll: 0

CS: 
CS:times selected: 192050
CS:pref_filled: 71501
CS:pref_useful: 47226
CS:pref_late: 8392
CS:misses: 21298
CS:misses_by_poll: 6

CPLX: 
CPLX:times selected: 1037614
CPLX:pref_filled: 23777
CPLX:pref_useful: 6976
CPLX:pref_late: 4414
CPLX:misses: 118669
CPLX:misses_by_poll: 0

NL_L1: 
NL:times selected: 12149
NL:pref_filled: 1503
NL:pref_useful: 294
NL:pref_late: 144
NL:misses: 1377
NL:misses_by_poll: 0

total selections: 2472525
total_filled: 101752
total_useful: 44690
total_late: 22129
total_polluted: 6
total_misses_after_warmup: 790038
conflicts: 5936796

test: 119145

DRAM Statistics
 CHANNEL 0
 RQ ROW_BUFFER_HIT:      10924  ROW_BUFFER_MISS:      18092
 DBUS_CONGESTED:          2
 WQ ROW_BUFFER_HIT:       1547  ROW_BUFFER_MISS:      12579  FULL:          0

 AVG_CONGESTED_CYCLE: 4

CPU 0 Branch Prediction Accuracy: 99.8213% MPKI: 0.32708 Average ROB Occupancy at Mispredict: 75.3185
Branch types
NOT_BRANCH: 40846492 81.693%
BRANCH_DIRECT_JUMP: 546038 1.09208%
BRANCH_INDIRECT: 181869 0.363738%
BRANCH_CONDITIONAL: 6199852 12.3997%
BRANCH_DIRECT_CALL: 941171 1.88234%
BRANCH_INDIRECT_CALL: 171553 0.343106%
BRANCH_RETURN: 1112700 2.2254%
BRANCH_OTHER: 0 0%

DRAM PAGES: 1048576
Allocated PAGES: 2641
Average_ROB_Occupancy: 58.4105
Average_Decode_Occupancy: 4.97809
Average_FTQ_Occupancy: 15.3657
Indirect max targets: 14 Average targets: 1.17445
Branch_type:  BRANCH_DIRECT_JUMP:  Count Percentage: 3.30547 6.32296 3.6662 7.38011 3.46413 6.02123 1.59466 68.2452 
Branch_type:  BRANCH_INDIRECT:  Count Percentage: 6.14916 3.48055 8.1631 9.6621 3.34687 2.81024 3.88213 62.5058 
Branch_type:  BRANCH_CONDITIONAL:  Count Percentage: 25.4888 3.08377 1.42264 4.45946 2.484 3.94463 2.27458 56.8421 
Branch_type:  BRANCH_DIRECT_CALL:  Count Percentage: 0.388825 1.27653 0.72773 3.53498 3.54818 2.62093 3.16808 84.7347 
Branch_type:  BRANCH_INDIRECT_CALL:  Count Percentage: 9.5639 0 2.99891 0.00263396 0.901107 1.71646 4.99516 79.8218 
Branch_type:  BRANCH_RETURN:  Count Percentage: 8.27087 1.10028 1.0315 3.5248 4.50714 4.19308 2.7826 74.5897 
Branch_type:  BRANCH_DIRECT_JUMP:  Total Count: 36086 69028 40024 80569 37818 65734 17409 745036 
Branch_type:  BRANCH_INDIRECT:  Total Count: 22402 12680 29739 35200 12193 10238 14143 227715 
Branch_type:  BRANCH_CONDITIONAL:  Total Count: 3159611 382266 176351 552797 307918 488979 281958 7046181 
Branch_type:  BRANCH_DIRECT_CALL:  Total Count: 7306 23986 13674 66422 66670 49247 59528 1592160 
Branch_type:  BRANCH_INDIRECT_CALL:  Total Count: 32679 0 10247 9 3079 5865 17068 272744 
Branch_type:  BRANCH_RETURN:  Total Count: 183739 24443 22915 78304 100127 93150 61816 1657025 
Number of unique branch instructions: 10640
Upper 32 bits: 
aaaa
ffff
ffff0000
Unique upper 32 bits: 3
Unique upper 36 bits: 3
Unique upper 40 bits: 5
Unique upper 44 bits: 32
Unique upper 48 bits: 160
Variant_0 : 1409 0.343994
Variant_1 : 1281 0.312744
Variant_2 : 1372 0.334961
Variant_3 : 0 0
Offset_3 4390
Offset_4 270
Offset_5 480
Offset_6 533
Offset_7 625
Offset_8 567
Offset_9 515
Offset_10 419
Offset_11 332
Offset_12 303
Offset_13 227
Offset_14 234
Offset_15 194
Offset_16 226
Offset_17 163
Offset_18 144
Offset_19 256
Offset_20 143
Offset_21 261
Offset_22 400
Offset_23 241
Offset_24 362
Offset_25 114
Offset_47 96
Offset_64 1
decode_dispatch_called: 29339823 53.8501
Dispatch_width: 0 17260491 58.8296 31.6798
Dispatch_width: 1 2194163 7.47845 4.02715
Dispatch_width: 2 1186314 4.04336 2.17735
Dispatch_width: 3 1091976 3.72182 2.0042
Dispatch_width: 4 1126660 3.84004 2.06786
Dispatch_width: 5 1231007 4.19569 2.25938
Dispatch_width: 6 5249212 17.8911 9.63436
Empty_decode_cycles: 25144439 46.1499
ROB_full_cycles: 560307 1.02838
Starvation_cycles_per_kilo_instr: 486.747
Starvation_cycles_per_kilo_instr_3: 463.171
Starvation_cycles_per_kilo_instr_0: 418.446
Branch_type_1  (3,1)  (4,10)  (5,41)  (6,73)  (7,124)  (8,146)  (9,138)  (10,109)  (11,74)  (12,47)  (13,11)  (14,2)  (15,3)  (16,4)  (18,1)  (19,5)  (20,2)  (21,1)  (22,3)  (23,2)  (24,11)  (25,12) 
Branch_type_2  (3,1)  (4,1)  (5,1)  (8,4)  (9,4)  (10,1)  (12,1)  (13,1)  (14,1)  (16,3)  (17,2)  (20,2)  (21,2)  (23,5)  (24,1)  (47,44) 
Branch_type_3  (3,4388)  (4,259)  (5,434)  (6,444)  (7,470)  (8,351)  (9,282)  (10,169)  (11,128)  (12,54)  (13,10)  (64,1) 
Branch_type_4  (6,3)  (7,8)  (8,25)  (9,57)  (10,66)  (11,68)  (12,110)  (13,96)  (14,105)  (15,92)  (16,99)  (17,76)  (18,61)  (19,123)  (20,73)  (21,141)  (22,209)  (23,136)  (24,208)  (25,98) 
Branch_type_5  (8,3)  (9,1)  (10,4)  (11,5)  (12,3)  (13,14)  (14,16)  (15,11)  (16,22)  (17,11)  (18,23)  (19,15)  (20,12)  (21,13)  (22,43)  (23,26)  (24,42) 
Branch_type_6  (5,4)  (6,13)  (7,23)  (8,38)  (9,33)  (10,70)  (11,57)  (12,88)  (13,95)  (14,110)  (15,88)  (16,98)  (17,74)  (18,59)  (19,113)  (20,54)  (21,104)  (22,145)  (23,72)  (24,100)  (25,4)  (47,52) 
Unique trigger count: 
Variant_0_evicts_0 : 0
Variant_0_evicts_1 : 0
Variant_0_evicts_2 : 0
Variant_0_evicts_3 : 0
Variant_1_evicts_0 : 0
Variant_1_evicts_1 : 0
Variant_1_evicts_2 : 0
Variant_1_evicts_3 : 0
Variant_2_evicts_0 : 0
Variant_2_evicts_1 : 0
Variant_2_evicts_2 : 0
Variant_2_evicts_3 : 0
Variant_3_evicts_0 : 0
Variant_3_evicts_1 : 0
Variant_3_evicts_2 : 0
Variant_3_evicts_3 : 0
BTB PER SET UNIQUE ADDR: 17 16 9 13 16 13 8 15 13 16 14 19 18 10 11 11 8 11 10 9 13 10 9 13 12 12 11 10 13 11 17 12 15 9 8 12 10 16 9 11 13 10 14 13 10 9 21 10 11 8 20 12 10 16 13 6 17 11 14 6 10 13 10 13 10 17 10 11 14 18 14 13 19 9 16 8 6 16 12 13 15 5 11 19 14 20 13 9 13 21 9 8 16 10 6 13 6 7 16 17 14 16 17 11 15 11 11 16 8 12 9 20 14 12 12 6 12 11 12 16 15 10 13 14 13 12 8 7 13 12 11 15 11 10 12 19 12 13 15 18 12 15 15 9 13 9 17 8 9 13 18 16 13 15 14 17 16 16 16 16 16 11 14 17 9 14 13 11 16 11 13 10 11 15 9 9 16 13 14 14 9 14 14 11 13 14 8 12 8 15 16 14 11 15 19 13 8 11 14 16 13 11 10 7 9 11 14 16 11 14 11 15 9 11 9 17 14 9 13 16 7 14 9 12 10 11 18 16 8 17 9 7 13 17 11 16 12 11 13 7 15 15 17 14 9 10 14 6 11 12 18 9 14 14 19 14 13 11 9 6 12 10 6 11 12 4 11 11 9 11 10 13 8 7 8 9 12 20 15 9 9 14 8 11 15 10 10 19 24 17 9 13 12 16 7 18 10 12 13 13 10 12 9 16 18 20 16 9 14 11 12 17 9 15 12 7 18 17 12 17 12 12 14 15 17 14 14 8 10 6 13 12 11 11 8 13 10 13 11 20 11 13 10 11 17 11 10 12 9 13 12 11 14 17 13 10 13 13 11 8 12 16 11 15 11 10 10 12 20 12 12 5 15 11 9 10 13 14 12 12 15 12 13 9 11 12 16 15 13 14 17 10 15 20 10 9 11 14 18 9 11 17 14 15 21 13 12 17 16 13 13 10 8 20 13 13 15 13 22 24 9 15 14 11 13 8 14 14 14 16 17 12 6 8 10 13 13 11 11 10 11 13 9 13 20 6 10 10 17 12 17 13 15 9 15 19 20 9 14 21 12 12 15 15 23 12 12 12 14 15 11 16 15 12 13 14 9 18 10 14 15 16 15 19 9 12 11 13 17 16 11 17 7 11 8 11 16 15 13 8 9 18 14 20 6 11 7 21 17 15 13 18 11 8 12 15 12 16 8 12 13 13 13 11 7 18 18 7 13 21 9 19 12 13 10 15 6 12 18 15 15 12 20 12 21 18 11 11 7 10 17 14 14 11 10 14 14 17 16 13 17 15 14 14 13 16 12 16 17 11 16 14 10 18 13 12 15 10 16 13 12 13 10 10 15 9 14 13 17 19 9 13 10 8 19 10 10 10 14 13 9 13 11 11 8 14 19 13 12 10 21 19 10 12 5 15 15 9 13 13 16 15 7 9 13 13 7 18 10 12 10 12 11 16 9 11 16 13 10 16 12 10 15 13 16 14 13 13 17 13 9 15 12 14 13 10 13 11 15 14 8 6 12 18 13 12 8 12 8 13 12 13 13 16 18 9 19 14 14 11 12 17 12 16 16 14 11 10 16 13 17 14 14 10 8 11 8 13 11 13 8 12 16 19 11 13 9 8 13 10 11 13 11 11 10 13 13 9 13 11 11 11 14 15 16 12 12 8 9 12 17 13 18 8 7 15 18 16 17 12 13 15 18 14 13 14 11 10 9 10 15 11 16 15 12 13 16 7 11 11 13 9 9 12 13 16 13 12 13 18 15 18 7 7 11 10 13 10 15 18 8 11 11 12 13 15 11 11 12 8 9 7 16 14 16 14 9 14 14 11 21 15 21 15 16 13 6 15 16 16 13 19 14 13 9 14 13 17 9 18 12 22 13 15 13 17 11 9 16 11 10 17 16 11 14 10 13 15 11 10 15 12 8 10 14 19 15 13 12 9 13 12 8 16 12 18 17 12 14 17 10 16 13 15 18 11 12 9 19 12 11 12 15 11 17 8 14 8 12 12 14 9 16 14 19 13 15 13 14 15 14 9 13 12 11 17 18 10 11 12 14 12 12 20 10 8 15 15 14 17 11 18 15 14 11 15 18 17 14 14 10 12 10 5 8 11 7 10 15 10 15 16 17 15 9 15 12 11 17 14 13 14 15 14 13 13 17 16 8 17 16 15 11 16 11 16 15 12 15 11 15 17 10 17 13 15 13 16 13 16 20 17 14 9 19 14 15 13 18 15 14 15 11 11 10 13 13 15 12 12 17 12 12 17 9 12 6 11 14 15 17 16 12 13 20 16 12 14 10 15 14 17 17 9 13 16 8 11 8 8 13 14 12 12 
BTB PER SET COUNT: 22 20 1958 16 26 20 8 663 835 24 16 27 20503 15 16 14 984 12 14 13 22 11 763 17 16 13 18 337 181 16 27 16 19 11 18 21 11 50 11 15 19 16 17 18 13 11 31 13 19 10 30 17 17 26 14 6 19 13 67 6 11 21 35 18 12 135 11 1539 18 28 28 389 38 11 25 9 6 30 23 17 836 5 14 32 17 716 20 12 17 40 125 824 290 420 8 14 275 8 25 6642 15 381 25 13 1494 13 17 22 13 20 11 31 68 16 19 8 19 13 1325 567 24 14 22 20 19 22 11 8 19 937 14 25 15 14 72 31 443 17 19 25 12 21 27 12 18 406 742 10 14 201 30 177 1363 29 15 24 377 19 26 1602 22 175 19 30 13 33 20 14 20 657 21 13 17 18 14 12 32 17 1339 114 11 184 18 17 106 21 10 21 10 1510 23 18 13 21 31 32 15 139 18 261 21 16 636 8 14 13 17 227 14 69 17 19 14 18 9 373 16 11 2585 33 8 23 12 17 12 21 29 30 397 24 13 7 25 27 1391 25 13 16 695 8 624 23 32 18 13 17 17 9 15 18 28 10 22 23 23 24 30 24 14 9 49 14 6 17 15 4 13 21 472 14 16 94 9 9 980 9 16 35 21 15 13 37 11 13 15 10 11 32 30 29 10 16 17 702 7 22 10 16 18 33 16 13 12 20 25 30 33 16 75 35 14 19 14 25 1644 7 23 51 17 27 12 1181 19 22 638 33 233 14 14 6 18 16 14 20 10 27 19 883 13 23 17 854 12 121 37 14 11 21 12 19 17 18 19 32 20 12 17 18 365 10 15 26 15 21 14 376 13 19 31 18 19 371 29 15 977 17 19 20 21 1484 1400 13 988 12 13 14 1407 22 29 484 320 11 24 943 11 133 18 23 24 9 13 25 20 20 41 21 14 364 22 19 589 13 8 946 20 15 24 48 39 35 13 29 25 18 17 9 22 24 22 21 30 21 8 10 214 18 17 14 13 13 1238 17 25 19 891 6 161 11 22 15 133 1911 23 14 224 338 33 11 18 40 18 16 19 17 44 17 25 20 20 28 19 25 20 22 19 45 9 25 11 19 27 834 20 29 13 994 16 19 19 20 14 26 9 13 9 14 1137 31 19 8 17 26 17 25 9 16 7 43 33 18 173 711 16 163 12 19 15 21 12 18 17 16 21 443 11 30 21 8 17 891 12 60 17 19 15 124 7 992 25 19 16 15 22 15 31 463 16 13 8 865 21 21 428 1001 14 24 25 20 29 14 19 29 22 21 766 21 141 26 26 12 40 23 15 30 2451 16 24 14 19 16 20 17 15 4260 17 14 21 15 24 36 12 17 14 8 36 11 12 382 28 22 14 26 18 14 10 18 34 1402 15 16 26 339 18 17 7 19 172 11 17 59 22 22 13 987 20 15 13 266 10 12 11 23 25 29 15 13 19 994 13 183 16 13 25 19 30 142 991 15 911 20 10 22 18 24 33 500 16 14 30 536 8 6 12 28 894 20 10 563 848 30 16 20 382 24 28 10 26 23 18 13 18 26 14 34 22 21 21 15 24 17 28 18 22 10 2019 12 9 2887 22 17 738 28 922 27 15 20 12 15 17 14 15 425 975 11 18 119 175 16 16 345 13 30 22 1166 2819 19 17 12 12 15 20 18 136 114 9 1005 1000 33 124 14 1154 19 993 62 643 16 1200 12 9 10 1488 15 580 1151 1777 17 28 9 18 14 20 12 9 241 599 22 17 531 17 30 92 28 8 7 16 13 16 11 19 26 755 15 138 18 19 47 20 19 20 11 11 948 19 21 139 18 10 25 17 360 122 19 631 353 21 13 9 18 28 52 16 2002 21 15 12 953 13 1552 11 383 14 809 29 24 19 19 15 9 24 22 15 39 21 17 159 1931 14 436 986 15 20 16 12 10 247 25 21 19 13 14650 22 207 26 25 1475 26 32 17 21 19 11 24 23 25 22 16 14 13 21 47 14 19 25 17 26 9 16 8 16 18 16 14 40 25 438 1158 22 19 20 17 19 16 838 17 16 36 28 15 708 17 37 12 12 242 11 9 21 20 27 394 19 521 26 22 19 21 687 26 28 24 17 12 14 5 10 14 12 12 25 14 36 25 764 20 12 468 13 20 28 20 18 60 21 19 20 23 115 27 11 22 141 58 1116 5652 15 20 19 14 152 19 24 26 766 27 17 22 1477 21 47 20 33 2337 14 10 436 20 21 18 25 317 21 19 13 987 19 18 24 70 13 17 28 25 18 27 14 17 6 1481 25 646 28 837 14 21 23 20 13 24 15 1001 307 86 22 11 15 27 10 78 10 8 24 21 18 15 
To predecode: 0
Predecoding something: 0
Predecode request dropped: 0
sizeofblock_0 0
sizeofblock_1 39865
sizeofblock_2 33135
sizeofblock_3 46934
sizeofblock_4 25413
sizeofblock_5 0
sizeofblock_6 0
sizeofblock_7 0
sizeofblock_8 0
Variant_0 Correct: 1605874 Incorrect: 0 Accuracy: 1
Variant_1 Correct: 2080406 Incorrect: 0 Accuracy: 1
Variant_2 Correct: 3624867 Incorrect: 0 Accuracy: 1
Variant_3 Correct: 0 Incorrect: 0 Accuracy: -nan
