
*** ChampSim Multicore Out-of-Order Simulator ***

Warmup Instructions: 50000000
Simulation Instructions: 50000000
Number of CPUs: 1
LLC sets: 2048
LLC ways: 16
Off-chip DRAM Size: 4096 MB Channels: 1 Width: 64-bit Data Rate: 6400 MT/s
CPU 0 runs ./micro_traces/srv633.trace.gz
.gz
ITLB has LRU replacement policy
DTLB has LRU replacement policy
STLB has LRU replacement policy
FDIP Prefetcher at L1I
L1I has LRU replacement policy
L1D has LRU replacement policy
Initialize SRRIP state for L2C
Initialize DRRIP state for LLC
Heartbeat CPU 0 instructions: 10000003 cycles: 2797110 heartbeat IPC: 3.57512 cumulative IPC: 3.57512 (Simulation time: 0 hr 3 min 3 sec) 
Heartbeat CPU 0 instructions: 20000000 cycles: 5594546 heartbeat IPC: 3.5747 cumulative IPC: 3.57491 (Simulation time: 0 hr 5 min 0 sec) 
Heartbeat CPU 0 instructions: 30000001 cycles: 8392404 heartbeat IPC: 3.57416 cumulative IPC: 3.57466 (Simulation time: 0 hr 6 min 50 sec) 
Heartbeat CPU 0 instructions: 40000000 cycles: 11187879 heartbeat IPC: 3.57721 cumulative IPC: 3.5753 (Simulation time: 0 hr 8 min 42 sec) 
Heartbeat CPU 0 instructions: 50000003 cycles: 13983800 heartbeat IPC: 3.57664 cumulative IPC: 3.57557 (Simulation time: 0 hr 10 min 34 sec) 

Warmup complete CPU 0 instructions: 50000003 cycles: 13983800 (Simulation time: 0 hr 10 min 34 sec) 

Cycle: 20000000 FTQ IN: 58310801 FTQ occupancy: 19.9389 DECODE IN: 58310759 DECODE occupancy: 51.7529 ROB IN: 58310759 ROB occupancy: 312.655 ROB OUT: 58310702
Heartbeat CPU 0 instructions: 60000002 cycles: 21308283 heartbeat IPC: 1.36528 cumulative IPC: 1.36528 (Simulation time: 0 hr 12 min 46 sec) 
Heartbeat CPU 0 instructions: 70000001 cycles: 28583679 heartbeat IPC: 1.3745 cumulative IPC: 1.36987 (Simulation time: 0 hr 14 min 51 sec) 
Cycle: 30000000 FTQ IN: 13646512 FTQ occupancy: 12.9414 DECODE IN: 13646455 DECODE occupancy: 32.4079 ROB IN: 13646395 ROB occupancy: 228.62 ROB OUT: 13646100
Heartbeat CPU 0 instructions: 80000001 cycles: 35834154 heartbeat IPC: 1.37922 cumulative IPC: 1.37298 (Simulation time: 0 hr 17 min 2 sec) 
Cycle: 40000000 FTQ IN: 13644987 FTQ occupancy: 12.9712 DECODE IN: 13645028 DECODE occupancy: 32.401 ROB IN: 13645028 ROB occupancy: 228.393 ROB OUT: 13645198
Heartbeat CPU 0 instructions: 90000003 cycles: 43195644 heartbeat IPC: 1.35842 cumulative IPC: 1.36931 (Simulation time: 0 hr 19 min 12 sec) 
Cycle: 50000000 FTQ IN: 13658332 FTQ occupancy: 12.9502 DECODE IN: 13658306 DECODE occupancy: 32.4906 ROB IN: 13658364 ROB occupancy: 228.314 ROB OUT: 13658198
Heartbeat CPU 0 instructions: 100000001 cycles: 50539808 heartbeat IPC: 1.36163 cumulative IPC: 1.36776 (Simulation time: 0 hr 21 min 19 sec) 
Finished CPU 0 instructions: 50000002 cycles: 36556009 cumulative IPC: 1.36776 (Simulation time: 0 hr 21 min 19 sec) 

ChampSim completed all CPUs

Region of Interest Statistics

CPU 0 cumulative IPC: 1.36776 instructions: 50000002 cycles: 36556009
 Fetch stage stalled: 52.5931  Sim cycles: 36556009 fetch stall cycle: 19225924
 Empty decode stage: 33.9115  Sim cycles: 36556009 fetch stall cycle: 12396678
ITLB TOTAL     ACCESS:    5748351  HIT:    5250713  MISS:     497638  HIT %:    91.3429  MISS %:    8.65706   MPKI: 9.95276
ITLB LOAD TRANSLATION INSTRUCTION	ACCESS:    5613502  HIT:    5115864  MISS:     497638  HIT %:     91.135  MISS %:    8.86502  MPKI: 9.95276
ITLB TRANSLATION FROM L1D PREFETCHER INSTRUCTION	ACCESS:     134849  HIT:     134849  MISS:          0  HIT %:        100  MISS %:          0  MPKI: 0

ITLB AVERAGE MISS LATENCY: 9.06865 cycles
ITLB RQ	ACCESS:    7825809	FORWARD:          0	MERGED:    1583873	TO_CACHE:    6241936

DTLB TOTAL     ACCESS:    8985097  HIT:    8509169  MISS:     475928  HIT %:    94.7031  MISS %:    5.29686   MPKI: 9.51856
DTLB LOAD TRANSLATION DATA	ACCESS:    8985097  HIT:    8509169  MISS:     475928  HIT %:    94.7031  MISS %:    5.29686  MPKI: 9.51856

DTLB AVERAGE MISS LATENCY: 9.32801 cycles
DTLB RQ	ACCESS:   13359890	FORWARD:          0	MERGED:    4336945	TO_CACHE:    9022945

STLB TOTAL     ACCESS:    1218331  HIT:    1216115  MISS:       2216  HIT %:    99.8181  MISS %:   0.181888   MPKI: 0.04432
STLB LOAD TRANSLATION INSTRUCTION	ACCESS:     497638  HIT:     497221  MISS:        417  HIT %:    99.9162  MISS %:  0.0837959  MPKI: 0.00834
STLB LOAD TRANSLATION DATA	ACCESS:     475928  HIT:     474157  MISS:       1771  HIT %:    99.6279  MISS %:   0.372115  MPKI: 0.03542
STLB TRANSLATION FROM L1D PREFETCHER DATA	ACCESS:     244765  HIT:     244737  MISS:         28  HIT %:    99.9886  MISS %:  0.0114395  MPKI: 0.00056

STLB AVERAGE MISS LATENCY: 72.0221 cycles
STLB RQ	ACCESS:    1335028	FORWARD:          0	MERGED:     116645	TO_CACHE:    1218383

STLB Hit, L1D data hit: 0
STLB Hit, L2C data hit: 0
STLB Hit, LLC data hit: 0
STLB Hit, LLC data miss: 0
STLB STLB hints to L2: 0
L1D TOTAL     ACCESS:   13097473  HIT:   11977286  MISS:    1120187  HIT %:    91.4473  MISS %:     8.5527   MPKI: 22.4037
L1D LOAD DATA	ACCESS:    6559200  HIT:    5820389  MISS:     738811  HIT %:    88.7363  MISS %:    11.2637  MPKI: 14.7762
L1D RFO DATA	ACCESS:    6215923  HIT:    5928316  MISS:     287607  HIT %:    95.3731  MISS %:    4.62694  MPKI: 5.75214
L1D PREFETCH DATA	ACCESS:     322350  HIT:     228581  MISS:      93769  HIT %:    70.9108  MISS %:    29.0892  MPKI: 1.87538

L1D PREFETCH  REQUESTED:     723306  ISSUED:     723306  USEFUL:      33990  USELESS:      67945
L1D USEFUL LOAD PREFETCHES:      33990 PREFETCH ISSUED TO LOWER LEVEL:     101985  ACCURACY: 33.3284
 TIMELY PREFETCHES:      33990 LATE PREFETCHES: 8174 DROPPED PREFETCHES: 16
L1D AVERAGE MISS LATENCY: 238404 cycles
L1D RQ	ACCESS:   10698326	FORWARD:          0	MERGED:    3935207	TO_CACHE:    6594723
L1D WQ	ACCESS:    6962760	FORWARD:     168778	MERGED:     197593	TO_CACHE:    6765167
L1D PQ	ACCESS:     361844	FORWARD:          0	MERGED:          0	TO_CACHE:     361462

L1D UNIQUE REGIONS ACCESSED: 0
L1D REGIONS CONFLICTS: 0
L1D Cross Page Prefetch Requests: 5913
L1D Same Page Prefetch Requests: 736606
L1D ROI Sum of L1D PQ occupancy: 4601746
L1D PREFETCHES PUSHED FROM L2C: 0
L1I TOTAL     ACCESS:    7046214  HIT:    4267446  MISS:    2778768  HIT %:    60.5637  MISS %:    39.4363   MPKI: 55.5754
L1I LOAD INSTRUCTION	ACCESS:    6409177  HIT:    3630409  MISS:    2778768  HIT %:    56.6439  MISS %:    43.3561  MPKI: 55.5754
L1I PREFETCH INSTRUCTION	ACCESS:     637037  HIT:     637037  MISS:          0  HIT %:        100  MISS %:          0  MPKI: 0

L1I PREFETCH  REQUESTED:    1538649  ISSUED:    1538649  USEFUL:          0  USELESS:          0
L1I USEFUL LOAD PREFETCHES:          0 PREFETCH ISSUED TO LOWER LEVEL:          0  ACCURACY: -nan
 TIMELY PREFETCHES:          0 LATE PREFETCHES: 0 DROPPED PREFETCHES: 0
L1I AVERAGE MISS LATENCY: 17.492 cycles
L1I RQ	ACCESS:    9534522	FORWARD:          0	MERGED:    2833070	TO_CACHE:    6701452
L1I PQ	ACCESS:    1538649	FORWARD:          0	MERGED:     414292	TO_CACHE:    1124357

L1BTB TOTAL     ACCESS:    5667864  HIT:    2022198  MISS:    3645666  HIT %:    35.6783  MISS %:    64.3217   MPKI: 72.9133
L1BTB BRANCH_DIRECT_JUMP	ACCESS:     547874  HIT:     143865  MISS:     404009	AVERAGE STALL: 52.5285
L1BTB BRANCH_INDIRECT	ACCESS:     182502  HIT:      65489  MISS:     117013	AVERAGE STALL: 109.149
L1BTB BRANCH_CONDITIONAL	ACCESS:    2694353  HIT:    1397337  MISS:    1297016	AVERAGE STALL: 62.5179
L1BTB BRANCH_DIRECT_CALL	ACCESS:     949386  HIT:     104696  MISS:     844690	AVERAGE STALL: 74.0334
L1BTB BRANCH_INDIRECT_CALL	ACCESS:     172183  HIT:      21016  MISS:     151167	AVERAGE STALL: 139.584
L1BTB BRANCH_RETURN	ACCESS:    1121566  HIT:     289795  MISS:     831771	AVERAGE STALL: 50.3235
L1BTB BRANCH_OTHER ACCESS:          0  HIT:          0  MISS:          0	AVERAGE STALL: -nan
L1BTB TOTAL ROB OCCUPANCY AT BTB MISS: 5.40432

L2BTB TOTAL     ACCESS:    3620358  HIT:    3507694  MISS:     112664  HIT %:     96.888  MISS %:    3.11196   MPKI: 2.25328
L2BTB BRANCH_DIRECT_JUMP	ACCESS:     399924  HIT:     390062  MISS:       9862	AVERAGE STALL: 52.5285
L2BTB BRANCH_INDIRECT	ACCESS:     106676  HIT:     103230  MISS:       3446	AVERAGE STALL: 109.149
L2BTB BRANCH_CONDITIONAL	ACCESS:    1297016  HIT:    1274242  MISS:      22774	AVERAGE STALL: 62.5179
L2BTB BRANCH_DIRECT_CALL	ACCESS:     844690  HIT:     827784  MISS:      16906	AVERAGE STALL: 74.0334
L2BTB BRANCH_INDIRECT_CALL	ACCESS:     141700  HIT:     130016  MISS:      11684	AVERAGE STALL: 139.584
L2BTB BRANCH_RETURN	ACCESS:     830352  HIT:     782360  MISS:      47992	AVERAGE STALL: 50.3235
L2BTB BRANCH_OTHER ACCESS:          0  HIT:          0  MISS:          0	AVERAGE STALL: -nan
L2BTB TOTAL ROB OCCUPANCY AT BTB MISS: 174.877

L2C TOTAL     ACCESS:    4517249  HIT:    3993257  MISS:     523992  HIT %:    88.4002  MISS %:    11.5998   MPKI: 10.4798
L2C LOAD INSTRUCTION	ACCESS:    2778768  HIT:    2496905  MISS:     281863  HIT %:    89.8565  MISS %:    10.1435  MPKI: 5.63726
L2C LOAD TRANSLATION INSTRUCTION	ACCESS:        467  HIT:        161  MISS:        306  HIT %:    34.4754  MISS %:    65.5246  MPKI: 0.00612
L2C LOAD DATA	ACCESS:     730605  HIT:     645206  MISS:      85399  HIT %:    88.3112  MISS %:    11.6888  MPKI: 1.70798
L2C RFO DATA	ACCESS:     287542  HIT:     229280  MISS:      58262  HIT %:    79.7379  MISS %:    20.2621  MPKI: 1.16524
L2C PREFETCH DATA	ACCESS:     191615  HIT:     114071  MISS:      77544  HIT %:    59.5314  MISS %:    40.4686  MPKI: 1.55088
L2C WRITEBACK DATA	ACCESS:     526325  HIT:     507101  MISS:      19224  HIT %:    96.3475  MISS %:     3.6525  MPKI: 0.38448
L2C LOAD TRANSLATION DATA	ACCESS:       1870  HIT:        492  MISS:       1378  HIT %:    26.3102  MISS %:    73.6898  MPKI: 0.02756
L2C TRANSLATION FROM L1D PREFETCHER DATA	ACCESS:         57  HIT:         41  MISS:         16  HIT %:    71.9298  MISS %:    28.0702  MPKI: 0.00032

L2C PREFETCH  REQUESTED:      98354  ISSUED:      98354  USEFUL:       8442  USELESS:      69616
L2C USEFUL LOAD PREFETCHES:       8442 PREFETCH ISSUED TO LOWER LEVEL:      77984  ACCURACY: 10.8253
 TIMELY PREFETCHES:       8442 LATE PREFETCHES: 440 DROPPED PREFETCHES: 0
L2C AVERAGE MISS LATENCY: 37.7095 cycles
L2C RQ	ACCESS:    3799365	FORWARD:          0	MERGED:          0	TO_CACHE:    3799310
L2C WQ	ACCESS:     526325	FORWARD:         55	MERGED:          0	TO_CACHE:     526325
L2C PQ	ACCESS:     200339	FORWARD:          0	MERGED:       4240	TO_CACHE:     196099

L2C Dense regions hint from L2: 0
PSCL5 TOTAL     ACCESS:       4464  HIT:       2232  MISS:       2232  HIT %:         50  MISS %:         50   MPKI: 0.04464
PSCL5 LOAD TRANSLATION INSTRUCTION	ACCESS:       4350  HIT:       2175  MISS:       2175  HIT %:         50  MISS %:         50  MPKI: 0.0435
PSCL5 TRANSLATION FROM L1D PREFETCHER INSTRUCTION	ACCESS:        114  HIT:         57  MISS:         57  HIT %:         50  MISS %:         50  MPKI: 0.00114


PSCL4 TOTAL     ACCESS:       2998  HIT:       1496  MISS:       1502  HIT %:    49.8999  MISS %:    50.1001   MPKI: 0.03004
PSCL4 LOAD TRANSLATION INSTRUCTION	ACCESS:       2534  HIT:       1463  MISS:       1071  HIT %:    57.7348  MISS %:    42.2652  MPKI: 0.02142
PSCL4 TRANSLATION FROM L1D PREFETCHER INSTRUCTION	ACCESS:         66  HIT:         33  MISS:         33  HIT %:         50  MISS %:         50  MPKI: 0.00066
PSCL4 LOAD TRANSLATION DATA	ACCESS:        398  HIT:          0  MISS:        398  HIT %:          0  MISS %:        100  MPKI: 0.00796


PSCL3 TOTAL     ACCESS:       4285  HIT:       2134  MISS:       2151  HIT %:    49.8016  MISS %:    50.1984   MPKI: 0.04302
PSCL3 LOAD TRANSLATION INSTRUCTION	ACCESS:       3783  HIT:       2090  MISS:       1693  HIT %:    55.2472  MISS %:    44.7528  MPKI: 0.03386
PSCL3 TRANSLATION FROM L1D PREFETCHER INSTRUCTION	ACCESS:         88  HIT:         44  MISS:         44  HIT %:         50  MISS %:         50  MPKI: 0.00088
PSCL3 LOAD TRANSLATION DATA	ACCESS:        414  HIT:          0  MISS:        414  HIT %:          0  MISS %:        100  MPKI: 0.00828


PSCL2 TOTAL     ACCESS:       4323  HIT:       2091  MISS:       2232  HIT %:    48.3692  MISS %:    51.6308   MPKI: 0.04464
PSCL2 LOAD TRANSLATION INSTRUCTION	ACCESS:       2451  HIT:       2034  MISS:        417  HIT %:    82.9865  MISS %:    17.0135  MPKI: 0.00834
PSCL2 TRANSLATION FROM L1D PREFETCHER INSTRUCTION	ACCESS:         57  HIT:         57  MISS:          0  HIT %:        100  MISS %:          0  MPKI: 0
PSCL2 LOAD TRANSLATION DATA	ACCESS:       1758  HIT:          0  MISS:       1758  HIT %:          0  MISS %:        100  MPKI: 0.03516
PSCL2 TRANSLATION FROM L1D PREFETCHER DATA	ACCESS:         57  HIT:          0  MISS:         57  HIT %:          0  MISS %:        100  MPKI: 0.00114


LLC TOTAL     ACCESS:     588351  HIT:     559649  MISS:      28702  HIT %:    95.1216  MISS %:    4.87838   MPKI: 0.57404
LLC LOAD INSTRUCTION	ACCESS:     281863  HIT:     281013  MISS:        850  HIT %:    99.6984  MISS %:   0.301565  MPKI: 0.017
LLC LOAD TRANSLATION INSTRUCTION	ACCESS:        306  HIT:        284  MISS:         22  HIT %:    92.8105  MISS %:    7.18954  MPKI: 0.00044
LLC LOAD DATA	ACCESS:      84965  HIT:      81444  MISS:       3521  HIT %:    95.8559  MISS %:    4.14406  MPKI: 0.07042
LLC RFO DATA	ACCESS:      58242  HIT:      44313  MISS:      13929  HIT %:    76.0843  MISS %:    23.9157  MPKI: 0.27858
LLC PREFETCH DATA	ACCESS:      77984  HIT:      68010  MISS:       9974  HIT %:    87.2102  MISS %:    12.7898  MPKI: 0.19948
LLC WRITEBACK DATA	ACCESS:      83597  HIT:      83278  MISS:        319  HIT %:    99.6184  MISS %:   0.381593  MPKI: 0.00638
LLC LOAD TRANSLATION DATA	ACCESS:       1378  HIT:       1291  MISS:         87  HIT %:    93.6865  MISS %:     6.3135  MPKI: 0.00174
LLC TRANSLATION FROM L1D PREFETCHER DATA	ACCESS:         16  HIT:         16  MISS:          0  HIT %:        100  MISS %:          0  MPKI: 0

LLC AVERAGE MISS LATENCY: 159.248 cycles
LLC RQ	ACCESS:     426784	FORWARD:          0	MERGED:          0	TO_CACHE:     426770
LLC WQ	ACCESS:      83597	FORWARD:         14	MERGED:          0	TO_CACHE:      83597
LLC PQ	ACCESS:      77984	FORWARD:          0	MERGED:          0	TO_CACHE:      77984

LLC Dense regions hint to LLC: 0

RAW hits: 1943560
Loads Generated: 12641886
Loads sent to L1D: 10698326
Stores Generated: 6962748
Stores sent to L1D: 6962760
Major fault: 0 Minor fault: 2609
Allocated PAGES: 2609

stream: 
stream:times selected: 1169531
stream:pref_filled: 119957
stream:pref_useful: 23828
stream:pref_late: 6679
stream:misses: 6589
stream:misses_by_poll: 0

CS: 
CS:times selected: 176914
CS:pref_filled: 58971
CS:pref_useful: 35238
CS:pref_late: 7051
CS:misses: 15958
CS:misses_by_poll: 8

CPLX: 
CPLX:times selected: 991467
CPLX:pref_filled: 19600
CPLX:pref_useful: 4330
CPLX:pref_late: 3092
CPLX:misses: 90560
CPLX:misses_by_poll: 3

NL_L1: 
NL:times selected: 19164
NL:pref_filled: 546
NL:pref_useful: 229
NL:pref_late: 203
NL:misses: 1063
NL:misses_by_poll: 0

total selections: 2357076
total_filled: 93769
total_useful: 33990
total_late: 18255
total_polluted: 11
total_misses_after_warmup: 774335
conflicts: 5535042

test: 112695

DRAM Statistics
 CHANNEL 0
 RQ ROW_BUFFER_HIT:      10600  ROW_BUFFER_MISS:      17779
 DBUS_CONGESTED:         15
 WQ ROW_BUFFER_HIT:       1419  ROW_BUFFER_MISS:      12263  FULL:          0

 AVG_CONGESTED_CYCLE: 6

CPU 0 Branch Prediction Accuracy: 99.821% MPKI: 0.3275 Average ROB Occupancy at Mispredict: 187.437
Branch types
NOT_BRANCH: 40852444 81.7049%
BRANCH_DIRECT_JUMP: 547874 1.09575%
BRANCH_INDIRECT: 182502 0.365004%
BRANCH_CONDITIONAL: 6173865 12.3477%
BRANCH_DIRECT_CALL: 949386 1.89877%
BRANCH_INDIRECT_CALL: 172183 0.344366%
BRANCH_RETURN: 1121566 2.24313%
BRANCH_OTHER: 0 0%

DRAM PAGES: 1048576
Allocated PAGES: 2609
Average_ROB_Occupancy: 229.78
Average_Decode_Occupancy: 32.4253
Average_FTQ_Occupancy: 12.9278
Indirect max targets: 14 Average targets: 1.1746
Branch_type:  BRANCH_DIRECT_JUMP:  Count Percentage: 3.28651 5.30834 4.9489 7.46411 2.76391 6.51678 1.58569 68.1258 
Branch_type:  BRANCH_INDIRECT:  Count Percentage: 19.7443 13.0943 5.30973 3.77515 3.34992 1.20101 3.22705 50.2985 
Branch_type:  BRANCH_CONDITIONAL:  Count Percentage: 22.046 6.18827 2.57121 4.05516 2.50539 7.98923 0.953545 53.6912 
Branch_type:  BRANCH_DIRECT_CALL:  Count Percentage: 0.777438 1.31549 1.00463 4.69667 3.38466 2.73808 0.696991 85.386 
Branch_type:  BRANCH_INDIRECT_CALL:  Count Percentage: 9.57961 0 3.00416 4.30284 0.861033 2.99659 0.997215 78.2586 
Branch_type:  BRANCH_RETURN:  Count Percentage: 5.12397 5.91904 2.59448 3.98772 4.76711 8.08586 1.18359 68.3382 
Branch_type:  BRANCH_DIRECT_JUMP:  Total Count: 35997 58142 54205 81754 30273 71378 17368 746178 
Branch_type:  BRANCH_INDIRECT:  Total Count: 72154 47852 19404 13796 12242 4389 11793 183812 
Branch_type:  BRANCH_CONDITIONAL:  Total Count: 2721477 763915 317405 500592 309280 986236 117711 6627949 
Branch_type:  BRANCH_DIRECT_CALL:  Total Count: 14728 24921 19032 88975 64120 51871 13204 1617577 
Branch_type:  BRANCH_INDIRECT_CALL:  Total Count: 32921 0 10324 14787 2959 10298 3427 268941 
Branch_type:  BRANCH_RETURN:  Total Count: 114723 132524 58089 89283 106733 181038 26500 1530056 
Number of unique branch instructions: 10676
Upper 32 bits: 
aaaa
ffff
ffff0000
Unique upper 32 bits: 3
Unique upper 36 bits: 3
Unique upper 40 bits: 5
Unique upper 44 bits: 32
Unique upper 48 bits: 158
Offset_3 4428
Offset_4 258
Offset_5 477
Offset_6 535
Offset_7 634
Offset_8 572
Offset_9 511
Offset_10 415
Offset_11 340
Offset_12 307
Offset_13 240
Offset_14 245
Offset_15 194
Offset_16 227
Offset_17 165
Offset_18 148
Offset_19 261
Offset_20 141
Offset_21 235
Offset_22 411
Offset_23 241
Offset_24 349
Offset_25 117
Offset_47 94
Offset_64 1
decode_dispatch_called: 24517439 67.0682
Dispatch_width: 0 13110453 53.474 35.864
Dispatch_width: 1 843367 3.43987 2.30705
Dispatch_width: 2 768600 3.13491 2.10253
Dispatch_width: 3 445452 1.81688 1.21855
Dispatch_width: 4 4831213 19.7052 13.2159
Dispatch_width: 5 152014 0.620024 0.415839
Dispatch_width: 6 4366340 17.8091 11.9442
Empty_decode_cycles: 12038570 32.9318
ROB_full_cycles: 7873118 21.5371
Starvation_cycles_per_kilo_instr: 243.165
Starvation_cycles_per_kilo_instr_3: 193.333
Starvation_cycles_per_kilo_instr_0: 172.759
Branch_type_1  (3,1)  (4,9)  (5,39)  (6,72)  (7,124)  (8,148)  (9,133)  (10,109)  (11,76)  (12,47)  (13,11)  (14,2)  (15,3)  (16,4)  (18,1)  (19,5)  (20,2)  (21,1)  (22,3)  (23,2)  (24,10)  (25,12) 
Branch_type_2  (3,1)  (4,1)  (5,1)  (8,4)  (9,4)  (10,1)  (12,1)  (13,1)  (14,1)  (16,3)  (17,2)  (20,2)  (21,2)  (23,5)  (24,1)  (47,43) 
Branch_type_3  (3,4426)  (4,248)  (5,433)  (6,447)  (7,481)  (8,354)  (9,280)  (10,167)  (11,129)  (12,54)  (13,10)  (64,1) 
Branch_type_4  (6,3)  (7,8)  (8,25)  (9,56)  (10,66)  (11,69)  (12,114)  (13,102)  (14,110)  (15,92)  (16,99)  (17,76)  (18,63)  (19,128)  (20,72)  (21,124)  (22,217)  (23,136)  (24,204)  (25,101) 
Branch_type_5  (8,3)  (9,1)  (10,4)  (11,5)  (12,3)  (13,14)  (14,16)  (15,11)  (16,22)  (17,11)  (18,23)  (19,14)  (20,11)  (21,13)  (22,43)  (23,26)  (24,38) 
Branch_type_6  (5,4)  (6,13)  (7,21)  (8,38)  (9,37)  (10,68)  (11,61)  (12,88)  (13,102)  (14,116)  (15,88)  (16,99)  (17,76)  (18,61)  (19,114)  (20,54)  (21,95)  (22,148)  (23,72)  (24,96)  (25,4)  (47,51) 
aaaaab1fc620: 2ac9e77e 2aca717c 2aca8eff 2acaf6bc 2acaf9aa 2acaf9f1 2acb1abc 2acb1b7f 2acd4e22 2acdb712 2acf5f9e 2ad0ef44 2ad3f15c 2ad414e6 2ad60e42 2ad8609c 2ad99830 2ada35cc 2ada4676 2ada6612 2adf183e 2adf30e5 2adf5602 2adf785c 2ae11572 2aeb2dcf 2aee101b 2aee1ae1 2aee9456 2b156a8c 2b156b61 2b156bea 2b167f35 2b177656 2b17feec 2b1a3e5a 
aaaaab1fc640: 2ac9ec07 2aca656e 2aca801d 2acaea11 2acaee73 2acb13ee 2acb1470 2acd462b 2ad0ef5d 2ad3f3fe 2ad86e9b 2ada1641 2ada4115 2ada6638 2adf30d4 2ae12e57 2aee1033 2b1693ab 2b16948c 2b169491 2b17d915 2b17fa85 2b17fccd 
aaaaab1fc740: 2aca1fb0 2aca45b3 2aca5aa1 2aca5c69 2aca66f9 2aca9426 2acaeecb 2acf3d2d 2acf3d64 2acf6089 2ad017ea 2ad5e7ef 2ad61064 2ad87373 2ad9bf84 2ad9c093 2ae9b606 2aea9ffa 2aee99f5 2aee9a2c 2aeece4b 
aaaaab1fcb00: 2acf2d72 2acf3734 2acf604c 2acfa5b7 2ad397b5 2ad3b800 2ae8af7d 2ae8aff0 2ae9aaba 2aea9fc6 2aeaa358 2aee910b 2aee91cf 2aee928e 2aee92e4 2aee99de 2af6fe87 2af70dfe 2b16850c 2b16c4a2 2b1765f4 2b178094 2b17d925 2b17db06 2b17ec8f 
aaaaab1fcb10: 2acf2d95 2acf3758 2acf6052 2acfa5f4 2ad397c3 2ad3b81c 2ae8af88 2ae8affe 2ae9aacf 2aeaa017 2aeaa36d 2aee9114 2aee91d8 2aee934d 2aee9353 2aee9a14 2af6fe8c 2af70e22 2b168526 2b16c542 2b176609 2b1780a3 2b17d95d 2b17db44 2b17ecac 
aaaaac68f310: 2ac9ec8c 2ac9fb44 2ac9fbd2 2aca59ab 2acac04c 2acaf6e0 2acaf6ec 2acaf6f9 2acaf700 2acaf708 2acf2d90 2ad3cfbd 2ad3cfc4 2ad3d000 2ad3f35f 2ad4955d 2ad49571 2ad4f3f2 2ad4f400 2ad5f240 2ad5f37c 2ad5f86a 2ad5f86f 2ad5f880 2ad5fc0d 2ad5fc14 2ad5fc21 2ad5fe1b 2ad873bb 2ad873e3 2ad8a6b2 2ad9086e 2ad93096 2ad9bbb2 2ada152c 2ada1554 2ada3332 2ada5522 2adf3130 2adf313c 2adf3a3f 2adf3bd9 2adf5788 2adf7a8d 2ae07f6b 2ae0857a 2ae0857e 2ae08630 2ae08634 2ae08637 2ae08642 2ae0866f 2ae086e4 2ae086ec 2ae08717 2ae0871b 2aee0170 2aee1d38 2aee75f4 2aee7662 2aee85ca 2aee85e4 2aee8eef 2aee9a0a 2af70b84 2af74e8f 2b17d843 
aaaaac690ef0: 2aca598b 2acb111b 2acb175f 2acb1772 2acbfaf4 2acbfb00 2acf374f 2acf6d43 2acfa5c8 2ad3baf1 2ad3d4ac 2ad3d4b8 2ad3f1cf 2ad486b2 2ad5a59b 2ad5fc64 2ad5fcf9 2ad6121c 2ad906e9 2ad907bf 2ad9bada 2ada16ce 2ada1ad5 2ada43df 2ada64c0 2ada72ee 2adeb71a 2adf3bcb 2adf7a38 2adf7c6a 2adf8872 2adf8880 2adf9959 2adf9abe 2ae07f78 2ae08503 2ae08754 2ae12e80 2aea3bea 2aecb509 2aee00b0 2aee2bdd 2aee5467 2aee5601 2aee8f20 2af703fd 2af7048b 2af74e74 2dfba627 
Unique trigger count: 
1 10172
2 550
3 90
4 30
5 15
6 11
7 7
8 2
9 3
10 2
11 1
12 1
13 2
14 2
16 2
19 1
21 1
23 1
25 2
36 1
49 1
67 1
BTB PER SET UNIQUE ADDR: 1 2 2 2 0 0 1 1 3 0 2 0 1 1 0 1 2 1 1 2 0 1 1 2 1 2 1 2 2 1 2 2 2 0 3 0 0 3 4 0 1 2 3 3 1 1 2 1 4 1 1 1 2 0 0 2 3 3 1 1 1 2 2 2 0 4 4 0 2 2 5 1 1 2 1 1 2 6 1 1 1 1 1 4 3 1 1 4 3 2 3 4 2 3 2 0 1 3 0 1 3 2 2 3 2 2 1 1 3 0 1 2 3 2 1 3 1 2 1 0 3 2 2 0 1 1 1 1 3 2 3 0 1 1 2 1 0 0 1 2 2 3 3 0 2 1 2 3 3 2 1 6 1 2 2 1 0 3 1 1 0 0 0 1 4 3 0 1 5 2 2 2 2 1 1 0 1 1 3 1 1 3 6 2 3 2 3 0 1 1 4 1 1 2 1 1 1 1 0 1 2 1 1 0 0 0 1 1 1 0 0 2 2 1 2 1 0 2 1 0 0 1 1 3 2 0 2 2 0 3 5 3 1 2 1 3 3 0 1 2 1 0 2 2 6 3 1 1 3 1 1 1 1 1 0 5 2 2 2 2 3 3 2 2 2 4 3 0 2 1 2 2 1 2 2 2 1 0 3 2 2 2 1 1 2 3 2 1 1 1 0 0 1 2 0 1 3 2 0 1 2 2 1 1 2 2 3 2 3 3 2 1 2 2 3 0 2 2 1 2 1 2 2 2 0 3 1 4 0 0 3 0 2 2 3 1 2 2 4 0 2 0 0 1 2 3 1 1 1 3 1 3 3 2 2 2 1 0 3 0 0 2 1 2 4 2 1 0 0 0 3 1 2 0 1 2 2 2 2 3 0 0 1 3 0 0 2 1 2 1 1 2 2 2 2 0 3 0 0 2 3 1 4 1 1 0 2 3 0 1 0 1 2 2 1 0 3 1 1 2 1 1 3 2 2 4 0 0 1 3 1 0 5 3 3 3 2 1 1 0 1 4 3 3 2 1 1 3 1 1 3 0 1 1 3 0 1 3 2 2 3 0 3 2 0 0 3 0 0 3 0 1 1 1 2 1 0 1 2 0 0 1 1 2 0 2 2 0 3 1 3 1 1 2 0 3 2 1 3 0 3 0 0 1 0 2 2 0 1 2 3 2 4 4 2 1 1 4 1 5 1 1 3 1 3 3 1 4 3 2 5 1 2 2 1 4 0 0 3 0 0 4 3 1 5 1 6 3 4 4 2 3 2 3 0 1 1 0 2 2 6 0 1 2 1 0 0 2 3 4 4 0 1 5 2 0 0 2 0 0 1 1 1 0 1 0 0 4 2 2 3 3 0 2 1 2 3 0 2 2 1 0 1 3 1 1 1 1 3 0 2 2 3 1 2 1 2 0 2 1 3 1 5 0 2 2 2 2 1 0 3 1 0 2 2 4 0 1 1 2 5 1 3 3 0 0 2 1 2 1 1 1 3 1 1 0 4 0 1 3 3 2 3 3 2 1 1 1 0 0 4 2 1 0 4 2 0 1 3 2 1 0 2 2 2 1 1 2 2 1 0 3 1 1 1 3 3 3 2 3 0 2 0 2 1 1 0 1 0 0 1 2 0 1 2 0 1 1 0 2 1 0 1 1 0 1 1 1 0 3 3 2 1 0 1 1 6 1 1 0 1 2 1 2 1 0 3 1 2 2 0 0 1 2 0 1 2 3 1 0 1 1 0 2 0 1 3 1 0 1 2 2 0 0 1 2 3 1 1 1 2 1 0 0 3 3 3 4 0 0 1 3 0 0 2 3 3 1 1 0 2 2 1 2 1 1 1 4 0 2 0 2 1 0 2 1 1 0 0 3 3 0 1 0 2 1 1 1 1 4 1 1 2 1 3 0 1 0 3 2 0 1 0 2 0 1 3 2 3 0 2 1 3 1 3 2 0 0 1 0 0 0 0 1 4 1 1 0 2 0 1 1 1 2 1 0 2 2 3 1 2 1 1 0 0 0 1 2 0 0 2 0 1 2 1 1 4 0 1 1 1 0 0 1 1 3 0 1 0 4 3 3 0 0 1 2 0 1 1 2 4 1 3 1 2 0 3 0 2 1 3 1 4 2 2 1 1 1 0 1 1 1 0 3 2 2 1 2 1 1 1 0 4 1 1 1 4 2 2 1 2 1 2 2 2 4 8 2 2 2 1 1 0 2 3 1 3 4 1 2 3 2 1 3 1 1 1 3 2 1 3 1 1 2 2 1 2 2 1 4 0 1 2 1 2 3 3 2 0 1 2 0 3 0 1 2 3 3 1 3 3 1 7 4 0 2 2 1 1 1 3 4 2 1 3 0 0 1 1 0 2 0 1 3 0 2 5 1 3 3 0 1 3 2 1 3 2 1 2 1 0 1 2 0 2 0 1 2 3 3 1 4 3 2 0 1 7 0 1 1 1 1 2 2 1 5 3 3 3 3 2 4 2 2 1 0 4 1 1 2 1 6 1 0 4 1 1 1 2 1 1 2 3 3 2 2 2 1 1 4 4 2 1 2 1 1 3 2 1 4 2 2 2 1 3 4 0 1 4 1 0 2 1 0 1 3 1 2 1 2 1 3 2 0 1 1 3 2 1 0 2 0 0 3 2 1 2 2 1 4 0 1 5 0 3 3 1 2 2 4 2 4 0 6 4 0 2 1 2 0 0 1 3 0 1 1 2 4 1 0 0 3 3 2 1 2 0 0 1 4 1 4 2 2 0 2 0 1 2 4 6 1 5 0 0 1 2 1 4 0 2 3 2 1 1 1 0 4 1 3 0 1 2 5 3 1 2 2 0 2 4 3 2 4 3 2 0 0 3 3 4 1 2 2 1 1 3 2 3 1 1 1 1 2 5 3 4 0 0 2 1 1 3 2 3 0 0 1 2 3 2 0 3 1 1 1 1 1 5 0 1 1 0 4 3 0 2 1 3 2 1 1 2 1 2 2 0 3 2 1 0 3 1 1 2 2 1 1 0 2 1 1 1 2 1 3 3 2 1 2 0 1 3 0 2 2 0 2 1 1 2 2 1 0 3 0 1 1 2 2 1 1 1 1 1 4 1 3 2 1 2 0 1 1 1 4 1 2 1 1 1 2 0 1 4 2 3 1 4 2 1 1 1 2 3 1 1 1 4 0 5 2 2 3 1 0 3 3 1 1 1 3 0 2 2 1 1 1 2 1 0 1 1 5 2 1 2 1 0 2 2 0 1 2 1 1 1 0 0 2 0 0 1 1 0 2 1 3 4 1 1 0 1 1 1 0 1 0 0 3 1 0 1 0 0 1 1 0 0 0 1 0 0 0 0 0 1 0 2 0 2 0 1 0 1 0 0 4 1 0 1 1 3 1 1 0 2 2 1 0 3 0 1 1 1 1 1 0 2 0 3 1 0 1 3 0 0 1 0 2 1 2 1 1 2 2 2 2 0 1 1 0 0 0 3 0 1 1 0 0 0 1 0 1 1 0 1 3 2 1 2 1 2 2 2 1 1 0 1 2 2 0 0 1 2 1 3 1 0 1 1 3 3 0 0 1 2 1 0 0 3 1 3 0 2 1 3 2 1 3 4 2 5 0 1 0 3 2 1 5 3 3 2 3 4 0 0 2 2 1 1 1 1 1 2 0 2 1 0 1 3 0 1 1 3 1 2 3 3 1 0 1 3 0 2 3 2 1 2 1 3 3 1 1 1 2 2 1 1 4 2 1 1 1 1 3 3 1 1 0 1 0 2 1 2 3 0 0 1 1 0 2 3 1 0 2 2 0 1 2 1 1 1 2 1 0 0 3 2 1 0 0 0 3 1 0 2 1 3 3 2 1 4 1 2 7 3 2 3 2 1 3 3 1 1 1 0 0 0 2 3 1 2 0 0 3 3 1 2 2 0 0 1 2 2 2 2 1 2 2 1 1 0 2 0 1 2 1 0 0 0 1 0 1 2 0 3 0 3 1 1 0 2 1 1 3 0 3 0 1 0 1 1 1 4 0 1 1 0 1 2 1 0 1 0 0 1 1 1 1 2 2 3 0 3 0 0 1 2 1 1 6 1 0 2 2 3 2 1 2 5 1 3 3 0 2 1 3 2 5 4 0 2 1 5 0 4 0 3 2 2 2 1 1 1 0 1 2 0 2 0 1 2 3 2 1 4 2 2 2 3 0 1 0 3 1 3 2 2 2 2 1 0 2 3 2 1 0 1 2 0 0 0 2 0 1 1 3 0 2 2 2 3 2 2 1 2 2 3 1 1 2 2 1 0 2 2 2 2 0 0 1 0 0 1 0 0 1 1 1 2 1 1 2 0 0 0 2 1 1 1 0 2 1 2 2 2 0 1 1 1 1 1 2 1 2 1 0 1 0 2 1 0 1 2 1 3 2 2 2 0 2 0 1 0 0 2 2 0 4 2 4 0 2 2 6 1 0 0 1 4 2 3 1 1 1 3 1 0 0 2 4 1 6 2 0 3 0 1 1 1 1 2 1 0 2 0 1 2 2 1 0 0 3 4 1 0 0 2 3 1 0 3 3 1 0 3 3 0 1 1 4 0 0 0 2 1 0 4 0 1 0 2 2 3 0 2 1 2 1 2 1 0 2 4 2 3 0 2 2 1 1 1 1 2 1 1 0 0 0 4 2 1 2 1 1 2 3 3 3 1 1 3 3 0 2 2 1 4 4 2 3 2 2 1 3 1 2 3 2 1 3 5 3 2 3 2 2 2 1 1 1 0 1 1 0 3 2 0 2 0 1 1 0 1 4 1 3 0 0 0 2 1 2 1 0 0 3 1 1 0 0 0 2 1 1 0 1 3 1 1 2 0 0 2 1 2 2 1 2 1 0 1 0 0 1 0 2 1 0 0 4 1 3 1 2 3 1 2 2 0 0 0 1 1 1 4 2 3 2 3 1 4 3 2 2 2 1 3 1 1 2 1 4 1 2 2 3 2 3 2 3 2 0 4 1 2 2 5 6 5 3 2 2 2 1 4 1 1 1 3 2 0 2 3 3 4 0 2 1 1 2 4 4 1 1 1 2 1 2 2 2 3 3 2 2 3 4 1 1 3 2 3 3 1 4 2 1 2 2 3 3 2 1 3 3 3 0 1 2 1 1 1 2 2 1 0 1 3 1 2 2 2 1 2 2 1 1 0 0 4 2 5 5 0 2 1 3 1 1 0 3 2 2 1 3 2 1 1 1 2 0 1 3 0 2 2 1 1 0 1 1 2 0 0 1 0 1 2 1 5 1 3 2 1 2 0 0 0 3 0 3 2 0 2 1 2 1 1 1 1 1 1 0 1 0 5 2 2 0 1 0 2 2 5 4 1 2 3 5 1 2 2 0 1 3 1 2 2 0 0 3 2 1 1 1 2 0 1 0 1 4 3 0 0 2 3 2 3 4 3 1 3 1 1 0 2 1 2 3 1 2 3 3 0 1 2 1 0 1 0 4 3 2 1 2 1 1 5 3 0 2 3 2 3 1 4 0 4 2 2 0 1 1 2 0 1 1 1 1 1 1 1 4 2 0 1 0 1 2 4 2 1 3 2 2 0 1 0 0 1 2 2 2 2 0 1 2 1 2 4 1 2 2 1 2 3 0 3 0 2 1 3 5 1 1 2 1 1 3 1 2 2 1 0 1 5 1 0 3 1 4 1 3 3 2 2 0 0 3 4 1 0 0 4 4 1 1 2 0 1 0 0 2 1 0 3 0 2 1 2 2 0 3 2 2 0 1 2 1 1 0 1 0 1 2 2 1 0 0 1 4 0 1 1 2 3 1 3 4 1 2 3 3 0 3 3 2 0 2 2 4 2 0 2 1 1 1 2 1 3 2 1 1 2 0 3 5 2 3 1 3 1 2 2 1 2 2 1 3 4 1 1 1 4 2 0 3 0 2 2 3 1 2 3 2 1 6 4 1 1 0 0 0 0 5 3 1 3 5 2 0 2 1 3 2 2 0 5 2 5 4 1 3 2 3 0 2 3 1 0 1 0 2 0 0 1 0 2 2 3 2 0 2 1 3 1 3 2 3 3 1 3 1 3 4 2 1 3 0 1 1 1 0 2 3 1 3 2 1 2 1 2 0 1 3 1 0 3 0 2 1 4 3 4 2 2 4 1 3 3 3 1 4 3 2 0 1 2 2 3 0 3 2 4 1 2 2 1 2 1 2 2 0 3 1 3 2 0 4 0 1 2 2 3 0 3 1 2 1 3 0 0 1 7 1 0 1 1 0 0 0 1 2 0 3 2 1 3 2 1 1 2 3 2 2 1 2 1 1 1 2 1 2 1 1 1 0 0 2 0 2 2 1 1 3 3 1 2 2 1 3 4 3 5 1 2 2 2 1 0 3 2 2 2 1 0 2 2 3 0 3 5 3 0 0 0 3 1 1 2 1 2 4 4 1 1 2 3 1 3 1 3 2 2 1 2 1 1 1 3 0 3 2 0 2 0 1 2 2 3 2 0 1 2 1 3 0 2 0 1 1 2 2 1 2 2 1 2 1 3 2 2 3 4 3 2 2 4 2 2 3 2 3 3 2 3 4 2 6 2 0 5 2 2 4 3 3 0 2 2 4 3 0 0 1 2 3 1 5 3 5 6 3 1 1 3 4 3 2 2 2 2 0 2 4 1 1 4 2 1 3 4 2 4 4 3 1 2 1 1 3 0 3 0 1 5 0 2 4 2 2 2 2 0 2 3 7 2 3 5 5 4 3 5 4 2 5 3 1 1 1 2 4 4 3 3 3 6 1 1 3 1 3 2 4 2 1 1 1 2 3 0 2 1 3 4 1 2 2 0 3 3 0 4 1 0 1 4 3 2 1 1 0 1 1 2 1 2 3 1 5 2 4 2 3 2 1 3 2 2 1 0 2 1 1 3 2 3 3 1 3 5 0 2 0 1 2 2 1 3 1 3 2 1 1 1 2 1 3 4 1 0 2 3 1 2 1 1 2 3 1 2 2 1 4 1 3 0 2 0 2 3 1 0 0 1 1 3 0 0 1 2 1 2 1 0 2 1 4 2 1 2 0 3 1 1 3 0 1 4 3 2 2 0 2 2 2 1 1 1 0 0 1 1 0 3 2 2 2 3 1 3 3 5 1 1 3 4 1 2 4 2 2 4 0 3 1 3 2 2 1 3 2 3 4 2 2 4 4 2 2 2 1 1 1 0 4 1 1 1 1 2 2 1 1 4 0 1 2 2 2 4 0 4 1 2 2 1 1 3 2 1 3 1 2 1 2 2 2 2 3 1 2 2 3 0 4 1 1 3 2 2 2 4 0 3 2 1 1 1 4 2 0 1 0 2 1 2 0 1 2 2 1 3 4 1 1 1 1 2 3 0 3 3 2 0 2 2 0 3 0 1 3 3 1 1 1 1 0 2 0 0 1 4 1 2 1 1 3 2 1 2 0 2 1 3 4 6 1 1 3 3 3 1 1 0 2 2 2 0 0 3 2 1 2 2 2 0 3 1 1 1 5 1 3 3 4 0 1 3 1 1 1 3 1 4 5 1 3 0 2 3 4 1 4 1 6 4 1 1 1 1 2 2 2 1 2 3 3 5 2 3 2 3 2 3 2 1 4 3 3 1 1 2 1 3 1 1 1 4 2 2 0 2 0 0 1 3 7 2 2 1 2 2 2 2 2 2 1 1 1 1 2 3 1 3 1 3 3 1 0 1 2 0 2 0 3 0 4 6 0 0 1 3 1 2 2 4 0 3 3 1 3 1 3 0 1 2 2 1 1 2 1 3 0 0 0 3 1 1 3 3 4 2 4 2 1 2 0 2 1 2 0 3 1 2 1 0 4 0 1 1 2 1 3 3 0 3 3 3 0 3 0 5 3 0 1 3 1 0 3 1 3 2 0 2 2 1 2 1 2 1 2 6 2 3 2 2 3 2 3 2 1 4 0 2 3 3 3 2 1 2 0 2 0 2 2 2 3 1 3 1 1 2 1 3 2 5 0 0 2 1 2 3 3 1 2 3 0 0 1 2 0 0 2 1 3 2 2 1 0 4 2 1 3 1 4 0 2 1 2 4 0 1 0 1 2 2 1 2 3 1 2 2 2 1 3 0 4 2 2 2 0 3 0 3 2 3 2 1 2 0 2 1 2 1 1 3 0 2 2 1 2 1 0 3 2 1 6 4 2 3 1 2 0 1 3 3 1 0 0 1 1 1 0 2 2 2 3 3 0 3 1 5 2 3 0 0 5 0 2 4 3 0 4 2 2 2 4 2 2 0 1 0 4 3 1 0 3 1 2 3 2 3 2 3 1 1 4 2 3 1 2 3 2 4 1 2 2 1 5 3 1 1 0 2 2 3 2 1 2 2 0 1 3 1 3 2 2 1 0 1 4 0 2 1 2 3 1 2 2 4 0 3 1 1 0 4 1 3 3 5 1 1 4 0 3 2 3 4 5 1 3 0 3 3 0 3 2 1 2 3 3 1 2 0 3 1 2 1 2 1 2 0 2 2 2 1 2 0 4 3 2 1 1 2 7 0 3 1 2 2 2 1 3 1 4 2 3 1 3 3 2 2 2 3 0 2 4 0 6 0 6 3 1 1 2 1 0 2 1 2 2 3 3 2 2 2 1 2 4 2 1 2 2 0 2 0 3 5 2 2 3 4 1 2 1 4 2 1 1 2 3 0 1 2 0 0 2 1 0 2 0 1 1 1 1 1 2 0 3 1 3 3 3 0 1 1 3 1 1 2 1 0 1 0 1 2 2 2 3 1 1 1 3 0 1 0 2 2 3 0 1 1 0 1 1 0 1 1 2 1 1 1 0 3 1 0 2 1 0 0 1 3 2 2 2 2 1 1 1 2 4 0 2 1 4 2 1 0 0 3 0 0 1 2 3 2 2 3 5 3 1 1 2 1 2 0 2 2 0 1 1 2 1 3 1 3 1 1 1 4 1 2 2 2 1 2 8 1 1 5 5 2 2 2 1 2 4 2 2 4 1 3 1 1 4 3 3 2 3 1 1 2 1 3 5 4 1 0 3 1 0 0 1 0 0 2 2 1 1 2 1 4 0 2 1 0 0 2 1 2 2 5 2 2 2 1 3 1 1 1 4 4 0 0 2 0 3 2 1 0 0 3 3 4 2 0 0 3 1 2 0 1 1 1 3 1 1 2 2 2 3 2 1 1 5 1 2 2 1 2 0 1 2 2 1 2 3 1 1 1 1 3 2 3 2 2 1 1 1 2 2 1 0 
BTB PER SET COUNT: 1 2 2 2 0 0 2 1 3 0 2 0 1 1 0 1 2 1 1 2 0 1 1 2 1 2 1 2 1476 1 2 2 3 0 4 0 0 3 5 0 1 2 6 4 1 1 2 1 5 1 1 1 2 0 0 2 4 3 1 1 1 2 2 2 0 373 4 0 2 2 764 1 1 2 1 1 482 776 1 1 1 1 2 4 3 1 1 5 3 2 6 515 2 3 2 0 1 3 0 1 3 2 2 3 2 2 1 1 3 0 1 2 3 2 1 4 1 2 1 0 3 2 2 0 1 1 1 1 3 2 483 0 1 2 2 1 0 0 1 2 2 5 3 0 2 1 2 3 3 2 1 1495 1 2 2 1 0 3 1 1 0 0 0 1 4 4 0 1 2500 2 2 2 2 1 1 0 1 1 998 1 1 3 6380 2 3 3 3 0 1 1 4 1 1 2 1 4 1 1 0 1 2 1 1 0 0 0 1 1 1 0 0 4 2 1 2 1 0 2 1 0 0 1 1 3 4 0 2 18 0 3 2169 3 1 2 1 3 3 0 1 2 2 0 2 2 1445 4 1 1 3 1 1 1 1 1 0 11 2 2 2 2 3 3 2 2 3 4 3 0 2 1 2 2 1 2 2 2 1 0 3 2 2 2 1 1 2 962 2 1 1 2 0 0 1 3 0 1 6 2 0 1 2 2 1 1 2 2 3 2 3 3 2 1 2 2 3 0 2 2 1 2 1 2 2 2 0 3 1 4 0 0 962 0 2 2 997 1 962 2 4 0 2 0 0 961 962 4 1 1 1 3 1 3 3 2 2 2 1 0 3 0 0 2 1 2 6 2 1 0 0 0 3 1 2 0 1 2 2 2 2 3 0 0 1 4 0 0 2 1 2 1 1 2 2 2 2 0 3 0 0 2 3 1 4 1 1 0 1476 3 0 995 0 1 2 2 1 0 5 1 1 86 1 1 3 2 2 5 0 0 1 3 1 0 9 4 3 3 2 1 1 0 2 4 3 3 2 1 1 3 1 1 3 0 2 1 3 0 1 3 2 3 3 0 3 2 0 0 4 0 0 3 0 1 1 480 2 1 0 1 3 0 0 1 1 481 0 2 2 0 3 1 3 1 2 2 0 3 2 2 3 0 3 0 0 1 0 2 2 0 1 2 3 2 4 4 3 1 1 4 1 488 1 1 3 1 4 3 1 4 3 2 10 1 2 3 1 485 0 0 3 0 0 4 3 1 15 1 19 3 4 4 3 3 4 4 0 1 5 0 2 3 6411 0 1 2 1 0 0 2 3 4 4 0 1 6 2 0 0 2 0 0 1 1 2 0 2 0 0 4 3 2 3 5 0 2 995 2 3 0 3 2 1 0 1 3 1 1 1 1 4 0 2 2 3 1 2 1 1032 0 2 1 3 1 8 0 2 2 2 2 1 0 483 1 0 4 2 4 0 1 1 2 13 1 3 3 0 0 3 1 3 1 2 1 3 1 1 0 5 0 1 4 7793 2 3 4 2 2 1 961 0 0 5 3 1 0 4 962 0 1 9 2 1 0 2 962 2 1 1 1476 2 1 0 963 1 2 1 3 3 3 3 4 0 2 0 2 1 961 0 1 0 0 1 2 0 1 962 0 1475 1 0 3 1 0 1 1 0 1 1 1 0 3 3 2 995 0 1 1 14 1 1 0 1 2 1 2 1 0 4 1 2 962 0 0 1 2 0 1 2 3 1 0 1 1 0 2 0 1 3 1 0 1 2 2 0 0 1 3 3 3 1 1 2 2 0 0 4 4 3 4 0 0 1 54 0 0 2 3 3 1 1 0 2 2 1 2 1 1 2 4 0 4 0 2 1 0 4 2 2 0 0 3 3 0 1 0 2 1 1 1 1 45 1 1 2 1 3 0 1 0 3 2 0 1 0 2 0 1 3 2 4 0 2 1 4 1 3 2 0 0 1 0 0 0 0 1 4 1 1 0 2 0 1 1 1 2 1 0 4 3 3 1 2 1 1 0 0 0 1 2 0 0 2 0 1 2 1 1 4 0 2 1 1 0 0 1 1 4 0 1 0 7 3 3 0 0 1 2 0 2 1 2 5 1 3 1 2 0 3 0 2 1 4 1 4 513 2 1 51 2 0 1 1 1 0 997 4 2 1 2 1 1 1 0 4 1 1 2 7 4 2 1 2 482 3 2 5 7 1120 2 2 2 1 1 0 370 3 1 3 4 1 2 3 3 1 3 1 4 1 3 2 1 3 1 1 2 2 1 2 2 1 5 0 1 2 1 2 3 4 3 0 1 1923 0 2473 0 1 2 3 6 1 4 3 1 3246 4 0 2 2 2 1 1 4 4 2 1 3 0 0 1 1 0 3 0 1 3 0 2 7 2 3 3 0 1 3 2 1 373 2 1 2 2 0 1 3 0 5 0 1 2 3 3 1 4 5 2 0 2 7890 0 1 1 1 1 2 7 1 10 3 4 3 4 2 4 2 2 1 0 5 1 1 2 1 25 1 0 4 1 1 1 482 1 1 2 3 3 2 2 2 1 1 5 5 2 1 2 2 1 3 2 1 4 2 2 2 1 3 5 0 1 4 1 0 2 1 0 1 4 2 2 1 3 1 3 2 0 1 1 3 2 1 0 2 0 0 3 2 1 2 2 1 5 0 1 8 0 3 3 1 2 2 5 2 4 0 2406 4 0 2 1 2 0 0 1 484 0 1 1 4 120 1 0 0 484 3 2 1 2 0 0 1 4 1 4 2 2 0 2 0 1 2 6 1022 1 7 0 0 1 2 3 4 0 2 963 2 1 1 1 0 4 1 3 0 1 2 2405 3 1 2 2 0 2 4 2009 3 4 3 2 0 0 4 3 4 1 2 2 1 1 3 2 3 1 1 1 2 2 3466 3 4 0 0 2 1 1 3 2 3 0 0 1 2 1477 2 0 4 1 1 1 1 1 19 0 1 1 0 4 3 0 2 1 3 2 1 1 2 1 2 2 0 3 2 1 0 3 1 1 2 2 1 1 0 2 1 1 1 2 1 3 3 2 1 3 0 1 5 0 2 2 0 2 1 1 2 2 2 0 3 0 1 1 2 2 4 1 1 1 1 4 1 3 3 1 2 0 1 1 1 4 1 2 1 1 1 2 0 1 4 2 3 1 4 2 1 1 2 2 3 1 1 1 4 0 26 2 2 3 1 0 3 113 2 1 1 3 0 2 2 1 1 3 2 3 0 2 1 6 2 1 3 1 0 2 1476 0 1 1365 1 1 1 0 0 2 0 0 2 1364 0 2 1 3 4 1 2 0 1 1 1 0 1 0 0 3 1 0 1 0 0 1 1 0 0 0 1 0 0 0 0 0 1 0 2 0 2 0 1 0 1 0 0 4 24 0 1 1 3 1 1 0 2 3 142 0 4 0 1 2 1 1 1 0 2 0 3 358 0 1 5 0 0 1 0 2 1 2 1 1 32 3 2 2 0 1 1 0 0 0 3 0 1 1 0 0 0 1 0 1 1 0 1 471 2 1 2 1 2 2 2 2 1 0 1 2 3 0 0 1 2 1 7 1 0 1 1 10 3 0 0 1 2 1 0 0 4 1 3 0 2 1 3 2 1 3 4 2 1921 0 1 0 3 2 1 28 3 3 2 3 1480 0 0 2 1476 1 1 1 1 1 2 0 2 995 0 1 5 0 1 1 3 1 2 3 3 2880 0 1 3 0 2 5 2 1 2 1 3 3 1 1 1 277 2 1 1 4 2 1 4 1 1 3 3 1 1 0 1 0 2 1 2 3 0 0 1 1 0 2 3 1 0 2 3 0 1 2 1 1 960 2 1 0 0 3 2 961 0 0 0 3 482 0 2 1 3 3 2 1 627 1 2 5460 3 2 14753 961 1 3 3 3 1 1 0 0 0 2 3 1 2 0 0 3 3 1 161 2 0 0 1 1476 239 2 2 1 2 2 1 713 0 2 0 1 2 1 0 0 0 667 0 1 2 0 3 0 4 1 1 0 2 1 1 3 0 3 0 1 0 1 1 1 4 0 1 572 0 2 2 2 0 1 0 0 995 1 1 1 3 2 3 0 4 0 0 1 3 1475 1 2834 1 0 2 3 3 2 5 2 1736 1 380 3 0 2 1 3 226 6 98 0 2 1 2036 0 242 0 5 1477 2 2 1 1 1 0 1 2 0 2 0 1 2 3 2 1 4 393 2 3 997 0 1 0 3 1 3 2 2 2 2 1 0 2 241 2 1 0 1 2 0 0 0 2 0 1 1 3 0 2 2 2 3 5 2 1 2 2 3 1 1 2 2 1 0 2 2 2 2 0 0 1 0 0 1 0 0 1 1 1 2 1 1 2 0 0 0 2 1 1 1 0 2 1 2 2 137 0 1 2 1 1 1 2 1 2 1 0 1 0 2 1 0 1 2 1 3 2 2 2 0 4 0 1 0 0 2 2 0 4 1477 5 0 2 2 1862 1 0 0 1 6 3 3 1 4 1 3 1 0 0 2 4 5 2881 2 0 4 0 1 1 1 1 2 1 0 2 0 1 3 2 2 0 0 3 4 1 0 0 2 3 1 0 4 3 1 0 3 3 0 1 1 4 0 0 0 2 1 0 4 0 1 0 2 2 3 0 2 1 209 1 2 1 0 2 1487 2 3 0 3 2 1 1 2 1 2 1 1 0 0 0 4 2 2 2 1 1 2 1478 3 3 1 1 3 3 0 2 2 1 4 4 2 3 3 2 2948 3 1 2 4 2 1 3 4979 3 2 3 2 2 2 1 1 1 0 1 1 0 3 2 0 2 0 1 1 0 1 4 1 3 0 0 0 2 1 2 1 0 0 3 1 1 0 0 0 3 1 1 0 1 3 1 1 2 0 0 2 1 2 2 1 2 2 0 1 0 0 1 0 2 1 0 0 5 1 3 1 2 3 1 2 2 0 0 0 1 1 1 4 3 3 2 3 1 4 3 2 2 2 1 3 1 1 2 1 7 1 2 2 3 2 3 2 4 2 0 4 1 2 2 5 1019 5 3 2 1991 2 1 4 1 1 1 3 2 0 2 3 3 4 0 2 1 1 2 4 4 1 1 1 2 1 2 2 2 3 5 2 2 3 4 1 1 3 2 5 3 1 1480 2 1 3 3 3 3 2 1 3 3 3 0 1 2 1 1 1 2 2 1 0 1 3 1 2 2 2 1 2 2 1 1 0 0 4 2 6 5 0 2 1 3 1 1 0 3 2 2 1 4 2 1 2 1 2 0 1475 4 0 2 2 1 1 0 2 1 2 0 0 1 0 1 3 1 7 1 3 2 1 2 0 0 0 3 0 3 2 0 3 1 2 1 1 1 1 1 1 0 1 0 5 2 2 0 1 0 2 4 6 5 1 2 3 1018 1 2 2 0 1 3 1 2 2 0 0 3 2 1 1 2 2 0 1 0 1 4 3 0 0 2 4 2 3 5 4 1 3 2 1 0 3 1 2 4 1 2 6 4 0 1 2 1 0 1 0 4 3 2 1 2 1 1 28 3 0 2 4 2 3 1 4 0 5 2 2 0 2 1 1476 0 2 1 1 1 1 1 1 4 2 0 1 0 1 2 4 3 995 3 144 2 0 1 0 0 1 3 2 3 5 0 2 4 145 2 10 1 2 2 1 2 3 0 3 0 2 1 3 25 1 1 2 1 1 3 1 3 2 1 0 1 492 1 0 3 1 4 1 3 3 2 2 0 0 3 27 1 0 0 4 4 1 1 2 0 1 0 0 2 1 0 3 0 2 1 2 2 0 4 3 2 0 2 2 6 1 0 1 0 1 2 2 1 0 0 1 4 0 1 1 2 3 1 3 1478 1 3 3 3 0 3 3 2 0 2 2 6 2 0 3 1 1 1 3 1 3 5 1 1 2 0 3 1905 3 3 1 3 2 2 3 1 2 2 1 3 4 1 1 1 4 2 0 3 0 2 2 4 1 2 3 2 1 28 4 31 1 0 0 0 0 2389 3 1 3 8 3 0 2 2 3 2 2 0 7 2 6 5 1 3 2 4 0 2 3 1 0 1 0 3 0 0 1 0 2 484 3 2 0 2 1 3 1 3 2 1477 3 1 3 1 3 4 2 1 4 0 1 1 1 0 2 3 2 3 2 1 2 1 2 0 1 3 1 0 4 0 2 1 4 3 2954 2 3 4 1 3 3 4 1 4 3 2 0 1 2 2 3 0 3 3 4 1 2 2 1 4 2 2 2 0 3 1 4 24 0 4 0 1 2 2 3 0 3 1 2 2 5 0 0 1 32 1 0 1 1 0 0 0 1 2 0 3 2 1 3 2 1 1 2 3 2 2 1 2 1 1 1 2 1 2 482 1 1 0 0 2 0 2 2 1 1 3 3 2 2 2 1 3 4 3 22 1 6 2 2 1 0 120 3 2 2 1 0 2 3 4 0 4 25 4 0 0 0 3 1 1 2 1 2 5 4 1 1 2 3 1 3 3 1923 2 2 1 2 1 1 1 3 0 3 4 0 2 0 1 2 2 3 2 0 1 2 1 3 0 2 0 1 1 6 3 1 3 2 1 2 1 4 1477 2 11 5 3 2 3 4 2 2 4 2 3 3 3 4 4 2 4935 2 0 8 996 3 4 3 4 0 2 2 4 3 0 0 1 2 3 1 6 3 7 93 3 1 1 3 5 3 2 3 2 2 0 2 4 1 1 4 2 1 52 6 2 4 4 3 1 2 1 1 3 0 3 0 1 7 0 2 4 2 2 3 2 0 3 3 40 2 484 12 1270 4 3 1924 4 3 9 3 1 1 1 2 5 4 240 3 3 768 1 1 3 1 3 2 4 2 1 1 1 2 3 0 2 2 3 4 1 3 2 0 4 3 0 998 1 0 1 4 3 482 1 1 0 1 1 3 1 2 3 1 1921 2 5 2 3 2 1 3 3 2 1 0 2 1 1 3 2 3 3 1 371 966 0 2 0 1 3 2 1 3 1 4 2 1 1 1 2 1 4 4 3 0 2 4 1 2 3 1 3 4 1 2 2 1 4 1 3 0 2 0 2 1477 1 0 0 1 1 3 0 0 1 2 1 2 1 0 2 1 4 2 1 2 0 3 1 1 3 0 1 5 100 2 2 0 2 2 2 1 1 1 0 0 1 1 0 4 2 2 2 3 1 3 3 32 1 1 3 4 1 2 4 2 2 4 0 4 1 3 2 2 1 3 2 3 4 3 2 4 4 2 2 2 1 1 1 0 4 1 1 1 1 2 2 1 2 485 0 1 2 2 2 4 0 6 1 2 2 1 1 3 4 2 3 1 3 1 2 2 2 2 3 2 2 2 3 0 4 1 1 3 2 2 2 998 0 6 2 1 1 1 8 2 0 2 0 3 1 2 0 1 2 2 1 3 6 1 1 1 1 2 3 0 3 3 2 0 3 2 0 3 0 1 3 3 1 1 1 1 0 3 0 0 1 5 2 2 1 1 3 2 1 2 0 2 1 3 4 4591 2 1 1477 3 3 1 1 0 2 2 2 0 0 3 2 1 2 2 2 0 3 1 1 1 451 1 3 3 4 0 1 3 1 1 1 3 1 4 1192 995 4 0 2 4 4 1 4 1 2401 4 1 1 1 1 2 3 2 1 2 3 3 15 2 3 2 485 2 4 9 1 78 3 3 1 1 2 1 3 1 1 1 4 2 2 0 4 0 0 1 3 2887 2 3 1 2 2 2 4 2 2 1 1 1 1 2 3 1 3 1 4 3 1 0 1 2 0 2 0 3 0 4 9 0 0 1 3 995 2 3 6 0 3 41 1 3 2 4 0 1 3 2 1 1 2 2 3 0 0 0 3 1 2 3 3 4 2 12 2 1 2 0 2 1 2 0 3 1 2 1 0 4 0 1 1 2 1 3 3 0 3 3 3 0 4 0 521 4 0 1 3 1 0 3 1 3 2 0 3 4 1 2 1 3 1 2 2402 2 3 10 2 3 2 4 2 2 4 0 3 3 3 997 2 1 2 0 3 0 2 2 2 4 1 3 961 1 6 1 3 2 1441 0 0 2 1 2 5 6 1 2 20652 0 0 1 2 0 0 2 1 3 257 2 1 0 34 2 1 3 1 4 0 2 1 2 4 0 1 0 1 2 2 1 2 3 1 3 2 2 1 3 0 4 2 2 4 0 3 0 3 2 3 2 1 2 0 2 1 2 1 1 3 0 2 2 1 2 1 0 3 2 1 2174 4 2 3 1 2 0 1 3 997 1 0 0 1 1 1 0 2 2 2 6 3 0 3 1 7 2 4 0 0 13 0 2 19 3 0 4 2 2 2 4 2 2 0 1 0 5 5 1 0 3 1 2 3 4 3 2 5 1 1 5 2 4 1 2 3 2 4 1 2 2 1 28 3 1 370 0 1476 2 3 184 3 2 2 0 1 3 1 3 2 3 1 0 1 5 0 2 1 2 4 1 482 2 4 0 3 2 1 0 4 1 484 3 1923 1 1 4 0 3 2 4 4 8 1 4 0 3 4 0 483 3 1 2 3 3 1 2 0 4 1 371 1475 2 1 2 0 2 2 2 1 2 0 4 3 2 1 1 2 2883 0 1478 1 2 2 2 1 3 1 4 2 3 1 3 3 3 2 3 3 0 2 5 0 4496 0 1217 3 1 1 2 1 0 2 1 2 2 3 5 2 2 2 1 2 4 2 1 2 2 0 2 0 3 1927 996 2 4 4 1 2 1 4 2 1 1 2 3 0 1 2 0 0 2 1 0 2 0 1 1 1 1 1 3 0 3 1 3 3 3 0 1 1 3 1 1 2 1 0 1 0 1 3 2 2 3 1 2 1 516 0 1 0 2 2 3 0 1 1 0 1 1 0 1 1 2 1 1 1 0 28 1 0 2 1 0 0 1 3 2 2 2 2 1 1 1 2 4 0 2 1 4 2 1 0 0 3 0 0 1 2 3 2 962 3 8 3 1 1 2 1 2 0 2 3 0 1 1 2 1 3 10 3 1 1 1 4 1 2 2 2 1 2 3216 1 1 1270 5 2 2 2 1 2 4 2 2 5 1 3 1 1 4 3 963 2 3 1 1 2 1 3 192 4 1 0 3 2 0 0 1 0 0 2 2 1 1 2 1 4 0 2 1 0 0 3 1 2 2 1277 3 2 2 1 484 1 1 1 4 4 0 0 3 0 3 2 1 0 0 3 4 4 2 0 0 3 1 2 0 1 1 1 3 1 1 2 2 2 5 2 1 1 32 1 2 2 1 2 0 1 2 2 1 2 3 1 1 1 1 3 2 9 2 2 1 2 1 8 2 1 0 
