
*** ChampSim Multicore Out-of-Order Simulator ***

Warmup Instructions: 50000000
Simulation Instructions: 50000000
Number of CPUs: 1
LLC sets: 2048
LLC ways: 16
Off-chip DRAM Size: 4096 MB Channels: 1 Width: 64-bit Data Rate: 6400 MT/s
CPU 0 runs ./micro_traces/srv660.trace.gz
.gz
ITLB has LRU replacement policy
DTLB has LRU replacement policy
STLB has LRU replacement policy
FDIP Prefetcher at L1I
L1I has LRU replacement policy
L1D has LRU replacement policy
Initialize SRRIP state for L2C
Initialize DRRIP state for LLC
Heartbeat_Variant_0 : 1261 0.307861 per_variant_size: 0 1261 0 0 0 0 0 0 0 
Heartbeat_Variant_1 : 1163 0.283936 per_variant_size: 0 583 580 0 0 0 0 0 0 
Heartbeat_Variant_2 : 949 0.231689 per_variant_size: 0 545 262 100 42 0 0 0 0 
Heartbeat_Variant_3 : 700 0.170898 per_variant_size: 0 457 187 47 6 3 0 0 0 
Heartbeat_Variant_0_evicts 0 : 7512 1 : 1897 2 : 1439 3 : 1175 
Heartbeat_Variant_1_evicts 0 : 1878 1 : 0 2 : 1472 3 : 1235 
Heartbeat_Variant_2_evicts 0 : 1435 1 : 1481 2 : 0 3 : 808 
Heartbeat_Variant_3_evicts 0 : 1156 1 : 1214 2 : 805 3 : 0 
Heartbeat CPU 0 instructions: 10000001 cycles: 2795805 heartbeat IPC: 3.57679 cumulative IPC: 3.57679 (Simulation time: 0 hr 1 min 44 sec) 
Heartbeat_Variant_0 : 1268 0.30957 per_variant_size: 0 1268 0 0 0 0 0 0 0 
Heartbeat_Variant_1 : 1171 0.285889 per_variant_size: 0 579 592 0 0 0 0 0 0 
Heartbeat_Variant_2 : 941 0.229736 per_variant_size: 0 527 271 101 42 0 0 0 0 
Heartbeat_Variant_3 : 700 0.170898 per_variant_size: 0 457 179 55 8 1 0 0 0 
Heartbeat_Variant_0_evicts 0 : 6985 1 : 1406 2 : 1124 3 : 838 
Heartbeat_Variant_1_evicts 0 : 1422 1 : 0 2 : 1003 3 : 963 
Heartbeat_Variant_2_evicts 0 : 1100 1 : 1017 2 : 0 3 : 680 
Heartbeat_Variant_3_evicts 0 : 840 1 : 959 2 : 682 3 : 0 
Heartbeat CPU 0 instructions: 20000002 cycles: 5591503 heartbeat IPC: 3.57692 cumulative IPC: 3.57686 (Simulation time: 0 hr 3 min 23 sec) 
Heartbeat_Variant_0 : 1270 0.310059 per_variant_size: 0 1270 0 0 0 0 0 0 0 
Heartbeat_Variant_1 : 1157 0.282471 per_variant_size: 0 552 605 0 0 0 0 0 0 
Heartbeat_Variant_2 : 939 0.229248 per_variant_size: 0 526 264 103 46 0 0 0 0 
Heartbeat_Variant_3 : 719 0.175537 per_variant_size: 0 470 192 47 9 1 0 0 0 
Heartbeat_Variant_0_evicts 0 : 6883 1 : 1461 2 : 1144 3 : 918 
Heartbeat_Variant_1_evicts 0 : 1449 1 : 0 2 : 1144 3 : 1020 
Heartbeat_Variant_2_evicts 0 : 1143 1 : 1105 2 : 0 3 : 723 
Heartbeat_Variant_3_evicts 0 : 929 1 : 1063 2 : 685 3 : 0 
Heartbeat CPU 0 instructions: 30000002 cycles: 8386389 heartbeat IPC: 3.57796 cumulative IPC: 3.57723 (Simulation time: 0 hr 5 min 0 sec) 
Heartbeat_Variant_0 : 1269 0.309814 per_variant_size: 0 1269 0 0 0 0 0 0 0 
Heartbeat_Variant_1 : 1171 0.285889 per_variant_size: 0 577 594 0 0 0 0 0 0 
Heartbeat_Variant_2 : 924 0.225586 per_variant_size: 0 497 257 129 41 0 0 0 0 
Heartbeat_Variant_3 : 724 0.176758 per_variant_size: 0 486 181 43 11 3 0 0 0 
Heartbeat_Variant_0_evicts 0 : 7164 1 : 1395 2 : 1148 3 : 833 
Heartbeat_Variant_1_evicts 0 : 1406 1 : 0 2 : 1090 3 : 974 
Heartbeat_Variant_2_evicts 0 : 1136 1 : 1074 2 : 0 3 : 671 
Heartbeat_Variant_3_evicts 0 : 835 1 : 990 2 : 658 3 : 0 
Heartbeat CPU 0 instructions: 40000002 cycles: 11182618 heartbeat IPC: 3.57625 cumulative IPC: 3.57698 (Simulation time: 0 hr 6 min 40 sec) 
Heartbeat_Variant_0 : 1256 0.306641 per_variant_size: 0 1256 0 0 0 0 0 0 0 
Heartbeat_Variant_1 : 1177 0.287354 per_variant_size: 0 587 590 0 0 0 0 0 0 
Heartbeat_Variant_2 : 943 0.230225 per_variant_size: 0 517 278 101 47 0 0 0 0 
Heartbeat_Variant_3 : 713 0.174072 per_variant_size: 0 460 191 49 10 3 0 0 0 
Heartbeat_Variant_0_evicts 0 : 6930 1 : 1162 2 : 898 3 : 760 
Heartbeat_Variant_1_evicts 0 : 1164 1 : 0 2 : 935 3 : 882 
Heartbeat_Variant_2_evicts 0 : 911 1 : 948 2 : 0 3 : 581 
Heartbeat_Variant_3_evicts 0 : 758 1 : 865 2 : 589 3 : 0 
Heartbeat CPU 0 instructions: 50000000 cycles: 13980224 heartbeat IPC: 3.57448 cumulative IPC: 3.57648 (Simulation time: 0 hr 8 min 18 sec) 

Warmup complete CPU 0 instructions: 50000004 cycles: 13980225 (Simulation time: 0 hr 8 min 18 sec) 

Cycle: 20000000 FTQ IN: 57768436 FTQ occupancy: 19.2055 DECODE IN: 57768421 DECODE occupancy: 49.6579 ROB IN: 57768404 ROB occupancy: 300.735 ROB OUT: 57768222
Heartbeat_Variant_0 : 1273 0.310791 per_variant_size: 0 1273 0 0 0 0 0 0 0 
Heartbeat_Variant_1 : 1194 0.291504 per_variant_size: 0 565 629 0 0 0 0 0 0 
Heartbeat_Variant_2 : 915 0.223389 per_variant_size: 0 491 258 116 50 0 0 0 0 
Heartbeat_Variant_3 : 707 0.172607 per_variant_size: 0 450 196 45 13 3 0 0 0 
Heartbeat_Variant_0_evicts 0 : 7312 1 : 1757 2 : 1370 3 : 1058 
Heartbeat_Variant_1_evicts 0 : 1744 1 : 0 2 : 1351 3 : 1117 
Heartbeat_Variant_2_evicts 0 : 1347 1 : 1325 2 : 0 3 : 863 
Heartbeat_Variant_3_evicts 0 : 1077 1 : 1113 2 : 842 3 : 0 
Heartbeat CPU 0 instructions: 60000001 cycles: 21729960 heartbeat IPC: 1.29037 cumulative IPC: 1.29037 (Simulation time: 0 hr 10 min 0 sec) 
Heartbeat_Variant_0 : 1286 0.313965 per_variant_size: 0 1286 0 0 0 0 0 0 0 
Heartbeat_Variant_1 : 1152 0.28125 per_variant_size: 0 526 626 0 0 0 0 0 0 
Heartbeat_Variant_2 : 939 0.229248 per_variant_size: 0 505 293 102 39 0 0 0 0 
Heartbeat_Variant_3 : 712 0.173828 per_variant_size: 0 470 175 53 11 3 0 0 0 
Heartbeat_Variant_0_evicts 0 : 6700 1 : 1201 2 : 847 3 : 745 
Heartbeat_Variant_1_evicts 0 : 1152 1 : 0 2 : 763 3 : 775 
Heartbeat_Variant_2_evicts 0 : 867 1 : 758 2 : 0 3 : 512 
Heartbeat_Variant_3_evicts 0 : 761 1 : 773 2 : 503 3 : 0 
Heartbeat CPU 0 instructions: 70000001 cycles: 29102111 heartbeat IPC: 1.35646 cumulative IPC: 1.32259 (Simulation time: 0 hr 11 min 43 sec) 
Cycle: 30000000 FTQ IN: 13460867 FTQ occupancy: 11.1791 DECODE IN: 13460742 DECODE occupancy: 27.9945 ROB IN: 13460699 ROB occupancy: 203.177 ROB OUT: 13460529
Heartbeat_Variant_0 : 1258 0.307129 per_variant_size: 0 1258 0 0 0 0 0 0 0 
Heartbeat_Variant_1 : 1164 0.28418 per_variant_size: 0 570 594 0 0 0 0 0 0 
Heartbeat_Variant_2 : 942 0.22998 per_variant_size: 0 524 273 102 43 0 0 0 0 
Heartbeat_Variant_3 : 725 0.177002 per_variant_size: 0 481 185 50 8 1 0 0 0 
Heartbeat_Variant_0_evicts 0 : 6881 1 : 1196 2 : 1021 3 : 753 
Heartbeat_Variant_1_evicts 0 : 1221 1 : 0 2 : 967 3 : 865 
Heartbeat_Variant_2_evicts 0 : 1013 1 : 964 2 : 0 3 : 612 
Heartbeat_Variant_3_evicts 0 : 764 1 : 881 2 : 598 3 : 0 
Heartbeat CPU 0 instructions: 80000000 cycles: 36601835 heartbeat IPC: 1.33338 cumulative IPC: 1.32617 (Simulation time: 0 hr 13 min 26 sec) 
Cycle: 40000000 FTQ IN: 13293721 FTQ occupancy: 11.0347 DECODE IN: 13293861 DECODE occupancy: 27.2408 ROB IN: 13293872 ROB occupancy: 199.702 ROB OUT: 13293876
Heartbeat_Variant_0 : 1270 0.310059 per_variant_size: 0 1270 0 0 0 0 0 0 0 
Heartbeat_Variant_1 : 1177 0.287354 per_variant_size: 0 603 574 0 0 0 0 0 0 
Heartbeat_Variant_2 : 935 0.228271 per_variant_size: 0 515 277 103 40 0 0 0 0 
Heartbeat_Variant_3 : 707 0.172607 per_variant_size: 0 464 176 52 12 3 0 0 0 
Heartbeat_Variant_0_evicts 0 : 7085 1 : 1463 2 : 1130 3 : 907 
Heartbeat_Variant_1_evicts 0 : 1457 1 : 0 2 : 1090 3 : 1080 
Heartbeat_Variant_2_evicts 0 : 1127 1 : 1074 2 : 0 3 : 704 
Heartbeat_Variant_3_evicts 0 : 904 1 : 1077 2 : 692 3 : 0 
Heartbeat CPU 0 instructions: 90000003 cycles: 44077423 heartbeat IPC: 1.33769 cumulative IPC: 1.32903 (Simulation time: 0 hr 15 min 5 sec) 
Cycle: 50000000 FTQ IN: 13389066 FTQ occupancy: 11.153 DECODE IN: 13389002 DECODE occupancy: 27.5804 ROB IN: 13388991 ROB occupancy: 200.967 ROB OUT: 13389193
Heartbeat_Variant_0 : 1265 0.308838 per_variant_size: 0 1265 0 0 0 0 0 0 0 
Heartbeat_Variant_1 : 1163 0.283936 per_variant_size: 0 559 604 0 0 0 0 0 0 
Heartbeat_Variant_2 : 942 0.22998 per_variant_size: 0 523 270 100 49 0 0 0 0 
Heartbeat_Variant_3 : 720 0.175781 per_variant_size: 0 466 196 49 7 2 0 0 0 
Heartbeat_Variant_0_evicts 0 : 6891 1 : 1216 2 : 916 3 : 704 
Heartbeat_Variant_1_evicts 0 : 1221 1 : 0 2 : 918 3 : 868 
Heartbeat_Variant_2_evicts 0 : 900 1 : 914 2 : 0 3 : 544 
Heartbeat_Variant_3_evicts 0 : 720 1 : 891 2 : 518 3 : 0 
Heartbeat CPU 0 instructions: 100000002 cycles: 51560915 heartbeat IPC: 1.33627 cumulative IPC: 1.33047 (Simulation time: 0 hr 16 min 45 sec) 
Finished CPU 0 instructions: 50000002 cycles: 37580691 cumulative IPC: 1.33047 (Simulation time: 0 hr 16 min 45 sec) 

ChampSim completed all CPUs

Region of Interest Statistics

CPU 0 cumulative IPC: 1.33047 instructions: 50000002 cycles: 37580691
 Fetch stage stalled: 59.7069  Sim cycles: 37580691 fetch stall cycle: 22438252
 Empty decode stage: 44.7008  Sim cycles: 37580691 fetch stall cycle: 16798859
ITLB TOTAL     ACCESS:    5823390  HIT:    5331037  MISS:     492353  HIT %:    91.5453  MISS %:    8.45475   MPKI: 9.84706
ITLB LOAD TRANSLATION INSTRUCTION	ACCESS:    5701470  HIT:    5209117  MISS:     492353  HIT %:    91.3645  MISS %:    8.63554  MPKI: 9.84706
ITLB TRANSLATION FROM L1D PREFETCHER INSTRUCTION	ACCESS:     121920  HIT:     121920  MISS:          0  HIT %:        100  MISS %:          0  MPKI: 0

ITLB AVERAGE MISS LATENCY: 9.05962 cycles
ITLB RQ	ACCESS:    7902013	FORWARD:          0	MERGED:    1631327	TO_CACHE:    6270686

DTLB TOTAL     ACCESS:    9017503  HIT:    8541375  MISS:     476128  HIT %:      94.72  MISS %:    5.28004   MPKI: 9.52256
DTLB LOAD TRANSLATION DATA	ACCESS:    9017503  HIT:    8541375  MISS:     476128  HIT %:      94.72  MISS %:    5.28004  MPKI: 9.52256

DTLB AVERAGE MISS LATENCY: 9.33376 cycles
DTLB RQ	ACCESS:   13367337	FORWARD:          0	MERGED:    4312754	TO_CACHE:    9054583

STLB TOTAL     ACCESS:    1219997  HIT:    1217938  MISS:       2059  HIT %:    99.8312  MISS %:   0.168771   MPKI: 0.04118
STLB LOAD TRANSLATION INSTRUCTION	ACCESS:     492353  HIT:     492077  MISS:        276  HIT %:    99.9439  MISS %:  0.0560573  MPKI: 0.00552
STLB LOAD TRANSLATION DATA	ACCESS:     476074  HIT:     474308  MISS:       1766  HIT %:     99.629  MISS %:   0.370951  MPKI: 0.03532
STLB TRANSLATION FROM L1D PREFETCHER DATA	ACCESS:     251570  HIT:     251553  MISS:         17  HIT %:    99.9932  MISS %: 0.00675756  MPKI: 0.00034

STLB AVERAGE MISS LATENCY: 77.12 cycles
STLB RQ	ACCESS:    1355473	FORWARD:          0	MERGED:     135451	TO_CACHE:    1220022

STLB Hit, L1D data hit: 0
STLB Hit, L2C data hit: 0
STLB Hit, LLC data hit: 0
STLB Hit, LLC data miss: 0
STLB STLB hints to L2: 0
L1D TOTAL     ACCESS:   13120443  HIT:   11972588  MISS:    1147855  HIT %:    91.2514  MISS %:     8.7486   MPKI: 22.9571
L1D LOAD DATA	ACCESS:    6603422  HIT:    5846623  MISS:     756799  HIT %:    88.5393  MISS %:    11.4607  MPKI: 15.136
L1D RFO DATA	ACCESS:    6184960  HIT:    5897074  MISS:     287886  HIT %:    95.3454  MISS %:    4.65461  MPKI: 5.75772
L1D PREFETCH DATA	ACCESS:     332061  HIT:     228891  MISS:     103170  HIT %:    68.9304  MISS %:    31.0696  MPKI: 2.0634

L1D PREFETCH  REQUESTED:     774284  ISSUED:     774284  USEFUL:      44022  USELESS:      69958
L1D USEFUL LOAD PREFETCHES:      44022 PREFETCH ISSUED TO LOWER LEVEL:     114002  ACCURACY: 38.6151
 TIMELY PREFETCHES:      44022 LATE PREFETCHES: 10787 DROPPED PREFETCHES: 5
L1D AVERAGE MISS LATENCY: 314377 cycles
L1D RQ	ACCESS:   10719496	FORWARD:          0	MERGED:    3919894	TO_CACHE:    6637390
L1D WQ	ACCESS:    6921301	FORWARD:     162512	MERGED:     191354	TO_CACHE:    6729947
L1D PQ	ACCESS:     387292	FORWARD:          0	MERGED:          0	TO_CACHE:     386992

L1D UNIQUE REGIONS ACCESSED: 0
L1D REGIONS CONFLICTS: 0
L1D Cross Page Prefetch Requests: 5858
L1D Same Page Prefetch Requests: 785246
L1D ROI Sum of L1D PQ occupancy: 4915198
L1D PREFETCHES PUSHED FROM L2C: 0
L1I TOTAL     ACCESS:    7120463  HIT:    4366487  MISS:    2753976  HIT %:    61.3231  MISS %:    38.6769   MPKI: 55.0795
L1I LOAD INSTRUCTION	ACCESS:    6489248  HIT:    3735272  MISS:    2753976  HIT %:    57.5609  MISS %:    42.4391  MPKI: 55.0795
L1I PREFETCH INSTRUCTION	ACCESS:     631215  HIT:     631215  MISS:          0  HIT %:        100  MISS %:          0  MPKI: 0

L1I PREFETCH  REQUESTED:    1505960  ISSUED:    1505960  USEFUL:          0  USELESS:          0
L1I USEFUL LOAD PREFETCHES:          0 PREFETCH ISSUED TO LOWER LEVEL:          0  ACCURACY: -nan
 TIMELY PREFETCHES:          0 LATE PREFETCHES: 0 DROPPED PREFETCHES: 0
L1I AVERAGE MISS LATENCY: 17.522 cycles
L1I RQ	ACCESS:    9493823	FORWARD:          0	MERGED:    2685590	TO_CACHE:    6808233
L1I PQ	ACCESS:    1505960	FORWARD:          0	MERGED:     412180	TO_CACHE:    1093780

L1BTB TOTAL     ACCESS:    5676443  HIT:    2059314  MISS:    3617129  HIT %:    36.2782  MISS %:    63.7218   MPKI: 72.3426
L1BTB BRANCH_DIRECT_JUMP	ACCESS:     546038 HIT:     143443 MISS:     402595 AVERAGE STALL: 44.3431 AVERAGE FETCH STALL: 18.0264 AVERAGE FETCH QUEUE STALL: 13.8713 AVERAGE DECODE STALL: 11.5608 AVERAGE EXECUTE STALL: 1.1464e+15
L1BTB BRANCH_INDIRECT	ACCESS:     181869 HIT:      65539 MISS:     116330 AVERAGE STALL: 96.6868 AVERAGE FETCH STALL: 11.4086 AVERAGE FETCH QUEUE STALL: 14.0906 AVERAGE DECODE STALL: 10.7874 AVERAGE EXECUTE STALL: 59.4445
L1BTB BRANCH_CONDITIONAL	ACCESS:    2723111 HIT:    1434503 MISS:    1288608 AVERAGE STALL: 49.3789 AVERAGE FETCH STALL: 22.996 AVERAGE FETCH QUEUE STALL: 13.9375 AVERAGE DECODE STALL: 11.7064 AVERAGE EXECUTE STALL: 6.74544e+14
L1BTB BRANCH_DIRECT_CALL	ACCESS:     941170 HIT:     105060 MISS:     836110 AVERAGE STALL: 51.4625 AVERAGE FETCH STALL: 23.581 AVERAGE FETCH QUEUE STALL: 15.0522 AVERAGE DECODE STALL: 12.066 AVERAGE EXECUTE STALL: 7.22637e+14
L1BTB BRANCH_INDIRECT_CALL	ACCESS:     171552 HIT:      21589 MISS:     149963 AVERAGE STALL: 129.595 AVERAGE FETCH STALL: 14.1817 AVERAGE FETCH QUEUE STALL: 11.3479 AVERAGE DECODE STALL: 9.05608 AVERAGE EXECUTE STALL: 94.5042
L1BTB BRANCH_RETURN	ACCESS:    1112703 HIT:     289180 MISS:     823523 AVERAGE STALL: 44.5689 AVERAGE FETCH STALL: 17.8304 AVERAGE FETCH QUEUE STALL: 6.04147 AVERAGE DECODE STALL: 6.81592 AVERAGE EXECUTE STALL: 3.38181e+14
L1BTB BRANCH_OTHER ACCESS:          0 HIT:          0 MISS:          0 AVERAGE STALL: -nan AVERAGE FETCH STALL: -nan AVERAGE FETCH QUEUE STALL: -nan AVERAGE DECODE STALL: -nan AVERAGE EXECUTE STALL: -nan
L1BTB TOTAL ROB OCCUPANCY AT BTB MISS: 5.64711

L2BTB TOTAL     ACCESS:    3591799  HIT:    3456263  MISS:     135536  HIT %:    96.2265  MISS %:    3.77349   MPKI: 2.71072
L2BTB BRANCH_DIRECT_JUMP	ACCESS:     398446 HIT:     386464 MISS:      11982 AVERAGE STALL: 44.3431 AVERAGE FETCH STALL: 18.0264 AVERAGE FETCH QUEUE STALL: 13.8713 AVERAGE DECODE STALL: 11.5608 AVERAGE EXECUTE STALL: 1.1464e+15
L2BTB BRANCH_INDIRECT	ACCESS:     106066 HIT:     102644 MISS:       3422 AVERAGE STALL: 96.6868 AVERAGE FETCH STALL: 11.4086 AVERAGE FETCH QUEUE STALL: 14.0906 AVERAGE DECODE STALL: 10.7874 AVERAGE EXECUTE STALL: 59.4445
L2BTB BRANCH_CONDITIONAL	ACCESS:    1288608 HIT:    1260925 MISS:      27683 AVERAGE STALL: 49.3789 AVERAGE FETCH STALL: 22.996 AVERAGE FETCH QUEUE STALL: 13.9375 AVERAGE DECODE STALL: 11.7064 AVERAGE EXECUTE STALL: 6.74544e+14
L2BTB BRANCH_DIRECT_CALL	ACCESS:     836110 HIT:     810509 MISS:      25601 AVERAGE STALL: 51.4625 AVERAGE FETCH STALL: 23.581 AVERAGE FETCH QUEUE STALL: 15.0522 AVERAGE DECODE STALL: 12.066 AVERAGE EXECUTE STALL: 7.22637e+14
L2BTB BRANCH_INDIRECT_CALL	ACCESS:     140451 HIT:     126806 MISS:      13645 AVERAGE STALL: 129.595 AVERAGE FETCH STALL: 14.1817 AVERAGE FETCH QUEUE STALL: 11.3479 AVERAGE DECODE STALL: 9.05608 AVERAGE EXECUTE STALL: 94.5042
L2BTB BRANCH_RETURN	ACCESS:     822118 HIT:     768915 MISS:      53203 AVERAGE STALL: 44.5689 AVERAGE FETCH STALL: 17.8304 AVERAGE FETCH QUEUE STALL: 6.04147 AVERAGE DECODE STALL: 6.81592 AVERAGE EXECUTE STALL: 3.38181e+14
L2BTB BRANCH_OTHER ACCESS:          0 HIT:          0 MISS:          0 AVERAGE STALL: -nan AVERAGE FETCH STALL: -nan AVERAGE FETCH QUEUE STALL: -nan AVERAGE DECODE STALL: -nan AVERAGE EXECUTE STALL: -nan
L2BTB TOTAL ROB OCCUPANCY AT BTB MISS: 150.708

L2C TOTAL     ACCESS:    4514673  HIT:    4012703  MISS:     501970  HIT %:    88.8814  MISS %:    11.1186   MPKI: 10.0394
L2C LOAD INSTRUCTION	ACCESS:    2753976  HIT:    2467186  MISS:     286790  HIT %:    89.5863  MISS %:    10.4137  MPKI: 5.7358
L2C LOAD TRANSLATION INSTRUCTION	ACCESS:        322  HIT:         87  MISS:        235  HIT %:    27.0186  MISS %:    72.9814  MPKI: 0.0047
L2C LOAD DATA	ACCESS:     745983  HIT:     671073  MISS:      74910  HIT %:    89.9582  MISS %:    10.0418  MPKI: 1.4982
L2C RFO DATA	ACCESS:     287812  HIT:     237354  MISS:      50458  HIT %:    82.4684  MISS %:    17.5316  MPKI: 1.00916
L2C PREFETCH DATA	ACCESS:     199859  HIT:     125231  MISS:      74628  HIT %:    62.6597  MISS %:    37.3403  MPKI: 1.49256
L2C WRITEBACK DATA	ACCESS:     524815  HIT:     511283  MISS:      13532  HIT %:    97.4216  MISS %:    2.57843  MPKI: 0.27064
L2C LOAD TRANSLATION DATA	ACCESS:       1880  HIT:        467  MISS:       1413  HIT %:    24.8404  MISS %:    75.1596  MPKI: 0.02826
L2C TRANSLATION FROM L1D PREFETCHER DATA	ACCESS:         26  HIT:         22  MISS:          4  HIT %:    84.6154  MISS %:    15.3846  MPKI: 8e-05

L2C PREFETCH  REQUESTED:      92704  ISSUED:      92704  USEFUL:       7650  USELESS:      67497
L2C USEFUL LOAD PREFETCHES:       7650 PREFETCH ISSUED TO LOWER LEVEL:      74993  ACCURACY: 10.201
 TIMELY PREFETCHES:       7650 LATE PREFETCHES: 365 DROPPED PREFETCHES: 0
L2C AVERAGE MISS LATENCY: 38.2953 cycles
L2C RQ	ACCESS:    3790054	FORWARD:          0	MERGED:          0	TO_CACHE:    3789996
L2C WQ	ACCESS:     524815	FORWARD:         58	MERGED:          0	TO_CACHE:     524815
L2C PQ	ACCESS:     206706	FORWARD:          0	MERGED:       3464	TO_CACHE:     203242

L2C Dense regions hint from L2: 0
PSCL5 TOTAL     ACCESS:       4128  HIT:       2064  MISS:       2064  HIT %:         50  MISS %:         50   MPKI: 0.04128
PSCL5 LOAD TRANSLATION INSTRUCTION	ACCESS:       4078  HIT:       2039  MISS:       2039  HIT %:         50  MISS %:         50  MPKI: 0.04078
PSCL5 TRANSLATION FROM L1D PREFETCHER INSTRUCTION	ACCESS:         50  HIT:         25  MISS:         25  HIT %:         50  MISS %:         50  MPKI: 0.0005


PSCL4 TOTAL     ACCESS:       3909  HIT:       1947  MISS:       1962  HIT %:    49.8081  MISS %:    50.1919   MPKI: 0.03924
PSCL4 LOAD TRANSLATION INSTRUCTION	ACCESS:       2832  HIT:       1922  MISS:        910  HIT %:    67.8672  MISS %:    32.1328  MPKI: 0.0182
PSCL4 TRANSLATION FROM L1D PREFETCHER INSTRUCTION	ACCESS:         39  HIT:         25  MISS:         14  HIT %:    64.1026  MISS %:    35.8974  MPKI: 0.00028
PSCL4 LOAD TRANSLATION DATA	ACCESS:       1027  HIT:          0  MISS:       1027  HIT %:          0  MISS %:        100  MPKI: 0.02054
PSCL4 TRANSLATION FROM L1D PREFETCHER DATA	ACCESS:         11  HIT:          0  MISS:         11  HIT %:          0  MISS %:        100  MPKI: 0.00022


PSCL3 TOTAL     ACCESS:       4025  HIT:       2005  MISS:       2020  HIT %:    49.8137  MISS %:    50.1863   MPKI: 0.0404
PSCL3 LOAD TRANSLATION INSTRUCTION	ACCESS:       2890  HIT:       1980  MISS:        910  HIT %:    68.5121  MISS %:    31.4879  MPKI: 0.0182
PSCL3 TRANSLATION FROM L1D PREFETCHER INSTRUCTION	ACCESS:         39  HIT:         25  MISS:         14  HIT %:    64.1026  MISS %:    35.8974  MPKI: 0.00028
PSCL3 LOAD TRANSLATION DATA	ACCESS:       1085  HIT:          0  MISS:       1085  HIT %:          0  MISS %:        100  MPKI: 0.0217
PSCL3 TRANSLATION FROM L1D PREFETCHER DATA	ACCESS:         11  HIT:          0  MISS:         11  HIT %:          0  MISS %:        100  MPKI: 0.00022


PSCL2 TOTAL     ACCESS:       3993  HIT:       1929  MISS:       2064  HIT %:    48.3095  MISS %:    51.6905   MPKI: 0.04128
PSCL2 LOAD TRANSLATION INSTRUCTION	ACCESS:       2198  HIT:       1905  MISS:        293  HIT %:    86.6697  MISS %:    13.3303  MPKI: 0.00586
PSCL2 TRANSLATION FROM L1D PREFETCHER INSTRUCTION	ACCESS:         24  HIT:         24  MISS:          0  HIT %:        100  MISS %:          0  MPKI: 0
PSCL2 LOAD TRANSLATION DATA	ACCESS:       1747  HIT:          0  MISS:       1747  HIT %:          0  MISS %:        100  MPKI: 0.03494
PSCL2 TRANSLATION FROM L1D PREFETCHER DATA	ACCESS:         24  HIT:          0  MISS:         24  HIT %:          0  MISS %:        100  MPKI: 0.00048


LLC TOTAL     ACCESS:     561748  HIT:     532370  MISS:      29378  HIT %:    94.7703  MISS %:    5.22975   MPKI: 0.58756
LLC LOAD INSTRUCTION	ACCESS:     286790  HIT:     285678  MISS:       1112  HIT %:    99.6123  MISS %:    0.38774  MPKI: 0.02224
LLC LOAD TRANSLATION INSTRUCTION	ACCESS:        235  HIT:        190  MISS:         45  HIT %:    80.8511  MISS %:    19.1489  MPKI: 0.0009
LLC LOAD DATA	ACCESS:      74566  HIT:      70939  MISS:       3627  HIT %:    95.1359  MISS %:    4.86415  MPKI: 0.07254
LLC RFO DATA	ACCESS:      50434  HIT:      36291  MISS:      14143  HIT %:    71.9574  MISS %:    28.0426  MPKI: 0.28286
LLC PREFETCH DATA	ACCESS:      74993  HIT:      64996  MISS:       9997  HIT %:    86.6694  MISS %:    13.3306  MPKI: 0.19994
LLC WRITEBACK DATA	ACCESS:      73313  HIT:      72951  MISS:        362  HIT %:    99.5062  MISS %:   0.493773  MPKI: 0.00724
LLC LOAD TRANSLATION DATA	ACCESS:       1413  HIT:       1321  MISS:         92  HIT %:     93.489  MISS %:    6.51097  MPKI: 0.00184
LLC TRANSLATION FROM L1D PREFETCHER DATA	ACCESS:          4  HIT:          4  MISS:          0  HIT %:        100  MISS %:          0  MPKI: 0

LLC AVERAGE MISS LATENCY: 153.9 cycles
LLC RQ	ACCESS:     413445	FORWARD:          0	MERGED:          0	TO_CACHE:     413442
LLC WQ	ACCESS:      73313	FORWARD:          3	MERGED:          0	TO_CACHE:      73313
LLC PQ	ACCESS:      74993	FORWARD:          0	MERGED:          0	TO_CACHE:      74993

LLC Dense regions hint to LLC: 0

RAW hits: 1895147
Loads Generated: 12614643
Loads sent to L1D: 10719496
Stores Generated: 6921287
Stores sent to L1D: 6921301
Major fault: 0 Minor fault: 2641
Allocated PAGES: 2641

stream: 
stream:times selected: 1229468
stream:pref_filled: 126708
stream:pref_useful: 28455
stream:pref_late: 8286
stream:misses: 8784
stream:misses_by_poll: 0

CS: 
CS:times selected: 191980
CS:pref_filled: 71628
CS:pref_useful: 47469
CS:pref_late: 8379
CS:misses: 21130
CS:misses_by_poll: 6

CPLX: 
CPLX:times selected: 1036381
CPLX:pref_filled: 23298
CPLX:pref_useful: 6953
CPLX:pref_late: 3574
CPLX:misses: 118325
CPLX:misses_by_poll: 1

NL_L1: 
NL:times selected: 12510
NL:pref_filled: 1476
NL:pref_useful: 241
NL:pref_late: 173
NL:misses: 1525
NL:misses_by_poll: 0

total selections: 2470339
total_filled: 103170
total_useful: 44022
total_late: 22358
total_polluted: 7
total_misses_after_warmup: 790768
conflicts: 5525434

test: 117017

DRAM Statistics
 CHANNEL 0
 RQ ROW_BUFFER_HIT:      10993  ROW_BUFFER_MISS:      18021
 DBUS_CONGESTED:          5
 WQ ROW_BUFFER_HIT:       1410  ROW_BUFFER_MISS:      12449  FULL:          0

 AVG_CONGESTED_CYCLE: 5

CPU 0 Branch Prediction Accuracy: 99.8213% MPKI: 0.32708 Average ROB Occupancy at Mispredict: 165.539
Branch types
NOT_BRANCH: 40846398 81.6928%
BRANCH_DIRECT_JUMP: 546038 1.09208%
BRANCH_INDIRECT: 181869 0.363738%
BRANCH_CONDITIONAL: 6199835 12.3997%
BRANCH_DIRECT_CALL: 941170 1.88234%
BRANCH_INDIRECT_CALL: 171552 0.343104%
BRANCH_RETURN: 1112703 2.22541%
BRANCH_OTHER: 0 0%

DRAM PAGES: 1048576
Allocated PAGES: 2641
Average_ROB_Occupancy: 200.37
Average_Decode_Occupancy: 27.2165
Average_FTQ_Occupancy: 10.9849
Indirect max targets: 14 Average targets: 1.17445
Branch_type:  BRANCH_DIRECT_JUMP:  Count Percentage: 3.30547 6.32295 3.66619 7.38011 3.46412 6.02122 1.59466 68.2453 
Branch_type:  BRANCH_INDIRECT:  Count Percentage: 6.14916 3.48055 8.1631 9.6621 3.34687 2.81024 3.88213 62.5058 
Branch_type:  BRANCH_CONDITIONAL:  Count Percentage: 25.4888 3.08377 1.42264 4.45946 2.484 3.94463 2.27458 56.8421 
Branch_type:  BRANCH_DIRECT_CALL:  Count Percentage: 0.388825 1.27653 0.727729 3.53497 3.54817 2.62092 3.16808 84.7348 
Branch_type:  BRANCH_INDIRECT_CALL:  Count Percentage: 9.5639 0 2.99891 0.00263396 0.901107 1.71646 4.99516 79.8218 
Branch_type:  BRANCH_RETURN:  Count Percentage: 7.89706 1.10028 1.0315 3.89863 4.50713 4.19307 2.78259 74.5897 
Branch_type:  BRANCH_DIRECT_JUMP:  Total Count: 36086 69028 40024 80569 37818 65734 17409 745037 
Branch_type:  BRANCH_INDIRECT:  Total Count: 22402 12680 29739 35200 12193 10238 14143 227715 
Branch_type:  BRANCH_CONDITIONAL:  Total Count: 3159611 382266 176351 552797 307918 488979 281958 7046185 
Branch_type:  BRANCH_DIRECT_CALL:  Total Count: 7306 23986 13674 66422 66670 49247 59528 1592162 
Branch_type:  BRANCH_INDIRECT_CALL:  Total Count: 32679 0 10247 9 3079 5865 17068 272744 
Branch_type:  BRANCH_RETURN:  Total Count: 175435 24443 22915 86609 100127 93150 61816 1657029 
Number of unique branch instructions: 10640
Upper 32 bits: 
aaaa
ffff
ffff0000
Unique upper 32 bits: 3
Unique upper 36 bits: 3
Unique upper 40 bits: 5
Unique upper 44 bits: 32
Unique upper 48 bits: 160
Variant_0 : 1265 0.308838
Variant_1 : 1163 0.283936
Variant_2 : 942 0.22998
Variant_3 : 720 0.175781
Offset_3 4390
Offset_4 270
Offset_5 480
Offset_6 533
Offset_7 625
Offset_8 567
Offset_9 515
Offset_10 419
Offset_11 332
Offset_12 303
Offset_13 227
Offset_14 234
Offset_15 194
Offset_16 226
Offset_17 163
Offset_18 144
Offset_19 256
Offset_20 143
Offset_21 261
Offset_22 400
Offset_23 241
Offset_24 362
Offset_25 114
Offset_47 96
Offset_64 1
decode_dispatch_called: 23362343 62.1658
Dispatch_width: 0 12515110 53.5696 33.302
Dispatch_width: 1 730937 3.1287 1.94498
Dispatch_width: 2 678760 2.90536 1.80614
Dispatch_width: 3 433070 1.85371 1.15237
Dispatch_width: 4 3604998 15.4308 9.59269
Dispatch_width: 5 204737 0.876355 0.544793
Dispatch_width: 6 5194731 22.2355 13.8229
Empty_decode_cycles: 14218348 37.8342
ROB_full_cycles: 5817581 15.4802
Starvation_cycles_per_kilo_instr: 265.684
Starvation_cycles_per_kilo_instr_3: 227.586
Starvation_cycles_per_kilo_instr_0: 209.159
Branch_type_1  (3,1)  (4,10)  (5,41)  (6,73)  (7,124)  (8,146)  (9,138)  (10,109)  (11,74)  (12,47)  (13,11)  (14,2)  (15,3)  (16,4)  (18,1)  (19,5)  (20,2)  (21,1)  (22,3)  (23,2)  (24,11)  (25,12) 
Branch_type_2  (3,1)  (4,1)  (5,1)  (8,4)  (9,4)  (10,1)  (12,1)  (13,1)  (14,1)  (16,3)  (17,2)  (20,2)  (21,2)  (23,5)  (24,1)  (47,44) 
Branch_type_3  (3,4388)  (4,259)  (5,434)  (6,444)  (7,470)  (8,351)  (9,282)  (10,169)  (11,128)  (12,54)  (13,10)  (64,1) 
Branch_type_4  (6,3)  (7,8)  (8,25)  (9,57)  (10,66)  (11,68)  (12,110)  (13,96)  (14,105)  (15,92)  (16,99)  (17,76)  (18,61)  (19,123)  (20,73)  (21,141)  (22,209)  (23,136)  (24,208)  (25,98) 
Branch_type_5  (8,3)  (9,1)  (10,4)  (11,5)  (12,3)  (13,14)  (14,16)  (15,11)  (16,22)  (17,11)  (18,23)  (19,15)  (20,12)  (21,13)  (22,43)  (23,26)  (24,42) 
Branch_type_6  (5,4)  (6,13)  (7,23)  (8,38)  (9,33)  (10,70)  (11,57)  (12,88)  (13,95)  (14,110)  (15,88)  (16,98)  (17,74)  (18,59)  (19,113)  (20,54)  (21,104)  (22,145)  (23,72)  (24,100)  (25,4)  (47,52) 
Unique trigger count: 
Variant_0_evicts_0 : 0
Variant_0_evicts_1 : 0
Variant_0_evicts_2 : 0
Variant_0_evicts_3 : 0
Variant_1_evicts_0 : 0
Variant_1_evicts_1 : 0
Variant_1_evicts_2 : 0
Variant_1_evicts_3 : 0
Variant_2_evicts_0 : 0
Variant_2_evicts_1 : 0
Variant_2_evicts_2 : 0
Variant_2_evicts_3 : 0
Variant_3_evicts_0 : 0
Variant_3_evicts_1 : 0
Variant_3_evicts_2 : 0
Variant_3_evicts_3 : 0
BTB PER SET UNIQUE ADDR: 21 25 19 27 25 25 16 23 16 25 19 29 25 22 22 17 18 22 21 25 21 21 23 24 21 25 24 25 21 23 22 23 27 15 17 23 23 27 17 18 16 21 25 28 18 16 27 16 23 20 29 19 25 25 21 11 21 18 18 25 20 32 25 23 23 26 26 16 31 24 23 19 25 18 20 14 14 25 20 32 24 14 19 27 26 24 24 19 14 39 19 15 24 20 12 27 18 20 27 30 35 30 22 18 24 20 23 26 13 17 18 33 23 20 20 12 23 25 22 22 25 17 19 18 23 21 12 23 33 18 19 28 20 29 19 29 15 27 22 32 20 28 21 24 24 21 28 19 15 21 22 27 15 23 16 29 25 26 27 25 27 20 28 28 20 23 23 17 26 19 23 26 23 21 23 22 23 23 21 26 16 21 19 27 33 29 15 24 25 18 24 18 16 27 24 15 17 24 22 25 27 28 20 18 17 20 21 23 22 25 19 27 22 20 23 24 18 23 17 36 13 26 17 23 21 24 31 26 18 29 20 12 21 28 20 27 27 21 19 18 22 23 30 25 22 22 18 21 23 23 28 24 24 19 24 24 18 16 17 19 24 21 8 22 22 14 19 18 18 22 19 22 16 14 17 17 21 27 19 24 17 24 18 18 26 20 20 35 32 27 26 19 25 26 16 27 24 25 28 24 20 19 19 33 23 30 27 19 32 24 22 28 20 38 24 13 28 23 21 27 22 24 17 21 23 30 22 19 21 15 23 29 19 19 20 24 20 21 16 37 24 24 16 25 28 26 19 24 22 22 26 20 25 24 21 26 23 26 18 17 18 30 17 31 23 26 14 21 25 22 24 15 24 20 14 29 26 30 22 24 24 21 19 17 19 22 27 24 27 23 29 15 26 31 17 18 21 19 30 23 19 25 21 25 26 28 25 23 18 22 25 17 18 28 22 22 21 29 37 32 18 25 25 27 30 19 26 19 25 23 28 22 20 24 27 26 24 19 19 23 26 19 15 31 34 17 16 26 28 23 26 35 26 18 27 33 24 28 18 30 18 22 20 26 32 20 22 23 27 24 22 23 25 23 23 32 26 33 17 24 32 27 22 25 17 25 36 30 27 22 19 26 18 18 18 20 25 24 22 26 20 30 21 34 19 18 14 30 28 26 23 31 24 21 22 27 21 29 18 16 18 23 24 18 21 34 36 16 17 32 27 26 24 23 26 29 19 26 25 25 29 19 28 25 27 29 14 27 18 23 23 33 24 25 20 22 22 24 31 25 20 34 23 25 22 29 23 30 21 27 29 26 25 35 23 28 27 27 25 23 24 26 16 25 28 23 20 23 34 27 20 20 22 16 26 17 15 22 23 18 22 20 21 16 23 24 33 21 18 26 33 26 22 18 10 28 15 28 24 27 31 21 20 18 20 28 21 28 19 26 21 27 33 25 25 21 24 29 20 26 21 23 25 34 26 26 18 25 35 20 14 24 19 20 31 24 23 25 28 22 20 12 28 30 21 25 17 21 18 20 23 20 19 27 33 20 25 26 27 28 21 29 19 27 27 21 22 24 25 27 23 24 23 12 14 20 18 23 21 24 16 26 28 29 13 26 20 18 18 16 22 24 18 21 20 17 30 24 20 25 24 24 19 21 20 21 22 21 19 19 26 21 21 19 22 26 24 32 34 18 18 19 22 25 33 28 24 23 21 18 22 22 25 24 19 23 31 22 19 15 24 13 14 23 25 29 17 24 22 25 25 30 19 15 23 18 29 21 23 29 14 25 21 21 23 22 15 26 20 16 16 13 24 25 21 30 17 19 26 22 35 24 33 28 36 18 22 21 22 20 22 32 30 28 17 28 37 32 13 27 23 28 17 26 26 23 18 22 25 26 21 30 28 22 16 26 23 23 24 22 26 22 22 23 23 26 19 35 19 27 21 19 15 21 31 32 29 28 25 27 24 23 20 24 31 15 21 18 31 18 20 26 26 20 21 12 21 23 19 21 27 13 21 29 26 24 29 21 24 20 26 15 19 20 21 27 31 24 19 17 23 20 24 25 14 28 22 27 22 30 19 22 21 25 26 23 35 21 23 25 25 27 20 26 20 17 13 29 19 16 29 32 29 20 25 29 21 21 24 28 17 31 24 20 21 25 23 28 23 25 23 24 18 24 20 25 27 22 28 24 24 23 22 31 30 23 29 23 18 25 24 25 29 20 29 18 32 29 29 30 19 28 23 22 21 32 38 20 29 22 28 25 25 21 25 20 23 24 30 23 28 30 18 22 28 26 19 31 19 25 26 24 23 18 19 22 13 19 13 13 19 30 22 14 
BTB PER SET COUNT: 1065 218 1677 223 678 159 644 252 1017 190 119 744 11878 1111 152 126 438 2054 290 177 138 286 339 208 88 194 195 378 419 475 440 245 226 113 111 324 158 299 92 1611 91 114 202 401 123 72 239 118 514 167 241 213 174 186 146 344 149 111 181 177 163 797 253 161 189 318 120 773 262 181 315 766 205 114 115 80 80 472 172 247 485 66 205 290 190 421 186 126 111 369 232 584 383 158 72 182 153 616 216 868 289 791 141 265 1677 114 127 236 962 1982 138 255 619 129 156 206 179 212 1361 194 416 112 151 135 142 191 76 885 321 509 152 880 168 213 173 231 1077 193 160 219 117 320 157 157 128 304 821 373 120 270 152 189 1058 129 74 290 296 190 273 481 160 151 329 150 1270 478 137 112 203 754 148 168 190 133 225 319 174 174 340 506 134 315 599 201 331 391 103 168 793 1396 168 116 99 205 168 77 116 305 180 137 235 176 911 115 63 172 170 279 556 1018 152 264 142 6420 145 527 132 168 795 377 93 194 279 174 152 179 229 221 126 232 146 48 122 253 282 1711 244 175 260 85 530 146 237 442 195 341 75 195 165 152 186 188 201 104 162 306 160 285 125 127 350 138 22 234 180 57 131 152 697 127 93 374 196 75 353 73 160 189 150 367 78 206 870 174 159 162 174 443 279 181 179 78 169 440 85 196 691 223 210 374 147 100 160 290 121 266 257 193 319 471 315 213 127 322 771 447 187 247 169 217 146 1224 115 170 529 387 295 127 147 87 168 314 95 123 124 180 118 333 60 426 126 731 79 300 302 155 125 195 143 253 241 379 189 187 119 214 174 229 308 145 113 249 106 272 147 1012 40 156 198 168 202 94 218 898 434 311 204 175 364 794 488 154 276 100 74 101 644 203 298 379 173 64 203 300 95 397 133 152 383 693 130 156 122 145 269 169 190 342 97 212 339 92 120 325 147 175 142 632 397 237 117 157 181 201 227 144 553 107 182 535 289 181 150 142 460 192 247 197 119 172 725 138 126 217 1954 329 322 183 238 194 552 919 169 118 272 290 227 186 90 250 129 99 159 215 247 167 2689 131 156 209 220 166 186 175 146 264 157 544 81 226 278 437 192 211 89 473 259 203 531 196 247 216 1263 139 123 162 459 563 198 138 157 261 162 311 138 126 83 321 191 150 341 672 774 568 182 231 148 279 118 153 82 174 165 337 163 328 483 568 95 1114 285 160 235 164 189 280 464 822 145 446 234 128 245 142 192 383 47 164 123 1133 120 274 846 207 138 143 178 140 249 232 142 289 131 189 296 178 211 223 152 379 418 193 170 312 263 255 182 262 137 163 184 184 93 1434 209 214 371 177 303 195 307 160 217 95 207 91 365 456 254 91 109 166 239 85 214 165 315 1068 86 139 272 1096 207 114 40 222 76 191 408 527 261 134 86 272 126 230 107 554 1002 251 125 294 565 244 179 265 200 615 85 294 143 179 203 186 981 234 332 243 347 76 84 232 102 124 401 392 133 198 471 253 242 82 235 253 7145 213 90 926 1134 213 163 193 916 196 667 353 204 170 204 253 170 262 1433 192 523 160 154 187 248 221 163 169 244 72 770 201 187 583 182 165 991 197 415 217 53 214 178 134 121 84 259 352 384 137 416 203 332 408 105 553 186 372 168 831 292 131 141 171 914 234 243 2103 249 109 116 189 444 242 273 152 280 116 217 203 554 199 773 169 179 194 1512 127 303 688 455 167 252 580 117 84 156 91 50 268 967 337 134 474 136 269 238 256 467 71 190 126 207 190 159 525 843 230 634 120 167 271 93 174 106 139 205 745 162 212 383 375 125 141 163 978 278 218 438 506 322 105 155 166 106 184 117 6634 265 239 247 1081 409 329 61 653 153 571 130 204 656 152 108 190 232 436 192 225 208 226 402 594 142 134 375 142 209 478 171 156 627 214 123 258 126 4389 315 581 60 102 659 276 705 211 215 201 784 213 240 142 533 124 172 83 232 118 188 249 201 127 155 47 118 114 912 170 229 64 109 236 379 179 197 179 200 222 230 89 825 191 120 190 313 197 251 139 208 142 176 460 79 208 124 232 161 421 160 220 162 201 221 407 821 651 184 184 185 382 127 600 93 118 55 200 114 95 179 266 487 156 145 1007 163 172 767 219 95 910 210 96 167 353 197 196 157 172 277 1189 1099 2247 154 216 248 149 222 574 193 212 493 224 294 136 587 184 154 161 220 908 213 184 483 141 316 207 418 282 204 470 322 385 162 867 746 330 228 139 211 892 227 410 547 171 135 1620 232 319 243 468 135 201 190 196 90 303 127 238 411 429 212 116 141 190 110 401 38 92 208 708 188 99 
To predecode: 0
Predecoding something: 0
Predecode request dropped: 0
sizeofblock_0 0
sizeofblock_1 142084
sizeofblock_2 74124
sizeofblock_3 16963
sizeofblock_4 2785
sizeofblock_5 137
sizeofblock_6 0
sizeofblock_7 0
sizeofblock_8 0
Variant_0 Correct: 1560374 Incorrect: 0 Accuracy: 1
Variant_1 Correct: 2037101 Incorrect: 0 Accuracy: 1
Variant_2 Correct: 1879517 Incorrect: 0 Accuracy: 1
Variant_3 Correct: 1688651 Incorrect: 8209 Accuracy: 0.995162
