
*** ChampSim Multicore Out-of-Order Simulator ***

Warmup Instructions: 50000000
Simulation Instructions: 50000000
Number of CPUs: 1
LLC sets: 2048
LLC ways: 16
Off-chip DRAM Size: 4096 MB Channels: 1 Width: 64-bit Data Rate: 6400 MT/s
CPU 0 runs ./micro_traces/srv660.trace.gz
.gz
ITLB has LRU replacement policy
DTLB has LRU replacement policy
STLB has LRU replacement policy
FDIP Prefetcher at L1I
L1I has LRU replacement policy
L1D has LRU replacement policy
Initialize SRRIP state for L2C
Initialize DRRIP state for LLC
Heartbeat CPU 0 instructions: 10000001 cycles: 2795828 heartbeat IPC: 3.57676 cumulative IPC: 3.57676 (Simulation time: 0 hr 1 min 51 sec) 
Heartbeat CPU 0 instructions: 20000002 cycles: 5591581 heartbeat IPC: 3.57685 cumulative IPC: 3.57681 (Simulation time: 0 hr 3 min 26 sec) 
Heartbeat CPU 0 instructions: 30000002 cycles: 8386501 heartbeat IPC: 3.57792 cumulative IPC: 3.57718 (Simulation time: 0 hr 5 min 3 sec) 
Heartbeat CPU 0 instructions: 40000002 cycles: 11182724 heartbeat IPC: 3.57625 cumulative IPC: 3.57695 (Simulation time: 0 hr 6 min 36 sec) 
Heartbeat CPU 0 instructions: 50000000 cycles: 13980342 heartbeat IPC: 3.57447 cumulative IPC: 3.57645 (Simulation time: 0 hr 8 min 13 sec) 

Warmup complete CPU 0 instructions: 50000004 cycles: 13980343 (Simulation time: 0 hr 8 min 13 sec) 

Cycle: 20000000 FTQ IN: 58188421 FTQ occupancy: 20.1235 DECODE IN: 58188323 DECODE occupancy: 52.4951 ROB IN: 58188263 ROB occupancy: 315.461 ROB OUT: 58187911
Heartbeat CPU 0 instructions: 60000001 cycles: 21335015 heartbeat IPC: 1.35968 cumulative IPC: 1.35968 (Simulation time: 0 hr 10 min 0 sec) 
Heartbeat CPU 0 instructions: 70000001 cycles: 28503541 heartbeat IPC: 1.39499 cumulative IPC: 1.37711 (Simulation time: 0 hr 11 min 45 sec) 
Cycle: 30000000 FTQ IN: 13905037 FTQ occupancy: 13.6987 DECODE IN: 13905023 DECODE occupancy: 35.7787 ROB IN: 13905023 ROB occupancy: 240.761 ROB OUT: 13905027
Heartbeat CPU 0 instructions: 80000000 cycles: 35748381 heartbeat IPC: 1.38029 cumulative IPC: 1.37817 (Simulation time: 0 hr 13 min 37 sec) 
Cycle: 40000000 FTQ IN: 13800432 FTQ occupancy: 13.8113 DECODE IN: 13800448 DECODE occupancy: 35.8403 ROB IN: 13800448 ROB occupancy: 242.123 ROB OUT: 13800446
Heartbeat CPU 0 instructions: 90000003 cycles: 42941394 heartbeat IPC: 1.39024 cumulative IPC: 1.38117 (Simulation time: 0 hr 15 min 28 sec) 
Cycle: 50000000 FTQ IN: 13844765 FTQ occupancy: 13.8857 DECODE IN: 13844765 DECODE occupancy: 36.0661 ROB IN: 13844765 ROB occupancy: 241.802 ROB OUT: 13844763
Heartbeat CPU 0 instructions: 100000003 cycles: 50188070 heartbeat IPC: 1.37994 cumulative IPC: 1.38092 (Simulation time: 0 hr 17 min 25 sec) 
Finished CPU 0 instructions: 50000003 cycles: 36207728 cumulative IPC: 1.38092 (Simulation time: 0 hr 17 min 25 sec) 

ChampSim completed all CPUs

Region of Interest Statistics

CPU 0 cumulative IPC: 1.38092 instructions: 50000003 cycles: 36207728
 Fetch stage stalled: 52.0595  Sim cycles: 36207728 fetch stall cycle: 18849578
 Empty decode stage: 31.9711  Sim cycles: 36207728 fetch stall cycle: 11576002
ITLB TOTAL     ACCESS:    5878822  HIT:    5386444  MISS:     492378  HIT %:    91.6245  MISS %:    8.37545   MPKI: 9.84756
ITLB LOAD TRANSLATION INSTRUCTION	ACCESS:    5754334  HIT:    5261956  MISS:     492378  HIT %:    91.4434  MISS %:    8.55665  MPKI: 9.84756
ITLB TRANSLATION FROM L1D PREFETCHER INSTRUCTION	ACCESS:     124488  HIT:     124488  MISS:          0  HIT %:        100  MISS %:          0  MPKI: 0

ITLB AVERAGE MISS LATENCY: 9.06287 cycles
ITLB RQ	ACCESS:    8026487	FORWARD:          0	MERGED:    1706298	TO_CACHE:    6320189

DTLB TOTAL     ACCESS:    8949401  HIT:    8473525  MISS:     475876  HIT %:    94.6826  MISS %:    5.31741   MPKI: 9.51752
DTLB LOAD TRANSLATION DATA	ACCESS:    8949401  HIT:    8473525  MISS:     475876  HIT %:    94.6826  MISS %:    5.31741  MPKI: 9.51752

DTLB AVERAGE MISS LATENCY: 9.33932 cycles
DTLB RQ	ACCESS:   13312673	FORWARD:          0	MERGED:    4326040	TO_CACHE:    8986633

STLB TOTAL     ACCESS:    1218963  HIT:    1216904  MISS:       2059  HIT %:    99.8311  MISS %:   0.168914   MPKI: 0.04118
STLB LOAD TRANSLATION INSTRUCTION	ACCESS:     492378  HIT:     492102  MISS:        276  HIT %:    99.9439  MISS %:  0.0560545  MPKI: 0.00552
STLB LOAD TRANSLATION DATA	ACCESS:     475876  HIT:     474109  MISS:       1767  HIT %:    99.6287  MISS %:   0.371315  MPKI: 0.03534
STLB TRANSLATION FROM L1D PREFETCHER DATA	ACCESS:     250709  HIT:     250693  MISS:         16  HIT %:    99.9936  MISS %:  0.0063819  MPKI: 0.00032

STLB AVERAGE MISS LATENCY: 78.8737 cycles
STLB RQ	ACCESS:    1355389	FORWARD:          0	MERGED:     136397	TO_CACHE:    1218992

STLB Hit, L1D data hit: 0
STLB Hit, L2C data hit: 0
STLB Hit, LLC data hit: 0
STLB Hit, LLC data miss: 0
STLB STLB hints to L2: 0
L1D TOTAL     ACCESS:   13057076  HIT:   11908949  MISS:    1148127  HIT %:    91.2069  MISS %:    8.79314   MPKI: 22.9625
L1D LOAD DATA	ACCESS:    6550899  HIT:    5793642  MISS:     757257  HIT %:    88.4404  MISS %:    11.5596  MPKI: 15.1451
L1D RFO DATA	ACCESS:    6174292  HIT:    5886372  MISS:     287920  HIT %:    95.3368  MISS %:    4.66321  MPKI: 5.7584
L1D PREFETCH DATA	ACCESS:     331885  HIT:     228935  MISS:     102950  HIT %:    68.9802  MISS %:    31.0198  MPKI: 2.059

L1D PREFETCH  REQUESTED:     774568  ISSUED:     774568  USEFUL:      43881  USELESS:      70181
L1D USEFUL LOAD PREFETCHES:      43881 PREFETCH ISSUED TO LOWER LEVEL:     114108  ACCURACY: 38.4557
 TIMELY PREFETCHES:      43881 LATE PREFETCHES: 11088 DROPPED PREFETCHES: 4
L1D AVERAGE MISS LATENCY: 317041 cycles
L1D RQ	ACCESS:   10682731	FORWARD:          0	MERGED:    3933465	TO_CACHE:    6586238
L1D WQ	ACCESS:    6921301	FORWARD:     163326	MERGED:     194866	TO_CACHE:    6726435
L1D PQ	ACCESS:     387433	FORWARD:          0	MERGED:          0	TO_CACHE:     387135

L1D UNIQUE REGIONS ACCESSED: 0
L1D REGIONS CONFLICTS: 0
L1D Cross Page Prefetch Requests: 5841
L1D Same Page Prefetch Requests: 785939
L1D ROI Sum of L1D PQ occupancy: 4927672
L1D PREFETCHES PUSHED FROM L2C: 0
L1I TOTAL     ACCESS:    7173110  HIT:    4419175  MISS:    2753935  HIT %:    61.6075  MISS %:    38.3925   MPKI: 55.0787
L1I LOAD INSTRUCTION	ACCESS:    6498210  HIT:    3744275  MISS:    2753935  HIT %:    57.6201  MISS %:    42.3799  MPKI: 55.0787
L1I PREFETCH INSTRUCTION	ACCESS:     674900  HIT:     674900  MISS:          0  HIT %:        100  MISS %:          0  MPKI: 0

L1I PREFETCH  REQUESTED:    1631199  ISSUED:    1631199  USEFUL:          0  USELESS:          0
L1I USEFUL LOAD PREFETCHES:          0 PREFETCH ISSUED TO LOWER LEVEL:          0  ACCURACY: -nan
 TIMELY PREFETCHES:          0 LATE PREFETCHES: 0 DROPPED PREFETCHES: 0
L1I AVERAGE MISS LATENCY: 17.6513 cycles
L1I RQ	ACCESS:    9524379	FORWARD:          0	MERGED:    2693619	TO_CACHE:    6830760
L1I PQ	ACCESS:    1631199	FORWARD:          0	MERGED:     435472	TO_CACHE:    1195727

L1BTB TOTAL     ACCESS:    5676400  HIT:    2059297  MISS:    3617103  HIT %:    36.2782  MISS %:    63.7218   MPKI: 72.3421
L1BTB BRANCH_DIRECT_JUMP	ACCESS:     546038  HIT:     143447  MISS:     402591	AVERAGE STALL: 51.8604
L1BTB BRANCH_INDIRECT	ACCESS:     181869  HIT:      65538  MISS:     116331	AVERAGE STALL: 104.259
L1BTB BRANCH_CONDITIONAL	ACCESS:    2723069  HIT:    1434478  MISS:    1288591	AVERAGE STALL: 87.7608
L1BTB BRANCH_DIRECT_CALL	ACCESS:     941170  HIT:     105060  MISS:     836110	AVERAGE STALL: 127.845
L1BTB BRANCH_INDIRECT_CALL	ACCESS:     171552  HIT:      21589  MISS:     149963	AVERAGE STALL: 133.955
L1BTB BRANCH_RETURN	ACCESS:    1112702  HIT:     289185  MISS:     823517	AVERAGE STALL: 47.3325
L1BTB BRANCH_OTHER ACCESS:          0  HIT:          0  MISS:          0	AVERAGE STALL: -nan
L1BTB TOTAL ROB OCCUPANCY AT BTB MISS: 1.96375

L2BTB TOTAL     ACCESS:    3591771  HIT:    3536671  MISS:      55100  HIT %:    98.4659  MISS %:    1.53406   MPKI: 1.102
L2BTB BRANCH_DIRECT_JUMP	ACCESS:     398442  HIT:     395663  MISS:       2779	AVERAGE STALL: 51.8604
L2BTB BRANCH_INDIRECT	ACCESS:     106065  HIT:     103465  MISS:       2600	AVERAGE STALL: 104.259
L2BTB BRANCH_CONDITIONAL	ACCESS:    1288591  HIT:    1288308  MISS:        283	AVERAGE STALL: 87.7608
L2BTB BRANCH_DIRECT_CALL	ACCESS:     836110  HIT:     835912  MISS:        198	AVERAGE STALL: 127.845
L2BTB BRANCH_INDIRECT_CALL	ACCESS:     140451  HIT:     130417  MISS:      10034	AVERAGE STALL: 133.955
L2BTB BRANCH_RETURN	ACCESS:     822112  HIT:     782906  MISS:      39206	AVERAGE STALL: 47.3325
L2BTB BRANCH_OTHER ACCESS:          0  HIT:          0  MISS:          0	AVERAGE STALL: -nan
L2BTB TOTAL ROB OCCUPANCY AT BTB MISS: 128.913

L2C TOTAL     ACCESS:    4515214  HIT:    3988943  MISS:     526271  HIT %:    88.3445  MISS %:    11.6555   MPKI: 10.5254
L2C LOAD INSTRUCTION	ACCESS:    2753934  HIT:    2455182  MISS:     298752  HIT %:    89.1518  MISS %:    10.8482  MPKI: 5.97504
L2C LOAD TRANSLATION INSTRUCTION	ACCESS:        322  HIT:         85  MISS:        237  HIT %:    26.3975  MISS %:    73.6025  MPKI: 0.00474
L2C LOAD DATA	ACCESS:     746132  HIT:     671095  MISS:      75037  HIT %:    89.9432  MISS %:    10.0568  MPKI: 1.50074
L2C RFO DATA	ACCESS:     287824  HIT:     229803  MISS:      58021  HIT %:    79.8415  MISS %:    20.1585  MPKI: 1.16042
L2C PREFETCH DATA	ACCESS:     200130  HIT:     125576  MISS:      74554  HIT %:    62.7472  MISS %:    37.2528  MPKI: 1.49108
L2C WRITEBACK DATA	ACCESS:     524966  HIT:     506703  MISS:      18263  HIT %:    96.5211  MISS %:    3.47889  MPKI: 0.36526
L2C LOAD TRANSLATION DATA	ACCESS:       1882  HIT:        479  MISS:       1403  HIT %:    25.4516  MISS %:    74.5484  MPKI: 0.02806
L2C TRANSLATION FROM L1D PREFETCHER DATA	ACCESS:         24  HIT:         20  MISS:          4  HIT %:    83.3333  MISS %:    16.6667  MPKI: 8e-05

L2C PREFETCH  REQUESTED:      93076  ISSUED:      93076  USEFUL:       8070  USELESS:      66863
L2C USEFUL LOAD PREFETCHES:       8070 PREFETCH ISSUED TO LOWER LEVEL:      74836  ACCURACY: 10.7836
 TIMELY PREFETCHES:       8070 LATE PREFETCHES: 282 DROPPED PREFETCHES: 0
L2C AVERAGE MISS LATENCY: 37.7408 cycles
L2C RQ	ACCESS:    3790178	FORWARD:          0	MERGED:          0	TO_CACHE:    3790116
L2C WQ	ACCESS:     524966	FORWARD:         62	MERGED:          0	TO_CACHE:     524966
L2C PQ	ACCESS:     207184	FORWARD:          0	MERGED:       3220	TO_CACHE:     203964

L2C Dense regions hint from L2: 0
PSCL5 TOTAL     ACCESS:       4126  HIT:       2063  MISS:       2063  HIT %:         50  MISS %:         50   MPKI: 0.04126
PSCL5 LOAD TRANSLATION INSTRUCTION	ACCESS:       4078  HIT:       2039  MISS:       2039  HIT %:         50  MISS %:         50  MPKI: 0.04078
PSCL5 TRANSLATION FROM L1D PREFETCHER INSTRUCTION	ACCESS:         48  HIT:         24  MISS:         24  HIT %:         50  MISS %:         50  MPKI: 0.00048


PSCL4 TOTAL     ACCESS:       3905  HIT:       1945  MISS:       1960  HIT %:    49.8079  MISS %:    50.1921   MPKI: 0.0392
PSCL4 LOAD TRANSLATION INSTRUCTION	ACCESS:       2828  HIT:       1921  MISS:        907  HIT %:    67.9279  MISS %:    32.0721  MPKI: 0.01814
PSCL4 TRANSLATION FROM L1D PREFETCHER INSTRUCTION	ACCESS:         40  HIT:         24  MISS:         16  HIT %:         60  MISS %:         40  MPKI: 0.00032
PSCL4 LOAD TRANSLATION DATA	ACCESS:       1029  HIT:          0  MISS:       1029  HIT %:          0  MISS %:        100  MPKI: 0.02058
PSCL4 TRANSLATION FROM L1D PREFETCHER DATA	ACCESS:          8  HIT:          0  MISS:          8  HIT %:          0  MISS %:        100  MPKI: 0.00016


PSCL3 TOTAL     ACCESS:       4023  HIT:       2004  MISS:       2019  HIT %:    49.8136  MISS %:    50.1864   MPKI: 0.04038
PSCL3 LOAD TRANSLATION INSTRUCTION	ACCESS:       2887  HIT:       1980  MISS:        907  HIT %:    68.5833  MISS %:    31.4167  MPKI: 0.01814
PSCL3 TRANSLATION FROM L1D PREFETCHER INSTRUCTION	ACCESS:         40  HIT:         24  MISS:         16  HIT %:         60  MISS %:         40  MPKI: 0.00032
PSCL3 LOAD TRANSLATION DATA	ACCESS:       1088  HIT:          0  MISS:       1088  HIT %:          0  MISS %:        100  MPKI: 0.02176
PSCL3 TRANSLATION FROM L1D PREFETCHER DATA	ACCESS:          8  HIT:          0  MISS:          8  HIT %:          0  MISS %:        100  MPKI: 0.00016


PSCL2 TOTAL     ACCESS:       3990  HIT:       1927  MISS:       2063  HIT %:    48.2957  MISS %:    51.7043   MPKI: 0.04126
PSCL2 LOAD TRANSLATION INSTRUCTION	ACCESS:       2196  HIT:       1903  MISS:        293  HIT %:    86.6576  MISS %:    13.3424  MPKI: 0.00586
PSCL2 TRANSLATION FROM L1D PREFETCHER INSTRUCTION	ACCESS:         24  HIT:         24  MISS:          0  HIT %:        100  MISS %:          0  MPKI: 0
PSCL2 LOAD TRANSLATION DATA	ACCESS:       1746  HIT:          0  MISS:       1746  HIT %:          0  MISS %:        100  MPKI: 0.03492
PSCL2 TRANSLATION FROM L1D PREFETCHER DATA	ACCESS:         24  HIT:          0  MISS:         24  HIT %:          0  MISS %:        100  MPKI: 0.00048


LLC TOTAL     ACCESS:     590490  HIT:     561262  MISS:      29228  HIT %:    95.0502  MISS %:    4.94979   MPKI: 0.58456
LLC LOAD INSTRUCTION	ACCESS:     298752  HIT:     297652  MISS:       1100  HIT %:    99.6318  MISS %:   0.368198  MPKI: 0.022
LLC LOAD TRANSLATION INSTRUCTION	ACCESS:        237  HIT:        204  MISS:         33  HIT %:    86.0759  MISS %:    13.9241  MPKI: 0.00066
LLC LOAD DATA	ACCESS:      74766  HIT:      71276  MISS:       3490  HIT %:    95.3321  MISS %:     4.6679  MPKI: 0.0698
LLC RFO DATA	ACCESS:      58005  HIT:      43790  MISS:      14215  HIT %:    75.4935  MISS %:    24.5065  MPKI: 0.2843
LLC PREFETCH DATA	ACCESS:      74835  HIT:      64910  MISS:       9925  HIT %:    86.7375  MISS %:    13.2625  MPKI: 0.1985
LLC WRITEBACK DATA	ACCESS:      82488  HIT:      82112  MISS:        376  HIT %:    99.5442  MISS %:   0.455824  MPKI: 0.00752
LLC LOAD TRANSLATION DATA	ACCESS:       1403  HIT:       1314  MISS:         89  HIT %:    93.6565  MISS %:    6.34355  MPKI: 0.00178
LLC TRANSLATION FROM L1D PREFETCHER DATA	ACCESS:          4  HIT:          4  MISS:          0  HIT %:        100  MISS %:          0  MPKI: 0

LLC AVERAGE MISS LATENCY: 156.543 cycles
LLC RQ	ACCESS:     433172	FORWARD:          0	MERGED:          0	TO_CACHE:     433167
LLC WQ	ACCESS:      82488	FORWARD:          6	MERGED:          0	TO_CACHE:      82488
LLC PQ	ACCESS:      74836	FORWARD:          0	MERGED:          0	TO_CACHE:      74835

LLC Dense regions hint to LLC: 0

RAW hits: 1931912
Loads Generated: 12614643
Loads sent to L1D: 10682731
Stores Generated: 6921287
Stores sent to L1D: 6921301
Major fault: 0 Minor fault: 2641
Allocated PAGES: 2641

stream: 
stream:times selected: 1228658
stream:pref_filled: 127332
stream:pref_useful: 28309
stream:pref_late: 8345
stream:misses: 8634
stream:misses_by_poll: 0

CS: 
CS:times selected: 190479
CS:pref_filled: 71173
CS:pref_useful: 47072
CS:pref_late: 8549
CS:misses: 21493
CS:misses_by_poll: 3

CPLX: 
CPLX:times selected: 1037102
CPLX:pref_filled: 23478
CPLX:pref_useful: 7039
CPLX:pref_late: 3554
CPLX:misses: 118123
CPLX:misses_by_poll: 0

NL_L1: 
NL:times selected: 12482
NL:pref_filled: 1514
NL:pref_useful: 248
NL:pref_late: 193
NL:misses: 1547
NL:misses_by_poll: 0

total selections: 2468721
total_filled: 102950
total_useful: 43881
total_late: 22570
total_polluted: 3
total_misses_after_warmup: 792597
conflicts: 5502535

test: 117051

DRAM Statistics
 CHANNEL 0
 RQ ROW_BUFFER_HIT:      10752  ROW_BUFFER_MISS:      18089
 DBUS_CONGESTED:         15
 WQ ROW_BUFFER_HIT:       1514  ROW_BUFFER_MISS:      12732  FULL:          0

 AVG_CONGESTED_CYCLE: 6

CPU 0 Branch Prediction Accuracy: 99.8213% MPKI: 0.32708 Average ROB Occupancy at Mispredict: 185.766
Branch types
NOT_BRANCH: 40846395 81.6928%
BRANCH_DIRECT_JUMP: 546038 1.09208%
BRANCH_INDIRECT: 181869 0.363738%
BRANCH_CONDITIONAL: 6199835 12.3997%
BRANCH_DIRECT_CALL: 941170 1.88234%
BRANCH_INDIRECT_CALL: 171552 0.343104%
BRANCH_RETURN: 1112702 2.2254%
BRANCH_OTHER: 0 0%

DRAM PAGES: 1048576
Allocated PAGES: 2641
Average_ROB_Occupancy: 242.197
Average_Decode_Occupancy: 35.7097
Average_FTQ_Occupancy: 13.7284
Indirect max targets: 14 Average targets: 1.17445
Branch_type:  BRANCH_DIRECT_JUMP:  Count Percentage: 3.30547 6.32295 3.66619 7.38011 3.46412 6.02122 1.59466 68.2453 
Branch_type:  BRANCH_INDIRECT:  Count Percentage: 6.14916 3.48055 8.1631 9.6621 3.34687 2.81024 3.88213 62.5058 
Branch_type:  BRANCH_CONDITIONAL:  Count Percentage: 25.4888 3.08377 1.42264 4.45946 2.484 3.94463 2.27458 56.8421 
Branch_type:  BRANCH_DIRECT_CALL:  Count Percentage: 0.388825 1.27653 0.727729 3.53497 3.54817 2.62092 3.16808 84.7348 
Branch_type:  BRANCH_INDIRECT_CALL:  Count Percentage: 9.5639 0 2.99891 0.00263396 0.901107 1.71646 4.99516 79.8218 
Branch_type:  BRANCH_RETURN:  Count Percentage: 7.89706 1.10028 1.0315 3.89863 4.50713 4.19307 2.7826 74.5897 
Branch_type:  BRANCH_DIRECT_JUMP:  Total Count: 36086 69028 40024 80569 37818 65734 17409 745037 
Branch_type:  BRANCH_INDIRECT:  Total Count: 22402 12680 29739 35200 12193 10238 14143 227715 
Branch_type:  BRANCH_CONDITIONAL:  Total Count: 3159611 382266 176351 552797 307918 488979 281958 7046185 
Branch_type:  BRANCH_DIRECT_CALL:  Total Count: 7306 23986 13674 66422 66670 49247 59528 1592162 
Branch_type:  BRANCH_INDIRECT_CALL:  Total Count: 32679 0 10247 9 3079 5865 17068 272744 
Branch_type:  BRANCH_RETURN:  Total Count: 175435 24443 22915 86609 100127 93150 61816 1657028 
Number of unique branch instructions: 10640
Upper 32 bits: 
aaaa
ffff
ffff0000
Unique upper 32 bits: 3
Unique upper 36 bits: 3
Unique upper 40 bits: 5
Unique upper 44 bits: 32
Unique upper 48 bits: 160
Offset_3 4390
Offset_4 270
Offset_5 480
Offset_6 533
Offset_7 625
Offset_8 567
Offset_9 515
Offset_10 419
Offset_11 332
Offset_12 303
Offset_13 227
Offset_14 234
Offset_15 194
Offset_16 226
Offset_17 163
Offset_18 144
Offset_19 256
Offset_20 143
Offset_21 261
Offset_22 400
Offset_23 241
Offset_24 362
Offset_25 114
Offset_47 96
Offset_64 1
decode_dispatch_called: 25948394 71.6653
Dispatch_width: 0 14008693 53.9867 38.6898
Dispatch_width: 1 984014 3.7922 2.71769
Dispatch_width: 2 824603 3.17786 2.27742
Dispatch_width: 3 493582 1.90217 1.3632
Dispatch_width: 4 5904543 22.7549 16.3074
Dispatch_width: 5 130162 0.501619 0.359487
Dispatch_width: 6 3602797 13.8845 9.95035
Empty_decode_cycles: 10259334 28.3347
ROB_full_cycles: 9408296 25.9842
Starvation_cycles_per_kilo_instr: 231.966
Starvation_cycles_per_kilo_instr_3: 171.619
Starvation_cycles_per_kilo_instr_0: 148.597
Branch_type_1  (3,1)  (4,10)  (5,41)  (6,73)  (7,124)  (8,146)  (9,138)  (10,109)  (11,74)  (12,47)  (13,11)  (14,2)  (15,3)  (16,4)  (18,1)  (19,5)  (20,2)  (21,1)  (22,3)  (23,2)  (24,11)  (25,12) 
Branch_type_2  (3,1)  (4,1)  (5,1)  (8,4)  (9,4)  (10,1)  (12,1)  (13,1)  (14,1)  (16,3)  (17,2)  (20,2)  (21,2)  (23,5)  (24,1)  (47,44) 
Branch_type_3  (3,4388)  (4,259)  (5,434)  (6,444)  (7,470)  (8,351)  (9,282)  (10,169)  (11,128)  (12,54)  (13,10)  (64,1) 
Branch_type_4  (6,3)  (7,8)  (8,25)  (9,57)  (10,66)  (11,68)  (12,110)  (13,96)  (14,105)  (15,92)  (16,99)  (17,76)  (18,61)  (19,123)  (20,73)  (21,141)  (22,209)  (23,136)  (24,208)  (25,98) 
Branch_type_5  (8,3)  (9,1)  (10,4)  (11,5)  (12,3)  (13,14)  (14,16)  (15,11)  (16,22)  (17,11)  (18,23)  (19,15)  (20,12)  (21,13)  (22,43)  (23,26)  (24,42) 
Branch_type_6  (5,4)  (6,13)  (7,23)  (8,38)  (9,33)  (10,70)  (11,57)  (12,88)  (13,95)  (14,110)  (15,88)  (16,98)  (17,74)  (18,59)  (19,113)  (20,54)  (21,104)  (22,145)  (23,72)  (24,100)  (25,4)  (47,52) 
Unique trigger count: 
BTB PER SET UNIQUE ADDR: 3 3 3 6 2 2 4 3 2 4 5 3 3 4 5 3 3 4 2 3 2 4 4 4 4 4 4 3 2 7 4 3 2 7 4 3 3 3 3 3 3 5 4 4 3 2 4 4 5 4 5 3 3 3 2 5 3 2 3 5 5 3 3 4 4 2 3 4 4 3 4 4 5 4 3 4 4 2 4 5 5 6 4 4 4 3 3 5 4 2 4 5 4 4 3 2 4 6 4 5 3 3 4 3 4 6 4 3 2 4 4 3 4 2 4 4 6 3 4 5 4 4 3 4 3 3 3 3 6 3 5 3 3 3 3 5 2 2 2 5 5 3 4 4 4 3 4 4 6 4 5 2 3 4 5 5 4 4 7 5 4 3 2 3 4 3 1 5 5 3 3 4 5 5 3 7 2 6 2 2 2 2 4 6 4 2 3 6 4 2 4 4 5 2 2 3 4 4 3 4 5 5 4 3 1 5 2 3 4 3 5 3 4 4 4 5 6 4 4 3 5 4 4 4 4 4 4 2 4 4 1 6 5 4 3 5 4 5 5 5 3 4 4 3 4 4 2 3 3 3 2 5 3 3 4 4 4 6 3 3 4 5 5 4 4 4 4 6 2 4 4 2 4 4 5 4 5 3 3 3 3 4 3 4 5 5 4 4 4 4 3 5 4 3 5 5 5 3 4 4 4 2 3 4 4 4 6 4 5 4 4 3 6 3 3 3 3 4 2 3 6 4 3 3 6 5 2 3 6 3 2 3 2 5 2 4 5 5 7 6 4 5 4 3 5 3 3 3 4 4 5 4 4 3 4 4 5 4 2 4 4 4 3 4 3 6 4 4 3 4 3 5 4 3 2 4 4 4 5 5 3 4 3 3 2 4 4 3 5 3 3 3 3 5 3 4 4 3 2 3 3 5 3 3 3 5 4 3 4 3 4 2 2 4 5 4 5 4 4 2 4 4 2 5 4 5 3 4 1 3 3 2 4 4 3 3 3 4 2 3 3 4 2 4 3 2 4 4 5 3 3 1 4 6 5 3 3 4 5 4 3 3 3 3 3 5 3 3 5 4 4 4 4 5 4 4 3 4 4 4 5 4 3 3 1 4 4 4 6 4 5 5 3 5 3 5 4 3 5 3 3 4 3 4 5 3 3 4 2 5 3 2 4 4 2 3 4 3 5 7 4 4 2 3 4 5 2 5 5 5 3 5 4 5 3 4 2 4 4 4 4 4 4 5 3 4 5 5 3 3 4 5 3 4 3 4 6 2 4 3 4 3 3 4 2 3 3 5 3 4 3 4 2 4 3 4 4 4 3 3 1 4 4 3 4 4 3 3 3 4 4 3 3 4 3 6 3 4 5 4 3 4 5 3 3 3 4 3 3 2 5 4 3 3 4 3 5 4 6 6 3 2 5 4 5 4 2 4 4 4 3 4 3 3 4 2 4 4 5 4 3 4 1 4 4 3 2 3 3 2 4 5 4 5 3 5 2 6 4 3 4 3 3 5 4 5 3 3 5 5 5 4 2 5 4 2 5 4 4 4 4 3 3 5 3 6 2 4 5 4 4 5 5 3 3 4 3 3 3 4 2 3 5 3 4 5 5 3 4 4 4 3 4 4 4 4 4 3 3 3 4 4 3 5 4 3 4 3 4 3 3 4 5 4 6 7 3 2 3 7 3 3 4 3 3 3 5 5 4 5 4 5 5 5 2 3 3 4 3 3 5 3 4 5 4 4 3 4 3 4 3 2 3 4 5 4 4 5 2 6 6 4 4 5 5 3 4 5 4 4 3 4 3 3 2 4 3 3 4 3 5 4 4 3 4 3 3 5 2 5 4 3 4 3 4 3 5 4 5 4 4 4 4 4 2 3 3 2 4 4 4 4 3 4 5 4 4 4 3 3 4 4 5 3 4 4 3 5 3 3 3 4 2 4 4 3 3 2 3 4 2 4 5 4 8 4 3 4 5 5 4 3 5 3 3 6 3 4 3 4 4 4 3 4 5 4 3 3 2 0 4 3 2 3 2 4 4 3 4 3 4 3 3 3 2 2 6 3 3 3 5 4 5 5 4 5 3 3 4 3 3 3 5 5 3 4 4 4 3 4 3 5 4 4 3 3 5 5 4 3 3 3 3 5 2 2 5 4 5 4 5 4 4 3 3 3 3 3 3 2 4 4 4 4 4 2 4 3 4 5 3 4 2 5 3 4 3 2 3 3 4 3 4 3 5 5 4 5 4 4 4 4 4 3 4 4 3 3 3 6 5 3 3 3 4 4 6 5 5 5 4 3 4 4 5 4 3 3 4 3 4 3 5 3 5 3 3 4 4 1 3 4 3 3 4 5 3 4 3 3 3 5 4 4 4 4 3 5 3 3 5 3 4 5 4 2 7 3 4 4 5 3 5 3 3 2 3 5 4 4 3 3 3 5 4 4 4 6 5 3 5 3 6 3 4 2 4 3 2 7 4 4 3 4 3 3 6 5 4 4 4 5 4 4 3 3 5 4 3 3 2 4 3 3 5 2 5 5 2 4 4 5 2 2 5 4 3 4 3 4 3 4 6 4 1 4 3 2 4 4 4 5 5 2 4 5 3 4 4 4 3 3 3 3 4 2 4 5 3 5 3 5 4 6 3 3 3 5 4 4 4 3 6 3 3 4 4 5 3 4 2 3 4 4 4 4 5 4 3 3 3 4 4 4 4 3 4 5 4 2 3 4 2 3 4 2 5 3 4 4 3 5 3 4 3 5 4 3 4 5 4 2 3 4 4 3 3 5 3 3 4 3 3 3 4 4 5 4 4 3 4 5 3 3 2 4 4 3 5 4 3 5 5 3 4 2 2 4 2 3 3 6 3 4 3 3 4 4 2 4 4 4 2 3 3 5 4 4 5 3 4 4 6 5 4 4 3 3 4 3 3 5 4 5 4 4 4 5 3 3 5 2 3 4 4 4 5 6 5 5 2 6 3 3 4 5 4 5 3 4 3 3 3 5 5 2 5 2 3 4 3 4 3 4 3 4 2 4 5 4 3 3 3 3 5 6 4 2 5 3 4 3 4 5 4 4 3 3 6 5 3 5 4 6 3 3 4 4 6 4 4 4 1 4 3 5 4 5 4 4 4 2 4 4 3 4 3 3 4 4 2 4 2 2 2 3 5 5 5 3 5 4 4 3 2 4 5 5 4 3 3 4 4 4 4 4 3 4 3 4 2 3 2 4 4 4 4 4 5 4 2 3 4 4 4 5 3 3 4 4 3 3 2 4 5 4 6 5 4 2 4 3 4 4 2 5 2 3 4 5 3 3 4 5 3 3 4 5 4 4 3 2 3 2 5 4 4 3 5 7 6 4 3 4 4 4 5 4 5 4 4 4 3 4 4 4 4 4 6 4 4 6 2 3 4 4 4 3 4 4 4 3 7 2 3 4 4 5 4 4 3 2 3 3 4 2 2 3 4 5 5 4 5 3 3 4 5 3 3 5 5 3 4 4 4 3 3 5 4 3 4 3 3 4 2 2 3 4 4 4 3 4 3 3 5 3 3 6 6 5 5 4 3 2 4 3 5 3 3 5 4 2 4 4 4 4 5 3 3 3 4 2 4 4 3 3 3 4 3 4 4 5 3 4 4 3 4 3 3 3 5 4 6 3 5 3 5 3 3 4 2 4 5 3 3 4 4 3 3 4 4 3 3 4 3 4 3 4 4 5 2 4 4 4 4 4 3 3 4 4 5 4 3 4 3 2 5 4 3 4 5 2 3 4 3 4 3 4 3 2 5 3 3 3 3 4 2 3 5 3 4 2 4 2 2 3 4 5 3 4 2 3 4 2 3 4 4 4 5 4 3 4 5 3 3 6 5 4 4 3 4 4 4 3 4 5 4 2 4 4 4 3 4 2 2 4 5 5 4 2 4 4 3 5 5 4 3 4 5 4 5 5 4 5 5 5 4 3 4 4 4 3 3 2 3 4 2 2 3 4 4 2 4 4 4 3 4 4 2 4 4 2 3 5 2 4 4 5 3 3 3 4 5 5 2 5 5 3 2 4 2 5 2 3 4 5 4 5 4 4 4 3 4 4 2 3 6 2 2 3 3 5 4 3 5 3 5 5 2 3 2 6 4 2 3 4 3 4 3 2 3 3 3 1 6 3 3 4 5 4 2 4 4 4 3 2 3 4 3 3 3 4 4 2 5 4 4 5 3 4 2 5 5 4 2 4 3 5 4 2 2 4 5 3 2 3 4 5 4 5 3 3 3 4 4 3 3 2 3 3 2 4 3 3 5 4 2 3 4 3 3 2 4 4 3 4 3 1 3 4 4 4 4 4 3 3 2 3 4 3 5 4 3 3 3 3 3 4 3 3 4 4 3 4 3 3 5 5 3 3 3 3 4 3 4 3 5 2 4 3 4 5 2 3 4 5 4 3 2 5 4 3 4 5 4 4 4 5 4 5 3 4 4 5 4 4 5 4 1 5 4 2 3 5 9 4 2 3 3 4 5 4 3 4 3 4 4 4 2 3 4 3 5 3 3 4 4 3 4 4 1 5 5 6 3 4 3 2 5 3 5 4 5 4 5 3 3 4 3 4 4 4 4 4 4 3 5 4 4 5 3 4 3 3 2 4 4 5 
BTB PER SET COUNT: 4 1468 1465 6 3 2 4 3 2 493 59 3 3 4 5 3 3 4 2 3 2 5 4 4 492 4 4 3 2 493 6 3 2 350 491 5 3 3 3 3 3 5 4 4 3 2 375 4 6 4 442 3 4 3 2 5 491 976 3 8 106 3 4 1950 4 2 5 4 4 3 5 4 6 4 3 153 4 2 6 5 7 8 4 4 4 5 3 6 493 2 4 13 4 4 4 2 4 6 4 6 3 3 5 3 4 6 4 3 2 4 4 3 5 2 9 5 8 3 5 1467 6 4 1501 4 3 3 3 3 458 3 6 3 3 3 3 8 2 2 2 5 7 3 4 4 5 3 4 4 8 10 5 490 3 4 5 980 5 4 9 5 5 3 2 3 5 6 1 5 5 3 3 6 98 5 3 8 2 6 2 2 2 2 5 9 5 2 3 6 4 2 4 4 5 2 2 4 4 5 1466 5 7 379 5 3 1 5 2 3 5 3 213 4 4 4 4 6 9 491 4 3 6 4 4 4 4 6 12 4 612 4 266 8 5 4 3 5 5 5 7 6 3 4 4 3 4 4 7801 68 5 3 2 5 3 4 5 7 652 8 4 3 4 5 6 4 4 6 5 6 2 5 4 2 4 6 7 5 6 3 5 3 3 4 3 4 5 5 4 5 4 4 3 8 4 3 5 6 6 3 4 4 4 2 1467 4 7 4 6 4 6 4 4 3 8 4 3 3 3 5 2 3 6 5 3 4 7 7 2 3 9 4 2 3 2 7 2 4 5 5 13 9 4 6 5 4 6 3 3 3 4 4 5 4 4 3 880 369 9 4 2 10 4 265 3 6 3 2446 4 4 977 4 3 6 817 4 2 4 4 4 8 5 5 4 3 3 2 5 4 3 7 5 3 4 3 5 11 4 1346 3 2 3 3 6 3 3 3 6 5 3 5 3 4 2 2 4 6 4 7 4 4 2 4 4 2 6 4 5 3 4 1 3 3 2 4 4 3 5 5 4 2 3 3 6 2 5 420 5 1469 15 8 6 3 976 4 7 7 3 3 4 540 4 978 3 3 3 9 6 3 3 979 4 4 517 4 6 978 5 3 4 4 4 6 5 3 3 1 4 4 4 7 4 7 7 6 7 3 980 4 3 5 3 3 4 4 4 6 3 3 4 2 5 3 2 979 5 2 3 5 492 5 9 4 4 2 3 4 5 2 7 5 5 1465 6 5 14 4 4 2 91 5 4 4 5 6 5 3 1467 5 5 3 4 4 5 978 4 3 5 494 2 4 4 979 3 3 6 2 3 978 9 978 8 3 4 3 5 4 4 5 771 3 3 3 5 4 3 9 4 3 3 3 4 4 3 3 980 978 7 3 5 6 4 3 4 981 3 4 4 979 3 3 2 5 4 977 3 4 3 5 4 495 6 3 2 5 4 5 5 2 4 4 4 3 4 3 3 4 2 5 4 5 4 3 5 1 5 4 3 2 3 3 2 4 980 4 5 3 6 2 6 4 3 4 3 4 6 5 5 3 3 5 5 5 4 2 2930 4 2 9 4 4 4 5 3 3 5 3 6 2 1466 6 4 4 6 5 4 3 4 3 3 3 4 2 3 7 3 4 5 5 3 6 4 4 3 4 5 4 608 4 3 3 4 4 4 3 5 4 3 4 3 4 3 3 5 5 4 6 11 4 2 3 7 4 3 7 3 3 4 5 5 7 5 4 7 5 8 2 3 4 4 80 3 6 3 4 20 4 4 3 492 3 4 5 2 3 4 5 4 5 5 2 6 6 4 4 6 5 3 4 6 4 4 5 4 3 3 2 979 3 3 4 3 5 4 4 4 4 3 3 7 3 6 5 4 5 3 4 3 6 5 5 4 4 4 979 4 2 3 4 2 4 499 4 36 4 4 5 4 4 4 3 3 4 4 5 3 4 4 3 6 3 977 3 4 2 7 4 4 3 2 3 4 2 4 5 4 10 4 3 4 6 6 4 3 5 3 3 6 3 4 4 5 4 4 3 4 353 6 3 3 2 0 1466 3 2 3 2 4 370 4 4 3 4 3 3 978 2 2 10 4 3 3 5 4 5 5 4 5 3 3 4 3 490 978 5 7 3 5 50 5 3 5 4 9 4 4 3 3 5 5 4 3 3 3 3 5 2 2 5 491 8 4 5 4 4 3 492 3 3 3 1951 2 6 4 4 4 4 2 493 3 6 10 3 4 2 7 5 4 4 2 3 5 4 3 5 3 5 5 4 439 4 4 5 6 4 3 4 4 3 4 3 6 5 3 3 5 4 4 7 5 5 5 4 3 4 4 5 4 5 3 4 3 5 3 5 3 5 4 3 5 4 1 5 4 3 4 4 5 3 4 3 3 4 5 33 4 5 6 492 489 3 3 5 3 4 6 4 2 7 4 1466 4 7 3 6 3 4 4 3 5 5 4 3 3 4 5 130 4 9 6 5 3 5 3 6 3 35 2 15 35 2 9 4 4 3 6 3 3 12 5 4 4 5 8 7 5 368 3 42 4 3 3 2 4 3 3 6 2 23 6 4 4 227 6 2 2 5 4 3 4 3 5 3 4 6 4 1 4 3 2 4 5 4 11415 5 2 4 6 3 4 5 7 3 4 3 3 4 2 4 5 3 6 3 5 5 6 3 6 4 5 4 4 493 3 6 4 4 4 4 5 3 4 2 3 5 5 4 4 5 4 4 3 3 4 4 4 6 3 4 6 4 2 4 4 2 3 4 2 5 3 4 22 1465 5 3 1466 3 6 4 3 4 6 4 2 3 4 4 3 3 5 3 3 4 3 3 3 4 4 653 10 6 4 5 13 3 3 2 4 1466 3 10 5 3 7 5 3 4 2 2 4 2 3 3 6 3 4 3 3 4 5 2 5 4 4 2 5 3 5 5 4 5 3 4 121 8 6 4 4 3 3 4 3 3 5 4 5 5 4 5 5 3 3 7 3 3 7 5 8 5 6 5 5 2 7 3 6 4 5 5 5 3 5 3 3 3 5 6 2 5 1465 4 1466 3 4 3 4 3 4 2 6 6 370 3 3 3 3 7 7 7 2 52 3 2931 3 5 370 983 4 7 3 8 5 3 5 4 7 3 3 4 4 6 4 4 4 1 4 3 979 4 5 5 492 4 2 4 6 3 4 4 4 5 977 7 4 2 2 2 3 6 5 6 136 5 4 4 3 2 4 6 5 5 4 3 4 5 4 6 4 3 4 4 4 2 3 2 4 635 4 5 5 8 1954 2 3 4 1955 4 7 3 3 4 4 5 5 3 975 5 4 6 6 4 2 4 3 4 4 2 5 2 3 4 5 7 3 5 5 3 3 4 5 5 4 3 2 3 2 5 4 4 3 8 7 6 4 3 5 7 4 5 4 5 4 4 5 5 4 4 6 5 5 10 5 249 6 2 3 5 4 4 5 4 7 4 3 8 2 3 494 4 7 4 5 3 2 3 3 4 2 2 3 979 5 6 7 6 4 3 4 7 3 4 5 5 3 5 5 5 3 5 5 8 3 4 3 3 7 2 3 4 4 5 5 3 6 4 3 6 4 1096 10 6 977 7 10 5 2 4 4 6 3 3 1468 5 3 29 4 10 4 8 3 3 3 4 2 4 4 3 3 4 4 4 4 4 5 4 6 4 3 6 3 3 3 204 4 7 3 7 4 9 3 979 4 2 4 6 3 3 7 4 4 3 4 4 3 3 4 3 4 3 4 4 5 2 5 4 7 4 4 3 4 4 4 5 4 4 4 4 2 6 4 3 7 5 2 3 4 4 4 3 7 3 2 5 4 4 3 3 5 2 3 7 3 4 2 4 2 2 3 4 5 183 4 2 3 5 2 4 5 7 4 5 4 3 4 5 3 3 7 138 4 4 3 4 4 4 3 5 6 4 2 4 4 4 3 4 2 2 4 494 6 4 2 4 4 3 5 128 4 3 4 5 5 10 8 5 5 5 5 119 3 5 6 6 3 3 2 3 4 2 2 3 6 4 2 9082 4 5 3 4 4 3 4 7 2 3 6 2 4 4 5 3 490 3 4 6 8 2 5 5 3 2 4 2 5 2 3 5 5 6 9 4 4 4 4 980 4 2 3 6 2 2 4 3 5 12 3 8 3 6 5 4 3 2 1969 4 976 4 4 3 5 3 2 490 3 3 603 6 3 3 4 5 106 184 4 4 5 3 1464 3 4 3 3 3 933 4 2 10 4 4 7 1467 4 2 6 5 4 2 5 3 5 9 3 2 4 6 3 2 3 4 979 4 5 4 3 3 4 81 3 3 2 3 3 2 4 3 3 5 124 2 3 1466 3 14152 2 4 4 3 4 5 1 3 4 4 4 4 4 3 4 2 3 6 3 5 4 4 3 3 3 3 4 3 4 4 4 3 4 5 3 9 5 3 3 3 3 4 17 4 4 6 2 5 3 5 6 2 28 5 5 5 3 2 5 410 3 4 5 4 4 4 5 4 5 3 23 5 6 3896 12 7 5 488 6 4 2 3 6 10 5 3 3 3 4 5 4 3 4 3 5 4 4 2 4 5 3 5 3 3 4 1345 3 5 5 1 5 6 6 3 4 3 2 5 1465 7 4 5 1466 6 3 3 4 3 5 7 4 980 4 4 3 6 4 4 5 9 4 3 3 2 5 4 783 
