
*** ChampSim Multicore Out-of-Order Simulator ***

Warmup Instructions: 50000000
Simulation Instructions: 50000000
Number of CPUs: 1
LLC sets: 2048
LLC ways: 16
Off-chip DRAM Size: 4096 MB Channels: 1 Width: 64-bit Data Rate: 6400 MT/s
CPU 0 runs ./micro_traces/srv684.trace.gz
.gz
ITLB has LRU replacement policy
DTLB has LRU replacement policy
STLB has LRU replacement policy
FDIP Prefetcher at L1I
L1I has LRU replacement policy
L1D has LRU replacement policy
Initialize SRRIP state for L2C
Initialize DRRIP state for LLC
Heartbeat_Variant_0 : 1298 0.316895 per_variant_size: 0 1298 0 0 0 0 0 0 0 
Heartbeat_Variant_1 : 2484 0.606445 per_variant_size: 0 607 1877 0 0 0 0 0 0 
Heartbeat_Variant_2 : 0 0 per_variant_size: 0 0 0 0 0 0 0 0 0 
Heartbeat_Variant_3 : 0 0 per_variant_size: 0 0 0 0 0 0 0 0 0 
Heartbeat_Variant_0_evicts 0 : 5653 1 : 297 2 : 0 3 : 0 
Heartbeat_Variant_1_evicts 0 : 238 1 : 0 2 : 0 3 : 0 
Heartbeat_Variant_2_evicts 0 : 0 1 : 0 2 : 0 3 : 0 
Heartbeat_Variant_3_evicts 0 : 0 1 : 0 2 : 0 3 : 0 
Heartbeat CPU 0 instructions: 10000002 cycles: 2796964 heartbeat IPC: 3.57531 cumulative IPC: 3.57531 (Simulation time: 0 hr 1 min 54 sec) 
Heartbeat_Variant_0 : 1352 0.330078 per_variant_size: 0 1352 0 0 0 0 0 0 0 
Heartbeat_Variant_1 : 2588 0.631836 per_variant_size: 0 511 2077 0 0 0 0 0 0 
Heartbeat_Variant_2 : 0 0 per_variant_size: 0 0 0 0 0 0 0 0 0 
Heartbeat_Variant_3 : 0 0 per_variant_size: 0 0 0 0 0 0 0 0 0 
Heartbeat_Variant_0_evicts 0 : 5772 1 : 307 2 : 0 3 : 0 
Heartbeat_Variant_1_evicts 0 : 311 1 : 0 2 : 0 3 : 0 
Heartbeat_Variant_2_evicts 0 : 0 1 : 0 2 : 0 3 : 0 
Heartbeat_Variant_3_evicts 0 : 0 1 : 0 2 : 0 3 : 0 
Heartbeat CPU 0 instructions: 20000002 cycles: 5592766 heartbeat IPC: 3.57679 cumulative IPC: 3.57605 (Simulation time: 0 hr 3 min 32 sec) 
Heartbeat_Variant_0 : 1349 0.329346 per_variant_size: 0 1349 0 0 0 0 0 0 0 
Heartbeat_Variant_1 : 2591 0.632568 per_variant_size: 0 512 2079 0 0 0 0 0 0 
Heartbeat_Variant_2 : 0 0 per_variant_size: 0 0 0 0 0 0 0 0 0 
Heartbeat_Variant_3 : 0 0 per_variant_size: 0 0 0 0 0 0 0 0 0 
Heartbeat_Variant_0_evicts 0 : 5436 1 : 5 2 : 0 3 : 0 
Heartbeat_Variant_1_evicts 0 : 8 1 : 0 2 : 0 3 : 0 
Heartbeat_Variant_2_evicts 0 : 0 1 : 0 2 : 0 3 : 0 
Heartbeat_Variant_3_evicts 0 : 0 1 : 0 2 : 0 3 : 0 
Heartbeat CPU 0 instructions: 30000003 cycles: 8387124 heartbeat IPC: 3.57864 cumulative IPC: 3.57691 (Simulation time: 0 hr 5 min 13 sec) 
Heartbeat_Variant_0 : 1362 0.33252 per_variant_size: 0 1362 0 0 0 0 0 0 0 
Heartbeat_Variant_1 : 2599 0.634521 per_variant_size: 0 499 2100 0 0 0 0 0 0 
Heartbeat_Variant_2 : 0 0 per_variant_size: 0 0 0 0 0 0 0 0 0 
Heartbeat_Variant_3 : 0 0 per_variant_size: 0 0 0 0 0 0 0 0 0 
Heartbeat_Variant_0_evicts 0 : 5645 1 : 187 2 : 0 3 : 0 
Heartbeat_Variant_1_evicts 0 : 181 1 : 0 2 : 0 3 : 0 
Heartbeat_Variant_2_evicts 0 : 0 1 : 0 2 : 0 3 : 0 
Heartbeat_Variant_3_evicts 0 : 0 1 : 0 2 : 0 3 : 0 
Heartbeat CPU 0 instructions: 40000003 cycles: 11181786 heartbeat IPC: 3.57825 cumulative IPC: 3.57725 (Simulation time: 0 hr 6 min 52 sec) 
Heartbeat_Variant_0 : 1362 0.33252 per_variant_size: 0 1362 0 0 0 0 0 0 0 
Heartbeat_Variant_1 : 2599 0.634521 per_variant_size: 0 495 2104 0 0 0 0 0 0 
Heartbeat_Variant_2 : 0 0 per_variant_size: 0 0 0 0 0 0 0 0 0 
Heartbeat_Variant_3 : 0 0 per_variant_size: 0 0 0 0 0 0 0 0 0 
Heartbeat_Variant_0_evicts 0 : 5579 1 : 1 2 : 0 3 : 0 
Heartbeat_Variant_1_evicts 0 : 1 1 : 0 2 : 0 3 : 0 
Heartbeat_Variant_2_evicts 0 : 0 1 : 0 2 : 0 3 : 0 
Heartbeat_Variant_3_evicts 0 : 0 1 : 0 2 : 0 3 : 0 
Heartbeat CPU 0 instructions: 50000001 cycles: 13977262 heartbeat IPC: 3.57721 cumulative IPC: 3.57724 (Simulation time: 0 hr 8 min 28 sec) 

Warmup complete CPU 0 instructions: 50000001 cycles: 13977262 (Simulation time: 0 hr 8 min 28 sec) 

Cycle: 20000000 FTQ IN: 58389068 FTQ occupancy: 20.5304 DECODE IN: 58389068 DECODE occupancy: 53.3377 ROB IN: 58389064 ROB occupancy: 318.7 ROB OUT: 58388712
Heartbeat_Variant_0 : 1372 0.334961 per_variant_size: 0 1372 0 0 0 0 0 0 0 
Heartbeat_Variant_1 : 2623 0.640381 per_variant_size: 0 488 2135 0 0 0 0 0 0 
Heartbeat_Variant_2 : 0 0 per_variant_size: 0 0 0 0 0 0 0 0 0 
Heartbeat_Variant_3 : 0 0 per_variant_size: 0 0 0 0 0 0 0 0 0 
Heartbeat_Variant_0_evicts 0 : 5656 1 : 202 2 : 0 3 : 0 
Heartbeat_Variant_1_evicts 0 : 204 1 : 0 2 : 0 3 : 0 
Heartbeat_Variant_2_evicts 0 : 0 1 : 0 2 : 0 3 : 0 
Heartbeat_Variant_3_evicts 0 : 0 1 : 0 2 : 0 3 : 0 
Heartbeat CPU 0 instructions: 60000000 cycles: 21168314 heartbeat IPC: 1.39062 cumulative IPC: 1.39062 (Simulation time: 0 hr 10 min 22 sec) 
Heartbeat_Variant_0 : 1375 0.335693 per_variant_size: 0 1375 0 0 0 0 0 0 0 
Heartbeat_Variant_1 : 2623 0.640381 per_variant_size: 0 486 2137 0 0 0 0 0 0 
Heartbeat_Variant_2 : 0 0 per_variant_size: 0 0 0 0 0 0 0 0 0 
Heartbeat_Variant_3 : 0 0 per_variant_size: 0 0 0 0 0 0 0 0 0 
Heartbeat_Variant_0_evicts 0 : 5609 1 : 38 2 : 0 3 : 0 
Heartbeat_Variant_1_evicts 0 : 36 1 : 0 2 : 0 3 : 0 
Heartbeat_Variant_2_evicts 0 : 0 1 : 0 2 : 0 3 : 0 
Heartbeat_Variant_3_evicts 0 : 0 1 : 0 2 : 0 3 : 0 
Heartbeat CPU 0 instructions: 70000000 cycles: 28239438 heartbeat IPC: 1.4142 cumulative IPC: 1.40231 (Simulation time: 0 hr 12 min 14 sec) 
Cycle: 30000000 FTQ IN: 14104470 FTQ occupancy: 14.7393 DECODE IN: 14104470 DECODE occupancy: 37.9303 ROB IN: 14104474 ROB occupancy: 249.896 ROB OUT: 14104740
Heartbeat_Variant_0 : 1379 0.33667 per_variant_size: 0 1379 0 0 0 0 0 0 0 
Heartbeat_Variant_1 : 2627 0.641357 per_variant_size: 0 482 2145 0 0 0 0 0 0 
Heartbeat_Variant_2 : 0 0 per_variant_size: 0 0 0 0 0 0 0 0 0 
Heartbeat_Variant_3 : 0 0 per_variant_size: 0 0 0 0 0 0 0 0 0 
Heartbeat_Variant_0_evicts 0 : 5636 1 : 88 2 : 0 3 : 0 
Heartbeat_Variant_1_evicts 0 : 86 1 : 0 2 : 0 3 : 0 
Heartbeat_Variant_2_evicts 0 : 0 1 : 0 2 : 0 3 : 0 
Heartbeat_Variant_3_evicts 0 : 0 1 : 0 2 : 0 3 : 0 
Heartbeat CPU 0 instructions: 80000002 cycles: 35390815 heartbeat IPC: 1.39833 cumulative IPC: 1.40098 (Simulation time: 0 hr 14 min 6 sec) 
Cycle: 40000000 FTQ IN: 14008250 FTQ occupancy: 14.8402 DECODE IN: 14008166 DECODE occupancy: 37.8917 ROB IN: 14008106 ROB occupancy: 249.848 ROB OUT: 14007840
Heartbeat_Variant_0 : 1379 0.33667 per_variant_size: 0 1379 0 0 0 0 0 0 0 
Heartbeat_Variant_1 : 2635 0.643311 per_variant_size: 0 478 2157 0 0 0 0 0 0 
Heartbeat_Variant_2 : 0 0 per_variant_size: 0 0 0 0 0 0 0 0 0 
Heartbeat_Variant_3 : 0 0 per_variant_size: 0 0 0 0 0 0 0 0 0 
Heartbeat_Variant_0_evicts 0 : 5730 1 : 126 2 : 0 3 : 0 
Heartbeat_Variant_1_evicts 0 : 127 1 : 0 2 : 0 3 : 0 
Heartbeat_Variant_2_evicts 0 : 0 1 : 0 2 : 0 3 : 0 
Heartbeat_Variant_3_evicts 0 : 0 1 : 0 2 : 0 3 : 0 
Heartbeat CPU 0 instructions: 90000002 cycles: 42474952 heartbeat IPC: 1.4116 cumulative IPC: 1.40362 (Simulation time: 0 hr 16 min 0 sec) 
Heartbeat_Variant_0 : 1377 0.336182 per_variant_size: 0 1377 0 0 0 0 0 0 0 
Heartbeat_Variant_1 : 2640 0.644531 per_variant_size: 0 483 2157 0 0 0 0 0 0 
Heartbeat_Variant_2 : 0 0 per_variant_size: 0 0 0 0 0 0 0 0 0 
Heartbeat_Variant_3 : 0 0 per_variant_size: 0 0 0 0 0 0 0 0 0 
Heartbeat_Variant_0_evicts 0 : 5623 1 : 27 2 : 0 3 : 0 
Heartbeat_Variant_1_evicts 0 : 31 1 : 0 2 : 0 3 : 0 
Heartbeat_Variant_2_evicts 0 : 0 1 : 0 2 : 0 3 : 0 
Heartbeat_Variant_3_evicts 0 : 0 1 : 0 2 : 0 3 : 0 
Heartbeat CPU 0 instructions: 100000001 cycles: 49614369 heartbeat IPC: 1.40067 cumulative IPC: 1.40303 (Simulation time: 0 hr 18 min 11 sec) 
Finished CPU 0 instructions: 50000000 cycles: 35637107 cumulative IPC: 1.40303 (Simulation time: 0 hr 18 min 11 sec) 

ChampSim completed all CPUs

Region of Interest Statistics

CPU 0 cumulative IPC: 1.40303 instructions: 50000000 cycles: 35637107
 Fetch stage stalled: 45.915  Sim cycles: 35637107 fetch stall cycle: 16362761
 Empty decode stage: 25.7328  Sim cycles: 35637107 fetch stall cycle: 9170429
ITLB TOTAL     ACCESS:    5822531  HIT:    5329633  MISS:     492898  HIT %:    91.5346  MISS %:    8.46536   MPKI: 9.85796
ITLB LOAD TRANSLATION INSTRUCTION	ACCESS:    5688394  HIT:    5195496  MISS:     492898  HIT %:     91.335  MISS %:    8.66498  MPKI: 9.85796
ITLB TRANSLATION FROM L1D PREFETCHER INSTRUCTION	ACCESS:     134137  HIT:     134137  MISS:          0  HIT %:        100  MISS %:          0  MPKI: 0

ITLB AVERAGE MISS LATENCY: 9.05522 cycles
ITLB RQ	ACCESS:    7927790	FORWARD:          0	MERGED:    1623046	TO_CACHE:    6304744

DTLB TOTAL     ACCESS:    8957294  HIT:    8488238  MISS:     469056  HIT %:    94.7634  MISS %:    5.23658   MPKI: 9.38112
DTLB LOAD TRANSLATION DATA	ACCESS:    8957294  HIT:    8488238  MISS:     469056  HIT %:    94.7634  MISS %:    5.23658  MPKI: 9.38112

DTLB AVERAGE MISS LATENCY: 9.33356 cycles
DTLB RQ	ACCESS:   13325147	FORWARD:          0	MERGED:    4331120	TO_CACHE:    8994027

STLB TOTAL     ACCESS:    1211319  HIT:    1209216  MISS:       2103  HIT %:    99.8264  MISS %:   0.173612   MPKI: 0.04206
STLB LOAD TRANSLATION INSTRUCTION	ACCESS:     492898  HIT:     492609  MISS:        289  HIT %:    99.9414  MISS %:  0.0586328  MPKI: 0.00578
STLB LOAD TRANSLATION DATA	ACCESS:     469055  HIT:     467271  MISS:       1784  HIT %:    99.6197  MISS %:   0.380339  MPKI: 0.03568
STLB TRANSLATION FROM L1D PREFETCHER DATA	ACCESS:     249366  HIT:     249336  MISS:         30  HIT %:     99.988  MISS %:  0.0120305  MPKI: 0.0006

STLB AVERAGE MISS LATENCY: 72.7137 cycles
STLB RQ	ACCESS:    1333006	FORWARD:          0	MERGED:     121646	TO_CACHE:    1211360

STLB Hit, L1D data hit: 0
STLB Hit, L2C data hit: 0
STLB Hit, LLC data hit: 0
STLB Hit, LLC data miss: 0
STLB STLB hints to L2: 0
L1D TOTAL     ACCESS:   13140395  HIT:   12168197  MISS:     972198  HIT %:    92.6015  MISS %:    7.39854   MPKI: 19.444
L1D LOAD DATA	ACCESS:    6542798  HIT:    5910175  MISS:     632623  HIT %:     90.331  MISS %:      9.669  MPKI: 12.6525
L1D RFO DATA	ACCESS:    6263351  HIT:    6012847  MISS:     250504  HIT %:    96.0005  MISS %:    3.99952  MPKI: 5.01008
L1D PREFETCH DATA	ACCESS:     334246  HIT:     245175  MISS:      89071  HIT %:    73.3517  MISS %:    26.6483  MPKI: 1.78142

L1D PREFETCH  REQUESTED:     742506  ISSUED:     742506  USEFUL:      32382  USELESS:      64216
L1D USEFUL LOAD PREFETCHES:      32382 PREFETCH ISSUED TO LOWER LEVEL:      96650  ACCURACY: 33.5044
 TIMELY PREFETCHES:      32382 LATE PREFETCHES: 7509 DROPPED PREFETCHES: 9
L1D AVERAGE MISS LATENCY: 249340 cycles
L1D RQ	ACCESS:   10692991	FORWARD:          0	MERGED:    3950695	TO_CACHE:    6575152
L1D WQ	ACCESS:    6948049	FORWARD:     167544	MERGED:     198054	TO_CACHE:    6749995
L1D PQ	ACCESS:     371453	FORWARD:          0	MERGED:          0	TO_CACHE:     371053

L1D UNIQUE REGIONS ACCESSED: 0
L1D REGIONS CONFLICTS: 0
L1D Cross Page Prefetch Requests: 6899
L1D Same Page Prefetch Requests: 743565
L1D ROI Sum of L1D PQ occupancy: 4718498
L1D PREFETCHES PUSHED FROM L2C: 0
L1I TOTAL     ACCESS:    7102899  HIT:    4344878  MISS:    2758021  HIT %:    61.1705  MISS %:    38.8295   MPKI: 55.1604
L1I LOAD INSTRUCTION	ACCESS:    6435765  HIT:    3677744  MISS:    2758021  HIT %:    57.1454  MISS %:    42.8546  MPKI: 55.1604
L1I PREFETCH INSTRUCTION	ACCESS:     667134  HIT:     667134  MISS:          0  HIT %:        100  MISS %:          0  MPKI: 0

L1I PREFETCH  REQUESTED:    1613010  ISSUED:    1613010  USEFUL:          0  USELESS:          0
L1I USEFUL LOAD PREFETCHES:          0 PREFETCH ISSUED TO LOWER LEVEL:          0  ACCURACY: -nan
 TIMELY PREFETCHES:          0 LATE PREFETCHES: 0 DROPPED PREFETCHES: 0
L1I AVERAGE MISS LATENCY: 16.9947 cycles
L1I RQ	ACCESS:    9559923	FORWARD:          0	MERGED:    2819250	TO_CACHE:    6740673
L1I PQ	ACCESS:    1613010	FORWARD:          0	MERGED:     425893	TO_CACHE:    1187117

L1BTB TOTAL     ACCESS:    5669407  HIT:    2046354  MISS:    3623053  HIT %:    36.0947  MISS %:    63.9053   MPKI: 72.4611
L1BTB BRANCH_DIRECT_JUMP	ACCESS:     548086 HIT:     144932 MISS:     403154 AVERAGE STALL: 54.5726 AVERAGE FETCH STALL: 13.8174 AVERAGE FETCH QUEUE STALL: 18.8105 AVERAGE DECODE STALL: 21.0098 AVERAGE EXECUTE STALL: 2.28019e+15
L1BTB BRANCH_INDIRECT	ACCESS:     182935 HIT:      65981 MISS:     116954 AVERAGE STALL: 111.694 AVERAGE FETCH STALL: 11.5111 AVERAGE FETCH QUEUE STALL: 17.1592 AVERAGE DECODE STALL: 13.2551 AVERAGE EXECUTE STALL: 68.807
L1BTB BRANCH_CONDITIONAL	ACCESS:    2709734 HIT:    1419158 MISS:    1290576 AVERAGE STALL: 68.8285 AVERAGE FETCH STALL: 20.507 AVERAGE FETCH QUEUE STALL: 28.4137 AVERAGE DECODE STALL: 19.3788 AVERAGE EXECUTE STALL: 3.22158e+15
L1BTB BRANCH_DIRECT_CALL	ACCESS:     943103 HIT:     105169 MISS:     837934 AVERAGE STALL: 66.7143 AVERAGE FETCH STALL: 26.7625 AVERAGE FETCH QUEUE STALL: 22.9762 AVERAGE DECODE STALL: 16.0891 AVERAGE EXECUTE STALL: 1.12617e+16
L1BTB BRANCH_INDIRECT_CALL	ACCESS:     171220 HIT:      21021 MISS:     150199 AVERAGE STALL: 140.635 AVERAGE FETCH STALL: 12.9899 AVERAGE FETCH QUEUE STALL: 17.6963 AVERAGE DECODE STALL: 12.1654 AVERAGE EXECUTE STALL: 97.2944
L1BTB BRANCH_RETURN	ACCESS:    1114329 HIT:     290093 MISS:     824236 AVERAGE STALL: 47.8853 AVERAGE FETCH STALL: 16.4592 AVERAGE FETCH QUEUE STALL: 5.1917 AVERAGE DECODE STALL: 6.20102 AVERAGE EXECUTE STALL: 4.27453e+14
L1BTB BRANCH_OTHER ACCESS:          0 HIT:          0 MISS:          0 AVERAGE STALL: -nan AVERAGE FETCH STALL: -nan AVERAGE FETCH QUEUE STALL: -nan AVERAGE DECODE STALL: -nan AVERAGE EXECUTE STALL: -nan
L1BTB TOTAL ROB OCCUPANCY AT BTB MISS: 2.7712

L2BTB TOTAL     ACCESS:    3597667  HIT:    3531671  MISS:      65996  HIT %:    98.1656  MISS %:    1.83441   MPKI: 1.31992
L2BTB BRANCH_DIRECT_JUMP	ACCESS:     398972 HIT:     395058 MISS:       3914 AVERAGE STALL: 54.5726 AVERAGE FETCH STALL: 13.8174 AVERAGE FETCH QUEUE STALL: 18.8105 AVERAGE DECODE STALL: 21.0098 AVERAGE EXECUTE STALL: 2.28019e+15
L2BTB BRANCH_INDIRECT	ACCESS:     106711 HIT:     104047 MISS:       2664 AVERAGE STALL: 111.694 AVERAGE FETCH STALL: 11.5111 AVERAGE FETCH QUEUE STALL: 17.1592 AVERAGE DECODE STALL: 13.2551 AVERAGE EXECUTE STALL: 68.807
L2BTB BRANCH_CONDITIONAL	ACCESS:    1290576 HIT:    1284796 MISS:       5780 AVERAGE STALL: 68.8285 AVERAGE FETCH STALL: 20.507 AVERAGE FETCH QUEUE STALL: 28.4137 AVERAGE DECODE STALL: 19.3788 AVERAGE EXECUTE STALL: 3.22158e+15
L2BTB BRANCH_DIRECT_CALL	ACCESS:     837934 HIT:     836278 MISS:       1656 AVERAGE STALL: 66.7143 AVERAGE FETCH STALL: 26.7625 AVERAGE FETCH QUEUE STALL: 22.9762 AVERAGE DECODE STALL: 16.0891 AVERAGE EXECUTE STALL: 1.12617e+16
L2BTB BRANCH_INDIRECT_CALL	ACCESS:     140646 HIT:     130444 MISS:      10202 AVERAGE STALL: 140.635 AVERAGE FETCH STALL: 12.9899 AVERAGE FETCH QUEUE STALL: 17.6963 AVERAGE DECODE STALL: 12.1654 AVERAGE EXECUTE STALL: 97.2944
L2BTB BRANCH_RETURN	ACCESS:     822828 HIT:     781048 MISS:      41780 AVERAGE STALL: 47.8853 AVERAGE FETCH STALL: 16.4592 AVERAGE FETCH QUEUE STALL: 5.1917 AVERAGE DECODE STALL: 6.20102 AVERAGE EXECUTE STALL: 4.27453e+14
L2BTB BRANCH_OTHER ACCESS:          0 HIT:          0 MISS:          0 AVERAGE STALL: -nan AVERAGE FETCH STALL: -nan AVERAGE FETCH QUEUE STALL: -nan AVERAGE DECODE STALL: -nan AVERAGE EXECUTE STALL: -nan
L2BTB TOTAL ROB OCCUPANCY AT BTB MISS: 152.133

L2C TOTAL     ACCESS:    4269205  HIT:    3801386  MISS:     467819  HIT %:     89.042  MISS %:     10.958   MPKI: 9.35638
L2C LOAD INSTRUCTION	ACCESS:    2758020  HIT:    2524229  MISS:     233791  HIT %:    91.5232  MISS %:    8.47677  MPKI: 4.67582
L2C LOAD TRANSLATION INSTRUCTION	ACCESS:        326  HIT:         77  MISS:        249  HIT %:    23.6196  MISS %:    76.3804  MPKI: 0.00498
L2C LOAD DATA	ACCESS:     625079  HIT:     545671  MISS:      79408  HIT %:    87.2963  MISS %:    12.7037  MPKI: 1.58816
L2C RFO DATA	ACCESS:     250400  HIT:     199212  MISS:      51188  HIT %:    79.5575  MISS %:    20.4425  MPKI: 1.02376
L2C PREFETCH DATA	ACCESS:     181953  HIT:     104001  MISS:      77952  HIT %:    57.1582  MISS %:    42.8418  MPKI: 1.55904
L2C WRITEBACK DATA	ACCESS:     451513  HIT:     427602  MISS:      23911  HIT %:    94.7042  MISS %:    5.29575  MPKI: 0.47822
L2C LOAD TRANSLATION DATA	ACCESS:       1854  HIT:        556  MISS:       1298  HIT %:    29.9892  MISS %:    70.0108  MPKI: 0.02596
L2C TRANSLATION FROM L1D PREFETCHER DATA	ACCESS:         60  HIT:         38  MISS:         22  HIT %:    63.3333  MISS %:    36.6667  MPKI: 0.00044

L2C PREFETCH  REQUESTED:      92837  ISSUED:      92837  USEFUL:       8094  USELESS:      70593
L2C USEFUL LOAD PREFETCHES:       8094 PREFETCH ISSUED TO LOWER LEVEL:      78406  ACCURACY: 10.3232
 TIMELY PREFETCHES:       8094 LATE PREFETCHES: 454 DROPPED PREFETCHES: 0
L2C AVERAGE MISS LATENCY: 38.7408 cycles
L2C RQ	ACCESS:    3635809	FORWARD:          0	MERGED:          0	TO_CACHE:    3635740
L2C WQ	ACCESS:     451513	FORWARD:         69	MERGED:          0	TO_CACHE:     451513
L2C PQ	ACCESS:     189487	FORWARD:          0	MERGED:       3407	TO_CACHE:     186080

L2C Dense regions hint from L2: 0
PSCL5 TOTAL     ACCESS:       4234  HIT:       2117  MISS:       2117  HIT %:         50  MISS %:         50   MPKI: 0.04234
PSCL5 LOAD TRANSLATION INSTRUCTION	ACCESS:       4118  HIT:       2059  MISS:       2059  HIT %:         50  MISS %:         50  MPKI: 0.04118
PSCL5 TRANSLATION FROM L1D PREFETCHER INSTRUCTION	ACCESS:        116  HIT:         58  MISS:         58  HIT %:         50  MISS %:         50  MPKI: 0.00116


PSCL4 TOTAL     ACCESS:       3890  HIT:       1940  MISS:       1950  HIT %:    49.8715  MISS %:    50.1285   MPKI: 0.039
PSCL4 LOAD TRANSLATION INSTRUCTION	ACCESS:       2396  HIT:       1886  MISS:        510  HIT %:    78.7145  MISS %:    21.2855  MPKI: 0.0102
PSCL4 TRANSLATION FROM L1D PREFETCHER INSTRUCTION	ACCESS:         72  HIT:         54  MISS:         18  HIT %:         75  MISS %:         25  MPKI: 0.00036
PSCL4 LOAD TRANSLATION DATA	ACCESS:       1386  HIT:          0  MISS:       1386  HIT %:          0  MISS %:        100  MPKI: 0.02772
PSCL4 TRANSLATION FROM L1D PREFETCHER DATA	ACCESS:         36  HIT:          0  MISS:         36  HIT %:          0  MISS %:        100  MPKI: 0.00072


PSCL3 TOTAL     ACCESS:       3924  HIT:       1957  MISS:       1967  HIT %:    49.8726  MISS %:    50.1274   MPKI: 0.03934
PSCL3 LOAD TRANSLATION INSTRUCTION	ACCESS:       2413  HIT:       1903  MISS:        510  HIT %:    78.8645  MISS %:    21.1355  MPKI: 0.0102
PSCL3 TRANSLATION FROM L1D PREFETCHER INSTRUCTION	ACCESS:         72  HIT:         54  MISS:         18  HIT %:         75  MISS %:         25  MPKI: 0.00036
PSCL3 LOAD TRANSLATION DATA	ACCESS:       1403  HIT:          0  MISS:       1403  HIT %:          0  MISS %:        100  MPKI: 0.02806
PSCL3 TRANSLATION FROM L1D PREFETCHER DATA	ACCESS:         36  HIT:          0  MISS:         36  HIT %:          0  MISS %:        100  MPKI: 0.00072


PSCL2 TOTAL     ACCESS:       4130  HIT:       2013  MISS:       2117  HIT %:    48.7409  MISS %:    51.2591   MPKI: 0.04234
PSCL2 LOAD TRANSLATION INSTRUCTION	ACCESS:       2244  HIT:       1957  MISS:        287  HIT %:    87.2103  MISS %:    12.7897  MPKI: 0.00574
PSCL2 TRANSLATION FROM L1D PREFETCHER INSTRUCTION	ACCESS:         56  HIT:         56  MISS:          0  HIT %:        100  MISS %:          0  MPKI: 0
PSCL2 LOAD TRANSLATION DATA	ACCESS:       1774  HIT:          0  MISS:       1774  HIT %:          0  MISS %:        100  MPKI: 0.03548
PSCL2 TRANSLATION FROM L1D PREFETCHER DATA	ACCESS:         56  HIT:          0  MISS:         56  HIT %:          0  MISS %:        100  MPKI: 0.00112


LLC TOTAL     ACCESS:     520883  HIT:     491193  MISS:      29690  HIT %:    94.3001  MISS %:    5.69994   MPKI: 0.5938
LLC LOAD INSTRUCTION	ACCESS:     233791  HIT:     232634  MISS:       1157  HIT %:    99.5051  MISS %:   0.494886  MPKI: 0.02314
LLC LOAD TRANSLATION INSTRUCTION	ACCESS:        249  HIT:        221  MISS:         28  HIT %:     88.755  MISS %:     11.245  MPKI: 0.00056
LLC LOAD DATA	ACCESS:      78966  HIT:      75689  MISS:       3277  HIT %:    95.8501  MISS %:    4.14989  MPKI: 0.06554
LLC RFO DATA	ACCESS:      51166  HIT:      35889  MISS:      15277  HIT %:    70.1423  MISS %:    29.8577  MPKI: 0.30554
LLC PREFETCH DATA	ACCESS:      78405  HIT:      69016  MISS:       9389  HIT %:     88.025  MISS %:     11.975  MPKI: 0.18778
LLC WRITEBACK DATA	ACCESS:      76986  HIT:      76511  MISS:        475  HIT %:     99.383  MISS %:   0.616995  MPKI: 0.0095
LLC LOAD TRANSLATION DATA	ACCESS:       1298  HIT:       1211  MISS:         87  HIT %:    93.2974  MISS %:    6.70262  MPKI: 0.00174
LLC TRANSLATION FROM L1D PREFETCHER DATA	ACCESS:         22  HIT:         22  MISS:          0  HIT %:        100  MISS %:          0  MPKI: 0

LLC AVERAGE MISS LATENCY: 160.58 cycles
LLC RQ	ACCESS:     365502	FORWARD:          0	MERGED:          0	TO_CACHE:     365492
LLC WQ	ACCESS:      76986	FORWARD:         11	MERGED:          0	TO_CACHE:      76986
LLC PQ	ACCESS:      78406	FORWARD:          0	MERGED:          0	TO_CACHE:      78405

LLC Dense regions hint to LLC: 0

RAW hits: 1947937
Loads Generated: 12640928
Loads sent to L1D: 10692991
Stores Generated: 6948049
Stores sent to L1D: 6948049
Major fault: 0 Minor fault: 2534
Allocated PAGES: 2534

stream: 
stream:times selected: 1177844
stream:pref_filled: 111799
stream:pref_useful: 20858
stream:pref_late: 6433
stream:misses: 6816
stream:misses_by_poll: 0

CS: 
CS:times selected: 177322
CS:pref_filled: 56253
CS:pref_useful: 33795
CS:pref_late: 6352
CS:misses: 14929
CS:misses_by_poll: 6

CPLX: 
CPLX:times selected: 999369
CPLX:pref_filled: 18960
CPLX:pref_useful: 4213
CPLX:pref_late: 3178
CPLX:misses: 83620
CPLX:misses_by_poll: 1

NL_L1: 
NL:times selected: 21269
NL:pref_filled: 803
NL:pref_useful: 360
NL:pref_late: 299
NL:misses: 1383
NL:misses_by_poll: 0

total selections: 2375804
total_filled: 89071
total_useful: 32382
total_late: 17365
total_polluted: 7
total_misses_after_warmup: 664988
conflicts: 5520040

test: 117504

DRAM Statistics
 CHANNEL 0
 RQ ROW_BUFFER_HIT:      10953  ROW_BUFFER_MISS:      18247
 DBUS_CONGESTED:          8
 WQ ROW_BUFFER_HIT:       1502  ROW_BUFFER_MISS:      12764  FULL:          0

 AVG_CONGESTED_CYCLE: 5

CPU 0 Branch Prediction Accuracy: 99.8221% MPKI: 0.32524 Average ROB Occupancy at Mispredict: 196.567
Branch types
NOT_BRANCH: 40858594 81.7172%
BRANCH_DIRECT_JUMP: 548086 1.09617%
BRANCH_INDIRECT: 182935 0.36587%
BRANCH_CONDITIONAL: 6181752 12.3635%
BRANCH_DIRECT_CALL: 943103 1.88621%
BRANCH_INDIRECT_CALL: 171220 0.34244%
BRANCH_RETURN: 1114329 2.22866%
BRANCH_OTHER: 0 0%

DRAM PAGES: 1048576
Allocated PAGES: 2534
Average_ROB_Occupancy: 251.231
Average_Decode_Occupancy: 37.9291
Average_FTQ_Occupancy: 14.8224
Indirect max targets: 14 Average targets: 1.14576
Branch_type:  BRANCH_DIRECT_JUMP:  Count Percentage: 4.13225 5.71711 3.64591 3.32479 10.5588 2.55251 2.64106 67.4276 
Branch_type:  BRANCH_INDIRECT:  Count Percentage: 11.7662 3.38803 2.50537 0 13.0306 2.81714 2.95616 63.5365 
Branch_type:  BRANCH_CONDITIONAL:  Count Percentage: 24.9967 3.18408 5.33891 2.69917 5.26437 2.43864 3.81636 52.2617 
Branch_type:  BRANCH_DIRECT_CALL:  Count Percentage: 0.386909 1.79198 1.13215 2.51958 4.89491 2.33899 4.43136 82.5041 
Branch_type:  BRANCH_INDIRECT_CALL:  Count Percentage: 9.54075 0 2.99134 6.37666 0 2.80813 3.84638 74.4367 
Branch_type:  BRANCH_RETURN:  Count Percentage: 7.87375 2.14446 5.80006 2.84991 5.18646 3.63425 4.2739 68.2372 
Branch_type:  BRANCH_DIRECT_JUMP:  Total Count: 45219 62562 39897 36383 115544 27932 28901 737856 
Branch_type:  BRANCH_INDIRECT:  Total Count: 42911 12356 9137 0 47522 10274 10781 231715 
Branch_type:  BRANCH_CONDITIONAL:  Total Count: 3087214 393249 659380 333360 650175 301184 471338 6454570 
Branch_type:  BRANCH_DIRECT_CALL:  Total Count: 7325 33926 21434 47701 92671 44282 83895 1561976 
Branch_type:  BRANCH_INDIRECT_CALL:  Total Count: 32861 0 10303 21963 0 9672 13248 256381 
Branch_type:  BRANCH_RETURN:  Total Count: 176248 48002 129830 63793 116095 81350 95668 1527438 
Number of unique branch instructions: 9822
Upper 32 bits: 
aaaa
ffff
ffff0000
Unique upper 32 bits: 3
Unique upper 36 bits: 3
Unique upper 40 bits: 5
Unique upper 44 bits: 32
Unique upper 48 bits: 154
Variant_0 : 1377 0.336182
Variant_1 : 2640 0.644531
Variant_2 : 0 0
Variant_3 : 0 0
Offset_3 4037
Offset_4 250
Offset_5 448
Offset_6 501
Offset_7 577
Offset_8 502
Offset_9 469
Offset_10 378
Offset_11 303
Offset_12 272
Offset_13 199
Offset_14 228
Offset_15 184
Offset_16 223
Offset_17 143
Offset_18 118
Offset_19 238
Offset_20 137
Offset_21 235
Offset_22 392
Offset_23 243
Offset_24 325
Offset_25 88
Offset_47 80
decode_dispatch_called: 26181921 73.4681
Dispatch_width: 0 14032504 53.5962 39.3761
Dispatch_width: 1 1023989 3.91105 2.87338
Dispatch_width: 2 866937 3.3112 2.43268
Dispatch_width: 3 503865 1.92448 1.41388
Dispatch_width: 4 6343434 24.2283 17.8001
Dispatch_width: 5 110346 0.421459 0.309638
Dispatch_width: 6 3300846 12.6073 9.26238
Empty_decode_cycles: 9455186 26.5319
ROB_full_cycles: 9994705 28.0458
Starvation_cycles_per_kilo_instr: 223.416
Starvation_cycles_per_kilo_instr_3: 158.878
Starvation_cycles_per_kilo_instr_0: 134.93
Branch_type_1  (3,1)  (4,9)  (5,37)  (6,69)  (7,112)  (8,129)  (9,122)  (10,97)  (11,67)  (12,43)  (13,5)  (14,2)  (15,3)  (16,4)  (18,1)  (19,4)  (20,2)  (21,1)  (22,3)  (23,2)  (24,10)  (25,12) 
Branch_type_2  (3,1)  (5,1)  (8,3)  (9,3)  (12,1)  (13,1)  (14,1)  (16,3)  (17,2)  (20,2)  (21,2)  (23,5)  (24,1)  (47,36) 
Branch_type_3  (3,4035)  (4,241)  (5,406)  (6,417)  (7,435)  (8,309)  (9,258)  (10,152)  (11,122)  (12,50)  (13,4) 
Branch_type_4  (6,3)  (7,8)  (8,25)  (9,53)  (10,62)  (11,58)  (12,98)  (13,86)  (14,100)  (15,86)  (16,100)  (17,64)  (18,53)  (19,116)  (20,72)  (21,124)  (22,208)  (23,137)  (24,185)  (25,72) 
Branch_type_5  (8,2)  (9,1)  (10,3)  (11,5)  (12,3)  (13,14)  (14,16)  (15,11)  (16,20)  (17,11)  (18,16)  (19,12)  (20,10)  (21,13)  (22,42)  (23,26)  (24,38) 
Branch_type_6  (5,4)  (6,12)  (7,22)  (8,34)  (9,32)  (10,64)  (11,51)  (12,77)  (13,89)  (14,109)  (15,84)  (16,96)  (17,66)  (18,48)  (19,106)  (20,51)  (21,95)  (22,139)  (23,73)  (24,91)  (25,4)  (47,44) 
Unique trigger count: 
Variant_0_evicts_0 : 0
Variant_0_evicts_1 : 0
Variant_0_evicts_2 : 0
Variant_0_evicts_3 : 0
Variant_1_evicts_0 : 0
Variant_1_evicts_1 : 0
Variant_1_evicts_2 : 0
Variant_1_evicts_3 : 0
Variant_2_evicts_0 : 0
Variant_2_evicts_1 : 0
Variant_2_evicts_2 : 0
Variant_2_evicts_3 : 0
Variant_3_evicts_0 : 0
Variant_3_evicts_1 : 0
Variant_3_evicts_2 : 0
Variant_3_evicts_3 : 0
BTB PER SET UNIQUE ADDR: 12 7 8 11 9 12 6 8 10 12 12 14 9 9 9 9 9 10 10 13 6 7 10 9 7 10 9 10 7 7 11 13 12 7 7 8 7 13 10 9 10 9 11 6 10 6 7 9 9 10 13 13 8 8 6 5 9 9 7 9 10 10 10 7 9 13 7 9 10 11 9 9 9 7 10 8 6 8 7 13 12 7 7 9 10 11 13 7 8 11 7 8 9 8 9 7 9 8 9 12 9 13 9 7 9 12 9 12 8 7 5 9 9 8 8 8 7 12 12 10 11 10 5 5 7 9 6 10 17 9 5 10 10 11 9 8 9 11 8 15 8 6 10 11 7 10 13 10 7 8 10 10 7 8 10 11 8 11 13 9 8 7 7 10 8 9 8 11 12 9 9 13 11 7 11 9 7 10 10 6 8 8 11 12 10 14 5 9 11 7 8 7 9 10 12 8 7 11 9 12 14 7 9 10 6 7 9 8 10 15 8 11 10 5 8 8 6 10 10 13 8 11 7 7 10 10 9 11 9 9 10 6 12 15 9 10 11 12 9 5 7 10 12 11 12 7 11 8 15 7 10 12 12 11 6 12 11 7 8 10 9 9 4 12 11 8 8 13 11 8 10 10 7 6 10 7 8 10 9 7 9 9 8 8 10 7 6 11 10 10 6 8 13 10 9 12 10 8 11 7 7 8 8 10 14 10 11 8 9 6 7 11 7 15 6 8 14 9 11 10 8 10 6 12 11 11 6 9 11 8 10 12 8 11 9 7 10 9 7 14 8 10 7 7 8 7 8 11 8 8 9 9 8 10 7 10 10 11 7 5 8 10 7 13 10 10 6 10 11 10 12 6 8 9 11 12 11 11 10 8 11 9 8 9 9 11 10 9 13 8 8 9 10 14 7 6 8 8 10 11 12 13 9 13 7 13 9 12 11 10 10 7 8 9 12 10 11 9 14 10 8 10 8 8 9 6 11 12 9 10 19 8 10 10 10 10 11 6 7 10 11 8 9 13 17 8 8 11 8 8 12 16 12 12 9 10 10 11 7 7 8 7 10 10 10 9 8 10 8 11 9 9 9 11 8 14 8 14 8 11 14 12 10 10 9 12 12 13 13 13 12 14 7 10 9 9 12 9 7 7 11 10 8 10 9 9 4 8 10 9 6 15 11 7 12 13 10 14 10 8 9 9 11 8 10 10 15 8 8 13 10 7 8 11 7 9 8 11 11 8 9 6 13 8 14 13 10 11 10 9 9 15 8 12 13 9 11 9 8 8 13 11 7 9 10 10 11 10 11 8 10 9 10 15 6 12 14 11 8 9 9 9 6 8 11 7 8 7 12 10 9 12 10 8 11 8 7 6 8 10 10 10 9 7 9 10 11 6 11 9 14 16 7 6 6 10 9 10 10 14 14 6 7 7 8 9 10 12 8 10 7 13 13 9 11 11 8 8 9 8 9 8 10 7 7 11 8 9 13 7 8 11 10 12 13 10 15 9 12 10 7 8 11 14 7 10 10 8 10 7 12 8 10 13 11 9 11 12 10 9 8 12 12 11 12 10 6 10 10 13 11 10 8 10 9 8 9 10 8 15 7 16 14 9 7 11 9 10 11 6 13 10 9 10 7 10 12 9 10 10 8 10 9 10 6 9 9 8 9 8 10 8 8 14 9 11 14 8 13 9 12 8 11 10 11 14 11 10 10 7 10 10 10 9 7 12 13 14 7 6 8 8 7 11 7 8 6 11 12 7 9 8 8 7 11 8 9 7 12 12 8 9 11 10 10 10 6 11 10 7 6 7 13 9 12 15 7 7 10 8 16 10 13 11 12 10 10 7 7 7 9 11 10 11 7 11 9 11 7 15 10 11 8 7 8 11 7 8 9 11 12 9 11 12 11 9 7 11 8 8 14 11 8 8 10 12 8 15 9 8 9 9 8 11 8 11 14 6 14 13 11 14 11 8 9 6 11 8 9 10 9 11 9 7 8 7 10 9 10 7 11 7 9 11 9 12 10 10 8 6 9 8 11 9 10 10 11 6 7 9 10 11 12 12 7 8 11 13 10 13 9 11 7 7 13 9 12 10 11 8 8 9 8 12 8 9 6 9 8 6 12 9 11 9 7 10 8 8 11 13 9 13 10 6 8 10 7 12 11 9 11 6 9 13 6 9 8 11 9 9 10 11 10 11 10 9 11 5 9 10 11 13 12 8 7 10 9 10 8 11 8 9 9 10 8 15 13 6 11 10 8 11 8 8 8 8 8 7 11 6 11 12 10 6 12 13 11 12 8 13 12 9 8 7 10 11 6 7 5 11 6 17 8 7 
BTB PER SET COUNT: 19 7 1936 14 11 12 6 10 538 14 20 21 8779 9 9 9 2474 10 288 15 6 513 491 10 7 13 9 11 369 7 475 13 13 7 7 13 8 19 12 9 11 13 14 6 14 92 7 10 612 13 15 46 8 9 7 5 10 9 511 12 13 1737 16 7 11 436 8 11 14 11 618 285 10 10 12 13 7 9 7 16 39 7 7 9 12 47 14 9 8 16 7 799 74 520 15 7 560 15 10 17 10 26 12 8 1056 17 10 16 1913 7 13 13 562 10 14 8 9 21 1283 25 17 13 5 5 8 110 6 14 21 496 5 12 16 11 167 9 993 12 11 19 8 7 14 17 10 13 19 22 9 37 10 184 1384 8 11 17 997 14 355 9 9 235 8 14 11 11 9 13 16 949 11 13 14 10 18 1304 7 13 376 6 12 8 978 15 12 15 5 16 12 969 11 7 9 11 14 145 7 259 14 12 16 9 1003 14 6 8 10 8 15 1467 8 15 12 5 10 542 7 20 1674 18 10 12 144 10 10 16 16 216 741 12 13 6 15 20 11 10 18 19 13 5 7 14 15 13 13 848 17 12 22 14 11 18 12 13 6 22 12 10 13 13 998 10 4 496 11 10 9 15 101 8 12 119 7 7 450 8 8 13 10 7 11 12 12 9 13 11 6 11 10 12 6 8 15 10 11 14 12 10 13 119 7 9 8 11 16 11 12 9 312 866 7 15 10 22 1471 844 16 10 14 14 8 186 10 14 13 12 268 9 14 10 13 16 49 13 17 11 11 996 7 218 8 776 7 7 10 8 9 25 8 11 10 395 15 12 7 10 12 17 103 7 11 13 9 18 13 14 7 10 14 11 13 365 10 15 364 19 17 11 16 1482 11 10 11 11 10 12 13 18 17 1213 13 11 12 259 9 7 8 10 223 14 23 17 1480 17 8 18 15 492 13 12 10 7 8 10 12 11 11 73 14 11 8 11 13 9 11 8 1325 20 13 12 30 9 14 11 10 20 13 16 8 13 19 11 48 23 311 10 84 11 9 9 22 24 16 15 766 12 10 11 8 10 9 10 11 655 11 12 11 12 11 14 11 12 12 18 8 17 11 22 13 11 18 18 11 12 422 976 13 14 16 56 312 19 629 14 11 1482 1485 9 7 7 15 10 9 156 14 9 4 8 29 10 10 171 327 943 13 16 10 20 12 11 13 9 16 8 10 11 17 10 8 2102 13 7 10 11 8 10 11 966 13 10 11 8 41 11 24 20 12 13 10 134 10 16 997 164 20 9 15 11 9 8 15 70 7 10 21 13 15 10 15 8 74 12 11 18 1477 13 17 19 9 12 9 11 8 2827 11 8 12 10 14 11 13 285 14 11 16 11 2610 367 9 10 10 14 12 8 11 17 12 995 14 10 14 19 13 6 6 11 9 12 12 26 16 6 9 972 11 11 11 17 1312 11 10 14 19 13 12 11 8 975 11 9 10 8 12 7 8 170 217 9 18 7 9 11 12 12 1438 496 19 10 14 389 7 12 13 16 11843 14 14 997 1819 7 15 8 1000 17 22 16 12 17 16 12 8 16 20 332 25 16 7 10 16 23 19 12 9 12 2476 8 10 438 8 25 7 22 184 10 7 15 10 11 13 7 17 14 119 12 8 11 20 17 10 13 9 1215 9 1493 6 11 10 15 560 8 13 10 9 17 10 1907 20 9 20 15 1089 8 11 10 13 18 215 11 13 9 1481 13 1313 189 9 15 17 1421 8 10 11 8 7 72 7 10 6 14 16 7 45 368 13 7 14 9 10 9 15 21 2006 12 429 11 11 10 8 11 11 9 6 8 15 12 17 977 7 9 12 370 25 14 25 15 521 13 11 7 8 7 10 5998 12 18 9 18 12 2749 9 3753 15 1101 8 8 10 12 9 9 9 20 13 14 16 13 13 1993 7 14 12 11 18 1510 8 13 281 13 11 16 13 14728 14 1000 22 20 8 12 2021 6 19 14 13 352 19 9 13 6 12 13 10 12 213 12 15 9 13 7 12 11 1200 9 14 8 119 166 491 194 10 12 9 6 10 8 12 1842 12 11 18 8 8 12 11 13 15 860 8 8 11 16 143 16 9 974 13 7 23 16 1848 646 14 64 12 11 490 18 12 10 8 14 10 12 17 10 12 11 10 1699 10 10 16 15 10 2108 14 7 8 11 7 19 15 9 113 1000 10 2816 7 10 8 16 13 1458 16 13 767 11 13 10 1484 5 42 11 65 547 12 8 7 12 9 10 491 207 10 11 17 399 8 715 969 970 12 11 9 13 11 9 8 10 11 1481 14 6 21 880 11 7 15 18 11 16 11 624 498 9 8 9 12 13 9 13 7 15 12 22 9 7 
To predecode: 0
Predecoding something: 0
Predecode request dropped: 0
sizeofblock_0 0
sizeofblock_1 49876
sizeofblock_2 87659
sizeofblock_3 0
sizeofblock_4 0
sizeofblock_5 0
sizeofblock_6 0
sizeofblock_7 0
sizeofblock_8 0
Variant_0 Correct: 1616557 Incorrect: 0 Accuracy: 1
Variant_1 Correct: 5745550 Incorrect: 0 Accuracy: 1
Variant_2 Correct: 0 Incorrect: 0 Accuracy: -nan
Variant_3 Correct: 0 Incorrect: 0 Accuracy: -nan
