
*** ChampSim Multicore Out-of-Order Simulator ***

Warmup Instructions: 50000000
Simulation Instructions: 50000000
Number of CPUs: 1
LLC sets: 2048
LLC ways: 16
Off-chip DRAM Size: 4096 MB Channels: 1 Width: 64-bit Data Rate: 6400 MT/s
CPU 0 runs ./micro_traces/srv67.trace.gz
.gz
ITLB has LRU replacement policy
DTLB has LRU replacement policy
STLB has LRU replacement policy
FDIP Prefetcher at L1I
L1I has LRU replacement policy
L1D has LRU replacement policy
Initialize SRRIP state for L2C
Initialize DRRIP state for LLC
Heartbeat CPU 0 instructions: 10000000 cycles: 2795651 heartbeat IPC: 3.57698 cumulative IPC: 3.57698 (Simulation time: 0 hr 2 min 6 sec) 
Heartbeat CPU 0 instructions: 20000003 cycles: 5590883 heartbeat IPC: 3.57752 cumulative IPC: 3.57725 (Simulation time: 0 hr 4 min 17 sec) 
Heartbeat CPU 0 instructions: 30000000 cycles: 8386638 heartbeat IPC: 3.57685 cumulative IPC: 3.57712 (Simulation time: 0 hr 6 min 23 sec) 
Heartbeat CPU 0 instructions: 40000001 cycles: 11182183 heartbeat IPC: 3.57712 cumulative IPC: 3.57712 (Simulation time: 0 hr 8 min 28 sec) 
Heartbeat CPU 0 instructions: 50000000 cycles: 13977634 heartbeat IPC: 3.57724 cumulative IPC: 3.57714 (Simulation time: 0 hr 10 min 34 sec) 

Warmup complete CPU 0 instructions: 50000004 cycles: 13977635 (Simulation time: 0 hr 10 min 34 sec) 

Cycle: 20000000 FTQ IN: 56239119 FTQ occupancy: 17.9736 DECODE IN: 56239104 DECODE occupancy: 45.9077 ROB IN: 56239104 ROB occupancy: 276.036 ROB OUT: 56239104
Heartbeat CPU 0 instructions: 60000003 cycles: 23578757 heartbeat IPC: 1.04155 cumulative IPC: 1.04154 (Simulation time: 0 hr 12 min 33 sec) 
Cycle: 30000000 FTQ IN: 10509264 FTQ occupancy: 6.1394 DECODE IN: 10509279 DECODE occupancy: 12.781 ROB IN: 10509279 ROB occupancy: 105.946 ROB OUT: 10509214
Heartbeat CPU 0 instructions: 70000001 cycles: 33092683 heartbeat IPC: 1.05109 cumulative IPC: 1.0463 (Simulation time: 0 hr 14 min 19 sec) 
Cycle: 40000000 FTQ IN: 10430118 FTQ occupancy: 6.3359 DECODE IN: 10429977 DECODE occupancy: 13.1949 ROB IN: 10429917 ROB occupancy: 107.645 ROB OUT: 10429630
Heartbeat CPU 0 instructions: 80000000 cycles: 42688854 heartbeat IPC: 1.04208 cumulative IPC: 1.04489 (Simulation time: 0 hr 16 min 5 sec) 
Cycle: 50000000 FTQ IN: 10519380 FTQ occupancy: 6.10653 DECODE IN: 10519482 DECODE occupancy: 12.6728 ROB IN: 10519535 ROB occupancy: 105.752 ROB OUT: 10519767
Heartbeat CPU 0 instructions: 90000002 cycles: 52180466 heartbeat IPC: 1.05356 cumulative IPC: 1.04704 (Simulation time: 0 hr 17 min 48 sec) 
Cycle: 60000000 FTQ IN: 10431490 FTQ occupancy: 6.29183 DECODE IN: 10431473 DECODE occupancy: 13.0458 ROB IN: 10431480 ROB occupancy: 106.264 ROB OUT: 10431475
Heartbeat CPU 0 instructions: 100000000 cycles: 61774843 heartbeat IPC: 1.04228 cumulative IPC: 1.04609 (Simulation time: 0 hr 19 min 32 sec) 
Finished CPU 0 instructions: 50000000 cycles: 47797209 cumulative IPC: 1.04609 (Simulation time: 0 hr 19 min 32 sec) 

ChampSim completed all CPUs

Region of Interest Statistics

CPU 0 cumulative IPC: 1.04609 instructions: 50000000 cycles: 47797209
 Fetch stage stalled: 72.8379  Sim cycles: 47797209 fetch stall cycle: 34814469
 Empty decode stage: 61.2115  Sim cycles: 47797209 fetch stall cycle: 29257391
ITLB TOTAL     ACCESS:    5531220  HIT:    5041586  MISS:     489634  HIT %:    91.1478  MISS %:    8.85219   MPKI: 9.79268
ITLB LOAD TRANSLATION INSTRUCTION	ACCESS:    5425872  HIT:    4936238  MISS:     489634  HIT %:    90.9759  MISS %:    9.02406  MPKI: 9.79268
ITLB TRANSLATION FROM L1D PREFETCHER INSTRUCTION	ACCESS:     105348  HIT:     105348  MISS:          0  HIT %:        100  MISS %:          0  MPKI: 0

ITLB AVERAGE MISS LATENCY: 9.04735 cycles
ITLB RQ	ACCESS:    7202578	FORWARD:          0	MERGED:    1166110	TO_CACHE:    6036468

DTLB TOTAL     ACCESS:    9437497  HIT:    8971557  MISS:     465940  HIT %:    95.0629  MISS %:    4.93711   MPKI: 9.3188
DTLB LOAD TRANSLATION DATA	ACCESS:    9437497  HIT:    8971557  MISS:     465940  HIT %:    95.0629  MISS %:    4.93711  MPKI: 9.3188

DTLB AVERAGE MISS LATENCY: 9.33331 cycles
DTLB RQ	ACCESS:   13691621	FORWARD:          0	MERGED:    4221199	TO_CACHE:    9470422

STLB TOTAL     ACCESS:    1212925  HIT:    1210892  MISS:       2033  HIT %:    99.8324  MISS %:   0.167611   MPKI: 0.04066
STLB LOAD TRANSLATION INSTRUCTION	ACCESS:     489633  HIT:     489371  MISS:        262  HIT %:    99.9465  MISS %:  0.0535095  MPKI: 0.00524
STLB LOAD TRANSLATION DATA	ACCESS:     465901  HIT:     464145  MISS:       1756  HIT %:    99.6231  MISS %:   0.376904  MPKI: 0.03512
STLB TRANSLATION FROM L1D PREFETCHER DATA	ACCESS:     257391  HIT:     257376  MISS:         15  HIT %:    99.9942  MISS %: 0.00582771  MPKI: 0.0003

STLB AVERAGE MISS LATENCY: 75.9734 cycles
STLB RQ	ACCESS:    1345607	FORWARD:          0	MERGED:     132638	TO_CACHE:    1212969

STLB Hit, L1D data hit: 0
STLB Hit, L2C data hit: 0
STLB Hit, LLC data hit: 0
STLB Hit, LLC data miss: 0
STLB STLB hints to L2: 0
L1D TOTAL     ACCESS:   13468300  HIT:   12343199  MISS:    1125101  HIT %:    91.6463  MISS %:     8.3537   MPKI: 22.502
L1D LOAD DATA	ACCESS:    6893939  HIT:    6155119  MISS:     738820  HIT %:     89.283  MISS %:     10.717  MPKI: 14.7764
L1D RFO DATA	ACCESS:    6232750  HIT:    5946697  MISS:     286053  HIT %:    95.4105  MISS %:    4.58952  MPKI: 5.72106
L1D PREFETCH DATA	ACCESS:     341611  HIT:     241383  MISS:     100228  HIT %:    70.6602  MISS %:    29.3398  MPKI: 2.00456

L1D PREFETCH  REQUESTED:     780456  ISSUED:     780456  USEFUL:      39942  USELESS:      70452
L1D USEFUL LOAD PREFETCHES:      39942 PREFETCH ISSUED TO LOWER LEVEL:     110493  ACCURACY: 36.1489
 TIMELY PREFETCHES:      39942 LATE PREFETCHES: 10170 DROPPED PREFETCHES: 4
L1D AVERAGE MISS LATENCY: 346998 cycles
L1D RQ	ACCESS:   10960152	FORWARD:          0	MERGED:    3874344	TO_CACHE:    6926619
L1D WQ	ACCESS:    6927607	FORWARD:     159579	MERGED:     162605	TO_CACHE:    6765002
L1D PQ	ACCESS:     390423	FORWARD:          0	MERGED:          0	TO_CACHE:     390033

L1D UNIQUE REGIONS ACCESSED: 0
L1D REGIONS CONFLICTS: 0
L1D Cross Page Prefetch Requests: 5241
L1D Same Page Prefetch Requests: 780798
L1D ROI Sum of L1D PQ occupancy: 4970948
L1D PREFETCHES PUSHED FROM L2C: 0
L1I TOTAL     ACCESS:    6847028  HIT:    4101811  MISS:    2745217  HIT %:    59.9064  MISS %:    40.0936   MPKI: 54.9043
L1I LOAD INSTRUCTION	ACCESS:    6418377  HIT:    3673160  MISS:    2745217  HIT %:    57.2288  MISS %:    42.7712  MPKI: 54.9043
L1I PREFETCH INSTRUCTION	ACCESS:     428651  HIT:     428651  MISS:          0  HIT %:        100  MISS %:          0  MPKI: 0

L1I PREFETCH  REQUESTED:     867172  ISSUED:     867172  USEFUL:          0  USELESS:          0
L1I USEFUL LOAD PREFETCHES:          0 PREFETCH ISSUED TO LOWER LEVEL:          0  ACCURACY: -nan
 TIMELY PREFETCHES:          0 LATE PREFETCHES: 0 DROPPED PREFETCHES: 0
L1I AVERAGE MISS LATENCY: 17.1775 cycles
L1I RQ	ACCESS:    9461992	FORWARD:          0	MERGED:    2863209	TO_CACHE:    6598783
L1I PQ	ACCESS:     867172	FORWARD:          0	MERGED:     263377	TO_CACHE:     603795

L1BTB TOTAL     ACCESS:    5673228  HIT:    2065919  MISS:    3607309  HIT %:    36.4152  MISS %:    63.5848   MPKI: 72.1462
L1BTB BRANCH_DIRECT_JUMP	ACCESS:     548416 HIT:     145415 MISS:     403001 AVERAGE STALL: 33.2624 AVERAGE FETCH STALL: 19.0356 AVERAGE FETCH QUEUE STALL: 6.08844 AVERAGE DECODE STALL: 7.29245 AVERAGE EXECUTE STALL: 1.99444e+14
L1BTB BRANCH_INDIRECT	ACCESS:     183049 HIT:      66356 MISS:     116693 AVERAGE STALL: 90.2987 AVERAGE FETCH STALL: 16.0368 AVERAGE FETCH QUEUE STALL: 6.94021 AVERAGE DECODE STALL: 6.88573 AVERAGE EXECUTE STALL: 59.4988
L1BTB BRANCH_CONDITIONAL	ACCESS:    2727651 HIT:    1440795 MISS:    1286856 AVERAGE STALL: 34.2951 AVERAGE FETCH STALL: 20.892 AVERAGE FETCH QUEUE STALL: 6.30742 AVERAGE DECODE STALL: 6.34627 AVERAGE EXECUTE STALL: 7.39099e+13
L1BTB BRANCH_DIRECT_CALL	ACCESS:     936625 HIT:     104446 MISS:     832179 AVERAGE STALL: 35.7085 AVERAGE FETCH STALL: 20.4459 AVERAGE FETCH QUEUE STALL: 7.14096 AVERAGE DECODE STALL: 7.36263 AVERAGE EXECUTE STALL: 9.76638e+13
L1BTB BRANCH_INDIRECT_CALL	ACCESS:     170429 HIT:      20876 MISS:     149553 AVERAGE STALL: 107.341 AVERAGE FETCH STALL: 17.9913 AVERAGE FETCH QUEUE STALL: 7.30684 AVERAGE DECODE STALL: 6.86402 AVERAGE EXECUTE STALL: 74.6338
L1BTB BRANCH_RETURN	ACCESS:    1107058 HIT:     288031 MISS:     819027 AVERAGE STALL: 35.1117 AVERAGE FETCH STALL: 18.9937 AVERAGE FETCH QUEUE STALL: 5.86125 AVERAGE DECODE STALL: 6.21729 AVERAGE EXECUTE STALL: 1.13374e+14
L1BTB BRANCH_OTHER ACCESS:          0 HIT:          0 MISS:          0 AVERAGE STALL: -nan AVERAGE FETCH STALL: -nan AVERAGE FETCH QUEUE STALL: -nan AVERAGE DECODE STALL: -nan AVERAGE EXECUTE STALL: -nan
L1BTB TOTAL ROB OCCUPANCY AT BTB MISS: 18.486

L2BTB TOTAL     ACCESS:    3581851  HIT:    2849864  MISS:     731987  HIT %:     79.564  MISS %:     20.436   MPKI: 14.6397
L2BTB BRANCH_DIRECT_JUMP	ACCESS:     398764 HIT:     310494 MISS:      88270 AVERAGE STALL: 33.2624 AVERAGE FETCH STALL: 19.0356 AVERAGE FETCH QUEUE STALL: 6.08844 AVERAGE DECODE STALL: 7.29245 AVERAGE EXECUTE STALL: 1.99444e+14
L2BTB BRANCH_INDIRECT	ACCESS:     106481 HIT:      97124 MISS:       9357 AVERAGE STALL: 90.2987 AVERAGE FETCH STALL: 16.0368 AVERAGE FETCH QUEUE STALL: 6.94021 AVERAGE DECODE STALL: 6.88573 AVERAGE EXECUTE STALL: 59.4988
L2BTB BRANCH_CONDITIONAL	ACCESS:    1286856 HIT:    1036109 MISS:     250747 AVERAGE STALL: 34.2951 AVERAGE FETCH STALL: 20.892 AVERAGE FETCH QUEUE STALL: 6.30742 AVERAGE DECODE STALL: 6.34627 AVERAGE EXECUTE STALL: 7.39099e+13
L2BTB BRANCH_DIRECT_CALL	ACCESS:     832179 HIT:     643259 MISS:     188920 AVERAGE STALL: 35.7085 AVERAGE FETCH STALL: 20.4459 AVERAGE FETCH QUEUE STALL: 7.14096 AVERAGE DECODE STALL: 7.36263 AVERAGE EXECUTE STALL: 9.76638e+13
L2BTB BRANCH_INDIRECT_CALL	ACCESS:     139938 HIT:     106592 MISS:      33346 AVERAGE STALL: 107.341 AVERAGE FETCH STALL: 17.9913 AVERAGE FETCH QUEUE STALL: 7.30684 AVERAGE DECODE STALL: 6.86402 AVERAGE EXECUTE STALL: 74.6338
L2BTB BRANCH_RETURN	ACCESS:     817633 HIT:     656286 MISS:     161347 AVERAGE STALL: 35.1117 AVERAGE FETCH STALL: 18.9937 AVERAGE FETCH QUEUE STALL: 5.86125 AVERAGE DECODE STALL: 6.21729 AVERAGE EXECUTE STALL: 1.13374e+14
L2BTB BRANCH_OTHER ACCESS:          0 HIT:          0 MISS:          0 AVERAGE STALL: -nan AVERAGE FETCH STALL: -nan AVERAGE FETCH QUEUE STALL: -nan AVERAGE DECODE STALL: -nan AVERAGE EXECUTE STALL: -nan
L2BTB TOTAL ROB OCCUPANCY AT BTB MISS: 91.1008

L2C TOTAL     ACCESS:    4478289  HIT:    3991591  MISS:     486698  HIT %:    89.1321  MISS %:    10.8679   MPKI: 9.73396
L2C LOAD INSTRUCTION	ACCESS:    2745217  HIT:    2496162  MISS:     249055  HIT %:    90.9277  MISS %:    9.07232  MPKI: 4.9811
L2C LOAD TRANSLATION INSTRUCTION	ACCESS:        309  HIT:         75  MISS:        234  HIT %:    24.2718  MISS %:    75.7282  MPKI: 0.00468
L2C LOAD DATA	ACCESS:     728627  HIT:     648528  MISS:      80099  HIT %:    89.0069  MISS %:    10.9931  MPKI: 1.60198
L2C RFO DATA	ACCESS:     285934  HIT:     228399  MISS:      57535  HIT %:    79.8782  MISS %:    20.1218  MPKI: 1.1507
L2C PREFETCH DATA	ACCESS:     195991  HIT:     117728  MISS:      78263  HIT %:    60.0681  MISS %:    39.9319  MPKI: 1.56526
L2C WRITEBACK DATA	ACCESS:     520341  HIT:     500272  MISS:      20069  HIT %:    96.1431  MISS %:    3.85689  MPKI: 0.40138
L2C LOAD TRANSLATION DATA	ACCESS:       1838  HIT:        406  MISS:       1432  HIT %:    22.0892  MISS %:    77.9108  MPKI: 0.02864
L2C TRANSLATION FROM L1D PREFETCHER DATA	ACCESS:         32  HIT:         21  MISS:         11  HIT %:     65.625  MISS %:     34.375  MPKI: 0.00022

L2C PREFETCH  REQUESTED:      93225  ISSUED:      93225  USEFUL:       8243  USELESS:      70650
L2C USEFUL LOAD PREFETCHES:       8243 PREFETCH ISSUED TO LOWER LEVEL:      78783  ACCURACY: 10.4629
 TIMELY PREFETCHES:       8243 LATE PREFETCHES: 520 DROPPED PREFETCHES: 0
L2C AVERAGE MISS LATENCY: 38.7867 cycles
L2C RQ	ACCESS:    3762005	FORWARD:          0	MERGED:          0	TO_CACHE:    3761959
L2C WQ	ACCESS:     520341	FORWARD:         46	MERGED:          0	TO_CACHE:     520341
L2C PQ	ACCESS:     203718	FORWARD:          0	MERGED:       3532	TO_CACHE:     200186

L2C Dense regions hint from L2: 0
PSCL5 TOTAL     ACCESS:       4078  HIT:       2039  MISS:       2039  HIT %:         50  MISS %:         50   MPKI: 0.04078
PSCL5 LOAD TRANSLATION INSTRUCTION	ACCESS:       4014  HIT:       2007  MISS:       2007  HIT %:         50  MISS %:         50  MPKI: 0.04014
PSCL5 TRANSLATION FROM L1D PREFETCHER INSTRUCTION	ACCESS:         64  HIT:         32  MISS:         32  HIT %:         50  MISS %:         50  MPKI: 0.00064


PSCL4 TOTAL     ACCESS:       3918  HIT:       1954  MISS:       1964  HIT %:    49.8724  MISS %:    50.1276   MPKI: 0.03928
PSCL4 LOAD TRANSLATION INSTRUCTION	ACCESS:       2728  HIT:       1929  MISS:        799  HIT %:    70.7111  MISS %:    29.2889  MPKI: 0.01598
PSCL4 TRANSLATION FROM L1D PREFETCHER INSTRUCTION	ACCESS:         34  HIT:         25  MISS:          9  HIT %:    73.5294  MISS %:    26.4706  MPKI: 0.00018
PSCL4 LOAD TRANSLATION DATA	ACCESS:       1140  HIT:          0  MISS:       1140  HIT %:          0  MISS %:        100  MPKI: 0.0228
PSCL4 TRANSLATION FROM L1D PREFETCHER DATA	ACCESS:         16  HIT:          0  MISS:         16  HIT %:          0  MISS %:        100  MPKI: 0.00032


PSCL3 TOTAL     ACCESS:       3994  HIT:       1992  MISS:       2002  HIT %:    49.8748  MISS %:    50.1252   MPKI: 0.04004
PSCL3 LOAD TRANSLATION INSTRUCTION	ACCESS:       2766  HIT:       1967  MISS:        799  HIT %:    71.1135  MISS %:    28.8865  MPKI: 0.01598
PSCL3 TRANSLATION FROM L1D PREFETCHER INSTRUCTION	ACCESS:         34  HIT:         25  MISS:          9  HIT %:    73.5294  MISS %:    26.4706  MPKI: 0.00018
PSCL3 LOAD TRANSLATION DATA	ACCESS:       1178  HIT:          0  MISS:       1178  HIT %:          0  MISS %:        100  MPKI: 0.02356
PSCL3 TRANSLATION FROM L1D PREFETCHER DATA	ACCESS:         16  HIT:          0  MISS:         16  HIT %:          0  MISS %:        100  MPKI: 0.00032


PSCL2 TOTAL     ACCESS:       3958  HIT:       1919  MISS:       2039  HIT %:    48.4841  MISS %:    51.5159   MPKI: 0.04078
PSCL2 LOAD TRANSLATION INSTRUCTION	ACCESS:       2147  HIT:       1887  MISS:        260  HIT %:    87.8901  MISS %:    12.1099  MPKI: 0.0052
PSCL2 TRANSLATION FROM L1D PREFETCHER INSTRUCTION	ACCESS:         32  HIT:         32  MISS:          0  HIT %:        100  MISS %:          0  MPKI: 0
PSCL2 LOAD TRANSLATION DATA	ACCESS:       1747  HIT:          0  MISS:       1747  HIT %:          0  MISS %:        100  MPKI: 0.03494
PSCL2 TRANSLATION FROM L1D PREFETCHER DATA	ACCESS:         32  HIT:          0  MISS:         32  HIT %:          0  MISS %:        100  MPKI: 0.00064


LLC TOTAL     ACCESS:     547683  HIT:     517096  MISS:      30587  HIT %:    94.4152  MISS %:     5.5848   MPKI: 0.61174
LLC LOAD INSTRUCTION	ACCESS:     249055  HIT:     247934  MISS:       1121  HIT %:    99.5499  MISS %:   0.450101  MPKI: 0.02242
LLC LOAD TRANSLATION INSTRUCTION	ACCESS:        234  HIT:        199  MISS:         35  HIT %:    85.0427  MISS %:    14.9573  MPKI: 0.0007
LLC LOAD DATA	ACCESS:      79589  HIT:      76136  MISS:       3453  HIT %:    95.6615  MISS %:    4.33854  MPKI: 0.06906
LLC RFO DATA	ACCESS:      57523  HIT:      41968  MISS:      15555  HIT %:    72.9586  MISS %:    27.0414  MPKI: 0.3111
LLC PREFETCH DATA	ACCESS:      78783  HIT:      68865  MISS:       9918  HIT %:     87.411  MISS %:     12.589  MPKI: 0.19836
LLC WRITEBACK DATA	ACCESS:      81056  HIT:      80632  MISS:        424  HIT %:    99.4769  MISS %:   0.523095  MPKI: 0.00848
LLC LOAD TRANSLATION DATA	ACCESS:       1432  HIT:       1351  MISS:         81  HIT %:    94.3436  MISS %:    5.65642  MPKI: 0.00162
LLC TRANSLATION FROM L1D PREFETCHER DATA	ACCESS:         11  HIT:         11  MISS:          0  HIT %:        100  MISS %:          0  MPKI: 0

LLC AVERAGE MISS LATENCY: 158.1 cycles
LLC RQ	ACCESS:     387846	FORWARD:          0	MERGED:          0	TO_CACHE:     387844
LLC WQ	ACCESS:      81056	FORWARD:          2	MERGED:          0	TO_CACHE:      81056
LLC PQ	ACCESS:      78783	FORWARD:          0	MERGED:          0	TO_CACHE:      78783

LLC Dense regions hint to LLC: 0

RAW hits: 1671478
Loads Generated: 12631632
Loads sent to L1D: 10960152
Stores Generated: 6927584
Stores sent to L1D: 6927607
Major fault: 0 Minor fault: 2540
Allocated PAGES: 2540

stream: 
stream:times selected: 1214172
stream:pref_filled: 124278
stream:pref_useful: 26140
stream:pref_late: 7843
stream:misses: 9390
stream:misses_by_poll: 0

CS: 
CS:times selected: 188390
CS:pref_filled: 65494
CS:pref_useful: 40588
CS:pref_late: 8425
CS:misses: 19986
CS:misses_by_poll: 3

CPLX: 
CPLX:times selected: 1024610
CPLX:pref_filled: 22289
CPLX:pref_useful: 5980
CPLX:pref_late: 3211
CPLX:misses: 104938
CPLX:misses_by_poll: 30

NL_L1: 
NL:times selected: 13235
NL:pref_filled: 629
NL:pref_useful: 145
NL:pref_late: 369
NL:misses: 1210
NL:misses_by_poll: 0

total selections: 2440407
total_filled: 100228
total_useful: 39942
total_late: 21290
total_polluted: 33
total_misses_after_warmup: 771502
conflicts: 5665581

test: 117869

DRAM Statistics
 CHANNEL 0
 RQ ROW_BUFFER_HIT:      11430  ROW_BUFFER_MISS:      18726
 DBUS_CONGESTED:         11
 WQ ROW_BUFFER_HIT:       1533  ROW_BUFFER_MISS:      13098  FULL:          0

 AVG_CONGESTED_CYCLE: 4

CPU 0 Branch Prediction Accuracy: 99.8196% MPKI: 0.32972 Average ROB Occupancy at Mispredict: 106.111
Branch types
NOT_BRANCH: 40858504 81.717%
BRANCH_DIRECT_JUMP: 548416 1.09683%
BRANCH_INDIRECT: 183049 0.366098%
BRANCH_CONDITIONAL: 6195459 12.3909%
BRANCH_DIRECT_CALL: 936625 1.87325%
BRANCH_INDIRECT_CALL: 170429 0.340858%
BRANCH_RETURN: 1107058 2.21412%
BRANCH_OTHER: 0 0%

DRAM PAGES: 1048576
Allocated PAGES: 2540
Average_ROB_Occupancy: 107.484
Average_Decode_Occupancy: 12.9375
Average_FTQ_Occupancy: 6.2274
Indirect max targets: 14 Average targets: 1.14626
Branch_type:  BRANCH_DIRECT_JUMP:  Count Percentage: 2.91457 6.24774 4.36172 8.78922 2.61495 6.18616 2.02437 66.8613 
Branch_type:  BRANCH_INDIRECT:  Count Percentage: 11.7421 3.44129 2.56447 3.72854 3.34079 4.01059 3.19922 67.973 
Branch_type:  BRANCH_CONDITIONAL:  Count Percentage: 20.8858 3.31184 5.57626 4.81141 1.72276 4.74575 0.898458 58.0477 
Branch_type:  BRANCH_DIRECT_CALL:  Count Percentage: 0.260141 1.75857 1.45318 3.89568 2.55866 3.42186 0.773564 85.8783 
Branch_type:  BRANCH_INDIRECT_CALL:  Count Percentage: 9.53135 0 2.98574 5.40262 0 4.04254 0.997487 77.0403 
Branch_type:  BRANCH_RETURN:  Count Percentage: 2.27738 1.82926 5.99765 3.11508 3.38244 6.84627 1.43177 75.1201 
Branch_type:  BRANCH_DIRECT_JUMP:  Total Count: 31896 68373 47733 96186 28617 67699 22154 731705 
Branch_type:  BRANCH_INDIRECT:  Total Count: 42880 12567 9365 13616 12200 14646 11683 248226 
Branch_type:  BRANCH_CONDITIONAL:  Total Count: 2585868 410039 690397 595701 213295 587571 111238 7186885 
Branch_type:  BRANCH_DIRECT_CALL:  Total Count: 4893 33077 27333 73274 48126 64362 14550 1615290 
Branch_type:  BRANCH_INDIRECT_CALL:  Total Count: 32622 0 10219 18491 0 13836 3414 263678 
Branch_type:  BRANCH_RETURN:  Total Count: 50648 40682 133385 69278 75224 152258 31842 1670639 
Number of unique branch instructions: 9822
Upper 32 bits: 
aaaa
ffff
ffff0000
Unique upper 32 bits: 3
Unique upper 36 bits: 3
Unique upper 40 bits: 5
Unique upper 44 bits: 32
Unique upper 48 bits: 154
Offset_3 4059
Offset_4 250
Offset_5 446
Offset_6 502
Offset_7 578
Offset_8 496
Offset_9 465
Offset_10 379
Offset_11 305
Offset_12 270
Offset_13 197
Offset_14 227
Offset_15 184
Offset_16 221
Offset_17 141
Offset_18 118
Offset_19 234
Offset_20 137
Offset_21 235
Offset_22 392
Offset_23 243
Offset_24 324
Offset_25 88
Offset_47 80
decode_dispatch_called: 19509693 40.8176
Dispatch_width: 0 9415170 48.2589 19.6982
Dispatch_width: 1 536290 2.74884 1.12201
Dispatch_width: 2 712119 3.65008 1.48988
Dispatch_width: 3 464623 2.3815 0.972071
Dispatch_width: 4 1654346 8.47961 3.46118
Dispatch_width: 5 334960 1.71689 0.700794
Dispatch_width: 6 6392185 32.7641 13.3736
Empty_decode_cycles: 28287516 59.1824
ROB_full_cycles: 2128721 4.45365
Starvation_cycles_per_kilo_instr: 392.763
Starvation_cycles_per_kilo_instr_3: 372.87
Starvation_cycles_per_kilo_instr_0: 355.74
Branch_type_1  (3,1)  (4,9)  (5,37)  (6,70)  (7,115)  (8,126)  (9,124)  (10,97)  (11,67)  (12,43)  (13,5)  (14,2)  (15,3)  (16,4)  (18,1)  (19,4)  (20,2)  (21,1)  (22,3)  (23,2)  (24,10)  (25,12) 
Branch_type_2  (3,1)  (5,1)  (8,3)  (9,3)  (12,1)  (13,1)  (14,1)  (16,3)  (17,2)  (20,2)  (21,2)  (23,5)  (24,1)  (47,36) 
Branch_type_3  (3,4057)  (4,241)  (5,404)  (6,417)  (7,433)  (8,307)  (9,254)  (10,152)  (11,122)  (12,50)  (13,4) 
Branch_type_4  (6,3)  (7,8)  (8,25)  (9,52)  (10,62)  (11,59)  (12,97)  (13,85)  (14,100)  (15,86)  (16,99)  (17,63)  (18,53)  (19,114)  (20,72)  (21,124)  (22,208)  (23,137)  (24,185)  (25,72) 
Branch_type_5  (8,2)  (9,1)  (10,3)  (11,5)  (12,3)  (13,14)  (14,16)  (15,11)  (16,20)  (17,11)  (18,16)  (19,12)  (20,10)  (21,13)  (22,42)  (23,26)  (24,37) 
Branch_type_6  (5,4)  (6,12)  (7,22)  (8,33)  (9,31)  (10,65)  (11,52)  (12,76)  (13,88)  (14,108)  (15,84)  (16,95)  (17,65)  (18,48)  (19,104)  (20,51)  (21,95)  (22,139)  (23,73)  (24,91)  (25,4)  (47,44) 
aaaaab1fc620: 2ac9e77e 2aca717c 2aca8eff 2acaf6bc 2acaf9aa 2acaf9f1 2acb1abc 2acb1b7f 2acd4e22 2acdb712 2acf5f9e 2ad0ef44 2ad3f15c 2ad414e6 2ad60e42 2ad8609c 2ad99830 2ada35cc 2ada4676 2ada6612 2adf183e 2adf30e5 2adf5602 2adf785c 2ae11572 2aeb2dcf 2aee101b 2aee1ae1 2b156a8c 2b156b61 2b156bea 2b167f35 2b177656 2b17feec 2b1a3e5a 
aaaaac68f310: 2ac9ec8c 2ac9fb44 2ac9fbd2 2aca59ab 2acac04c 2acaf6e0 2acaf6ec 2acaf6f9 2acaf700 2acaf708 2acf2d90 2ad3cfbd 2ad3cfc4 2ad3d000 2ad3f35f 2ad4955d 2ad49571 2ad4f3f2 2ad4f400 2ad5f240 2ad5f37c 2ad5f86a 2ad5f86f 2ad5f880 2ad5fc0d 2ad5fc14 2ad5fc21 2ad5fe1b 2ad873bb 2ad873e3 2ad8a6b2 2ad9086e 2ad93096 2ad9bbb2 2ada152c 2ada1554 2ada3332 2ada5522 2adf3130 2adf313c 2adf3a3f 2adf3bd9 2adf5788 2adf7a8d 2ae07f6b 2ae0857a 2ae0857e 2ae08630 2ae08634 2ae08637 2ae08642 2ae0866f 2ae086e4 2ae086ec 2ae08717 2ae0871b 2aee0170 2aee1d38 2aee75f4 2aee7662 2aee85ca 2aee85e4 2aee8eef 2af70b84 2af74e8f 2b17d843 
aaaaac690ef0: 2aca598b 2acb111b 2acb175f 2acb1772 2acbfaf4 2acbfb00 2acf374f 2acf6d43 2acfa5c8 2ad3baf1 2ad3d4ac 2ad3d4b8 2ad3f1cf 2ad486b2 2ad5a59b 2ad5fc64 2ad5fcf9 2ad6121c 2ad906e9 2ad907bf 2ad9bada 2ada16ce 2ada1ad5 2ada43df 2ada64c0 2ada72ee 2adeb71a 2adf3bcb 2adf7a38 2adf7c6a 2adf8872 2adf8880 2adf9959 2adf9abe 2ae07f78 2ae08503 2ae08754 2ae12e80 2aea3bea 2aecb509 2aee00b0 2aee2bdd 2aee5467 2aee5601 2aee8f20 2af703fd 2af7048b 2af74e74 
Unique trigger count: 
1 9376
2 487
3 83
4 29
5 9
6 8
7 6
8 1
9 3
10 1
11 2
12 1
13 3
16 2
17 2
19 3
35 1
48 1
66 1
BTB PER SET UNIQUE ADDR: 1 2 2 2 0 0 1 1 3 0 2 0 1 1 0 1 2 1 1 2 0 1 1 2 1 2 1 2 1 1 2 2 2 0 2 0 0 3 4 0 1 2 2 4 1 0 2 1 4 1 1 1 2 0 0 2 3 3 1 1 1 2 2 2 0 4 4 0 2 2 5 2 1 2 1 1 2 6 1 1 1 1 1 4 3 1 1 4 3 2 3 3 2 3 2 0 1 3 0 1 3 2 2 3 1 2 1 1 3 0 1 1 3 2 1 3 1 2 1 0 2 2 2 0 1 1 1 1 2 2 3 0 1 0 2 1 0 0 1 2 2 2 2 0 0 0 1 3 3 2 1 5 1 2 1 0 0 2 1 1 0 0 0 1 2 2 0 1 5 1 1 2 2 1 1 0 1 1 3 1 1 2 5 2 2 2 2 0 1 1 4 1 1 2 1 1 1 1 0 1 2 1 1 0 0 0 1 0 0 0 0 2 2 1 2 1 0 2 1 0 0 0 1 2 2 0 2 2 0 2 5 2 1 1 1 2 2 0 1 1 1 0 1 1 5 2 1 1 2 1 1 1 1 1 0 4 2 2 2 3 3 3 2 2 3 4 3 0 2 1 2 2 1 3 2 2 1 0 3 2 2 2 2 1 2 3 2 2 1 1 0 0 1 2 0 1 3 2 0 1 2 2 1 1 3 2 3 2 3 3 2 1 2 2 4 0 2 2 1 1 1 2 2 2 0 3 1 3 0 0 3 0 2 2 3 1 1 2 4 0 3 0 0 1 1 2 1 1 0 2 1 2 2 2 2 2 1 0 3 0 0 2 1 2 3 2 1 0 0 0 2 1 2 0 1 2 2 1 2 3 0 0 1 3 0 0 2 1 2 1 1 2 2 2 2 0 3 0 0 2 3 1 2 1 1 0 1 2 0 1 1 0 0 1 1 0 3 1 1 2 1 1 2 2 1 3 0 0 1 3 0 0 4 3 3 3 2 1 0 0 0 5 3 2 2 1 1 2 1 1 3 0 0 1 3 0 1 2 3 1 3 0 3 2 0 0 2 0 1 3 0 1 1 1 2 1 0 1 0 0 0 1 2 2 0 2 2 0 2 1 2 1 1 2 0 2 1 1 2 0 3 1 0 1 0 3 2 0 0 2 3 2 2 2 2 0 1 3 1 4 1 0 3 1 3 2 0 2 3 1 4 1 2 2 1 4 0 0 3 0 0 4 3 0 5 1 5 3 4 4 1 3 2 3 0 1 1 0 0 1 6 0 1 2 1 0 0 1 2 4 3 0 1 4 1 0 0 1 0 0 0 1 0 0 1 0 0 4 1 1 2 2 0 1 1 2 2 0 0 1 0 0 1 3 0 1 1 1 2 0 2 1 2 1 2 0 2 0 2 1 3 1 3 0 2 1 1 2 1 0 3 1 0 1 2 1 0 0 1 1 4 1 3 2 0 0 1 0 2 0 1 1 3 1 1 0 3 0 1 3 2 2 3 3 2 1 1 1 0 0 4 1 1 0 4 2 0 1 3 2 1 0 1 2 2 1 1 2 2 1 0 2 1 1 1 3 3 3 2 1 0 2 0 2 1 1 0 1 0 0 1 2 0 1 2 0 1 1 0 2 1 0 1 1 0 1 1 1 0 3 2 2 1 0 1 1 4 1 1 0 1 2 1 2 1 0 2 1 1 2 0 0 1 2 0 1 2 3 1 0 1 1 0 2 0 1 3 1 0 0 2 2 0 0 1 2 3 1 1 1 2 1 0 0 3 3 3 3 0 0 1 3 0 0 2 3 3 1 1 0 2 2 1 2 1 1 1 4 0 2 0 2 1 0 2 1 1 0 0 3 3 0 1 0 2 1 1 1 1 4 1 1 2 1 3 0 1 0 3 2 0 1 0 1 0 1 3 2 2 0 2 0 3 1 2 2 0 0 1 0 0 0 0 1 4 1 1 0 2 0 1 1 1 2 1 0 2 1 3 1 2 1 1 0 0 0 1 2 0 0 2 0 1 2 1 1 4 0 1 1 1 0 0 1 1 3 0 1 0 4 3 3 0 0 1 2 0 0 1 2 3 1 3 1 2 0 3 0 2 1 3 1 4 2 2 1 1 1 0 1 1 1 0 3 2 2 1 2 1 1 1 0 4 1 1 0 4 2 2 1 2 1 2 2 2 4 8 2 2 2 1 1 0 2 2 1 3 4 1 2 3 2 1 3 1 1 1 1 2 1 3 1 1 2 2 1 2 2 1 4 0 1 2 1 2 3 3 2 0 2 2 0 3 0 1 2 3 2 1 3 3 1 7 4 0 2 2 1 1 1 3 4 2 1 3 0 0 1 1 0 2 0 1 3 0 2 4 1 3 3 0 1 3 2 1 3 2 1 2 1 0 1 2 0 2 0 1 2 3 3 1 4 3 2 0 1 7 0 1 1 1 1 2 2 1 4 3 3 3 3 1 4 2 2 1 0 4 0 1 2 1 5 1 0 4 1 1 1 2 1 1 2 3 3 2 2 2 1 1 3 4 2 1 2 1 1 3 2 1 4 1 2 2 1 3 3 0 1 4 1 0 2 1 0 1 2 1 1 1 2 1 3 2 0 1 1 3 2 1 0 2 0 0 3 2 1 2 2 1 4 0 1 4 0 3 1 1 2 2 4 2 4 0 6 4 0 2 1 2 0 0 1 3 0 1 1 2 4 1 0 0 1 3 1 1 2 0 0 1 4 1 4 2 2 0 2 1 0 2 4 6 0 4 0 0 1 3 1 4 0 2 3 2 1 1 1 0 4 1 3 0 1 2 5 3 1 2 2 0 2 4 3 1 3 3 2 0 0 3 3 4 1 2 2 1 1 3 2 3 1 0 1 1 1 5 3 4 0 0 1 1 1 2 1 3 0 0 1 2 3 2 0 3 1 1 0 1 1 5 0 1 2 0 4 2 0 2 1 3 2 1 1 2 1 2 2 0 3 2 1 0 3 1 1 2 2 1 1 0 2 1 1 1 2 1 2 3 1 1 2 0 1 3 0 2 2 0 1 1 1 2 2 1 0 2 0 1 1 2 2 1 1 1 1 1 4 1 3 2 1 2 0 1 1 1 3 1 2 1 1 1 2 0 1 3 2 3 1 4 2 1 0 1 2 3 1 1 1 3 0 5 2 1 3 1 0 3 3 1 1 1 3 0 2 2 1 1 1 2 1 0 1 1 4 2 1 2 1 0 2 1 0 1 2 1 1 1 0 0 2 1 0 1 1 0 2 1 3 4 1 1 0 1 1 1 0 1 0 0 3 1 0 1 0 0 1 1 0 0 0 0 0 0 0 0 0 2 0 2 0 2 0 2 0 1 0 0 4 1 0 2 1 3 1 1 0 1 2 1 0 2 0 1 1 1 1 1 0 2 0 3 1 0 1 3 1 0 1 0 3 1 2 1 1 2 2 2 2 0 1 1 0 1 0 3 0 1 1 0 0 0 1 0 1 1 0 1 2 2 1 1 1 2 2 1 1 1 0 0 2 1 0 0 1 2 1 2 1 0 1 1 3 3 0 0 1 2 1 0 0 3 1 3 0 2 1 2 2 1 2 3 2 5 0 1 0 2 2 1 5 3 3 2 3 4 0 0 2 2 1 1 1 1 1 2 0 2 1 0 1 2 0 1 1 3 1 2 2 3 1 0 1 3 0 2 3 2 1 2 1 3 3 1 1 1 2 2 1 1 5 2 1 1 1 1 3 3 1 1 0 1 0 2 1 2 3 0 0 1 1 0 2 3 1 0 2 3 0 1 2 1 1 1 2 1 0 0 3 2 1 0 0 0 2 1 0 2 1 3 3 1 1 4 1 2 7 3 2 3 2 1 3 3 1 1 1 0 0 0 2 3 1 2 0 0 2 3 1 1 1 0 0 1 2 2 2 2 1 2 2 1 1 0 2 0 1 2 1 0 0 0 1 0 1 2 0 3 0 3 1 1 0 2 1 1 3 0 3 0 0 0 1 1 1 4 0 1 1 0 1 2 1 0 1 0 0 1 1 1 1 2 2 3 0 3 0 0 1 2 1 1 6 1 0 2 1 3 2 1 2 5 1 3 3 0 2 0 3 2 4 4 0 2 1 5 0 4 0 3 2 2 2 1 1 1 0 1 2 0 2 0 1 2 3 2 1 4 2 2 2 3 0 1 0 3 1 3 2 2 2 2 1 0 2 3 2 1 0 1 2 0 0 0 1 0 1 1 2 0 2 2 1 3 1 2 1 2 2 3 0 1 2 2 1 0 2 2 2 2 0 0 1 0 0 1 0 0 1 1 1 2 1 1 2 0 0 0 2 1 1 1 0 2 1 2 2 2 0 1 1 0 1 1 2 1 2 1 0 1 0 2 1 0 1 2 1 3 2 2 2 0 2 0 1 0 0 2 2 0 4 2 4 0 2 2 5 1 0 0 1 4 1 2 0 1 0 3 1 0 0 2 3 1 6 2 0 3 0 1 1 1 1 2 1 0 2 0 1 2 2 1 0 0 3 4 1 0 0 2 3 1 0 3 3 1 0 3 3 0 1 1 4 0 0 0 2 1 0 3 0 1 0 2 2 2 0 2 1 2 1 2 1 0 2 4 2 3 0 1 2 1 0 1 0 2 1 1 0 0 0 4 2 1 2 1 1 2 2 3 3 1 2 3 3 0 3 2 1 4 4 3 2 2 2 1 2 1 2 2 2 1 3 5 2 2 2 2 2 2 1 1 1 0 2 1 0 2 2 0 2 0 1 1 0 1 2 1 3 0 0 0 2 1 2 1 0 0 2 1 1 0 0 0 2 1 1 0 1 3 1 1 2 0 0 2 0 1 2 1 0 1 0 1 0 0 1 0 2 1 0 0 4 1 3 1 2 3 1 2 2 0 0 0 1 1 0 4 2 2 2 3 1 3 2 2 1 2 1 3 1 1 2 1 4 1 2 1 1 2 3 2 3 1 0 3 1 2 1 3 5 4 3 2 1 2 1 3 0 1 0 2 1 0 1 2 3 2 0 2 1 1 1 2 3 1 1 1 2 1 2 2 2 3 3 1 2 3 4 1 1 3 1 3 3 1 4 2 1 2 2 3 3 1 1 3 3 3 0 1 1 1 1 1 2 1 1 0 1 3 1 2 0 2 1 1 2 0 1 0 0 4 2 4 5 0 0 1 2 1 1 0 2 2 2 1 2 2 1 1 1 2 0 1 2 0 1 2 1 1 0 1 1 1 0 0 1 0 1 2 0 4 1 3 2 1 2 0 0 0 3 0 3 1 0 1 1 1 1 1 1 0 1 1 0 1 0 2 2 1 0 1 0 2 1 3 4 1 0 2 5 1 2 2 0 0 3 1 0 1 0 0 3 2 0 1 0 1 0 1 0 1 3 3 0 0 1 3 1 2 3 2 1 3 1 1 0 1 1 2 2 1 2 3 3 0 1 2 1 0 1 1 4 3 2 1 2 1 1 5 3 0 2 3 2 3 1 2 0 4 2 2 0 1 1 2 0 1 1 1 1 1 1 1 4 2 0 1 0 1 2 4 2 1 2 2 2 0 1 0 0 1 2 2 0 2 0 1 1 1 2 4 1 2 2 1 2 3 0 2 0 2 1 2 5 1 1 2 1 1 3 1 1 2 1 0 1 5 1 0 3 1 4 1 3 3 2 2 0 0 3 3 1 0 0 4 4 1 1 2 0 1 0 0 2 1 0 3 0 2 1 2 2 0 3 2 2 0 1 2 1 1 0 1 0 1 2 2 1 0 0 0 4 0 1 1 2 3 1 2 4 1 1 3 3 0 3 3 2 0 2 1 4 2 0 1 1 1 1 2 1 3 2 0 1 2 0 2 5 2 3 1 3 1 2 2 1 2 2 1 2 4 0 1 1 4 1 0 3 0 2 2 3 1 2 3 2 1 5 4 1 1 0 0 0 0 5 3 1 3 4 1 0 1 1 3 2 2 0 3 2 3 3 1 3 3 3 0 2 3 1 0 1 0 2 0 0 1 0 2 3 3 2 0 2 1 3 1 3 2 3 3 1 3 1 2 3 1 1 3 0 1 1 0 0 2 3 1 3 2 1 2 1 2 0 1 3 1 0 3 0 2 1 3 3 4 1 1 4 1 2 3 3 1 4 3 2 0 1 2 2 3 0 3 2 4 1 2 2 1 2 1 1 1 0 3 1 3 2 0 4 0 1 2 1 3 0 3 1 2 1 3 0 0 1 6 1 0 1 1 0 0 0 1 0 0 3 2 1 3 2 1 1 1 3 0 2 1 2 0 1 1 2 1 1 1 1 1 0 0 2 0 1 2 1 0 3 3 1 2 2 1 3 4 3 5 1 2 2 2 1 0 3 2 2 2 1 0 2 1 3 0 3 5 3 0 0 0 2 1 1 2 1 2 4 4 1 1 2 3 1 4 1 3 2 2 1 2 1 1 1 3 0 2 2 0 2 0 1 1 2 3 2 0 0 1 1 3 0 2 0 1 1 2 2 1 1 2 0 2 0 3 2 1 3 3 2 2 2 4 2 2 3 2 3 3 2 4 4 3 6 2 0 5 2 1 4 3 3 0 2 2 4 3 0 0 1 2 3 1 4 2 4 5 3 1 0 2 4 2 2 2 1 2 0 2 3 0 0 4 2 1 2 3 2 3 4 3 0 2 1 0 3 0 3 0 0 4 0 2 3 2 2 2 1 0 2 3 5 1 3 4 5 3 3 5 3 1 4 3 1 0 1 2 3 4 3 2 1 5 0 1 3 1 3 2 3 2 1 0 1 2 3 0 1 1 2 4 1 1 2 0 2 3 0 3 1 0 1 3 3 2 1 1 0 1 1 1 1 2 3 1 5 2 2 2 3 2 1 1 1 2 1 0 2 1 1 2 1 3 2 1 3 4 0 2 0 1 0 2 1 2 1 2 1 1 1 1 2 1 3 4 1 0 2 3 1 2 1 1 2 3 1 1 2 1 4 1 3 0 2 0 1 2 1 0 0 1 1 3 0 0 1 2 1 2 1 0 2 1 4 2 1 2 0 3 1 1 3 0 1 3 3 2 2 0 2 2 2 1 1 0 0 0 1 1 0 3 2 2 2 3 1 3 3 5 1 1 3 4 1 2 4 2 2 4 0 3 1 3 2 2 1 3 2 3 4 1 2 4 4 2 2 2 0 1 1 0 4 1 1 1 1 2 2 1 1 4 0 1 2 2 1 4 0 4 1 2 2 1 1 3 1 1 3 1 2 1 2 1 2 2 3 1 2 2 3 0 4 1 1 3 2 2 1 4 0 3 2 1 1 1 4 1 0 1 0 1 1 2 0 1 2 2 1 2 3 1 1 1 0 2 3 0 3 3 2 0 2 2 0 2 0 1 3 3 1 1 1 1 0 2 0 0 1 4 1 2 1 1 3 2 1 2 0 2 1 3 4 6 1 1 3 3 3 1 1 0 2 2 2 0 0 3 2 1 2 2 2 0 3 1 1 1 5 1 3 3 4 0 1 3 1 1 1 3 1 4 5 1 3 0 2 3 4 1 4 1 5 3 1 1 1 1 2 2 2 1 2 3 3 5 2 3 2 3 2 3 2 1 4 3 3 1 1 2 1 3 0 1 1 4 2 2 0 2 0 0 1 3 7 2 1 1 2 2 2 2 2 2 1 1 0 1 2 2 1 2 1 3 3 1 0 1 2 0 1 0 3 0 3 4 0 0 1 3 1 2 2 4 0 3 3 1 3 1 3 0 1 2 2 1 1 2 1 3 0 0 0 3 1 1 3 3 4 2 4 2 1 2 0 1 0 2 0 3 1 2 1 0 4 0 1 0 1 1 2 3 0 3 2 2 0 2 0 5 1 0 1 3 1 0 2 1 2 1 0 2 2 0 2 1 2 1 2 5 2 3 2 2 3 2 3 2 1 2 0 2 2 2 3 2 1 2 0 1 0 2 2 2 3 1 3 1 1 2 0 3 2 5 0 0 2 1 2 3 3 1 2 3 0 0 1 2 0 0 2 1 3 2 2 1 0 2 2 1 3 1 3 0 2 1 2 4 0 0 0 1 2 2 1 0 3 1 1 2 2 1 2 0 4 1 2 2 0 2 0 3 2 3 2 1 2 0 2 0 2 1 1 2 0 2 2 0 2 1 0 3 2 1 6 3 2 2 1 2 0 1 3 2 1 0 0 1 1 1 0 2 2 2 3 2 0 3 1 4 2 3 0 0 4 0 1 4 3 0 4 1 2 2 3 2 2 0 1 0 3 2 1 0 3 1 2 2 2 3 1 2 0 1 4 2 3 1 1 3 2 4 1 2 2 1 5 2 1 1 0 2 2 3 2 1 2 2 0 0 3 1 2 2 1 1 0 1 4 0 2 1 2 3 1 2 2 4 0 3 1 1 0 4 1 3 3 5 1 1 4 0 3 2 3 4 4 1 3 0 2 3 0 2 2 1 2 2 2 1 2 0 3 1 2 1 2 1 2 0 2 2 1 1 2 0 3 3 2 1 1 2 6 0 3 1 2 2 2 1 3 1 4 1 3 1 3 2 2 2 1 3 0 2 4 0 6 0 5 2 1 1 2 1 0 2 1 2 2 3 3 2 2 2 0 2 3 2 1 2 2 0 2 0 3 5 2 1 3 4 1 2 1 4 1 1 1 2 3 0 1 2 0 0 2 1 0 2 0 1 1 1 1 1 2 0 3 1 3 3 2 0 1 0 2 1 1 2 1 0 0 0 1 2 2 2 2 1 1 1 1 0 1 0 2 2 3 0 1 1 0 1 1 0 1 1 2 1 1 1 0 3 1 0 2 1 0 0 1 2 2 2 2 2 1 1 1 2 4 0 2 1 3 2 1 0 0 2 0 0 1 2 2 2 2 2 4 3 1 1 2 1 2 0 2 2 0 1 1 2 1 3 1 3 1 1 1 4 1 2 2 2 1 2 7 1 1 5 4 1 2 2 0 2 4 2 2 4 0 3 0 1 2 2 2 2 3 1 1 2 1 2 5 4 0 0 3 1 0 0 1 0 0 2 2 1 1 2 1 3 0 2 1 0 0 2 1 2 2 5 2 1 2 1 3 1 1 1 4 3 0 0 2 0 3 0 0 0 0 3 3 3 2 0 0 3 1 1 0 1 1 1 2 1 1 2 1 2 3 2 1 0 5 1 2 2 1 2 0 0 2 1 1 2 1 1 0 1 1 3 1 3 1 2 1 1 1 1 2 1 0 
BTB PER SET COUNT: 1 2 2 2 0 0 1 1 2409 0 2 0 1 1 0 1 2 1 1 2 0 1 1 2 1 2 1 2 1460 1 2 3 2 0 2 0 0 1427 3121 0 1 4 3 483 1 0 2 2 3888 1 1 1 2 0 0 2 1427 4380 1 1 1 2 2 2 0 1797 1973 0 2 3 5350 9 1 2 1 1 498 2689 1 1 1 1 1 1716 712 1 1 29 4382 2 703 482 3 2902 2 0 1 12 0 1 13 2 2 987 1 2 1 1 1480 0 1 1 987 2 1 710 1 2 1 0 2 2 2 0 1 1 1 1 2 2 1481 0 1 0 2 1 0 0 1 2 2 6 2 0 0 0 1 2902 1480 2 1 5234 1 2 1 0 0 2 1 1 0 0 0 1 2 3 0 1 4859 1 1 2 2 1 1 0 1 1 978 1 1 2 7304 2 2 2 2 0 1 1 4397 1 1 2 1 1 1 1 0 1 2 1 1 0 0 0 1 0 0 0 0 3 2 1 2 1 0 2 2 0 0 0 1 2 2 0 2 28 0 2 2411 2 2 1 1 2 2 0 1 2 1 0 1 1 5348 3 1 1 2 2 1 1 1 1 0 3394 3 2 2 5 1113 1479 2 3 8 3889 988 0 2 1 3 2 1 4 2 3 1 0 2905 2 3 2 4 1 2 1972 2 2 1 1 0 0 1 2 0 1 10 2 0 1 2 2 1 1 4 2 27 2 1479 988 2 2 2 2 989 0 2 2 1 1 2 2 2 2 0 5 1 13 0 0 1480 0 3 2 2801 1 989 2 997 0 4 0 0 986 986 3 1 1 0 3 1 3 2 2 2 2 2 0 2921 0 0 2 1 2 1182 2 1 0 0 0 2 1 2 0 1 2 2 1 2 17 0 0 1 1427 0 0 2 1 2 1 1 2 2 2 2 0 2904 0 0 2 1480 1 2 1 1 0 1460 2 0 967 1 0 0 1 1 0 17 1 1 92 1 1 3 2 1 15 0 0 1 1479 0 0 1973 5 701 1482 2 1 0 0 0 998 1479 2 2 1 1 2 1 1 1479 0 0 1 1479 0 1 2 5 1 13 0 1480 2 0 0 2 0 1 34 0 1 1 493 3 1 0 1 0 0 0 1 2 494 0 2 2 0 2 1 2 1 1 2 0 2 1 1 2 0 987 1 0 1 0 4 2 0 0 2 1479 3 2 2 4 0 1 4380 1 1486 1 0 987 1 11 2 0 2 2912 1 4349 1 2 3 1 5348 0 0 12 0 0 1974 2922 0 3420 1 1035 14 2910 4882 1 1480 4 1480 0 1 2 0 0 1 7794 0 1 2 1 0 0 1 2 1513 4381 0 1 3888 1 0 0 1 0 0 0 1 0 0 1 0 0 996 1 1 2 2 0 1 967 2 2 0 0 1 0 0 1 1427 0 1 1 2 3 0 2 1 2 1 2 0 952 0 2 1 15 1 1481 0 2 1 1 2 1 0 3395 1 0 4 4 1 0 0 1 1 1973 1 2903 2 0 0 2 0 2 0 1 1 1481 2 1 0 2902 0 1 1479 7840 2 12 987 2 1 1 986 0 0 1717 1 1 0 1974 987 0 1 14 2 1 0 1 987 2 1 1 1461 2 1 0 987 1 1 1 1480 1480 1480 2 1 0 2 0 2 1 987 0 1 0 0 1 2 0 1 987 0 1460 1 0 2 1 0 1 1 0 1 1 1 0 26 2 2 967 0 1 1 4874 1 1 0 1 2 1 2 1 0 2 1 1 988 0 0 1 3 0 1 2 1479 1 0 1 1 0 2 0 1 1479 1 0 0 2 2 0 0 1 2 2409 2 1 2 2 1 0 0 1114 2902 11 11 0 0 1 1131 0 0 3 17 1114 1 1 0 2 2 1 2 1 1 1 1000 0 4 0 2 1 0 4 1 3 0 0 404 15 0 1 0 2 1 2 1 1 1973 1 1 2 1 1480 0 1 0 1480 2 0 1 0 1 0 1 987 2 2 0 2 0 1480 1 2 2 0 0 1 0 0 0 0 1 2176 1 1 0 2 0 1 1 1 3 1 0 3 1 4381 1 3 1 1 0 0 0 1 2 0 0 4 0 1 2 1 1 1200 0 1 1 1 0 0 2 1 2902 0 1 0 3613 32 987 0 0 1 2 0 0 1 2 26 1 1935 1 2 0 992 0 2 1 13 1 1715 476 2 1 56 3 0 1 1 1 0 1953 2 2 1 2 1 1 1 0 2995 1 2 0 2186 2 2 2 2 494 2 2 3 696 5706 2 2 5 1 1 0 372 2 1 2903 2921 1 2 1480 2 1 478 1 3 1 1 3 1 987 1 1 2 3 1 2 2 1 1488 0 1 4 1 3 14 1481 3 0 2 1976 0 3379 0 1 2 16 2 1 16 1027 1 6324 22 0 2 2 1 1 1 13 1973 2 1 1480 0 0 1 1 0 2 0 1 987 0 2 14 2 2410 18 0 1 743 2 1 380 2 2 2 4 0 1 2 0 2 0 1 3 1480 7 1 1972 988 2 0 1 8273 0 1 1 1 1 3 4 1 4856 5 17 3 4380 1 22 2 2 1 0 22 0 1 2 2 4386 1 0 245 1 1 1 495 1 1 2 1479 13 2 2 2 1 2 14 2669 2 1 2 2 1 14 2 1 5347 1 2 2 1 4 9 0 1 13 1 0 2 1 0 1 4 1 1 1 2 1 11 2 0 1 1 952 2 1 0 2 0 0 4381 2 1 2 2 1 18 0 1 3888 0 1482 1 1 2 2 3395 2 4381 0 5841 4855 0 2 1 2 0 0 1 3395 0 1 1 2 1231 1 0 0 493 2903 1 1 2 0 0 1 4381 1 2904 3 2 0 2 1 0 2 1488 5355 0 1487 0 0 1 3 2 23 0 2 995 2 1 1 1 0 2907 1 987 0 1 2 6334 17 1 2 2 0 2 1484 3420 1 4380 4 2 0 0 13 2903 1973 1 2 2 1 1 2903 2 14 1 0 1 1 1 7776 987 4857 0 0 1 1 1 2 1 987 0 0 1 2 1472 2 0 18 1 1 0 2 1 1978 0 1 2 0 1484 2 0 2 1 4381 2 1 1 2 1 2 2 0 2902 2 1 0 1480 1 1 2 2 1 1 0 2 1 1 1 2 1 2 1102 1 1 2 0 1 7 0 2 2 0 1 1 1 2 2 3 0 2 0 1 1 2 2 4 1 1 1 1 2433 1 278 2 1 2 0 1 1 1 4380 1 2 1 1 2 3 0 1 1481 2 13 1 19 2 1 0 1 2 988 1 1 1 17 0 3387 2 1 1479 1 0 1479 1105 1 1 1 1479 0 2 2 1 1 2 2 3 0 3 1 14 2 1 2 1 0 2 1460 0 1 1339 1 1 1 0 0 4 1 0 1 1338 0 2 1 1480 1484 1 1 0 1 1 1 0 1 0 0 988 3 0 1 0 0 1 1 0 0 0 0 0 0 0 0 0 2 0 2 0 2 0 2 0 1 0 0 4385 33 0 2 1 3396 1 1 0 2 3 108 0 5 0 1 1 1 1 1 0 2 0 1351 397 0 1 2410 1 0 1 0 5 1 2 1 1 35 2 2 2 0 1 1 0 1 0 10 0 1 1 0 0 0 1 0 1 1 0 1 453 3 1 1 1 2 2 1 1 1 0 0 3 2 0 0 1 2 1 7 1 0 1 1 18 1480 0 0 1 2 1 0 0 710 1 1479 0 2 1 2 2 1 2 1479 2 4362 0 1 0 2 2 1 1979 1481 2902 2 1193 6314 0 0 2 1461 1 1 1 1 1 2 0 2 967 0 1 2 0 1 1 2903 2 2 2 2903 2962 0 1 4380 0 4 11 2 1 2 1 1480 2902 1 1 1 259 2 1 1 2930 2 1 3 1 1 4381 11 1 1 0 1 0 2 1 2 987 0 0 1 1 0 2 14 1 0 3 5 0 1 3 1 1 986 2 1 0 0 1191 2 987 0 0 0 2 494 0 2 1 988 5 1 1 5428 1 2 7305 217 3 16534 987 1 2409 5 1 1 1 0 0 0 2 2899 1 3 0 0 2 710 1 154 1 0 0 1 1461 147 2 2 1 2 2 1 737 0 2 0 1 2 1 0 0 0 617 0 1 2 0 1480 0 988 1 1 0 2 1 1 1427 0 1479 0 0 0 1 1 1 4875 0 1 525 0 2 2 1 0 1 0 0 968 1 1 1 2 2 4380 0 19 0 0 1 2 1460 1 2907 1 0 3 1 1146 2 1 2 2413 1 1623 1479 0 2 0 1480 221 3887 1535 0 2 1 4583 0 4884 0 283 1462 2 2 2 1 1 0 1 2 0 2 0 1 4 1433 2 1 2435 389 2 3 1440 0 1 0 477 1 1481 2 2 2 2 1 0 2 4389 3 1 0 1 3 0 0 0 1 0 1 1 2 0 2 2 1 1480 6 2 1 2 2 5 0 1 2 2 1 0 2 2 2 2 0 0 1 0 0 1 0 0 1 1 1 2 1 1 2 0 0 0 2 1 1 1 0 2 1 2 2 141 0 1 3 0 1 1 2 1 2 1 0 1 0 2 1 0 1 2 1 4 2 2 2 0 2 0 1 0 0 2 2 0 1972 1462 1491 0 2 2 2445 1 0 0 1 28 1 2 0 1 0 1479 1 0 0 2 13 3 4874 2 0 2901 0 1 1 1 1 2 1 0 2 0 1 2 2 2 0 0 1479 4381 1 0 0 2 1480 1 0 1479 1480 1 0 1479 13 0 1 1 1485 0 0 0 2 1 0 1479 0 1 0 2 2 4 0 2 1 210 1 4 1 0 2 1540 2 9 0 1 2 1 0 1 0 2 1 1 0 0 0 1972 2 1 3 1 1 2 1462 4381 13 1 2 10 13 0 4 2 1 1976 18 5 2 2 2 2922 2 1 2 2 3 1 1480 6810 2 2 2 2 2 2 1 2 1 0 2 1 0 2 2 0 2 0 1 1 0 1 2 1 1009 0 0 0 2 1 2 1 0 0 2 1 1 0 0 0 2 1 1 0 1 1479 1 1 2 0 0 2 0 1 2 1 0 2 0 1 0 0 1 0 2 1 0 0 4382 1 1482 1 2 275 1 2 2 0 0 0 1 1 0 4564 3 3 2 4 1 987 3 2 1 2 1 548 1 1 2 1 470 1 2 1 1 2 1357 2 1482 1 0 1481 1 2 1 1480 3146 1834 1427 2 1935 2 1 2899 0 1 0 2 1 0 1 2 1480 2 0 2 1 1 1 2 5 1 1 2 3 1 2 4 2 1480 12 1 2 4 2411 1 1 5 1 2900 1026 1 3362 2 1 2 2 12 4 1 1 3 290 5 0 1 1 1 1 1 2 1 1 0 1 2922 1 2 0 2 1 1 2 0 1 0 0 1973 2 2669 1931 0 0 2 2 1 1 0 2 2 2 1 2 2 1 2 1 2 0 1460 2 0 1 2 1 1 0 2 1 1 0 0 1 0 1 3 0 1972 1 1427 2 1 2 0 0 0 987 0 2902 1 0 1 1 1 1 1 1 0 1 1 0 1 0 2 3 1 0 1 0 3 4 1480 718 1 0 2 2925 1 2 2 0 0 290 1 0 1 0 0 475 3 0 1 0 1 0 1 0 1 1480 7 0 0 1 952 1 2 476 2 1 1479 2 1 0 1 1 2 2 1 3 710 546 0 2 2 1 0 1 1 1223 1459 2 1 2 1 1 1490 1480 0 3 15 2 14 1 2 0 721 2 2 0 1 1 1461 0 1 1 1 1 1 1 1 1347 2 0 1 0 1 2 1973 2 967 2 104 2 0 1 0 0 1 2 2 0 5 0 1 3 130 2 20 1 2 2 1 2 1480 0 3 0 2 1 3 1723 1 1 2 1 1 987 1 1 2 1 0 1 1491 1 0 987 1 1973 1 17 366 2 2 0 0 14 2953 1 0 0 924 3376 1 1 2 0 1 0 0 3 1 0 13 0 3 1 2 2 0 20 3 3 0 1 2 12 1 0 2 0 1 2 2 1 0 0 0 22 0 1 1 2 12 1 2 1477 1 1 12 1481 0 1480 12 2 0 2 1 23 2 0 1 1 1 1 3 1 12 5 0 1 2 0 2 2954 2 17 1 978 1 2 3 1 2 2 1 2 1974 0 1 1 1485 1 0 1481 0 2 2 17 1 2 1427 2 2 3871 1972 45 1 0 0 0 0 2468 1427 1 1481 1973 1 0 1 2 3 2 2 0 13 3 1427 710 1 18 4 987 0 2 1480 1 0 1 0 3 0 0 1 0 3 497 1480 2 0 2 1 11 1 2902 2 4380 1480 1 988 1 2 1481 2 1 13 0 1 1 0 0 2 13 2 9 2 1 3 1 2 0 1 987 1 0 12 0 3 1 1479 6 3919 1 2 989 1 2 17 1480 1 1608 1480 2 0 2 2 2 13 0 989 2 4386 1 2 2 1 3 1 2 1 0 13 1 13 38 0 1485 0 1 2 1 12 0 987 1 2 1 14 0 0 1 3426 1 0 1 1 0 0 0 1 0 0 12 2 1 2903 2 1 1 1 1459 0 3 1 2 0 1 1 2 1 2 494 1 1 0 0 2 0 1 2 1 0 2901 2904 1 2 2 1 12 1486 987 2915 1 4 2 2 1 0 1152 2 2 2 1 0 2 1 11 0 2902 4883 17 0 0 0 2 1 1 4 1 2 3183 1945 1 1 2 13 1 20 3 1985 3 2 1 3 1 1 1 11 0 2 4 0 2 0 1 1 2 988 2 0 0 1 1 1480 0 2 0 1 1 2 3 2 1 2 0 2 0 2903 1464 1 476 1006 2 4 2 2960 2 2 10 2 5 17 2 1480 5843 3 6808 2 0 3383 968 2 4875 987 1443 0 2 3 3876 2900 0 0 1 2 1936 1 5348 2 3377 2221 1481 1 0 2 2205 2 2 2 1 2 0 2 1480 0 0 1973 2 1 60 469 2 16 2176 1427 0 3 1 0 2903 0 1480 0 0 4381 0 3 1480 2 2 6 1 0 2 1479 1985 1 1481 3887 2925 1480 1480 2701 710 1 1973 953 1 0 1 2 1477 1492 1478 2 1 4856 0 1 1242 1 985 2 1479 2 1 0 1 3 2904 0 1 2 2 4874 1 1 2 0 2 1481 0 2901 1 0 1 14 987 495 1 1 0 1 1 1 1 2 14 1 2466 2 2 2 1476 2 1 1 1 2 1 0 2 1 1 2 1 988 2 1 1113 3162 0 3 0 1 0 2 2 2 1 2 1 1 1 1 2 1 13 997 1 0 2 15 1 2 3 1 2 16 1 1 2 1 1974 1 2409 0 2 0 1 1462 1 0 0 1 1 989 0 0 1 2 1 2 1 0 2 1 1973 2 1 2 0 987 1 1 1480 0 1 1479 98 2 2 0 3 3 2 1 1 0 0 0 1 1 0 989 2 2 4 1479 1 1480 987 1978 1 1 2903 1018 1 2 1974 2 3 1484 0 1480 1 988 2 2 1 989 2 988 2176 1 2 4382 1972 2 2 2 0 1 2 0 4877 1 1 1 1 2 2 1 2 4977 0 2 2 2 1 47 0 4213 1 2 2 1 1 14 1 1 1790 1 2 1 2 1 2 2 987 1 2 2 1480 0 1581 1 1 412 2 2 1 3395 0 18 2 1 1 1 1977 1 0 2 0 1 1 3 0 1 2 2 1 3 16 1 1 1 0 2 10 0 1480 17 2 0 3 2 0 2 0 1 17 17 1 1 1 1 0 2 0 0 1 420 1 2 1 1 1480 2 1 2 0 2 1 4366 3907 6828 1 1 3394 2877 1480 1 1 0 2 3 2 0 0 1481 2 1 2 2 2 0 2902 1 1 1 5476 1 17 14 1614 0 1 1481 1 1 1 1482 1 1974 4872 967 2901 0 2 1481 2206 1 1972 1 2467 987 1 1 1 1 2 3 2 1 2 5 987 1510 3 1480 2 610 2 1481 7 1 1565 1481 988 1 1 2 3 1480 0 1 1 998 2 2 0 2 0 0 1 1480 6829 2 1 1 2 2 2 3 2 2 1 1 0 1 2 2 1 2 1 1479 989 1 0 1 2 0 1 0 122 0 710 1973 0 0 1 1480 967 2 3 4876 0 987 1032 1 989 2 988 0 1 4 2 1 1 2 2 1480 0 0 0 958 1 1 1480 1479 3396 2 3876 2 1 2 0 1 0 2 0 1480 1 2 1 0 3868 0 1 0 1 1 2 566 0 1480 2 2 0 2 0 3396 1 0 1 17 1 0 2 1 2 1 0 2 2 0 2 1 2 1 2 3888 2 4381 5 3 4381 2 710 2 1 3 0 4 2 2 1953 2 1 2 0 1 0 2 2 2 712 1 1481 986 1 9 0 987 2 3415 0 0 2 1 2 14 12 1 4 21434 0 0 1 2 0 0 2 1 128 277 2 1 0 2 2 1 2409 1 1480 0 4 1 2 1974 0 0 0 1 2 2 1 0 36 1 1 2 2 1 2 0 4363 1 2 3 0 2 0 1481 2 1479 2 1 2 0 2 0 2 1 1 2 0 2 2 0 3 1 0 1428 2 1 3419 1480 2 2 1 3 0 1 1465 968 1 0 0 1 1 1 0 2 2 2 17 2 0 952 1 1716 2 2902 0 0 1972 0 1 2539 987 0 1973 1 2 2 1480 2 2 0 1 0 1480 2 1 0 987 1 2 3 4 988 1 2 0 1 1850 2 1433 1 1 5 2 4382 1 2 2 1 3880 2 1 371 0 1461 2 13 232 1 2 2 0 0 18 1 2 2 1 1 0 1 1088 0 2 1 6 988 1 495 2 3908 0 2921 1 1 0 3889 1 3907 988 2962 1 1 4381 0 988 2 988 1975 1974 1 4379 0 3 1480 0 495 2 1 2 2 3 1 2 0 1479 1 372 1460 2 1 2 0 2 2 1 1 2 0 1479 1742 2 1 1 2 4380 0 2447 1 2 2 5 1 987 2 1850 1 1479 1 1480 2 2 2 1 1479 0 2 1973 0 6315 0 2949 2 1 1 2 1 0 2 1 3 2 1479 2409 2 2 2 0 2 1480 2 1 2 2 0 2 0 474 4363 968 1 1481 2922 1 2 1 1715 1 1 1 2 1191 0 1 3 0 0 3 1 0 2 0 1 1 1 1 1 2 0 2409 1 1479 1479 2 0 1 0 2 1 1 2 1 0 0 0 2 2 3 2 2 1 1 1 476 0 1 0 2 2 987 0 1 1 0 1 1 0 1 1 2 1 1 1 0 110 1 0 2 1 0 0 1 2 2 2 2 2 1 1 1 2 1734 0 2 1 2903 2 1 0 0 2 0 0 1 2 2 3 987 2 3396 1480 1 1 2 1 2 0 2 2 0 1 1 2 1 2904 6 1481 1 1 1 2467 1 2 3 2 1 2 4346 1 1 2208 1481 1 2 2 0 2 2754 2 2 1347 0 2743 0 8 2 2 987 2 879 1 1 2 2 3 2027 988 0 0 2902 1 0 0 1 0 0 2 2 1 1 2 1 988 0 2 1 0 0 2 1 2 2 2881 3 1 2 1 1974 1 1 1 991 986 0 0 2 0 985 0 0 0 0 988 4382 12 2 0 0 711 1 1 0 1 1 1 2 1 1 2 1 2 12 2 2 0 1978 1 2 6 1 2 0 0 3 4 1 2 1 1 0 1 1 4381 1 8 1 6 1 1 1 6 2 2 0 
