
*** ChampSim Multicore Out-of-Order Simulator ***

Warmup Instructions: 50000000
Simulation Instructions: 50000000
Number of CPUs: 1
LLC sets: 2048
LLC ways: 16
Off-chip DRAM Size: 4096 MB Channels: 1 Width: 64-bit Data Rate: 6400 MT/s
CPU 0 runs ./micro_traces/srv649.trace.gz
.gz
ITLB has LRU replacement policy
DTLB has LRU replacement policy
STLB has LRU replacement policy
FDIP Prefetcher at L1I
L1I has LRU replacement policy
L1D has LRU replacement policy
Initialize SRRIP state for L2C
Initialize DRRIP state for LLC
Heartbeat CPU 0 instructions: 10000001 cycles: 2797469 heartbeat IPC: 3.57466 cumulative IPC: 3.57466 (Simulation time: 0 hr 2 min 57 sec) 
Heartbeat CPU 0 instructions: 20000003 cycles: 5593245 heartbeat IPC: 3.57683 cumulative IPC: 3.57574 (Simulation time: 0 hr 5 min 4 sec) 
Heartbeat CPU 0 instructions: 30000003 cycles: 8389652 heartbeat IPC: 3.57602 cumulative IPC: 3.57583 (Simulation time: 0 hr 7 min 7 sec) 
Heartbeat CPU 0 instructions: 40000003 cycles: 11185721 heartbeat IPC: 3.57645 cumulative IPC: 3.57599 (Simulation time: 0 hr 9 min 16 sec) 
Heartbeat CPU 0 instructions: 50000000 cycles: 13981993 heartbeat IPC: 3.57619 cumulative IPC: 3.57603 (Simulation time: 0 hr 11 min 10 sec) 

Warmup complete CPU 0 instructions: 50000004 cycles: 13981994 (Simulation time: 0 hr 11 min 10 sec) 

Cycle: 20000000 FTQ IN: 58278858 FTQ occupancy: 19.9026 DECODE IN: 58278745 DECODE occupancy: 51.6922 ROB IN: 58278685 ROB occupancy: 312.345 ROB OUT: 58278542
Heartbeat CPU 0 instructions: 60000001 cycles: 21259171 heartbeat IPC: 1.37416 cumulative IPC: 1.37416 (Simulation time: 0 hr 13 min 9 sec) 
Heartbeat CPU 0 instructions: 70000000 cycles: 28600488 heartbeat IPC: 1.36215 cumulative IPC: 1.36813 (Simulation time: 0 hr 15 min 23 sec) 
Cycle: 30000000 FTQ IN: 13661236 FTQ occupancy: 12.9593 DECODE IN: 13661227 DECODE occupancy: 32.5217 ROB IN: 13661287 ROB occupancy: 227.342 ROB OUT: 13661413
Heartbeat CPU 0 instructions: 80000003 cycles: 35871429 heartbeat IPC: 1.37534 cumulative IPC: 1.37052 (Simulation time: 0 hr 17 min 38 sec) 
Cycle: 40000000 FTQ IN: 13732184 FTQ occupancy: 12.8024 DECODE IN: 13732297 DECODE occupancy: 32.3623 ROB IN: 13732272 ROB occupancy: 228.1 ROB OUT: 13732260
Heartbeat CPU 0 instructions: 90000002 cycles: 43232596 heartbeat IPC: 1.35848 cumulative IPC: 1.36749 (Simulation time: 0 hr 19 min 49 sec) 
Cycle: 50000000 FTQ IN: 13630786 FTQ occupancy: 12.9908 DECODE IN: 13630678 DECODE occupancy: 32.7156 ROB IN: 13630643 ROB occupancy: 229.566 ROB OUT: 13630395
Heartbeat CPU 0 instructions: 100000000 cycles: 50505845 heartbeat IPC: 1.3749 cumulative IPC: 1.36897 (Simulation time: 0 hr 21 min 47 sec) 
Finished CPU 0 instructions: 50000000 cycles: 36523852 cumulative IPC: 1.36897 (Simulation time: 0 hr 21 min 47 sec) 

ChampSim completed all CPUs

Region of Interest Statistics

CPU 0 cumulative IPC: 1.36897 instructions: 50000000 cycles: 36523852
 Fetch stage stalled: 52.6062  Sim cycles: 36523852 fetch stall cycle: 19213810
 Empty decode stage: 33.6996  Sim cycles: 36523852 fetch stall cycle: 12308384
ITLB TOTAL     ACCESS:    5748117  HIT:    5253033  MISS:     495084  HIT %:     91.387  MISS %:    8.61298   MPKI: 9.90168
ITLB LOAD TRANSLATION INSTRUCTION	ACCESS:    5608999  HIT:    5113915  MISS:     495084  HIT %:    91.1734  MISS %:     8.8266  MPKI: 9.90168
ITLB TRANSLATION FROM L1D PREFETCHER INSTRUCTION	ACCESS:     139118  HIT:     139118  MISS:          0  HIT %:        100  MISS %:          0  MPKI: 0

ITLB AVERAGE MISS LATENCY: 9.06016 cycles
ITLB RQ	ACCESS:    7818642	FORWARD:          0	MERGED:    1583514	TO_CACHE:    6235128

DTLB TOTAL     ACCESS:    8960841  HIT:    8482085  MISS:     478756  HIT %:    94.6572  MISS %:    5.34276   MPKI: 9.57512
DTLB LOAD TRANSLATION DATA	ACCESS:    8960841  HIT:    8482085  MISS:     478756  HIT %:    94.6572  MISS %:    5.34276  MPKI: 9.57512

DTLB AVERAGE MISS LATENCY: 9.33207 cycles
DTLB RQ	ACCESS:   13325834	FORWARD:          0	MERGED:    4328080	TO_CACHE:    8997754

STLB TOTAL     ACCESS:    1224218  HIT:    1222195  MISS:       2023  HIT %:    99.8348  MISS %:   0.165248   MPKI: 0.04046
STLB LOAD TRANSLATION INSTRUCTION	ACCESS:     495084  HIT:     494816  MISS:        268  HIT %:    99.9459  MISS %:  0.0541322  MPKI: 0.00536
STLB LOAD TRANSLATION DATA	ACCESS:     478756  HIT:     477011  MISS:       1745  HIT %:    99.6355  MISS %:   0.364486  MPKI: 0.0349
STLB TRANSLATION FROM L1D PREFETCHER DATA	ACCESS:     250378  HIT:     250368  MISS:         10  HIT %:     99.996  MISS %: 0.00399396  MPKI: 0.0002

STLB AVERAGE MISS LATENCY: 77.7222 cycles
STLB RQ	ACCESS:    1359134	FORWARD:          0	MERGED:     134873	TO_CACHE:    1224261

STLB Hit, L1D data hit: 0
STLB Hit, L2C data hit: 0
STLB Hit, LLC data hit: 0
STLB Hit, LLC data miss: 0
STLB STLB hints to L2: 0
L1D TOTAL     ACCESS:   13074795  HIT:   11919914  MISS:    1154881  HIT %:    91.1671  MISS %:    8.83288   MPKI: 23.0976
L1D LOAD DATA	ACCESS:    6559854  HIT:    5795298  MISS:     764556  HIT %:    88.3449  MISS %:    11.6551  MPKI: 15.2911
L1D RFO DATA	ACCESS:    6186628  HIT:    5899277  MISS:     287351  HIT %:    95.3553  MISS %:    4.64471  MPKI: 5.74702
L1D PREFETCH DATA	ACCESS:     328313  HIT:     225339  MISS:     102974  HIT %:    68.6354  MISS %:    31.3646  MPKI: 2.05948

L1D PREFETCH  REQUESTED:     770925  ISSUED:     770925  USEFUL:      43960  USELESS:      70990
L1D USEFUL LOAD PREFETCHES:      43960 PREFETCH ISSUED TO LOWER LEVEL:     114996  ACCURACY: 38.2274
 TIMELY PREFETCHES:      43960 LATE PREFETCHES: 11988 DROPPED PREFETCHES: 5
L1D AVERAGE MISS LATENCY: 335525 cycles
L1D RQ	ACCESS:   10676455	FORWARD:          0	MERGED:    3915907	TO_CACHE:    6594322
L1D WQ	ACCESS:    6928288	FORWARD:     166563	MERGED:     196776	TO_CACHE:    6731512
L1D PQ	ACCESS:     385631	FORWARD:          0	MERGED:          0	TO_CACHE:     385294

L1D UNIQUE REGIONS ACCESSED: 0
L1D REGIONS CONFLICTS: 0
L1D Cross Page Prefetch Requests: 5807
L1D Same Page Prefetch Requests: 786933
L1D ROI Sum of L1D PQ occupancy: 4883222
L1D PREFETCHES PUSHED FROM L2C: 0
L1I TOTAL     ACCESS:    7036660  HIT:    4270363  MISS:    2766297  HIT %:    60.6874  MISS %:    39.3126   MPKI: 55.3259
L1I LOAD INSTRUCTION	ACCESS:    6396873  HIT:    3630576  MISS:    2766297  HIT %:    56.7555  MISS %:    43.2445  MPKI: 55.3259
L1I PREFETCH INSTRUCTION	ACCESS:     639787  HIT:     639787  MISS:          0  HIT %:        100  MISS %:          0  MPKI: 0

L1I PREFETCH  REQUESTED:    1540818  ISSUED:    1540818  USEFUL:          0  USELESS:          0
L1I USEFUL LOAD PREFETCHES:          0 PREFETCH ISSUED TO LOWER LEVEL:          0  ACCURACY: -nan
 TIMELY PREFETCHES:          0 LATE PREFETCHES: 0 DROPPED PREFETCHES: 0
L1I AVERAGE MISS LATENCY: 17.3362 cycles
L1I RQ	ACCESS:    9545966	FORWARD:          0	MERGED:    2853879	TO_CACHE:    6692087
L1I PQ	ACCESS:    1540818	FORWARD:          0	MERGED:     414263	TO_CACHE:    1126555

L1BTB TOTAL     ACCESS:    5677326  HIT:    2046660  MISS:    3630666  HIT %:    36.0497  MISS %:    63.9503   MPKI: 72.6133
L1BTB BRANCH_DIRECT_JUMP	ACCESS:     545247  HIT:     142502  MISS:     402745	AVERAGE STALL: 53.5977
L1BTB BRANCH_INDIRECT	ACCESS:     181516  HIT:      65139  MISS:     116377	AVERAGE STALL: 111.854
L1BTB BRANCH_CONDITIONAL	ACCESS:    2716782  HIT:    1424789  MISS:    1291993	AVERAGE STALL: 61.863
L1BTB BRANCH_DIRECT_CALL	ACCESS:     945050  HIT:     103914  MISS:     841136	AVERAGE STALL: 74.4519
L1BTB BRANCH_INDIRECT_CALL	ACCESS:     171838  HIT:      21386  MISS:     150452	AVERAGE STALL: 138.065
L1BTB BRANCH_RETURN	ACCESS:    1116893  HIT:     288930  MISS:     827963	AVERAGE STALL: 50.5685
L1BTB BRANCH_OTHER ACCESS:          0  HIT:          0  MISS:          0	AVERAGE STALL: -nan
L1BTB TOTAL ROB OCCUPANCY AT BTB MISS: 5.36784

L2BTB TOTAL     ACCESS:    3605465  HIT:    3493003  MISS:     112462  HIT %:    96.8808  MISS %:    3.11921   MPKI: 2.24924
L2BTB BRANCH_DIRECT_JUMP	ACCESS:     398662  HIT:     388830  MISS:       9832	AVERAGE STALL: 53.5977
L2BTB BRANCH_INDIRECT	ACCESS:     106110  HIT:     102684  MISS:       3426	AVERAGE STALL: 111.854
L2BTB BRANCH_CONDITIONAL	ACCESS:    1291993  HIT:    1269233  MISS:      22760	AVERAGE STALL: 61.863
L2BTB BRANCH_DIRECT_CALL	ACCESS:     841136  HIT:     824223  MISS:      16913	AVERAGE STALL: 74.4519
L2BTB BRANCH_INDIRECT_CALL	ACCESS:     141016  HIT:     129361  MISS:      11655	AVERAGE STALL: 138.065
L2BTB BRANCH_RETURN	ACCESS:     826548  HIT:     778672  MISS:      47876	AVERAGE STALL: 50.5685
L2BTB BRANCH_OTHER ACCESS:          0  HIT:          0  MISS:          0	AVERAGE STALL: -nan
L2BTB TOTAL ROB OCCUPANCY AT BTB MISS: 173.293

L2C TOTAL     ACCESS:    4535430  HIT:    4047296  MISS:     488134  HIT %:    89.2373  MISS %:    10.7627   MPKI: 9.76268
L2C LOAD INSTRUCTION	ACCESS:    2766296  HIT:    2500136  MISS:     266160  HIT %:    90.3785  MISS %:    9.62153  MPKI: 5.3232
L2C LOAD TRANSLATION INSTRUCTION	ACCESS:        307  HIT:         75  MISS:        232  HIT %:      24.43  MISS %:      75.57  MPKI: 0.00464
L2C LOAD DATA	ACCESS:     752532  HIT:     675602  MISS:      76930  HIT %:    89.7772  MISS %:    10.2228  MPKI: 1.5386
L2C RFO DATA	ACCESS:     287306  HIT:     232419  MISS:      54887  HIT %:     80.896  MISS %:     19.104  MPKI: 1.09774
L2C PREFETCH DATA	ACCESS:     199755  HIT:     124950  MISS:      74805  HIT %:    62.5516  MISS %:    37.4484  MPKI: 1.4961
L2C WRITEBACK DATA	ACCESS:     527362  HIT:     513629  MISS:      13733  HIT %:    97.3959  MISS %:    2.60409  MPKI: 0.27466
L2C LOAD TRANSLATION DATA	ACCESS:       1842  HIT:        468  MISS:       1374  HIT %:    25.4072  MISS %:    74.5928  MPKI: 0.02748
L2C TRANSLATION FROM L1D PREFETCHER DATA	ACCESS:         30  HIT:         17  MISS:         13  HIT %:    56.6667  MISS %:    43.3333  MPKI: 0.00026

L2C PREFETCH  REQUESTED:      92536  ISSUED:      92536  USEFUL:       8167  USELESS:      66941
L2C USEFUL LOAD PREFETCHES:       8167 PREFETCH ISSUED TO LOWER LEVEL:      75139  ACCURACY: 10.8692
 TIMELY PREFETCHES:       8167 LATE PREFETCHES: 334 DROPPED PREFETCHES: 0
L2C AVERAGE MISS LATENCY: 38.3389 cycles
L2C RQ	ACCESS:    3808360	FORWARD:          0	MERGED:          0	TO_CACHE:    3808313
L2C WQ	ACCESS:     527362	FORWARD:         48	MERGED:          0	TO_CACHE:     527362
L2C PQ	ACCESS:     207532	FORWARD:          0	MERGED:       3678	TO_CACHE:     203853

L2C Dense regions hint from L2: 0
PSCL5 TOTAL     ACCESS:       4068  HIT:       2034  MISS:       2034  HIT %:         50  MISS %:         50   MPKI: 0.04068
PSCL5 LOAD TRANSLATION INSTRUCTION	ACCESS:       4012  HIT:       2006  MISS:       2006  HIT %:         50  MISS %:         50  MPKI: 0.04012
PSCL5 TRANSLATION FROM L1D PREFETCHER INSTRUCTION	ACCESS:         56  HIT:         28  MISS:         28  HIT %:         50  MISS %:         50  MPKI: 0.00056


PSCL4 TOTAL     ACCESS:       2271  HIT:       1132  MISS:       1139  HIT %:    49.8459  MISS %:    50.1541   MPKI: 0.02278
PSCL4 LOAD TRANSLATION INSTRUCTION	ACCESS:       1393  HIT:       1126  MISS:        267  HIT %:    80.8327  MISS %:    19.1673  MPKI: 0.00534
PSCL4 TRANSLATION FROM L1D PREFETCHER INSTRUCTION	ACCESS:          7  HIT:          6  MISS:          1  HIT %:    85.7143  MISS %:    14.2857  MPKI: 2e-05
PSCL4 LOAD TRANSLATION DATA	ACCESS:        866  HIT:          0  MISS:        866  HIT %:          0  MISS %:        100  MPKI: 0.01732
PSCL4 TRANSLATION FROM L1D PREFETCHER DATA	ACCESS:          5  HIT:          0  MISS:          5  HIT %:          0  MISS %:        100  MPKI: 0.0001


PSCL3 TOTAL     ACCESS:       3308  HIT:       1646  MISS:       1662  HIT %:    49.7582  MISS %:    50.2418   MPKI: 0.03324
PSCL3 LOAD TRANSLATION INSTRUCTION	ACCESS:       2285  HIT:       1626  MISS:        659  HIT %:    71.1597  MISS %:    28.8403  MPKI: 0.01318
PSCL3 TRANSLATION FROM L1D PREFETCHER INSTRUCTION	ACCESS:         29  HIT:         20  MISS:          9  HIT %:    68.9655  MISS %:    31.0345  MPKI: 0.00018
PSCL3 LOAD TRANSLATION DATA	ACCESS:        983  HIT:          0  MISS:        983  HIT %:          0  MISS %:        100  MPKI: 0.01966
PSCL3 TRANSLATION FROM L1D PREFETCHER DATA	ACCESS:         11  HIT:          0  MISS:         11  HIT %:          0  MISS %:        100  MPKI: 0.00022


PSCL2 TOTAL     ACCESS:       3941  HIT:       1909  MISS:       2032  HIT %:    48.4395  MISS %:    51.5605   MPKI: 0.04064
PSCL2 LOAD TRANSLATION INSTRUCTION	ACCESS:       2151  HIT:       1883  MISS:        268  HIT %:    87.5407  MISS %:    12.4593  MPKI: 0.00536
PSCL2 TRANSLATION FROM L1D PREFETCHER INSTRUCTION	ACCESS:         26  HIT:         26  MISS:          0  HIT %:        100  MISS %:          0  MPKI: 0
PSCL2 LOAD TRANSLATION DATA	ACCESS:       1738  HIT:          0  MISS:       1738  HIT %:          0  MISS %:        100  MPKI: 0.03476
PSCL2 TRANSLATION FROM L1D PREFETCHER DATA	ACCESS:         26  HIT:          0  MISS:         26  HIT %:          0  MISS %:        100  MPKI: 0.00052


LLC TOTAL     ACCESS:     547857  HIT:     519553  MISS:      28304  HIT %:    94.8337  MISS %:    5.16631   MPKI: 0.56608
LLC LOAD INSTRUCTION	ACCESS:     266160  HIT:     265216  MISS:        944  HIT %:    99.6453  MISS %:   0.354674  MPKI: 0.01888
LLC LOAD TRANSLATION INSTRUCTION	ACCESS:        232  HIT:        207  MISS:         25  HIT %:    89.2241  MISS %:    10.7759  MPKI: 0.0005
LLC LOAD DATA	ACCESS:      76596  HIT:      73003  MISS:       3593  HIT %:    95.3092  MISS %:    4.69085  MPKI: 0.07186
LLC RFO DATA	ACCESS:      54878  HIT:      41811  MISS:      13067  HIT %:     76.189  MISS %:     23.811  MPKI: 0.26134
LLC PREFETCH DATA	ACCESS:      75139  HIT:      64885  MISS:      10254  HIT %:    86.3533  MISS %:    13.6467  MPKI: 0.20508
LLC WRITEBACK DATA	ACCESS:      73465  HIT:      73137  MISS:        328  HIT %:    99.5535  MISS %:   0.446471  MPKI: 0.00656
LLC LOAD TRANSLATION DATA	ACCESS:       1374  HIT:       1282  MISS:         92  HIT %:    93.3042  MISS %:    6.69578  MPKI: 0.00184
LLC TRANSLATION FROM L1D PREFETCHER DATA	ACCESS:         13  HIT:         12  MISS:          1  HIT %:    92.3077  MISS %:    7.69231  MPKI: 2e-05

LLC AVERAGE MISS LATENCY: 156.947 cycles
LLC RQ	ACCESS:     399261	FORWARD:          0	MERGED:          0	TO_CACHE:     399252
LLC WQ	ACCESS:      73465	FORWARD:          9	MERGED:          0	TO_CACHE:      73465
LLC PQ	ACCESS:      75139	FORWARD:          0	MERGED:          0	TO_CACHE:      75139

LLC Dense regions hint to LLC: 0

RAW hits: 1936161
Loads Generated: 12612616
Loads sent to L1D: 10676455
Stores Generated: 6928273
Stores sent to L1D: 6928288
Major fault: 0 Minor fault: 2567
Allocated PAGES: 2567

stream: 
stream:times selected: 1230361
stream:pref_filled: 126846
stream:pref_useful: 27926
stream:pref_late: 8787
stream:misses: 8832
stream:misses_by_poll: 0

CS: 
CS:times selected: 191104
CS:pref_filled: 69916
CS:pref_useful: 45576
CS:pref_late: 9514
CS:misses: 21964
CS:misses_by_poll: 5

CPLX: 
CPLX:times selected: 1038106
CPLX:pref_filled: 23220
CPLX:pref_useful: 6882
CPLX:pref_late: 3490
CPLX:misses: 119447
CPLX:misses_by_poll: 1

NL_L1: 
NL:times selected: 12274
NL:pref_filled: 1470
NL:pref_useful: 245
NL:pref_late: 217
NL:misses: 1550
NL:misses_by_poll: 0

total selections: 2471845
total_filled: 102974
total_useful: 43960
total_late: 23972
total_polluted: 6
total_misses_after_warmup: 799024
conflicts: 5503281

test: 117658

DRAM Statistics
 CHANNEL 0
 RQ ROW_BUFFER_HIT:      10108  ROW_BUFFER_MISS:      17860
 DBUS_CONGESTED:         15
 WQ ROW_BUFFER_HIT:       1363  ROW_BUFFER_MISS:      12264  FULL:          0

 AVG_CONGESTED_CYCLE: 5

CPU 0 Branch Prediction Accuracy: 99.8139% MPKI: 0.34088 Average ROB Occupancy at Mispredict: 179.389
Branch types
NOT_BRANCH: 40841497 81.683%
BRANCH_DIRECT_JUMP: 545247 1.09049%
BRANCH_INDIRECT: 181516 0.363032%
BRANCH_CONDITIONAL: 6197942 12.3959%
BRANCH_DIRECT_CALL: 945050 1.8901%
BRANCH_INDIRECT_CALL: 171838 0.343676%
BRANCH_RETURN: 1116893 2.23379%
BRANCH_OTHER: 0 0%

DRAM PAGES: 1048576
Allocated PAGES: 2567
Average_ROB_Occupancy: 229.48
Average_Decode_Occupancy: 32.4696
Average_FTQ_Occupancy: 12.8724
Indirect max targets: 14 Average targets: 1.15182
Branch_type:  BRANCH_DIRECT_JUMP:  Count Percentage: 2.90114 7.61231 3.32713 7.29824 1.87395 3.03862 0.980298 72.9683 
Branch_type:  BRANCH_INDIRECT:  Count Percentage: 11.7623 3.42909 2.53583 9.67335 3.34915 4.018 2.00982 63.2225 
Branch_type:  BRANCH_CONDITIONAL:  Count Percentage: 21.1288 6.70915 1.64177 4.5187 5.90282 2.81989 0.646939 56.632 
Branch_type:  BRANCH_DIRECT_CALL:  Count Percentage: 0.734978 1.24578 1.1277 3.76749 2.50496 2.07335 0.439742 88.106 
Branch_type:  BRANCH_INDIRECT_CALL:  Count Percentage: 9.55957 0.568935 2.99532 4.8513 0.969968 2.99415 0.998341 77.0624 
Branch_type:  BRANCH_RETURN:  Count Percentage: 4.21149 3.79208 1.64238 5.53923 7.8068 4.40885 1.06659 71.5326 
Branch_type:  BRANCH_DIRECT_JUMP:  Total Count: 31675 83112 36326 79683 20460 33176 10703 796676 
Branch_type:  BRANCH_INDIRECT:  Total Count: 42822 12484 9232 35217 12193 14628 7317 230169 
Branch_type:  BRANCH_CONDITIONAL:  Total Count: 2618975 831619 203502 560106 731672 349534 80190 7019705 
Branch_type:  BRANCH_DIRECT_CALL:  Total Count: 13819 23423 21203 70836 47098 38983 8268 1656563 
Branch_type:  BRANCH_INDIRECT_CALL:  Total Count: 32681 1945 10240 16585 3316 10236 3413 263451 
Branch_type:  BRANCH_RETURN:  Total Count: 93616 84293 36508 123130 173535 98003 23709 1590077 
Number of unique branch instructions: 10075
Upper 32 bits: 
aaaa
ffff
ffff0000
Unique upper 32 bits: 3
Unique upper 36 bits: 3
Unique upper 40 bits: 5
Unique upper 44 bits: 32
Unique upper 48 bits: 157
Offset_3 4143
Offset_4 261
Offset_5 465
Offset_6 510
Offset_7 588
Offset_8 520
Offset_9 483
Offset_10 388
Offset_11 310
Offset_12 277
Offset_13 210
Offset_14 228
Offset_15 188
Offset_16 225
Offset_17 154
Offset_18 118
Offset_19 239
Offset_20 138
Offset_21 261
Offset_22 395
Offset_23 241
Offset_24 350
Offset_25 88
Offset_47 86
decode_dispatch_called: 24550855 67.2187
Dispatch_width: 0 13108484 53.3932 35.8902
Dispatch_width: 1 854798 3.48174 2.34038
Dispatch_width: 2 766859 3.12355 2.09961
Dispatch_width: 3 456677 1.86013 1.25035
Dispatch_width: 4 4895523 19.9403 13.4036
Dispatch_width: 5 151723 0.617995 0.415408
Dispatch_width: 6 4316791 17.5831 11.8191
Empty_decode_cycles: 11972997 32.7813
ROB_full_cycles: 7987128 21.8683
Starvation_cycles_per_kilo_instr: 242.199
Starvation_cycles_per_kilo_instr_3: 191.727
Starvation_cycles_per_kilo_instr_0: 170.944
Branch_type_1  (3,1)  (4,10)  (5,39)  (6,70)  (7,115)  (8,132)  (9,128)  (10,100)  (11,69)  (12,43)  (13,8)  (14,2)  (15,3)  (16,4)  (18,1)  (19,4)  (20,2)  (21,1)  (22,3)  (23,2)  (24,10)  (25,12) 
Branch_type_2  (3,1)  (5,1)  (8,3)  (9,3)  (12,1)  (13,1)  (14,1)  (16,3)  (17,2)  (20,2)  (21,2)  (23,5)  (24,1)  (47,40) 
Branch_type_3  (3,4141)  (4,251)  (5,421)  (6,425)  (7,443)  (8,325)  (9,268)  (10,157)  (11,123)  (12,50)  (13,7) 
Branch_type_4  (6,3)  (7,8)  (8,25)  (9,52)  (10,61)  (11,61)  (12,99)  (13,89)  (14,101)  (15,89)  (16,100)  (17,69)  (18,53)  (19,117)  (20,71)  (21,141)  (22,210)  (23,136)  (24,200)  (25,72) 
Branch_type_5  (8,2)  (9,1)  (10,4)  (11,5)  (12,3)  (13,14)  (14,16)  (15,11)  (16,20)  (17,11)  (18,16)  (19,13)  (20,11)  (21,13)  (22,42)  (23,26)  (24,41) 
Branch_type_6  (5,4)  (6,12)  (7,22)  (8,33)  (9,31)  (10,66)  (11,52)  (12,81)  (13,91)  (14,108)  (15,85)  (16,98)  (17,72)  (18,48)  (19,105)  (20,52)  (21,104)  (22,140)  (23,72)  (24,98)  (25,4)  (47,46) 
aaaaab1fc620: 2ac9e77e 2aca717c 2aca8eff 2acaf6bc 2acaf9aa 2acaf9f1 2acb1abc 2acb1b7f 2acd4e22 2acdb712 2acf5f9e 2ad0ef44 2ad3f15c 2ad414e6 2ad60e42 2ad8609c 2ad99830 2ada35cc 2ada4676 2ada6612 2adf183e 2adf30e5 2adf5602 2adf785c 2ae11572 2aeb2dcf 2aee101b 2aee1ae1 2aee9456 2b156a8c 2b156b61 2b156bea 2b167f35 2b177656 2b17feec 2b1a3e5a 
aaaaab1fc740: 2aca1fb0 2aca45b3 2aca5aa1 2aca5c69 2aca66f9 2aca9426 2acaeecb 2acf3d2d 2acf3d64 2acf6089 2ad017ea 2ad5e7ef 2ad61064 2ad87373 2ad9bf84 2ad9c093 2ae9b606 2aea9ffa 2aee99f5 2aee9a2c 2aeece4b 
aaaaac68f310: 2ac9ec8c 2ac9fb44 2ac9fbd2 2aca59ab 2acac04c 2acaf6e0 2acaf6ec 2acaf6f9 2acaf700 2acaf708 2acf2d90 2ad3cfbd 2ad3cfc4 2ad3d000 2ad3f35f 2ad4955d 2ad49571 2ad4f3f2 2ad4f400 2ad5f240 2ad5f37c 2ad5f86a 2ad5f86f 2ad5f880 2ad5fc0d 2ad5fc14 2ad5fc21 2ad5fe1b 2ad873bb 2ad873e3 2ad8a6b2 2ad9086e 2ad93096 2ad9bbb2 2ada152c 2ada1554 2ada3332 2ada5522 2adf3130 2adf313c 2adf3a3f 2adf3bd9 2adf5788 2adf7a8d 2ae07f6b 2ae0857a 2ae0857e 2ae08630 2ae08634 2ae08637 2ae08642 2ae0866f 2ae086e4 2ae086ec 2ae08717 2ae0871b 2aee0170 2aee1d38 2aee75f4 2aee7662 2aee85ca 2aee85e4 2aee8eef 2aee9a0a 2af70b84 2af74e8f 2b17d843 
aaaaac690ef0: 2aca598b 2acb111b 2acb175f 2acb1772 2acbfaf4 2acbfb00 2acf374f 2acf6d43 2acfa5c8 2ad3baf1 2ad3d4ac 2ad3d4b8 2ad3f1cf 2ad486b2 2ad5a59b 2ad5fc64 2ad5fcf9 2ad6121c 2ad906e9 2ad907bf 2ad9bada 2ada16ce 2ada1ad5 2ada43df 2ada64c0 2ada72ee 2adeb71a 2adf3bcb 2adf7a38 2adf7c6a 2adf8872 2adf8880 2adf9959 2adf9abe 2ae07f78 2ae08503 2ae08754 2ae12e80 2aea3bea 2aecb509 2aee00b0 2aee2bdd 2aee5467 2aee5601 2aee8f20 2af703fd 2af7048b 2af74e74 2dfba627 
Unique trigger count: 
1 9599
2 511
3 87
4 34
5 11
6 7
7 7
8 1
9 3
10 1
11 2
12 1
13 3
16 2
18 2
19 2
21 1
36 1
49 1
67 1
BTB PER SET UNIQUE ADDR: 1 2 2 2 0 1 1 1 3 0 3 0 1 1 1 1 2 1 1 2 0 1 1 2 1 2 1 2 1 1 2 2 2 0 2 0 0 3 5 1 1 2 2 4 1 0 2 1 4 1 2 1 2 1 1 3 3 3 1 1 1 2 2 2 0 5 5 0 2 2 5 1 1 2 1 1 2 6 1 1 1 1 1 4 3 1 1 4 3 2 3 3 2 3 2 0 1 3 0 2 3 2 2 3 1 2 1 1 3 0 1 1 3 2 1 3 1 2 1 0 2 3 2 0 1 1 2 1 2 2 3 0 1 0 2 1 0 0 1 2 2 2 2 0 0 0 1 3 3 2 1 5 1 2 1 0 0 2 1 1 0 0 0 1 2 2 0 1 5 1 1 2 2 1 1 0 1 1 3 1 1 2 5 2 2 2 2 0 1 1 4 1 1 2 1 1 1 1 0 1 2 1 1 0 0 0 1 0 0 0 0 2 2 1 2 1 0 2 1 0 0 0 1 2 2 0 2 2 0 2 5 2 1 1 1 2 2 0 1 1 1 0 1 1 5 2 1 1 2 1 1 1 1 1 0 4 2 2 2 2 3 3 2 2 2 4 3 0 2 1 2 2 1 2 2 2 1 0 3 2 2 2 1 1 2 3 2 1 1 1 0 0 1 2 0 1 3 2 0 1 2 2 1 1 2 2 3 2 3 3 2 1 2 2 3 0 2 2 1 1 1 1 2 2 0 2 1 3 0 0 3 0 2 2 3 1 1 2 4 0 2 0 0 1 1 2 1 1 0 2 1 2 2 2 2 2 1 0 3 0 0 2 1 2 3 2 1 0 0 0 3 1 2 0 1 2 2 1 2 3 0 0 1 3 0 0 2 1 2 1 1 2 2 2 2 0 3 0 0 2 3 1 3 1 1 0 2 3 0 1 0 1 1 1 1 0 3 1 1 2 1 1 2 2 1 3 0 0 1 3 1 0 5 2 3 3 2 1 0 0 0 4 3 3 2 1 1 3 1 1 3 0 0 0 3 0 1 3 2 1 3 0 3 2 0 0 1 0 1 3 0 1 1 1 2 1 0 1 0 0 0 2 1 2 0 2 2 0 2 1 2 1 1 3 0 3 1 1 3 0 3 0 0 1 0 2 1 0 0 2 3 2 2 2 2 0 1 3 1 4 1 1 3 1 3 2 0 3 3 1 4 1 2 2 1 4 0 0 3 0 0 4 3 0 5 1 5 3 4 4 1 3 2 3 0 1 1 0 1 1 7 0 1 2 1 0 0 1 2 4 4 0 1 5 2 0 0 1 0 0 0 1 0 0 1 0 0 4 2 2 2 3 0 1 1 2 2 0 1 1 0 0 1 3 1 1 1 1 3 0 2 1 3 1 2 0 2 0 2 1 3 1 3 0 2 1 1 2 1 0 3 1 0 1 2 1 0 0 1 1 4 1 3 3 0 0 1 0 2 1 1 1 3 1 1 0 3 0 1 3 2 2 3 3 2 1 1 1 0 0 4 1 1 0 4 2 0 1 3 2 1 0 2 3 2 1 1 2 2 1 0 2 1 1 1 4 3 3 2 3 0 2 0 2 1 1 0 1 0 0 1 2 0 1 2 0 1 1 0 2 1 0 1 1 0 1 1 1 0 3 2 2 1 0 1 1 4 1 1 0 1 2 1 2 1 0 2 1 1 2 0 0 1 2 0 1 2 3 1 0 1 1 0 2 0 1 3 1 0 0 2 2 0 0 1 2 3 1 1 1 2 1 0 0 3 3 3 3 0 0 1 3 0 0 2 3 3 1 1 0 2 2 1 2 1 1 1 4 0 2 0 2 1 0 2 1 1 0 0 3 3 0 1 0 2 1 1 1 1 4 1 1 2 1 3 0 1 0 3 2 0 1 0 1 0 1 3 2 3 0 2 0 3 1 3 2 0 0 1 0 0 0 0 1 4 1 1 0 2 0 1 1 1 2 1 0 2 2 3 1 2 1 1 0 0 0 1 2 0 0 2 0 1 2 1 1 5 0 1 1 1 0 0 1 1 3 0 1 0 4 3 3 0 0 1 2 0 1 1 2 4 1 3 1 2 0 3 0 2 1 3 1 4 2 2 1 1 1 0 1 1 1 0 3 2 2 1 2 1 1 1 0 4 1 1 0 4 2 2 1 2 1 2 2 2 4 8 2 2 2 1 1 0 2 2 1 3 4 1 2 3 2 1 3 1 1 1 1 2 1 3 1 1 2 2 1 2 2 1 4 0 1 2 1 2 3 3 2 0 1 2 0 3 0 1 2 3 2 1 3 3 1 7 4 0 2 2 1 1 1 3 4 2 1 3 0 0 1 1 0 2 0 1 3 0 2 4 1 3 3 0 1 3 2 1 3 2 1 2 1 0 1 2 0 2 0 1 2 3 3 1 4 3 2 0 1 7 0 1 1 1 1 2 2 1 4 3 3 3 3 1 4 2 2 1 0 4 0 1 2 1 5 1 0 4 1 1 1 2 1 1 2 3 3 2 2 2 1 1 3 4 2 1 2 1 1 3 2 1 4 1 2 2 1 3 3 0 1 4 1 0 2 1 0 1 2 1 1 1 2 1 3 2 0 1 1 3 2 1 0 2 0 0 3 2 1 2 2 1 4 0 1 4 0 3 1 1 2 2 4 2 4 0 6 4 0 2 1 2 0 0 1 3 0 1 1 2 4 1 0 0 2 3 1 1 2 0 0 1 4 1 4 2 2 0 2 0 0 2 4 6 0 4 0 0 1 2 1 4 0 2 3 2 1 1 1 0 4 1 3 0 1 2 5 3 1 2 2 0 2 4 3 1 3 3 2 0 0 3 3 4 1 2 2 1 1 3 2 3 1 1 1 1 1 5 3 4 0 0 2 1 1 2 1 3 0 0 1 2 3 2 0 3 1 1 0 1 1 5 0 1 1 0 4 2 0 2 1 3 2 1 1 3 1 3 2 0 3 2 2 0 3 1 1 2 2 1 1 0 2 1 1 1 2 1 2 3 1 1 2 0 1 3 0 2 2 0 1 1 1 2 2 1 0 2 0 1 1 2 2 1 1 1 1 1 4 1 3 2 1 2 0 1 1 1 3 1 2 1 1 1 2 0 1 3 2 3 1 4 2 1 0 1 2 3 1 1 1 3 0 5 2 1 3 1 0 3 3 1 1 1 3 0 2 2 1 1 1 2 1 0 1 1 4 2 1 2 1 0 2 1 0 1 2 1 1 1 0 0 2 0 0 1 1 0 2 1 3 4 1 1 0 1 1 1 0 1 0 0 3 1 0 1 0 0 1 1 0 0 0 0 0 0 0 0 0 1 0 2 0 1 0 1 0 1 0 0 4 1 0 1 1 3 1 1 0 1 2 1 0 2 0 1 1 1 1 1 0 2 0 3 1 0 1 3 0 0 1 0 2 1 2 1 1 2 2 2 2 0 1 1 0 0 0 3 0 1 1 0 0 0 1 0 1 1 0 1 2 2 1 1 1 2 2 1 1 1 0 0 2 1 0 0 1 2 1 2 1 0 1 1 3 3 0 0 1 2 2 0 0 3 1 3 0 2 1 2 2 1 2 3 2 5 0 1 0 2 2 1 5 3 3 2 3 5 0 0 2 2 1 1 1 1 1 2 0 2 1 0 1 2 0 1 1 3 1 2 2 3 2 1 1 3 0 2 3 2 1 2 1 3 3 1 1 1 2 2 1 1 4 2 1 1 1 1 3 3 1 1 0 1 0 2 1 2 3 0 0 1 1 0 2 4 1 0 2 2 0 1 2 1 1 1 2 1 0 0 3 2 1 0 0 0 2 1 0 2 1 3 3 2 1 4 1 2 7 3 2 3 2 1 3 3 1 1 1 0 0 0 3 3 2 2 0 0 3 3 1 2 2 1 0 1 2 2 2 2 1 2 2 1 1 0 2 0 1 2 1 0 0 0 1 0 1 2 0 3 0 3 1 1 0 2 1 1 3 0 3 0 0 0 1 1 1 4 0 1 1 0 1 2 1 0 1 1 0 1 1 1 1 2 2 3 0 3 0 0 1 2 1 1 6 1 0 2 1 3 2 1 2 5 1 3 3 0 2 0 3 2 4 4 0 2 1 5 0 4 0 3 2 2 2 1 1 1 0 1 2 0 2 0 1 2 3 2 1 4 2 2 2 3 0 1 0 3 1 3 2 2 2 2 1 0 2 3 2 1 0 1 2 0 0 0 1 0 1 1 2 0 2 2 1 3 1 2 1 2 2 3 0 1 2 2 1 0 2 2 2 2 0 0 1 0 0 1 0 0 1 1 1 2 1 1 2 0 0 0 2 1 1 1 0 2 1 2 2 2 0 1 1 0 1 1 2 1 2 1 0 1 0 2 1 0 1 2 1 3 2 2 2 0 2 0 1 0 0 2 2 0 4 2 4 0 2 2 5 1 0 0 1 4 2 2 0 1 0 3 1 0 0 2 3 1 6 2 0 3 0 1 1 1 1 2 1 0 2 0 1 2 2 1 0 0 3 4 1 0 0 2 3 1 0 3 3 1 0 3 3 0 1 1 4 0 0 0 3 1 1 3 1 1 1 2 2 2 0 2 1 2 1 2 1 0 2 4 2 3 0 1 2 2 0 1 0 2 1 1 0 0 0 4 2 1 2 1 1 2 2 3 3 1 1 3 3 0 2 2 1 4 4 2 2 3 2 1 2 1 2 3 2 1 3 5 2 2 2 2 3 2 1 1 1 1 1 1 0 2 2 0 2 0 1 1 0 1 2 1 3 0 0 0 2 1 2 1 0 0 2 1 1 0 0 0 2 1 1 0 1 3 1 1 2 0 0 2 1 1 2 1 1 1 0 1 0 0 1 0 2 1 0 0 4 1 3 1 2 3 1 2 2 0 0 0 1 1 0 4 2 2 2 3 1 3 2 2 1 2 1 3 1 1 2 1 4 1 2 1 1 2 3 2 3 2 0 3 1 2 1 4 5 4 3 2 1 2 1 4 0 1 0 2 1 0 1 2 3 2 0 2 1 1 1 2 3 1 1 1 2 1 2 2 2 3 3 1 2 3 4 1 1 3 1 3 3 1 4 2 1 2 2 3 3 1 1 3 3 3 0 1 1 1 1 1 2 1 1 0 1 3 1 2 1 2 1 1 2 0 1 0 0 4 2 4 5 0 0 1 2 1 1 0 2 2 2 1 2 2 1 1 1 2 0 1 2 0 1 2 1 1 0 1 1 2 0 0 1 0 1 2 0 5 1 3 2 1 2 0 0 0 3 0 3 1 0 2 1 2 1 1 1 0 1 1 0 1 0 3 2 1 0 1 0 2 1 4 4 1 1 2 6 1 2 2 0 1 3 2 1 1 0 0 3 2 1 1 0 1 0 1 0 1 3 3 0 0 1 3 2 2 3 2 1 3 1 1 0 1 1 2 3 1 2 3 3 0 1 2 1 0 1 0 4 3 2 1 2 1 1 5 3 1 2 3 2 3 1 2 0 4 2 2 0 1 1 3 0 1 1 1 1 1 1 1 4 2 0 1 0 1 2 4 2 1 2 2 2 0 1 0 0 1 2 2 0 2 0 1 1 1 2 4 1 2 2 1 2 3 1 2 0 2 1 2 5 1 1 2 1 1 3 1 2 2 1 0 1 5 1 0 3 1 4 1 3 3 2 2 0 0 3 4 1 0 0 4 4 1 1 2 0 1 0 0 2 1 0 3 0 2 1 3 2 0 3 2 2 0 1 2 1 1 0 1 0 1 2 2 1 0 0 0 4 0 1 1 2 3 1 2 4 1 1 3 3 0 3 3 2 0 2 1 4 2 0 1 1 1 1 2 1 3 2 0 1 2 0 2 5 2 3 1 3 1 2 2 1 2 2 1 2 4 0 1 1 4 1 0 3 0 2 2 3 1 2 3 2 1 5 4 1 1 0 0 0 0 5 3 1 3 4 1 0 1 1 2 2 2 0 4 2 3 3 1 3 2 3 0 2 3 1 0 1 0 2 0 0 1 0 2 2 3 2 0 2 1 3 1 3 2 3 3 1 3 1 2 3 1 1 3 0 1 1 0 0 2 3 1 3 2 1 2 1 2 0 1 3 1 0 3 0 2 1 4 3 4 2 1 4 1 2 3 3 1 4 3 2 0 1 2 2 3 0 3 2 4 1 2 2 1 2 1 1 1 0 3 1 3 2 0 4 0 1 2 1 3 0 3 1 2 1 3 0 0 1 6 1 0 1 1 0 0 0 1 0 0 3 2 1 3 2 1 1 1 3 0 2 1 2 0 1 1 2 1 1 1 1 1 0 0 2 0 1 2 1 0 3 3 1 2 2 1 3 4 3 5 1 2 2 2 1 0 3 2 2 2 1 0 2 2 3 0 3 5 3 0 0 0 2 1 1 2 1 2 4 4 1 1 2 3 1 3 1 3 2 2 1 2 1 1 1 3 0 2 2 0 2 0 1 1 2 3 2 0 0 1 1 3 0 2 0 1 1 2 2 1 1 2 0 2 0 3 2 1 3 3 2 2 2 4 2 2 3 2 3 3 2 3 4 2 6 2 0 5 2 2 4 3 3 0 2 2 4 3 0 0 1 2 3 1 4 3 4 5 3 1 0 2 4 2 2 2 2 2 0 2 3 0 0 4 2 1 2 3 2 3 4 3 0 2 1 0 3 0 3 0 0 4 0 2 4 2 2 2 1 0 2 3 6 1 3 5 5 3 3 5 3 1 4 3 1 0 1 2 3 4 3 2 1 5 0 1 3 1 3 2 3 2 1 0 1 2 3 0 2 1 2 4 1 1 2 0 2 3 0 4 1 0 1 4 3 2 1 1 0 1 2 1 1 2 4 1 5 2 3 2 3 2 1 1 1 2 1 0 2 1 1 3 1 3 3 1 4 4 0 2 0 1 1 2 1 2 1 2 1 1 1 1 2 2 4 4 1 0 2 3 1 2 1 1 2 3 1 1 2 1 4 1 3 0 2 0 1 3 1 0 0 1 1 3 1 0 1 2 1 2 1 0 2 1 4 2 1 2 0 3 1 1 3 0 1 3 4 2 3 0 2 2 3 1 1 0 0 0 1 1 0 3 2 2 3 3 1 3 4 6 1 2 3 4 2 2 4 2 2 4 0 3 1 3 2 2 1 3 2 3 4 2 2 5 4 2 2 2 0 1 1 1 4 1 1 1 1 2 2 1 1 4 0 1 2 2 1 4 0 4 1 2 3 1 1 3 2 1 3 1 2 1 2 2 2 2 3 0 2 2 3 0 4 1 1 3 2 2 1 4 0 3 2 1 1 2 4 2 0 1 0 1 1 2 0 1 2 2 1 3 4 1 1 1 1 3 4 0 3 3 2 0 2 2 0 3 0 1 3 3 1 1 1 1 0 2 0 0 1 4 1 2 1 1 3 3 1 2 0 2 1 3 4 6 1 1 3 3 3 1 1 0 2 2 2 0 0 3 2 1 3 2 2 0 3 1 1 1 5 1 4 3 4 0 1 3 1 1 1 3 1 4 5 1 3 0 2 3 4 1 4 1 7 3 1 1 1 1 3 2 2 1 2 3 3 5 2 3 2 3 2 3 2 1 4 3 3 1 1 2 1 3 1 1 1 4 2 2 0 2 0 0 1 3 7 2 2 1 2 2 2 2 2 2 1 1 1 1 2 3 1 3 1 3 3 1 0 1 2 0 1 0 3 0 4 4 0 1 1 3 1 2 2 4 1 3 3 1 3 1 3 1 1 2 2 1 1 2 1 3 0 0 0 3 1 1 3 3 4 2 4 2 1 2 0 1 0 3 0 3 1 2 1 1 5 0 1 0 1 1 2 3 0 3 2 3 0 2 0 4 1 0 1 3 1 0 2 1 2 1 0 3 2 0 2 1 2 1 2 5 2 3 2 2 3 2 3 2 1 2 0 2 2 2 3 3 1 2 1 3 1 2 3 2 4 1 3 1 1 2 0 3 2 5 0 0 3 1 2 3 3 2 2 4 0 0 1 2 0 0 2 1 3 4 2 1 0 3 2 1 3 1 4 0 2 1 2 4 0 0 0 1 2 2 1 0 4 1 2 2 2 1 2 0 5 2 3 2 0 2 0 3 4 3 2 1 2 1 2 0 3 1 1 2 0 2 2 0 2 1 0 3 2 2 6 3 2 2 1 2 0 1 3 2 1 0 0 1 1 1 1 2 2 2 3 2 0 4 1 4 2 4 0 0 5 0 1 4 3 0 4 1 2 2 3 2 2 0 2 0 3 2 1 0 4 1 3 2 2 3 1 3 0 1 4 2 3 2 1 2 2 4 2 2 3 1 5 2 1 1 0 2 2 3 2 1 2 2 0 0 3 1 2 2 1 1 0 1 4 1 2 1 2 3 1 2 2 5 0 3 2 2 0 4 1 3 3 5 1 1 4 0 3 2 3 4 4 1 3 0 2 3 0 2 2 1 2 2 2 1 2 0 3 1 2 1 2 1 2 0 2 2 1 1 2 0 3 3 2 1 1 2 6 0 3 1 2 2 2 1 3 1 4 1 3 1 3 2 2 3 1 3 0 2 5 0 7 0 5 2 1 1 2 1 0 2 1 2 2 3 3 2 2 2 0 2 3 2 1 2 2 0 2 0 3 5 2 1 3 4 1 2 1 4 1 1 1 2 3 0 2 3 0 0 2 1 1 2 0 1 1 1 1 1 2 1 3 1 4 3 2 0 1 0 2 1 1 2 1 0 0 0 1 2 2 2 2 2 1 1 1 0 1 0 2 3 3 0 1 2 0 1 1 0 1 1 2 2 1 1 0 3 1 0 2 1 0 0 1 3 2 2 3 2 1 2 1 2 4 1 3 1 3 2 1 1 0 2 0 0 1 2 2 2 2 2 4 3 1 1 2 1 2 0 2 2 0 1 1 2 1 3 1 3 1 1 1 4 2 2 2 2 1 2 7 1 1 5 4 2 2 2 0 2 4 2 2 4 0 3 0 0 2 2 2 2 3 1 1 2 1 2 5 4 0 0 4 1 0 0 1 0 0 2 2 1 1 2 1 4 0 2 1 0 0 2 1 2 2 5 2 1 2 1 3 1 1 1 5 4 0 0 2 0 3 1 0 0 0 3 3 3 2 0 0 3 1 1 0 2 1 1 2 1 2 2 1 2 3 2 1 1 5 1 2 2 1 2 0 1 2 2 1 2 2 1 0 1 1 3 1 3 2 2 1 1 1 1 2 1 0 
BTB PER SET COUNT: 1 2 2 2 0 1 2 1 3 0 3 0 1 1 1 1 2 1 1 2 0 1 1 2 1 2 1 2 1463 1 2 2 3 0 2 0 0 3 9 1 1 2 3 7 1 0 2 1 5 1 2 1 2 1 1 3 4 3 1 1 1 2 2 2 0 382 8 0 2 2 741 1 1 2 1 1 488 760 1 1 1 1 4 4 3 1 1 5 3 2 6 491 2 3 2 0 1 3 0 2 3 2 3 3 1 2 1 1 3 0 1 1 3 2 1 3 1 2 1 0 2 3 2 0 1 1 2 1 2 2 490 0 1 0 2 1 0 0 1 2 2 4 2 0 0 0 1 3 3 2 1 1516 1 2 1 0 0 2 1 1 0 0 0 1 2 2 0 1 2451 1 1 2 2 1 1 0 1 1 979 1 2 2 6344 2 2 2 2 0 1 1 4 1 2 2 1 4 1 1 0 1 2 1 1 0 0 0 1 0 0 0 0 3 2 1 3 1 0 2 1 0 0 0 1 2 2 0 2 28 0 2 2216 2 1 1 1 2 3 0 1 1 2 0 1 1 1457 3 1 1 2 1 1 1 1 1 0 4 3 2 2 2 3 3 2 2 3 4 4 0 2 1 2 2 1 2 2 2 1 0 3 2 2 2 1 1 2 974 2 1 1 1 0 0 1 2 0 1 5 2 0 1 2 2 1 1 2 2 3 2 3 3 2 1 2 2 3 0 2 2 1 1 1 1 2 2 0 2 1 3 0 0 975 0 2 2 979 1 973 2 4 0 2 0 0 972 972 2 1 1 0 3 1 2 2 2 2 3 1 0 3 0 0 2 1 2 3 2 1 0 0 0 3 1 2 0 1 2 2 1 2 4 0 0 1 5 0 0 2 1 2 1 1 2 2 2 2 0 3 0 0 2 3 1 3 1 1 0 1464 3 0 977 0 1 1 1 1 0 3 1 1 87 1 1 2 2 1 3 0 0 1 3 1 0 9 2 3 3 2 1 0 0 0 4 3 3 2 1 1 3 1 1 3 0 0 0 3 0 1 3 2 1 3 0 3 2 0 0 1 0 1 3 0 1 1 486 2 1 0 1 0 0 0 2 1 488 0 2 2 0 2 1 2 1 2 3 0 3 1 2 3 0 3 0 0 1 0 2 1 0 0 2 3 2 2 2 4 0 1 3 1 490 1 1 3 1 3 2 0 3 3 2 4 1 2 2 1 491 0 0 4 0 0 4 3 0 15 1 11 5 4 5 1 3 4 4 0 1 5 0 1 1 6343 0 1 2 1 0 0 1 2 4 4 0 1 8 2 0 0 1 0 0 0 1 0 0 1 0 0 4 3 2 2 5 0 1 977 2 2 0 1 1 0 0 1 3 1 1 1 1 4 0 2 1 3 1 2 0 982 0 3 1 4 1 3 0 2 1 1 2 1 0 488 1 0 3 2 1 0 0 1 1 4 1 3 3 0 0 1 0 2 1 1 1 3 1 1 0 5 0 1 3 7799 3 3 3 2 1 1 972 0 0 7 1 1 0 4 973 0 1 6 2 1 0 2 974 2 1 1 1464 2 1 0 973 1 1 1 4 4 3 3 4 0 2 0 2 1 972 0 1 0 0 1 2 0 1 973 0 1463 1 0 2 1 0 1 1 0 1 1 1 0 3 2 2 977 0 1 1 4 1 1 0 1 2 1 2 1 0 2 1 1 971 0 0 1 3 0 1 2 3 1 0 1 1 0 2 0 1 3 1 0 0 2 4 0 0 1 2 3 4 1 1 2 2 0 0 3 3 5 4 0 0 1 33 0 0 4 3 3 1 1 0 2 2 1 2 1 1 3 4 0 5 0 2 1 0 3 1 2 0 0 3 3 0 1 0 2 1 1 1 1 92 1 1 2 1 3 0 1 0 3 2 0 1 0 1 0 1 3 2 3 0 2 0 5 1 3 2 0 0 1 0 0 0 0 1 6 1 1 0 2 0 1 1 1 4 1 0 3 2 3 1 2 1 3 0 0 0 1 2 0 0 3 0 1 3 1 1 8 0 1 1 1 0 0 1 1 4 0 1 0 5 3 3 0 0 1 2 0 1 1 2 4 1 3 1 2 0 3 0 2 1 3 1 4 490 2 1 48 2 0 1 1 1 0 979 3 2 1 2 2 1 1 0 4 1 2 0 11 5 2 1 2 487 2 2 4 5 1143 2 2 2 1 1 0 377 2 1 3 4 1 2 3 2 1 4 1 2 1 2 4 1 3 1 1 2 2 1 3 3 1 8 0 1 2 1 2 3 4 4 0 1 1948 0 2444 0 1 3 3 5 1 4 3 2 3179 4 0 2 2 1 1 1 3 4 2 1 3 0 0 1 1 0 2 0 1 5 0 2 5 1 3 3 0 1 3 2 1 381 2 2 3 3 0 1 3 0 2 0 1 2 3 5 1 4 3 2 0 1 7809 0 1 1 1 1 2 5 1 4 3 3 3 4 1 4 3 2 1 0 4 0 2 2 1 19 1 0 4 1 1 1 490 1 1 2 3 3 2 2 2 1 2 5 6 2 1 2 1 1 3 2 1 4 1 3 2 1 3 5 0 1 4 1 0 2 1 0 1 2 1 1 1 3 1 3 2 0 1 1 3 3 1 0 2 0 0 3 2 1 2 2 1 4 0 1 4 0 3 2 1 2 3 8 2 4 0 2434 4 0 3 1 2 0 0 1 489 0 1 1 3 144 1 0 0 487 3 1 1 2 0 0 1 4 1 4 2 3 0 2 0 0 2 7 1003 0 6 0 0 1 2 2 4 0 2 972 2 1 1 1 0 6 1 3 0 1 2 2431 3 1 2 2 0 2 4 1969 2 3 3 2 0 0 3 3 4 1 2 2 1 1 3 2 4 1 1 1 1 1 3420 3 4 0 0 2 1 1 2 1 3 0 0 1 2 1465 2 0 3 1 1 0 1 1 19 0 1 1 0 4 2 0 2 1 3 3 1 1 3 1 3 2 0 3 2 2 0 3 1 1 2 3 1 1 0 2 1 1 1 2 1 2 3 1 1 2 0 1 9 0 2 2 0 1 1 1 3 2 3 0 2 0 1 1 2 2 3 1 1 1 1 4 1 3 2 1 2 0 1 1 1 3 1 2 1 1 1 3 0 1 3 2 3 1 4 2 1 0 2 2 3 2 1 1 3 0 16 2 1 3 1 0 3 115 2 2 2 3 0 2 2 2 1 3 2 2 0 4 1 4 2 1 4 1 0 2 1463 0 1 1355 1 1 1 0 0 2 0 0 4 1353 0 3 1 3 4 1 1 0 1 1 1 0 1 0 0 3 3 0 1 0 0 1 1 0 0 0 0 0 0 0 0 0 1 0 2 0 1 0 1 0 1 0 0 5 33 0 1 1 5 1 1 0 1 2 115 0 5 0 1 1 1 1 1 0 2 0 3 373 0 1 6 0 0 1 0 3 1 2 1 1 25 3 2 2 0 1 1 0 0 0 3 0 1 1 0 0 0 1 0 1 1 0 1 431 2 1 1 1 2 2 1 2 1 0 0 2 1 0 0 1 2 1 8 1 0 1 1 7 3 0 0 1 2 2 0 0 3 2 3 0 2 1 2 2 1 2 3 2 1942 0 1 0 2 2 1 26 3 3 2 4 1471 0 0 2 1464 1 1 1 1 1 2 0 2 977 0 1 2 0 1 1 3 3 2 2 3 2919 1 1 4 0 6 5 2 1 2 1 3 3 1 1 1 291 2 1 1 5 2 1 2 1 1 3 5 1 1 0 2 0 2 1 2 3 0 0 1 1 0 2 4 1 0 2 3 0 1 3 1 1 972 3 1 0 0 3 2 973 0 0 0 3 487 0 2 1 3 3 3 1 620 1 2 5383 3 2 14633 973 1 3 3 2 1 1 0 0 0 3 3 2 2 0 0 3 3 1 169 2 1 0 1 1464 161 3 2 1 3 2 1 811 0 2 0 1 2 1 0 0 0 675 0 1 3 0 3 0 4 1 1 0 2 1 1 3 0 3 0 0 0 1 1 1 4 0 1 579 0 1 2 1 0 1 2 0 978 1 1 1 2 2 3 0 4 0 0 1 2 1463 1 2876 1 0 2 1 3 3 1 2 1779 2 427 3 0 2 0 3 177 4 81 0 2 1 1941 0 226 0 3 1465 2 2 2 1 1 0 1 2 0 2 0 1 2 4 2 1 4 374 2 4 980 0 1 0 3 1 3 2 3 2 2 1 0 2 226 2 1 0 1 2 0 0 0 1 0 1 1 2 0 2 2 1 3 6 2 1 2 2 3 0 1 2 2 1 0 2 2 2 2 0 0 1 0 0 1 0 0 1 1 1 2 1 1 2 0 0 0 2 1 1 1 0 3 1 2 2 116 0 1 1 0 1 1 2 1 2 1 0 1 0 2 1 0 1 2 1 3 2 2 2 0 3 0 1 0 0 2 2 0 7 1465 4 0 2 2 1833 1 0 0 1 6 4 2 0 3 0 3 1 0 0 2 3 7 2911 2 0 5 0 1 1 1 1 2 1 0 2 0 1 2 2 3 0 0 4 4 1 0 0 2 3 1 0 3 3 1 0 3 3 0 1 1 4 0 0 0 4 1 1 3 1 1 2 2 2 2 0 2 1 219 1 2 1 0 2 1487 2 3 0 1 3 2 0 1 0 2 1 1 0 0 0 4 2 1 2 1 2 2 1465 3 5 2 1 3 3 0 2 2 1 6 6 2 2 5 2 2928 2 1 2 3 2 1 3 4902 2 2 2 2 3 2 1 1 1 8 1 1 0 2 2 0 2 0 1 1 0 1 2 1 3 0 0 0 2 1 3 1 0 0 2 1 1 0 0 0 3 1 1 0 1 3 1 1 2 0 0 2 1 1 2 2 1 1 0 1 0 0 1 0 2 1 0 0 5 1 3 1 2 3 1 2 2 0 0 0 1 1 0 4 3 2 2 3 3 3 2 2 1 2 1 4 1 1 2 1 5 1 3 1 1 4 3 2 3 2 0 3 1 3 1 6 989 5 3 2 1955 2 1 4 0 1 0 2 1 0 1 2 4 2 0 2 1 1 1 2 3 1 1 1 3 1 2 2 2 3 5 1 2 4 4 1 2 3 1 6 4 1 1468 2 1 3 3 3 3 1 1 3 4 3 0 1 1 1 1 1 2 1 1 0 1 3 1 2 2 2 1 1 2 0 1 0 0 4 2 5 9 0 0 1 2 1 1 0 2 2 3 1 2 2 4 2 1 2 0 1463 2 0 1 2 1 1 0 1 1 2 0 0 1 0 1 5 0 13 1 3 2 1 2 0 0 0 3 0 3 1 0 8 1 4 1 1 1 0 1 1 0 1 0 3 4 1 0 1 0 2 4 4 5 1 3 2 993 1 2 2 0 4 5 2 1 1 0 0 3 2 1 1 0 1 0 1 0 1 3 4 0 0 1 4 3 2 4 3 1 3 2 1 0 1 1 2 3 1 3 5 4 0 1 2 1 0 1 0 4 3 2 1 2 1 1 24 3 1 2 5 2 6 1 2 0 5 3 2 0 1 1 1466 0 1 1 1 1 1 1 1 6 2 0 1 0 1 2 5 2 977 2 110 2 0 1 0 0 1 3 3 0 7 0 1 3 148 2 8 1 3 2 1 2 3 1 3 0 2 1 3 21 1 1 2 1 1 3 2 2 2 1 0 1 497 1 0 3 1 5 1 3 4 2 2 0 0 3 28 1 0 0 5 4 1 1 2 0 1 0 0 2 1 0 3 0 2 1 3 2 0 7 4 2 0 1 2 11 1 0 1 0 1 2 2 1 0 0 0 4 0 1 1 2 3 1 2 1466 1 1 3 3 0 3 3 2 0 2 1 6 2 0 2 1 1 1 2 1 3 5 0 1 2 0 2 1927 4 3 1 4 1 2 2 1 2 3 1 2 5 0 1 1 4 1 0 3 0 3 2 5 1 2 3 2 3 24 4 29 1 0 0 0 0 2403 3 1 3 6 2 0 1 1 2 2 2 0 4 2 3 3 1 3 2 3 0 2 3 1 0 1 0 2 0 0 1 0 2 487 3 2 0 2 1 3 1 3 2 1465 4 1 3 1 2 3 1 1 3 0 1 1 0 0 2 3 2 4 2 1 2 1 2 0 1 3 1 0 4 0 2 1 4 4 2930 2 2 4 1 2 3 4 1 4 3 2 0 1 2 2 3 0 3 3 4 1 2 2 1 4 1 3 1 0 3 1 5 42 0 4 0 1 2 1 3 0 3 1 2 2 5 0 0 1 27 1 0 1 1 0 0 0 3 0 0 3 2 1 3 2 1 1 1 3 0 4 1 2 0 1 1 2 1 3 487 1 1 0 0 2 0 2 2 1 0 3 3 1 2 2 1 3 4 3 23 1 2 2 3 1 0 128 2 3 2 1 0 2 2 5 0 4 19 3 0 0 0 2 1 1 4 1 2 5 6 1 1 2 3 1 3 3 1948 3 2 1 3 1 1 1 3 0 3 2 0 2 0 1 1 2 3 2 0 0 1 1 3 0 2 0 1 1 5 4 1 1 2 0 2 0 4 1468 1 10 3 2 2 4 4 2 2 5 2 3 3 2 4 4 2 4867 2 0 10 978 2 4 3 4 0 2 2 5 3 0 0 1 2 3 1 4 4 4 97 3 1 0 2 5 2 2 3 2 2 0 2 3 0 0 5 2 1 57 5 3 3 4 3 0 2 1 0 3 0 3 0 0 4 0 2 4 2 2 6 1 0 2 3 59 1 491 8 1231 3 3 1947 3 2 5 3 1 0 1 2 5 5 242 2 1 742 0 1 3 1 3 2 3 2 1 0 1 2 4 0 2 1 2 4 1 1 2 0 2 3 0 980 1 0 1 4 3 488 1 1 0 1 3 1 1 2 4 1 1941 2 3 2 3 2 1 1 1 2 1 0 2 1 1 3 1 3 3 1 378 974 0 2 0 1 1 2 1 2 1 2 1 1 1 1 2 2 4 6 2 0 2 3 1 2 1 1 2 3 1 1 2 1 4 1 3 0 2 0 1 1466 1 0 0 1 1 3 1 0 1 2 1 2 1 0 2 1 4 2 2 2 0 3 1 1 4 0 1 3 111 2 3 0 2 2 3 1 1 0 0 0 1 1 0 3 2 2 4 3 1 3 4 35 1 2 3 4 2 2 5 2 2 4 0 3 2 3 2 3 1 3 2 3 4 2 2 7 4 2 2 2 0 1 1 1 4 2 2 1 1 2 2 1 2 490 0 1 2 3 1 4 0 8 1 2 3 1 1 3 6 1 3 1 2 1 3 2 2 4 3 0 2 2 3 0 5 1 1 5 3 2 1 980 0 3 2 1 1 3 4 2 0 1 0 1 1 2 0 1 2 2 1 3 4 1 1 1 1 3 4 0 3 3 2 0 2 2 0 3 0 1 3 3 1 1 1 1 0 3 0 0 1 4 1 2 1 1 3 4 1 4 0 2 1 3 5 4634 2 1 1466 4 3 1 1 0 2 3 3 0 0 4 3 1 3 2 2 0 3 1 1 2 500 1 4 4 4 0 1 3 1 1 1 3 1 4 1213 977 4 0 2 3 5 1 4 1 2429 3 1 1 1 1 3 5 2 1 2 3 3 11 2 3 2 489 2 3 9 1 71 3 3 1 1 2 1 3 2 2 1 5 2 2 0 2 0 0 1 3 2919 2 2 1 2 2 2 4 2 2 1 1 1 1 3 4 1 3 1 4 3 1 0 1 2 0 1 0 3 0 4 4 0 1 1 3 977 2 2 6 1 3 37 1 5 1 4 1 1 4 2 1 1 3 1 5 0 0 0 3 2 1 3 3 4 2 7 2 1 2 0 1 0 3 0 3 1 2 1 1 9 0 1 0 1 1 2 3 0 3 2 3 0 2 0 493 1 0 1 4 1 0 2 1 2 1 0 4 3 0 2 1 2 1 2 2425 2 3 3 2 3 2 3 2 1 2 0 5 2 2 979 3 1 2 1 5 1 2 4 2 5 1 3 970 1 8 0 4 2 1458 0 0 5 1 2 3 6 4 2 20493 0 0 1 2 0 0 2 1 3 251 2 1 0 3 2 1 3 1 4 0 2 1 2 4 0 0 0 1 2 2 1 0 5 1 2 2 2 1 2 0 7 3 3 3 0 2 0 3 4 3 2 1 2 1 2 0 3 1 1 2 0 2 2 0 2 1 0 3 2 3 2188 3 2 2 1 2 0 1 3 978 1 0 0 1 1 1 2 2 2 2 5 2 0 4 1 5 2 5 0 0 9 0 1 14 3 0 4 1 2 3 3 2 3 0 2 0 4 3 1 0 5 2 3 2 4 3 1 5 0 1 6 2 4 2 1 2 2 4 3 2 3 1 24 2 1 376 0 1464 2 3 222 1 2 2 0 0 3 1 2 2 1 1 0 1 4 1 2 1 6 3 1 488 2 7 0 3 5 2 0 4 1 490 3 1949 1 1 4 0 3 2 5 4 4 1 4 0 2 3 0 488 2 1 2 2 2 1 2 0 4 1 376 1463 2 2 2 0 2 2 1 1 2 0 3 3 2 1 1 2 2916 0 1466 2 2 2 2 1 3 1 4 1 3 1 3 3 3 3 1 3 0 2 10 0 4405 0 1234 2 1 1 2 1 0 2 1 2 2 3 3 2 2 2 0 2 3 3 1 2 2 0 2 0 3 1942 978 1 3 4 1 2 1 4 1 1 1 2 3 0 2 3 0 0 2 1 1 2 0 1 1 1 1 1 2 1 3 1 4 3 2 0 1 0 2 1 1 2 2 0 0 0 1 3 2 2 3 2 1 1 490 0 1 0 2 3 3 0 1 3 0 1 1 0 1 1 2 2 1 1 0 19 1 0 2 1 0 0 1 3 2 2 3 2 1 2 1 2 4 1 3 1 3 2 1 1 0 2 0 0 1 2 2 4 971 2 4 3 1 1 2 1 2 0 2 4 0 1 1 2 1 3 4 3 1 1 1 4 2 2 2 2 1 2 3163 1 1 1233 4 2 2 2 0 2 4 2 2 4 0 4 0 0 2 2 973 2 3 1 2 2 3 2 173 4 0 0 4 2 0 0 2 0 0 2 2 1 1 2 1 4 0 2 1 0 0 2 1 2 2 1321 3 1 2 1 489 1 1 1 5 5 0 0 2 0 5 1 0 0 0 3 5 3 2 0 0 3 1 1 0 2 1 1 2 1 2 2 1 2 5 2 1 1 29 1 2 2 1 2 0 1 2 2 1 2 2 1 0 1 1 3 1 5 2 2 1 2 1 6 2 1 0 
