
*** ChampSim Multicore Out-of-Order Simulator ***

Warmup Instructions: 50000000
Simulation Instructions: 50000000
Number of CPUs: 1
LLC sets: 2048
LLC ways: 16
Off-chip DRAM Size: 4096 MB Channels: 1 Width: 64-bit Data Rate: 6400 MT/s
CPU 0 runs ./micro_traces/srv684.trace.gz
.gz
ITLB has LRU replacement policy
DTLB has LRU replacement policy
STLB has LRU replacement policy
CPU 0 L1I next line prefetcher
L1I has LRU replacement policy
L1D has LRU replacement policy
Initialize SRRIP state for L2C
Initialize DRRIP state for LLC
Heartbeat CPU 0 instructions: 10000002 cycles: 2798337 heartbeat IPC: 3.57355 cumulative IPC: 3.57355 (Simulation time: 0 hr 1 min 44 sec) 
Heartbeat CPU 0 instructions: 20000002 cycles: 5595976 heartbeat IPC: 3.57444 cumulative IPC: 3.574 (Simulation time: 0 hr 3 min 22 sec) 
Heartbeat CPU 0 instructions: 30000003 cycles: 8392151 heartbeat IPC: 3.57631 cumulative IPC: 3.57477 (Simulation time: 0 hr 4 min 58 sec) 
Heartbeat CPU 0 instructions: 40000003 cycles: 11187997 heartbeat IPC: 3.57674 cumulative IPC: 3.57526 (Simulation time: 0 hr 6 min 36 sec) 
Heartbeat CPU 0 instructions: 50000001 cycles: 13984841 heartbeat IPC: 3.57546 cumulative IPC: 3.5753 (Simulation time: 0 hr 8 min 13 sec) 

Warmup complete CPU 0 instructions: 50000001 cycles: 13984841 (Simulation time: 0 hr 8 min 13 sec) 

Cycle: 20000000 FTQ IN: 57571345 FTQ occupancy: 17.8934 DECODE IN: 57571345 DECODE occupancy: 47.1802 ROB IN: 57571345 ROB occupancy: 297.005 ROB OUT: 57571211
Heartbeat CPU 0 instructions: 60000000 cycles: 21932781 heartbeat IPC: 1.25819 cumulative IPC: 1.25819 (Simulation time: 0 hr 9 min 38 sec) 
Heartbeat CPU 0 instructions: 70000000 cycles: 29776624 heartbeat IPC: 1.27489 cumulative IPC: 1.26648 (Simulation time: 0 hr 11 min 2 sec) 
Cycle: 30000000 FTQ IN: 12709224 FTQ occupancy: 5.96486 DECODE IN: 12709224 DECODE occupancy: 17.2183 ROB IN: 12709224 ROB occupancy: 174.977 ROB OUT: 12709331
Heartbeat CPU 0 instructions: 80000003 cycles: 37713193 heartbeat IPC: 1.25999 cumulative IPC: 1.26431 (Simulation time: 0 hr 12 min 27 sec) 
Cycle: 40000000 FTQ IN: 12603837 FTQ occupancy: 6.15689 DECODE IN: 12603837 DECODE occupancy: 17.4602 ROB IN: 12603817 ROB occupancy: 175.47 ROB OUT: 12603796
Heartbeat CPU 0 instructions: 90000002 cycles: 45593689 heartbeat IPC: 1.26896 cumulative IPC: 1.26547 (Simulation time: 0 hr 13 min 53 sec) 
Cycle: 50000000 FTQ IN: 12741328 FTQ occupancy: 6.02203 DECODE IN: 12741328 DECODE occupancy: 17.2175 ROB IN: 12741348 ROB occupancy: 174.195 ROB OUT: 12741370
Heartbeat CPU 0 instructions: 100000000 cycles: 53497929 heartbeat IPC: 1.26514 cumulative IPC: 1.2654 (Simulation time: 0 hr 15 min 17 sec) 
Finished CPU 0 instructions: 50000003 cycles: 39513089 cumulative IPC: 1.2654 (Simulation time: 0 hr 15 min 17 sec) 

ChampSim completed all CPUs

Region of Interest Statistics

CPU 0 cumulative IPC: 1.2654 instructions: 50000003 cycles: 39513089
 Fetch stage stalled: 66.35  Sim cycles: 39513089 fetch stall cycle: 26216944
 Empty decode stage: 49.101  Sim cycles: 39513089 fetch stall cycle: 19401310
ITLB TOTAL     ACCESS:    7541795  HIT:    6936890  MISS:     604905  HIT %:    91.9793  MISS %:     8.0207   MPKI: 12.0981
ITLB LOAD TRANSLATION INSTRUCTION	ACCESS:    5816618  HIT:    5685023  MISS:     131595  HIT %:    97.7376  MISS %:     2.2624  MPKI: 2.6319
ITLB TRANSLATION FROM L1D PREFETCHER INSTRUCTION	ACCESS:    1725177  HIT:    1251867  MISS:     473310  HIT %:    72.5646  MISS %:    27.4354  MPKI: 9.4662

ITLB AVERAGE MISS LATENCY: 134014 cycles
ITLB RQ	ACCESS:   11438605	FORWARD:          0	MERGED:    3742696	TO_CACHE:    7695909

DTLB TOTAL     ACCESS:    9113576  HIT:    8643618  MISS:     469958  HIT %:    94.8433  MISS %:    5.15668   MPKI: 9.39916
DTLB LOAD TRANSLATION DATA	ACCESS:    9113576  HIT:    8643618  MISS:     469958  HIT %:    94.8433  MISS %:    5.15668  MPKI: 9.39916

DTLB AVERAGE MISS LATENCY: 9.34549 cycles
DTLB RQ	ACCESS:   13448528	FORWARD:          0	MERGED:    4299139	TO_CACHE:    9149389

STLB TOTAL     ACCESS:    1326594  HIT:    1324510  MISS:       2084  HIT %:    99.8429  MISS %:   0.157094   MPKI: 0.04168
STLB LOAD TRANSLATION INSTRUCTION	ACCESS:     129203  HIT:     129043  MISS:        160  HIT %:    99.8762  MISS %:   0.123836  MPKI: 0.0032
STLB TRANSLATION FROM L1D PREFETCHER INSTRUCTION	ACCESS:     475702  HIT:     475595  MISS:        107  HIT %:    99.9775  MISS %:  0.0224931  MPKI: 0.00214
STLB LOAD TRANSLATION DATA	ACCESS:     469957  HIT:     468165  MISS:       1792  HIT %:    99.6187  MISS %:   0.381311  MPKI: 0.03584
STLB TRANSLATION FROM L1D PREFETCHER DATA	ACCESS:     251732  HIT:     251707  MISS:         25  HIT %:    99.9901  MISS %:  0.0099312  MPKI: 0.0005

STLB AVERAGE MISS LATENCY: 77.6972 cycles
STLB RQ	ACCESS:    1451800	FORWARD:          0	MERGED:     122088	TO_CACHE:    1329712

STLB Hit, L1D data hit: 0
STLB Hit, L2C data hit: 0
STLB Hit, LLC data hit: 0
STLB Hit, LLC data miss: 0
STLB STLB hints to L2: 0
L1D TOTAL     ACCESS:   13188154  HIT:   12069695  MISS:    1118459  HIT %:    91.5192  MISS %:    8.48079   MPKI: 22.3692
L1D LOAD DATA	ACCESS:    6645418  HIT:    5909698  MISS:     735720  HIT %:    88.9289  MISS %:    11.0711  MPKI: 14.7144
L1D RFO DATA	ACCESS:    6211985  HIT:    5924506  MISS:     287479  HIT %:    95.3722  MISS %:    4.62781  MPKI: 5.74958
L1D PREFETCH DATA	ACCESS:     330751  HIT:     235491  MISS:      95260  HIT %:    71.1989  MISS %:    28.8011  MPKI: 1.9052

L1D PREFETCH  REQUESTED:     748199  ISSUED:     748199  USEFUL:      35170  USELESS:      69293
L1D USEFUL LOAD PREFETCHES:      35170 PREFETCH ISSUED TO LOWER LEVEL:     104483  ACCURACY: 33.661
 TIMELY PREFETCHES:      35170 LATE PREFETCHES: 9179 DROPPED PREFETCHES: 6
L1D AVERAGE MISS LATENCY: 279020 cycles
L1D RQ	ACCESS:   10772040	FORWARD:          0	MERGED:    3919922	TO_CACHE:    6687272
L1D WQ	ACCESS:    6948049	FORWARD:     165345	MERGED:     186793	TO_CACHE:    6761256
L1D PQ	ACCESS:     374349	FORWARD:          0	MERGED:          0	TO_CACHE:     373850

L1D UNIQUE REGIONS ACCESSED: 0
L1D REGIONS CONFLICTS: 0
L1D Cross Page Prefetch Requests: 6252
L1D Same Page Prefetch Requests: 746841
L1D ROI Sum of L1D PQ occupancy: 4761778
L1D PREFETCHES PUSHED FROM L2C: 0
L1I TOTAL     ACCESS:   11051725  HIT:    7428197  MISS:    3623528  HIT %:     67.213  MISS %:     32.787   MPKI: 72.4706
L1I LOAD INSTRUCTION	ACCESS:    6564817  HIT:    5980195  MISS:     584622  HIT %:    91.0946  MISS %:    8.90538  MPKI: 11.6924
L1I PREFETCH INSTRUCTION	ACCESS:    4486908  HIT:    1448002  MISS:    3038906  HIT %:    32.2717  MISS %:    67.7283  MPKI: 60.7781

L1I PREFETCH  REQUESTED:    5160252  ISSUED:    5160066  USEFUL:    2349916  USELESS:     776005
L1I USEFUL LOAD PREFETCHES:    2349916 PREFETCH ISSUED TO LOWER LEVEL:    3125907  ACCURACY: 75.1755
 TIMELY PREFETCHES:    2349916 LATE PREFETCHES: 87002 DROPPED PREFETCHES: 9512
L1I AVERAGE MISS LATENCY: 812338 cycles
L1I RQ	ACCESS:    9437109	FORWARD:          0	MERGED:    2830382	TO_CACHE:    6606727
L1I PQ	ACCESS:    5160066	FORWARD:          0	MERGED:     328188	TO_CACHE:    4831878

L1BTB TOTAL     ACCESS:    5669330  HIT:    2046310  MISS:    3623020  HIT %:    36.0944  MISS %:    63.9056   MPKI: 72.4604
L1BTB BRANCH_DIRECT_JUMP	ACCESS:     548084  HIT:     144933  MISS:     403151	AVERAGE STALL: 23.3192
L1BTB BRANCH_INDIRECT	ACCESS:     182935  HIT:      65984  MISS:     116951	AVERAGE STALL: 111.641
L1BTB BRANCH_CONDITIONAL	ACCESS:    2709702  HIT:    1419128  MISS:    1290574	AVERAGE STALL: 27.9975
L1BTB BRANCH_DIRECT_CALL	ACCESS:     943084  HIT:     105165  MISS:     837919	AVERAGE STALL: 28.0184
L1BTB BRANCH_INDIRECT_CALL	ACCESS:     171217  HIT:      21021  MISS:     150196	AVERAGE STALL: 126.606
L1BTB BRANCH_RETURN	ACCESS:    1114308  HIT:     290079  MISS:     824229	AVERAGE STALL: 29.9217
L1BTB BRANCH_OTHER ACCESS:          0  HIT:          0  MISS:          0	AVERAGE STALL: -nan
L1BTB TOTAL ROB OCCUPANCY AT BTB MISS: 16.8376

L2BTB1 TOTAL     ACCESS:    3597618  HIT:    3190007  MISS:     407611  HIT %:      88.67  MISS %:      11.33   MPKI: 8.15222
L2BTB1 BRANCH_DIRECT_JUMP	ACCESS:     398969  HIT:     362226  MISS:      36743	AVERAGE STALL: 23.3192
L2BTB1 BRANCH_INDIRECT	ACCESS:     106691  HIT:      84433  MISS:      22258	AVERAGE STALL: 111.641
L2BTB1 BRANCH_CONDITIONAL	ACCESS:    1290574  HIT:    1180139  MISS:     110435	AVERAGE STALL: 27.9975
L2BTB1 BRANCH_DIRECT_CALL	ACCESS:     837919  HIT:     723952  MISS:     113967	AVERAGE STALL: 28.0184
L2BTB1 BRANCH_INDIRECT_CALL	ACCESS:     140644  HIT:     116091  MISS:      24553	AVERAGE STALL: 126.606
L2BTB1 BRANCH_RETURN	ACCESS:     822821  HIT:     723166  MISS:      99655	AVERAGE STALL: 29.9217
L2BTB1 BRANCH_OTHER ACCESS:          0  HIT:          0  MISS:          0	AVERAGE STALL: -nan
L2BTB1 TOTAL ROB OCCUPANCY AT BTB MISS: 149.66

L2C TOTAL     ACCESS:    6584412  HIT:    5625078  MISS:     959334  HIT %:    85.4302  MISS %:    14.5698   MPKI: 19.1867
L2C LOAD INSTRUCTION	ACCESS:     497621  HIT:     407937  MISS:      89684  HIT %:    81.9774  MISS %:    18.0226  MPKI: 1.79368
L2C PREFETCH INSTRUCTION	ACCESS:    3125906  HIT:    2776054  MISS:     349852  HIT %:     88.808  MISS %:     11.192  MPKI: 6.99704
L2C LOAD TRANSLATION INSTRUCTION	ACCESS:        178  HIT:         49  MISS:        129  HIT %:    27.5281  MISS %:    72.4719  MPKI: 0.00258
L2C TRANSLATION FROM L1D PREFETCHER INSTRUCTION	ACCESS:       4557  HIT:       4331  MISS:        226  HIT %:    95.0406  MISS %:     4.9594  MPKI: 0.00452
L2C LOAD DATA	ACCESS:     726481  HIT:     580648  MISS:     145833  HIT %:    79.9261  MISS %:    20.0739  MPKI: 2.91666
L2C RFO DATA	ACCESS:     287412  HIT:     206700  MISS:      80712  HIT %:    71.9177  MISS %:    28.0823  MPKI: 1.61424
L2C PREFETCH DATA	ACCESS:    1417984  HIT:    1163566  MISS:     254418  HIT %:    82.0578  MISS %:    17.9422  MPKI: 5.08836
L2C WRITEBACK DATA	ACCESS:     522362  HIT:     485343  MISS:      37019  HIT %:    92.9132  MISS %:    7.08685  MPKI: 0.74038
L2C LOAD TRANSLATION DATA	ACCESS:       1865  HIT:        421  MISS:       1444  HIT %:    22.5737  MISS %:    77.4263  MPKI: 0.02888
L2C TRANSLATION FROM L1D PREFETCHER DATA	ACCESS:         46  HIT:         29  MISS:         17  HIT %:    63.0435  MISS %:    36.9565  MPKI: 0.00034

L2C PREFETCH  REQUESTED:    3240048  ISSUED:    3240048  USEFUL:      33909  USELESS:     572825
L2C USEFUL LOAD PREFETCHES:      33909 PREFETCH ISSUED TO LOWER LEVEL:     605975  ACCURACY: 5.59578
 TIMELY PREFETCHES:      33909 LATE PREFETCHES: 1705 DROPPED PREFETCHES: 0
L2C AVERAGE MISS LATENCY: 34.2027 cycles
L2C RQ	ACCESS:    1518243	FORWARD:          0	MERGED:          0	TO_CACHE:    1518161
L2C WQ	ACCESS:     522363	FORWARD:         83	MERGED:          0	TO_CACHE:     522363
L2C PQ	ACCESS:    6470438	FORWARD:          0	MERGED:    1907175	TO_CACHE:    4563262

L2C Dense regions hint from L2: 0
PSCL5 TOTAL     ACCESS:      10362  HIT:       5181  MISS:       5181  HIT %:         50  MISS %:         50   MPKI: 0.10362
PSCL5 LOAD TRANSLATION INSTRUCTION	ACCESS:       3886  HIT:       1943  MISS:       1943  HIT %:         50  MISS %:         50  MPKI: 0.03886
PSCL5 TRANSLATION FROM L1D PREFETCHER INSTRUCTION	ACCESS:       6476  HIT:       3238  MISS:       3238  HIT %:         50  MISS %:         50  MPKI: 0.06476


PSCL4 TOTAL     ACCESS:       9566  HIT:       4778  MISS:       4788  HIT %:    49.9477  MISS %:    50.0523   MPKI: 0.09576
PSCL4 LOAD TRANSLATION INSTRUCTION	ACCESS:       2259  HIT:       1796  MISS:        463  HIT %:    79.5042  MISS %:    20.4958  MPKI: 0.00926
PSCL4 TRANSLATION FROM L1D PREFETCHER INSTRUCTION	ACCESS:       3709  HIT:       2982  MISS:        727  HIT %:     80.399  MISS %:     19.601  MPKI: 0.01454
PSCL4 LOAD TRANSLATION DATA	ACCESS:       1343  HIT:          0  MISS:       1343  HIT %:          0  MISS %:        100  MPKI: 0.02686
PSCL4 TRANSLATION FROM L1D PREFETCHER DATA	ACCESS:       2255  HIT:          0  MISS:       2255  HIT %:          0  MISS %:        100  MPKI: 0.0451


PSCL3 TOTAL     ACCESS:       9600  HIT:       4795  MISS:       4805  HIT %:    49.9479  MISS %:    50.0521   MPKI: 0.0961
PSCL3 LOAD TRANSLATION INSTRUCTION	ACCESS:       2276  HIT:       1813  MISS:        463  HIT %:    79.6573  MISS %:    20.3427  MPKI: 0.00926
PSCL3 TRANSLATION FROM L1D PREFETCHER INSTRUCTION	ACCESS:       3709  HIT:       2982  MISS:        727  HIT %:     80.399  MISS %:     19.601  MPKI: 0.01454
PSCL3 LOAD TRANSLATION DATA	ACCESS:       1360  HIT:          0  MISS:       1360  HIT %:          0  MISS %:        100  MPKI: 0.0272
PSCL3 TRANSLATION FROM L1D PREFETCHER DATA	ACCESS:       2255  HIT:          0  MISS:       2255  HIT %:          0  MISS %:        100  MPKI: 0.0451


PSCL2 TOTAL     ACCESS:       7845  HIT:       3871  MISS:       3974  HIT %:    49.3435  MISS %:    50.6565   MPKI: 0.07948
PSCL2 LOAD TRANSLATION INSTRUCTION	ACCESS:       2032  HIT:       1858  MISS:        174  HIT %:     91.437  MISS %:    8.56299  MPKI: 0.00348
PSCL2 TRANSLATION FROM L1D PREFETCHER INSTRUCTION	ACCESS:       3985  HIT:       2013  MISS:       1972  HIT %:    50.5144  MISS %:    49.4856  MPKI: 0.03944
PSCL2 LOAD TRANSLATION DATA	ACCESS:       1787  HIT:          0  MISS:       1787  HIT %:          0  MISS %:        100  MPKI: 0.03574
PSCL2 TRANSLATION FROM L1D PREFETCHER DATA	ACCESS:         41  HIT:          0  MISS:         41  HIT %:          0  MISS %:        100  MPKI: 0.00082


LLC TOTAL     ACCESS:    1049625  HIT:    1018563  MISS:      31062  HIT %:    97.0407  MISS %:    2.95934   MPKI: 0.62124
LLC LOAD INSTRUCTION	ACCESS:      89026  HIT:      88677  MISS:        349  HIT %:     99.608  MISS %:    0.39202  MPKI: 0.00698
LLC PREFETCH INSTRUCTION	ACCESS:     347784  HIT:     347052  MISS:        732  HIT %:    99.7895  MISS %:   0.210475  MPKI: 0.01464
LLC LOAD TRANSLATION INSTRUCTION	ACCESS:        129  HIT:        107  MISS:         22  HIT %:    82.9457  MISS %:    17.0543  MPKI: 0.00044
LLC TRANSLATION FROM L1D PREFETCHER INSTRUCTION	ACCESS:        226  HIT:        206  MISS:         20  HIT %:    91.1504  MISS %:    8.84956  MPKI: 0.0004
LLC LOAD DATA	ACCESS:     144802  HIT:     141176  MISS:       3626  HIT %:    97.4959  MISS %:    2.50411  MPKI: 0.07252
LLC RFO DATA	ACCESS:      80686  HIT:      65262  MISS:      15424  HIT %:    80.8839  MISS %:    19.1161  MPKI: 0.30848
LLC PREFETCH DATA	ACCESS:     258191  HIT:     247746  MISS:      10445  HIT %:    95.9545  MISS %:    4.04545  MPKI: 0.2089
LLC WRITEBACK DATA	ACCESS:     127320  HIT:     126973  MISS:        347  HIT %:    99.7275  MISS %:   0.272542  MPKI: 0.00694
LLC LOAD TRANSLATION DATA	ACCESS:       1444  HIT:       1348  MISS:         96  HIT %:    93.3518  MISS %:     6.6482  MPKI: 0.00192
LLC TRANSLATION FROM L1D PREFETCHER DATA	ACCESS:         17  HIT:         16  MISS:          1  HIT %:    94.1176  MISS %:    5.88235  MPKI: 2e-05

LLC AVERAGE MISS LATENCY: 163.977 cycles
LLC RQ	ACCESS:     316340	FORWARD:          0	MERGED:          0	TO_CACHE:     316330
LLC WQ	ACCESS:     127320	FORWARD:         10	MERGED:          0	TO_CACHE:     127320
LLC PQ	ACCESS:     605975	FORWARD:          0	MERGED:          0	TO_CACHE:     605975

LLC Dense regions hint to LLC: 0

RAW hits: 1868888
Loads Generated: 12640928
Loads sent to L1D: 10772040
Stores Generated: 6948049
Stores sent to L1D: 6948049
Major fault: 0 Minor fault: 2534
Allocated PAGES: 2534
I-Shadow cache 408 bytes
Touched + WorthPF tables 12288 bytes 
MMA filter 174 bytes 
FNL filter 272 bytes 
TOTAL PREFETCHER STORAGE SIZE: 31318 bytes
CPU 0 L1I next line prefetcher final stats

stream: 
stream:times selected: 1182444
stream:pref_filled: 119127
stream:pref_useful: 22335
stream:pref_late: 7423
stream:misses: 8258
stream:misses_by_poll: 0

CS: 
CS:times selected: 179599
CS:pref_filled: 54757
CS:pref_useful: 31389
CS:pref_late: 13126
CS:misses: 22789
CS:misses_by_poll: 7

CPLX: 
CPLX:times selected: 1001786
CPLX:pref_filled: 20325
CPLX:pref_useful: 4308
CPLX:pref_late: 3241
CPLX:misses: 95735
CPLX:misses_by_poll: 4

NL_L1: 
NL:times selected: 18795
NL:pref_filled: 569
NL:pref_useful: 222
NL:pref_late: 389
NL:misses: 1700
NL:misses_by_poll: 0

total selections: 2382624
total_filled: 95260
total_useful: 35170
total_late: 25810
total_polluted: 11
total_misses_after_warmup: 777586
conflicts: 5575415

test: 117744

DRAM Statistics
 CHANNEL 0
 RQ ROW_BUFFER_HIT:      10914  ROW_BUFFER_MISS:      19772
 DBUS_CONGESTED:         12
 WQ ROW_BUFFER_HIT:       1509  ROW_BUFFER_MISS:      13646  FULL:          0

 AVG_CONGESTED_CYCLE: 6

CPU 0 Branch Prediction Accuracy: 99.8221% MPKI: 0.32524 Average ROB Occupancy at Mispredict: 171.477
Branch types
NOT_BRANCH: 40858262 81.7165%
BRANCH_DIRECT_JUMP: 548084 1.09617%
BRANCH_INDIRECT: 182935 0.36587%
BRANCH_CONDITIONAL: 6181698 12.3634%
BRANCH_DIRECT_CALL: 943084 1.88617%
BRANCH_INDIRECT_CALL: 171217 0.342434%
BRANCH_RETURN: 1114308 2.22862%
BRANCH_OTHER: 0 0%

DRAM PAGES: 1048576
Allocated PAGES: 2534
Average_ROB_Occupancy: 176.592
Average_Decode_Occupancy: 17.3447
Average_FTQ_Occupancy: 6.07441
Indirect max targets: 14 Average targets: 1.14576
Branch_type:  BRANCH_DIRECT_JUMP:  Count Percentage: 4.13226 5.71712 3.64592 3.3248 10.5588 2.55252 2.64107 67.4275 
Branch_type:  BRANCH_INDIRECT:  Count Percentage: 11.7662 3.38803 2.50537 0 13.0306 2.81714 2.95616 63.5365 
Branch_type:  BRANCH_CONDITIONAL:  Count Percentage: 24.9805 3.10411 5.33893 2.7954 5.2644 2.43865 3.81637 52.2616 
Branch_type:  BRANCH_DIRECT_CALL:  Count Percentage: 0.386913 1.792 1.13216 2.51961 4.89496 2.33901 4.43141 82.5039 
Branch_type:  BRANCH_INDIRECT_CALL:  Count Percentage: 9.54083 0 2.99136 6.37671 0 2.80816 3.84641 74.4365 
Branch_type:  BRANCH_RETURN:  Count Percentage: 7.7839 1.90037 5.80012 3.38085 5.18651 3.63429 4.27394 68.04 
Branch_type:  BRANCH_DIRECT_JUMP:  Total Count: 45219 62562 39897 36383 115544 27932 28901 737854 
Branch_type:  BRANCH_INDIRECT:  Total Count: 42911 12356 9137 0 47522 10274 10781 231715 
Branch_type:  BRANCH_CONDITIONAL:  Total Count: 3085201 383371 659380 345244 650175 301184 471338 6454523 
Branch_type:  BRANCH_DIRECT_CALL:  Total Count: 7325 33926 21434 47701 92671 44282 83895 1561957 
Branch_type:  BRANCH_INDIRECT_CALL:  Total Count: 32861 0 10303 21963 0 9672 13248 256378 
Branch_type:  BRANCH_RETURN:  Total Count: 174235 42538 129830 75677 116095 81350 95668 1523010 
Number of unique branch instructions: 9822
Upper 32 bits: 
aaaa
ffff
ffff0000
Unique upper 32 bits: 3
Unique upper 36 bits: 3
Unique upper 40 bits: 5
Unique upper 44 bits: 32
Unique upper 48 bits: 154
Offset_3 4037
Offset_4 250
Offset_5 448
Offset_6 501
Offset_7 577
Offset_8 502
Offset_9 469
Offset_10 378
Offset_11 303
Offset_12 272
Offset_13 199
Offset_14 228
Offset_15 184
Offset_16 223
Offset_17 143
Offset_18 118
Offset_19 238
Offset_20 137
Offset_21 235
Offset_22 392
Offset_23 243
Offset_24 325
Offset_25 88
Offset_47 80
decode_dispatch_called: 21771795 55.1002
Dispatch_width: 0 10801561 49.6126 27.3367
Dispatch_width: 1 750206 3.44577 1.89863
Dispatch_width: 2 916446 4.20933 2.31935
Dispatch_width: 3 616402 2.8312 1.55999
Dispatch_width: 4 3081786 14.1549 7.79941
Dispatch_width: 5 392067 1.8008 0.992246
Dispatch_width: 6 5213327 23.9453 13.1939
Empty_decode_cycles: 17741294 44.8998
ROB_full_cycles: 4607930 11.6618
Starvation_cycles_per_kilo_instr: 296.918
Starvation_cycles_per_kilo_instr_3: 262.18
Starvation_cycles_per_kilo_instr_0: 239.349
Branch_type_1  (3,1)  (4,9)  (5,37)  (6,69)  (7,112)  (8,129)  (9,122)  (10,97)  (11,67)  (12,43)  (13,5)  (14,2)  (15,3)  (16,4)  (18,1)  (19,4)  (20,2)  (21,1)  (22,3)  (23,2)  (24,10)  (25,12) 
Branch_type_2  (3,1)  (5,1)  (8,3)  (9,3)  (12,1)  (13,1)  (14,1)  (16,3)  (17,2)  (20,2)  (21,2)  (23,5)  (24,1)  (47,36) 
Branch_type_3  (3,4035)  (4,241)  (5,406)  (6,417)  (7,435)  (8,309)  (9,258)  (10,152)  (11,122)  (12,50)  (13,4) 
Branch_type_4  (6,3)  (7,8)  (8,25)  (9,53)  (10,62)  (11,58)  (12,98)  (13,86)  (14,100)  (15,86)  (16,100)  (17,64)  (18,53)  (19,116)  (20,72)  (21,124)  (22,208)  (23,137)  (24,185)  (25,72) 
Branch_type_5  (8,2)  (9,1)  (10,3)  (11,5)  (12,3)  (13,14)  (14,16)  (15,11)  (16,20)  (17,11)  (18,16)  (19,12)  (20,10)  (21,13)  (22,42)  (23,26)  (24,38) 
Branch_type_6  (5,4)  (6,12)  (7,22)  (8,34)  (9,32)  (10,64)  (11,51)  (12,77)  (13,89)  (14,109)  (15,84)  (16,96)  (17,66)  (18,48)  (19,106)  (20,51)  (21,95)  (22,139)  (23,73)  (24,91)  (25,4)  (47,44) 
Unique trigger count: 
L2BTB1 768 4
L2BTB2 768 4
L2BTB3 768 4
L2BTB4 112 4
