
*** ChampSim Multicore Out-of-Order Simulator ***

Warmup Instructions: 50000000
Simulation Instructions: 50000000
Number of CPUs: 1
LLC sets: 2048
LLC ways: 16
Off-chip DRAM Size: 4096 MB Channels: 1 Width: 64-bit Data Rate: 6400 MT/s
CPU 0 runs ./micro_traces/srv640.trace.gz
.gz
ITLB has LRU replacement policy
DTLB has LRU replacement policy
STLB has LRU replacement policy
CPU 0 L1I next line prefetcher
L1I has LRU replacement policy
L1D has LRU replacement policy
Initialize SRRIP state for L2C
Initialize DRRIP state for LLC
Heartbeat CPU 0 instructions: 10000000 cycles: 2799142 heartbeat IPC: 3.57252 cumulative IPC: 3.57252 (Simulation time: 0 hr 1 min 38 sec) 
Heartbeat CPU 0 instructions: 20000001 cycles: 5597763 heartbeat IPC: 3.57319 cumulative IPC: 3.57286 (Simulation time: 0 hr 3 min 15 sec) 
Heartbeat CPU 0 instructions: 30000003 cycles: 8396531 heartbeat IPC: 3.573 cumulative IPC: 3.5729 (Simulation time: 0 hr 4 min 54 sec) 
Heartbeat CPU 0 instructions: 40000001 cycles: 11192336 heartbeat IPC: 3.57679 cumulative IPC: 3.57387 (Simulation time: 0 hr 6 min 34 sec) 
Heartbeat CPU 0 instructions: 50000003 cycles: 13988940 heartbeat IPC: 3.57577 cumulative IPC: 3.57425 (Simulation time: 0 hr 8 min 10 sec) 

Warmup complete CPU 0 instructions: 50000003 cycles: 13988940 (Simulation time: 0 hr 8 min 10 sec) 

Cycle: 20000000 FTQ IN: 57945442 FTQ occupancy: 18.6346 DECODE IN: 57945406 DECODE occupancy: 49.5241 ROB IN: 57945346 ROB occupancy: 307.484 ROB OUT: 57945165
Heartbeat CPU 0 instructions: 60000002 cycles: 21514414 heartbeat IPC: 1.32882 cumulative IPC: 1.32882 (Simulation time: 0 hr 9 min 45 sec) 
Heartbeat CPU 0 instructions: 70000000 cycles: 28927231 heartbeat IPC: 1.34901 cumulative IPC: 1.33884 (Simulation time: 0 hr 11 min 20 sec) 
Cycle: 30000000 FTQ IN: 13498333 FTQ occupancy: 8.68525 DECODE IN: 13498299 DECODE occupancy: 25.7989 ROB IN: 13498299 ROB occupancy: 214.898 ROB OUT: 13498128
Heartbeat CPU 0 instructions: 80000000 cycles: 36412469 heartbeat IPC: 1.33596 cumulative IPC: 1.33788 (Simulation time: 0 hr 12 min 56 sec) 
Cycle: 40000000 FTQ IN: 13431635 FTQ occupancy: 8.82199 DECODE IN: 13431688 DECODE occupancy: 26.1315 ROB IN: 13431742 ROB occupancy: 217.401 ROB OUT: 13432027
Heartbeat CPU 0 instructions: 90000001 cycles: 43765146 heartbeat IPC: 1.36005 cumulative IPC: 1.34335 (Simulation time: 0 hr 14 min 30 sec) 
Cycle: 50000000 FTQ IN: 13459212 FTQ occupancy: 8.79367 DECODE IN: 13459229 DECODE occupancy: 26.0581 ROB IN: 13459233 ROB occupancy: 216.861 ROB OUT: 13459226
Heartbeat CPU 0 instructions: 100000002 cycles: 51231069 heartbeat IPC: 1.33942 cumulative IPC: 1.34257 (Simulation time: 0 hr 16 min 6 sec) 
Finished CPU 0 instructions: 50000003 cycles: 37242130 cumulative IPC: 1.34257 (Simulation time: 0 hr 16 min 6 sec) 

ChampSim completed all CPUs

Region of Interest Statistics

CPU 0 cumulative IPC: 1.34257 instructions: 50000003 cycles: 37242130
 Fetch stage stalled: 60.4911  Sim cycles: 37242130 fetch stall cycle: 22528180
 Empty decode stage: 42.4011  Sim cycles: 37242130 fetch stall cycle: 15791074
ITLB TOTAL     ACCESS:    7705134  HIT:    7104196  MISS:     600938  HIT %:    92.2008  MISS %:    7.79919   MPKI: 12.0188
ITLB LOAD TRANSLATION INSTRUCTION	ACCESS:    5975429  HIT:    5846261  MISS:     129168  HIT %:    97.8383  MISS %:    2.16165  MPKI: 2.58336
ITLB TRANSLATION FROM L1D PREFETCHER INSTRUCTION	ACCESS:    1729705  HIT:    1257935  MISS:     471770  HIT %:    72.7254  MISS %:    27.2746  MPKI: 9.4354

ITLB AVERAGE MISS LATENCY: 105031 cycles
ITLB RQ	ACCESS:   11571622	FORWARD:          0	MERGED:    3721654	TO_CACHE:    7849968

DTLB TOTAL     ACCESS:    9003737  HIT:    8531651  MISS:     472086  HIT %:    94.7568  MISS %:    5.24322   MPKI: 9.44172
DTLB LOAD TRANSLATION DATA	ACCESS:    9003737  HIT:    8531651  MISS:     472086  HIT %:    94.7568  MISS %:    5.24322  MPKI: 9.44172

DTLB AVERAGE MISS LATENCY: 9.36991 cycles
DTLB RQ	ACCESS:   13370709	FORWARD:          0	MERGED:    4330893	TO_CACHE:    9039816

STLB TOTAL     ACCESS:    1322426  HIT:    1320166  MISS:       2260  HIT %:    99.8291  MISS %:   0.170898   MPKI: 0.0452
STLB LOAD TRANSLATION INSTRUCTION	ACCESS:     127235  HIT:     127025  MISS:        210  HIT %:     99.835  MISS %:   0.165049  MPKI: 0.0042
STLB TRANSLATION FROM L1D PREFETCHER INSTRUCTION	ACCESS:     473703  HIT:     473586  MISS:        117  HIT %:    99.9753  MISS %:   0.024699  MPKI: 0.00234
STLB LOAD TRANSLATION DATA	ACCESS:     472086  HIT:     470174  MISS:       1912  HIT %:     99.595  MISS %:   0.405011  MPKI: 0.03824
STLB TRANSLATION FROM L1D PREFETCHER DATA	ACCESS:     249402  HIT:     249381  MISS:         21  HIT %:    99.9916  MISS %: 0.00842014  MPKI: 0.00042

STLB AVERAGE MISS LATENCY: 79.3111 cycles
STLB RQ	ACCESS:    1449289	FORWARD:          0	MERGED:     123658	TO_CACHE:    1325631

STLB Hit, L1D data hit: 0
STLB Hit, L2C data hit: 0
STLB Hit, LLC data hit: 0
STLB Hit, LLC data miss: 0
STLB STLB hints to L2: 0
L1D TOTAL     ACCESS:   13096464  HIT:   11977846  MISS:    1118618  HIT %:    91.4586  MISS %:    8.54137   MPKI: 22.3724
L1D LOAD DATA	ACCESS:    6576689  HIT:    5839844  MISS:     736845  HIT %:    88.7961  MISS %:    11.2039  MPKI: 14.7369
L1D RFO DATA	ACCESS:    6188459  HIT:    5902201  MISS:     286258  HIT %:    95.3743  MISS %:    4.62567  MPKI: 5.72516
L1D PREFETCH DATA	ACCESS:     331316  HIT:     235801  MISS:      95515  HIT %:     71.171  MISS %:     28.829  MPKI: 1.9103

L1D PREFETCH  REQUESTED:     746615  ISSUED:     746615  USEFUL:      34184  USELESS:      69799
L1D USEFUL LOAD PREFETCHES:      34184 PREFETCH ISSUED TO LOWER LEVEL:     104016  ACCURACY: 32.8642
 TIMELY PREFETCHES:      34184 LATE PREFETCHES: 8452 DROPPED PREFETCHES: 4
L1D AVERAGE MISS LATENCY: 249631 cycles
L1D RQ	ACCESS:   10709164	FORWARD:          0	MERGED:    3929759	TO_CACHE:    6619666
L1D WQ	ACCESS:    6946346	FORWARD:     160158	MERGED:     195303	TO_CACHE:    6751043
L1D PQ	ACCESS:     373517	FORWARD:          0	MERGED:          0	TO_CACHE:     373098

L1D UNIQUE REGIONS ACCESSED: 0
L1D REGIONS CONFLICTS: 0
L1D Cross Page Prefetch Requests: 7031
L1D Same Page Prefetch Requests: 760938
L1D ROI Sum of L1D PQ occupancy: 4770465
L1D PREFETCHES PUSHED FROM L2C: 0
L1I TOTAL     ACCESS:   11129535  HIT:    7506734  MISS:    3622801  HIT %:    67.4488  MISS %:    32.5512   MPKI: 72.456
L1I LOAD INSTRUCTION	ACCESS:    6700211  HIT:    6095420  MISS:     604791  HIT %:    90.9736  MISS %:    9.02645  MPKI: 12.0958
L1I PREFETCH INSTRUCTION	ACCESS:    4429324  HIT:    1411314  MISS:    3018010  HIT %:     31.863  MISS %:     68.137  MPKI: 60.3602

L1I PREFETCH  REQUESTED:    5111066  ISSUED:    5111029  USEFUL:    2354592  USELESS:     770512
L1I USEFUL LOAD PREFETCHES:    2354592 PREFETCH ISSUED TO LOWER LEVEL:    3125079  ACCURACY: 75.345
 TIMELY PREFETCHES:    2354592 LATE PREFETCHES: 107065 DROPPED PREFETCHES: 9474
L1I AVERAGE MISS LATENCY: 962413 cycles
L1I RQ	ACCESS:    9455762	FORWARD:          0	MERGED:    2691057	TO_CACHE:    6764705
L1I PQ	ACCESS:    5111029	FORWARD:          0	MERGED:     304112	TO_CACHE:    4806917

L1BTB TOTAL     ACCESS:    5671052  HIT:    2044136  MISS:    3626916  HIT %:    36.0451  MISS %:    63.9549   MPKI: 72.5383
L1BTB BRANCH_DIRECT_JUMP	ACCESS:     549178  HIT:     144563  MISS:     404615	AVERAGE STALL: 31.2382
L1BTB BRANCH_INDIRECT	ACCESS:     183036  HIT:      66079  MISS:     116957	AVERAGE STALL: 124.075
L1BTB BRANCH_CONDITIONAL	ACCESS:    2712025  HIT:    1419564  MISS:    1292461	AVERAGE STALL: 42.2835
L1BTB BRANCH_DIRECT_CALL	ACCESS:     942402  HIT:     104586  MISS:     837816	AVERAGE STALL: 44.0498
L1BTB BRANCH_INDIRECT_CALL	ACCESS:     171004  HIT:      20784  MISS:     150220	AVERAGE STALL: 144.021
L1BTB BRANCH_RETURN	ACCESS:    1113407  HIT:     288560  MISS:     824847	AVERAGE STALL: 40.8552
L1BTB BRANCH_OTHER ACCESS:          0  HIT:          0  MISS:          0	AVERAGE STALL: -nan
L1BTB TOTAL ROB OCCUPANCY AT BTB MISS: 5.63327

L2BTB1 TOTAL     ACCESS:    3601453  HIT:    3477838  MISS:     123615  HIT %:    96.5676  MISS %:    3.43236   MPKI: 2.4723
L2BTB1 BRANCH_DIRECT_JUMP	ACCESS:     400421  HIT:     392212  MISS:       8209	AVERAGE STALL: 31.2382
L2BTB1 BRANCH_INDIRECT	ACCESS:     106659  HIT:      95723  MISS:      10936	AVERAGE STALL: 124.075
L2BTB1 BRANCH_CONDITIONAL	ACCESS:    1292460  HIT:    1277457  MISS:      15003	AVERAGE STALL: 42.2835
L2BTB1 BRANCH_DIRECT_CALL	ACCESS:     837816  HIT:     815077  MISS:      22739	AVERAGE STALL: 44.0498
L2BTB1 BRANCH_INDIRECT_CALL	ACCESS:     140661  HIT:     127427  MISS:      13234	AVERAGE STALL: 144.021
L2BTB1 BRANCH_RETURN	ACCESS:     823436  HIT:     769942  MISS:      53494	AVERAGE STALL: 40.8552
L2BTB1 BRANCH_OTHER ACCESS:          0  HIT:          0  MISS:          0	AVERAGE STALL: -nan
L2BTB1 TOTAL ROB OCCUPANCY AT BTB MISS: 165.282

L2C TOTAL     ACCESS:    6585376  HIT:    5550370  MISS:    1035006  HIT %:    84.2833  MISS %:    15.7167   MPKI: 20.7001
L2C LOAD INSTRUCTION	ACCESS:     497724  HIT:     396842  MISS:     100882  HIT %:    79.7313  MISS %:    20.2687  MPKI: 2.01764
L2C PREFETCH INSTRUCTION	ACCESS:    3125075  HIT:    2744166  MISS:     380909  HIT %:    87.8112  MISS %:    12.1888  MPKI: 7.61818
L2C LOAD TRANSLATION INSTRUCTION	ACCESS:        242  HIT:         85  MISS:        157  HIT %:     35.124  MISS %:     64.876  MPKI: 0.00314
L2C TRANSLATION FROM L1D PREFETCHER INSTRUCTION	ACCESS:       3719  HIT:       3469  MISS:        250  HIT %:    93.2778  MISS %:    6.72224  MPKI: 0.005
L2C LOAD DATA	ACCESS:     728359  HIT:     583950  MISS:     144409  HIT %:    80.1734  MISS %:    19.8266  MPKI: 2.88818
L2C RFO DATA	ACCESS:     286180  HIT:     188939  MISS:      97241  HIT %:     66.021  MISS %:     33.979  MPKI: 1.94482
L2C PREFETCH DATA	ACCESS:    1418496  HIT:    1153510  MISS:     264986  HIT %:    81.3192  MISS %:    18.6808  MPKI: 5.29972
L2C WRITEBACK DATA	ACCESS:     523513  HIT:     478809  MISS:      44704  HIT %:    91.4608  MISS %:    8.53923  MPKI: 0.89408
L2C LOAD TRANSLATION DATA	ACCESS:       2028  HIT:        577  MISS:       1451  HIT %:    28.4517  MISS %:    71.5483  MPKI: 0.02902
L2C TRANSLATION FROM L1D PREFETCHER DATA	ACCESS:         40  HIT:         23  MISS:         17  HIT %:       57.5  MISS %:       42.5  MPKI: 0.00034

L2C PREFETCH  REQUESTED:    3234722  ISSUED:    3234722  USEFUL:      32019  USELESS:     616829
L2C USEFUL LOAD PREFETCHES:      32019 PREFETCH ISSUED TO LOWER LEVEL:     647935  ACCURACY: 4.9417
 TIMELY PREFETCHES:      32019 LATE PREFETCHES: 2040 DROPPED PREFETCHES: 0
L2C AVERAGE MISS LATENCY: 33.7671 cycles
L2C RQ	ACCESS:    1518355	FORWARD:          0	MERGED:          0	TO_CACHE:    1518292
L2C WQ	ACCESS:     523513	FORWARD:         63	MERGED:          0	TO_CACHE:     523513
L2C PQ	ACCESS:    6463817	FORWARD:          0	MERGED:    1896642	TO_CACHE:    4567175

L2C Dense regions hint from L2: 0
PSCL5 TOTAL     ACCESS:      10870  HIT:       5435  MISS:       5435  HIT %:         50  MISS %:         50   MPKI: 0.1087
PSCL5 LOAD TRANSLATION INSTRUCTION	ACCESS:       4222  HIT:       2111  MISS:       2111  HIT %:         50  MISS %:         50  MPKI: 0.04222
PSCL5 TRANSLATION FROM L1D PREFETCHER INSTRUCTION	ACCESS:       6648  HIT:       3324  MISS:       3324  HIT %:         50  MISS %:         50  MPKI: 0.06648


PSCL4 TOTAL     ACCESS:      10130  HIT:       5058  MISS:       5072  HIT %:    49.9309  MISS %:    50.0691   MPKI: 0.10144
PSCL4 LOAD TRANSLATION INSTRUCTION	ACCESS:       2313  HIT:       1952  MISS:        361  HIT %:    84.3926  MISS %:    15.6074  MPKI: 0.00722
PSCL4 TRANSLATION FROM L1D PREFETCHER INSTRUCTION	ACCESS:       3784  HIT:       3106  MISS:        678  HIT %:    82.0825  MISS %:    17.9175  MPKI: 0.01356
PSCL4 LOAD TRANSLATION DATA	ACCESS:       1605  HIT:          0  MISS:       1605  HIT %:          0  MISS %:        100  MPKI: 0.0321
PSCL4 TRANSLATION FROM L1D PREFETCHER DATA	ACCESS:       2428  HIT:          0  MISS:       2428  HIT %:          0  MISS %:        100  MPKI: 0.04856


PSCL3 TOTAL     ACCESS:      10216  HIT:       5101  MISS:       5115  HIT %:    49.9315  MISS %:    50.0685   MPKI: 0.1023
PSCL3 LOAD TRANSLATION INSTRUCTION	ACCESS:       2356  HIT:       1995  MISS:        361  HIT %:    84.6774  MISS %:    15.3226  MPKI: 0.00722
PSCL3 TRANSLATION FROM L1D PREFETCHER INSTRUCTION	ACCESS:       3784  HIT:       3106  MISS:        678  HIT %:    82.0825  MISS %:    17.9175  MPKI: 0.01356
PSCL3 LOAD TRANSLATION DATA	ACCESS:       1648  HIT:          0  MISS:       1648  HIT %:          0  MISS %:        100  MPKI: 0.03296
PSCL3 TRANSLATION FROM L1D PREFETCHER DATA	ACCESS:       2428  HIT:          0  MISS:       2428  HIT %:          0  MISS %:        100  MPKI: 0.04856


PSCL2 TOTAL     ACCESS:       9888  HIT:       4864  MISS:       5024  HIT %:    49.1909  MISS %:    50.8091   MPKI: 0.10048
PSCL2 LOAD TRANSLATION INSTRUCTION	ACCESS:       2224  HIT:       1973  MISS:        251  HIT %:     88.714  MISS %:     11.286  MPKI: 0.00502
PSCL2 TRANSLATION FROM L1D PREFETCHER INSTRUCTION	ACCESS:       5742  HIT:       2891  MISS:       2851  HIT %:    50.3483  MISS %:    49.6517  MPKI: 0.05702
PSCL2 LOAD TRANSLATION DATA	ACCESS:       1882  HIT:          0  MISS:       1882  HIT %:          0  MISS %:        100  MPKI: 0.03764
PSCL2 TRANSLATION FROM L1D PREFETCHER DATA	ACCESS:         40  HIT:          0  MISS:         40  HIT %:          0  MISS %:        100  MPKI: 0.0008


LLC TOTAL     ACCESS:    1132966  HIT:    1101340  MISS:      31626  HIT %:    97.2086  MISS %:    2.79143   MPKI: 0.63252
LLC LOAD INSTRUCTION	ACCESS:      99856  HIT:      99213  MISS:        643  HIT %:    99.3561  MISS %:   0.643927  MPKI: 0.01286
LLC PREFETCH INSTRUCTION	ACCESS:     378233  HIT:     377667  MISS:        566  HIT %:    99.8504  MISS %:   0.149643  MPKI: 0.01132
LLC LOAD TRANSLATION INSTRUCTION	ACCESS:        157  HIT:        128  MISS:         29  HIT %:    81.5287  MISS %:    18.4713  MPKI: 0.00058
LLC TRANSLATION FROM L1D PREFETCHER INSTRUCTION	ACCESS:        250  HIT:        229  MISS:         21  HIT %:       91.6  MISS %:        8.4  MPKI: 0.00042
LLC LOAD DATA	ACCESS:     143441  HIT:     139268  MISS:       4173  HIT %:    97.0908  MISS %:    2.90921  MPKI: 0.08346
LLC RFO DATA	ACCESS:      97181  HIT:      82480  MISS:      14701  HIT %:    84.8726  MISS %:    15.1274  MPKI: 0.29402
LLC PREFETCH DATA	ACCESS:     269701  HIT:     258631  MISS:      11070  HIT %:    95.8955  MISS %:    4.10455  MPKI: 0.2214
LLC WRITEBACK DATA	ACCESS:     142679  HIT:     142369  MISS:        310  HIT %:    99.7827  MISS %:   0.217271  MPKI: 0.0062
LLC LOAD TRANSLATION DATA	ACCESS:       1451  HIT:       1338  MISS:        113  HIT %:    92.2123  MISS %:    7.78773  MPKI: 0.00226
LLC TRANSLATION FROM L1D PREFETCHER DATA	ACCESS:         17  HIT:         17  MISS:          0  HIT %:        100  MISS %:          0  MPKI: 0

LLC AVERAGE MISS LATENCY: 164.264 cycles
LLC RQ	ACCESS:     342367	FORWARD:          0	MERGED:          0	TO_CACHE:     342353
LLC WQ	ACCESS:     142679	FORWARD:         15	MERGED:          0	TO_CACHE:     142679
LLC PQ	ACCESS:     647935	FORWARD:          0	MERGED:          0	TO_CACHE:     647934

LLC Dense regions hint to LLC: 0

RAW hits: 1927031
Loads Generated: 12636195
Loads sent to L1D: 10709164
Stores Generated: 6946326
Stores sent to L1D: 6946346
Major fault: 0 Minor fault: 2667
Allocated PAGES: 2667
I-Shadow cache 408 bytes
Touched + WorthPF tables 12288 bytes 
MMA filter 174 bytes 
FNL filter 272 bytes 
TOTAL PREFETCHER STORAGE SIZE: 31318 bytes
CPU 0 L1I next line prefetcher final stats

stream: 
stream:times selected: 1205959
stream:pref_filled: 118040
stream:pref_useful: 22582
stream:pref_late: 7255
stream:misses: 8184
stream:misses_by_poll: 0

CS: 
CS:times selected: 180378
CS:pref_filled: 56072
CS:pref_useful: 31564
CS:pref_late: 12917
CS:misses: 22047
CS:misses_by_poll: 0

CPLX: 
CPLX:times selected: 1024302
CPLX:pref_filled: 19664
CPLX:pref_useful: 4250
CPLX:pref_late: 3022
CPLX:misses: 93504
CPLX:misses_by_poll: 1

NL_L1: 
NL:times selected: 21523
NL:pref_filled: 620
NL:pref_useful: 241
NL:pref_late: 365
NL:misses: 1771
NL:misses_by_poll: 0

total selections: 2432162
total_filled: 95515
total_useful: 34184
total_late: 25067
total_polluted: 1
total_misses_after_warmup: 779822
conflicts: 5518757

test: 120413

DRAM Statistics
 CHANNEL 0
 RQ ROW_BUFFER_HIT:      10768  ROW_BUFFER_MISS:      20533
 DBUS_CONGESTED:         10
 WQ ROW_BUFFER_HIT:       1702  ROW_BUFFER_MISS:      14361  FULL:          0

 AVG_CONGESTED_CYCLE: 7

CPU 0 Branch Prediction Accuracy: 99.805% MPKI: 0.35662 Average ROB Occupancy at Mispredict: 173.933
Branch types
NOT_BRANCH: 40855847 81.7117%
BRANCH_DIRECT_JUMP: 549178 1.09836%
BRANCH_INDIRECT: 183036 0.366072%
BRANCH_CONDITIONAL: 6185145 12.3703%
BRANCH_DIRECT_CALL: 942402 1.8848%
BRANCH_INDIRECT_CALL: 171004 0.342008%
BRANCH_RETURN: 1113407 2.22681%
BRANCH_OTHER: 0 0%

DRAM PAGES: 1048576
Allocated PAGES: 2667
Average_ROB_Occupancy: 216.669
Average_Decode_Occupancy: 25.8102
Average_FTQ_Occupancy: 8.70945
Indirect max targets: 14 Average targets: 1.17516
Branch_type:  BRANCH_DIRECT_JUMP:  Count Percentage: 3.35055 5.84877 5.02865 2.13298 8.6446 6.00868 1.68046 67.3053 
Branch_type:  BRANCH_INDIRECT:  Count Percentage: 11.7221 3.488 2.64165 13.42 3.32716 2.79105 2.11669 60.4934 
Branch_type:  BRANCH_CONDITIONAL:  Count Percentage: 25.9647 2.44913 2.20223 3.66505 2.87947 4.622 4.12548 54.092 
Branch_type:  BRANCH_DIRECT_CALL:  Count Percentage: 0.857932 1.24835 0.787882 2.12693 4.44646 2.63483 1.49472 86.4029 
Branch_type:  BRANCH_INDIRECT_CALL:  Count Percentage: 9.54907 0 2.99064 0.000881588 0 1.71175 1.00442 84.7432 
Branch_type:  BRANCH_RETURN:  Count Percentage: 8.28345 1.69832 2.19603 2.99828 2.83687 5.08964 4.0113 72.8861 
Branch_type:  BRANCH_DIRECT_JUMP:  Total Count: 36814 64263 55252 23436 94982 66020 18464 739513 
Branch_type:  BRANCH_INDIRECT:  Total Count: 43074 12817 9707 49313 12226 10256 7778 222289 
Branch_type:  BRANCH_CONDITIONAL:  Total Count: 3211793 302954 272412 453361 356186 571735 510316 6691096 
Branch_type:  BRANCH_DIRECT_CALL:  Total Count: 16081 23399 14768 39867 83344 49387 28017 1619529 
Branch_type:  BRANCH_INDIRECT_CALL:  Total Count: 32495 0 10177 3 0 5825 3418 288377 
Branch_type:  BRANCH_RETURN:  Total Count: 183523 37627 48654 66428 62852 112763 88872 1614820 
Number of unique branch instructions: 10706
Upper 32 bits: 
aaaa
ffff
ffff0000
Unique upper 32 bits: 3
Unique upper 36 bits: 3
Unique upper 40 bits: 5
Unique upper 44 bits: 32
Unique upper 48 bits: 158
Offset_3 4437
Offset_4 263
Offset_5 481
Offset_6 539
Offset_7 634
Offset_8 582
Offset_9 509
Offset_10 419
Offset_11 347
Offset_12 310
Offset_13 238
Offset_14 246
Offset_15 194
Offset_16 226
Offset_17 166
Offset_18 144
Offset_19 260
Offset_20 141
Offset_21 235
Offset_22 409
Offset_23 245
Offset_24 344
Offset_25 117
Offset_47 94
Offset_64 5
decode_dispatch_called: 24974133 67.0588
Dispatch_width: 0 13432886 53.7872 36.0691
Dispatch_width: 1 884909 3.5433 2.3761
Dispatch_width: 2 922566 3.69409 2.47721
Dispatch_width: 3 590657 2.36508 1.58599
Dispatch_width: 4 4533827 18.1541 12.1739
Dispatch_width: 5 293045 1.17339 0.786864
Dispatch_width: 6 4316243 17.2829 11.5897
Empty_decode_cycles: 12267997 32.9412
ROB_full_cycles: 7057842 18.9512
Starvation_cycles_per_kilo_instr: 258.68
Starvation_cycles_per_kilo_instr_3: 210.412
Starvation_cycles_per_kilo_instr_0: 186.43
Branch_type_1  (3,1)  (4,9)  (5,39)  (6,71)  (7,123)  (8,154)  (9,136)  (10,110)  (11,78)  (12,47)  (13,11)  (14,2)  (15,3)  (16,4)  (18,1)  (19,5)  (20,2)  (21,1)  (22,3)  (23,2)  (24,10)  (25,12)  (64,1) 
Branch_type_2  (3,1)  (4,1)  (5,1)  (8,4)  (9,4)  (10,1)  (12,1)  (13,1)  (14,1)  (16,3)  (17,2)  (20,2)  (21,2)  (23,5)  (24,1)  (47,42) 
Branch_type_3  (3,4435)  (4,253)  (5,437)  (6,451)  (7,480)  (8,355)  (9,275)  (10,170)  (11,133)  (12,54)  (13,10)  (64,2) 
Branch_type_4  (6,3)  (7,8)  (8,29)  (9,55)  (10,66)  (11,70)  (12,116)  (13,101)  (14,110)  (15,92)  (16,99)  (17,77)  (18,61)  (19,127)  (20,72)  (21,124)  (22,215)  (23,138)  (24,199)  (25,101)  (64,1) 
Branch_type_5  (8,3)  (9,1)  (10,4)  (11,5)  (12,3)  (13,14)  (14,16)  (15,11)  (16,22)  (17,11)  (18,23)  (19,14)  (20,11)  (21,13)  (22,43)  (23,26)  (24,38) 
Branch_type_6  (5,4)  (6,14)  (7,23)  (8,37)  (9,38)  (10,68)  (11,61)  (12,89)  (13,101)  (14,117)  (15,88)  (16,98)  (17,76)  (18,59)  (19,114)  (20,54)  (21,95)  (22,148)  (23,74)  (24,96)  (25,4)  (47,52)  (64,1) 
Unique trigger count: 
L2BTB1 1536 4
L2BTB2 1536 4
L2BTB3 1536 4
L2BTB4 224 4
