
*** ChampSim Multicore Out-of-Order Simulator ***

Warmup Instructions: 50000000
Simulation Instructions: 50000000
Number of CPUs: 1
LLC sets: 2048
LLC ways: 16
Off-chip DRAM Size: 4096 MB Channels: 1 Width: 64-bit Data Rate: 6400 MT/s
CPU 0 runs ./micro_traces/srv649.trace.gz
.gz
ITLB has LRU replacement policy
DTLB has LRU replacement policy
STLB has LRU replacement policy
FDIP Prefetcher at L1I
L1I has LRU replacement policy
L1D has LRU replacement policy
Initialize SRRIP state for L2C
Initialize DRRIP state for LLC
Heartbeat_Variant_0 : 1321 0.32251 per_variant_size: 0 1321 0 0 0 0 0 0 0 
Heartbeat_Variant_1 : 2537 0.619385 per_variant_size: 0 549 1988 0 0 0 0 0 0 
Heartbeat_Variant_2 : 0 0 per_variant_size: 0 0 0 0 0 0 0 0 0 
Heartbeat_Variant_3 : 0 0 per_variant_size: 0 0 0 0 0 0 0 0 0 
Heartbeat_Variant_0_evicts 0 : 5800 1 : 500 2 : 0 3 : 0 
Heartbeat_Variant_1_evicts 0 : 459 1 : 0 2 : 0 3 : 0 
Heartbeat_Variant_2_evicts 0 : 0 1 : 0 2 : 0 3 : 0 
Heartbeat_Variant_3_evicts 0 : 0 1 : 0 2 : 0 3 : 0 
Heartbeat CPU 0 instructions: 10000001 cycles: 2797347 heartbeat IPC: 3.57482 cumulative IPC: 3.57482 (Simulation time: 0 hr 1 min 40 sec) 
Heartbeat_Variant_0 : 1341 0.327393 per_variant_size: 0 1341 0 0 0 0 0 0 0 
Heartbeat_Variant_1 : 2591 0.632568 per_variant_size: 0 524 2067 0 0 0 0 0 0 
Heartbeat_Variant_2 : 0 0 per_variant_size: 0 0 0 0 0 0 0 0 0 
Heartbeat_Variant_3 : 0 0 per_variant_size: 0 0 0 0 0 0 0 0 0 
Heartbeat_Variant_0_evicts 0 : 5671 1 : 167 2 : 0 3 : 0 
Heartbeat_Variant_1_evicts 0 : 166 1 : 0 2 : 0 3 : 0 
Heartbeat_Variant_2_evicts 0 : 0 1 : 0 2 : 0 3 : 0 
Heartbeat_Variant_3_evicts 0 : 0 1 : 0 2 : 0 3 : 0 
Heartbeat CPU 0 instructions: 20000003 cycles: 5593061 heartbeat IPC: 3.5769 cumulative IPC: 3.57586 (Simulation time: 0 hr 3 min 9 sec) 
Heartbeat_Variant_0 : 1352 0.330078 per_variant_size: 0 1352 0 0 0 0 0 0 0 
Heartbeat_Variant_1 : 2602 0.635254 per_variant_size: 0 501 2101 0 0 0 0 0 0 
Heartbeat_Variant_2 : 0 0 per_variant_size: 0 0 0 0 0 0 0 0 0 
Heartbeat_Variant_3 : 0 0 per_variant_size: 0 0 0 0 0 0 0 0 0 
Heartbeat_Variant_0_evicts 0 : 5543 1 : 103 2 : 0 3 : 0 
Heartbeat_Variant_1_evicts 0 : 98 1 : 0 2 : 0 3 : 0 
Heartbeat_Variant_2_evicts 0 : 0 1 : 0 2 : 0 3 : 0 
Heartbeat_Variant_3_evicts 0 : 0 1 : 0 2 : 0 3 : 0 
Heartbeat CPU 0 instructions: 30000003 cycles: 8389398 heartbeat IPC: 3.57611 cumulative IPC: 3.57594 (Simulation time: 0 hr 4 min 41 sec) 
Heartbeat_Variant_0 : 1364 0.333008 per_variant_size: 0 1364 0 0 0 0 0 0 0 
Heartbeat_Variant_1 : 2602 0.635254 per_variant_size: 0 489 2113 0 0 0 0 0 0 
Heartbeat_Variant_2 : 0 0 per_variant_size: 0 0 0 0 0 0 0 0 0 
Heartbeat_Variant_3 : 0 0 per_variant_size: 0 0 0 0 0 0 0 0 0 
Heartbeat_Variant_0_evicts 0 : 5689 1 : 155 2 : 0 3 : 0 
Heartbeat_Variant_1_evicts 0 : 144 1 : 0 2 : 0 3 : 0 
Heartbeat_Variant_2_evicts 0 : 0 1 : 0 2 : 0 3 : 0 
Heartbeat_Variant_3_evicts 0 : 0 1 : 0 2 : 0 3 : 0 
Heartbeat CPU 0 instructions: 40000003 cycles: 11185448 heartbeat IPC: 3.57647 cumulative IPC: 3.57608 (Simulation time: 0 hr 6 min 13 sec) 
Heartbeat_Variant_0 : 1368 0.333984 per_variant_size: 0 1368 0 0 0 0 0 0 0 
Heartbeat_Variant_1 : 2609 0.636963 per_variant_size: 0 492 2117 0 0 0 0 0 0 
Heartbeat_Variant_2 : 0 0 per_variant_size: 0 0 0 0 0 0 0 0 0 
Heartbeat_Variant_3 : 0 0 per_variant_size: 0 0 0 0 0 0 0 0 0 
Heartbeat_Variant_0_evicts 0 : 5631 1 : 95 2 : 0 3 : 0 
Heartbeat_Variant_1_evicts 0 : 92 1 : 0 2 : 0 3 : 0 
Heartbeat_Variant_2_evicts 0 : 0 1 : 0 2 : 0 3 : 0 
Heartbeat_Variant_3_evicts 0 : 0 1 : 0 2 : 0 3 : 0 
Heartbeat CPU 0 instructions: 50000000 cycles: 13981629 heartbeat IPC: 3.57631 cumulative IPC: 3.57612 (Simulation time: 0 hr 7 min 47 sec) 

Warmup complete CPU 0 instructions: 50000004 cycles: 13981630 (Simulation time: 0 hr 7 min 47 sec) 

Cycle: 20000000 FTQ IN: 58437502 FTQ occupancy: 20.8759 DECODE IN: 58437377 DECODE occupancy: 53.963 ROB IN: 58437317 ROB occupancy: 319.949 ROB OUT: 58437177
Heartbeat_Variant_0 : 1366 0.333496 per_variant_size: 0 1366 0 0 0 0 0 0 0 
Heartbeat_Variant_1 : 2635 0.643311 per_variant_size: 0 504 2131 0 0 0 0 0 0 
Heartbeat_Variant_2 : 0 0 per_variant_size: 0 0 0 0 0 0 0 0 0 
Heartbeat_Variant_3 : 0 0 per_variant_size: 0 0 0 0 0 0 0 0 0 
Heartbeat_Variant_0_evicts 0 : 5654 1 : 100 2 : 0 3 : 0 
Heartbeat_Variant_1_evicts 0 : 109 1 : 0 2 : 0 3 : 0 
Heartbeat_Variant_2_evicts 0 : 0 1 : 0 2 : 0 3 : 0 
Heartbeat_Variant_3_evicts 0 : 0 1 : 0 2 : 0 3 : 0 
Heartbeat CPU 0 instructions: 60000001 cycles: 21125104 heartbeat IPC: 1.39988 cumulative IPC: 1.39988 (Simulation time: 0 hr 9 min 31 sec) 
Heartbeat_Variant_0 : 1381 0.337158 per_variant_size: 0 1381 0 0 0 0 0 0 0 
Heartbeat_Variant_1 : 2629 0.641846 per_variant_size: 0 477 2152 0 0 0 0 0 0 
Heartbeat_Variant_2 : 0 0 per_variant_size: 0 0 0 0 0 0 0 0 0 
Heartbeat_Variant_3 : 0 0 per_variant_size: 0 0 0 0 0 0 0 0 0 
Heartbeat_Variant_0_evicts 0 : 5637 1 : 142 2 : 0 3 : 0 
Heartbeat_Variant_1_evicts 0 : 131 1 : 0 2 : 0 3 : 0 
Heartbeat_Variant_2_evicts 0 : 0 1 : 0 2 : 0 3 : 0 
Heartbeat_Variant_3_evicts 0 : 0 1 : 0 2 : 0 3 : 0 
Heartbeat CPU 0 instructions: 70000000 cycles: 28316345 heartbeat IPC: 1.39058 cumulative IPC: 1.39521 (Simulation time: 0 hr 11 min 16 sec) 
Cycle: 30000000 FTQ IN: 13881431 FTQ occupancy: 15.8692 DECODE IN: 13881428 DECODE occupancy: 39.3292 ROB IN: 13881428 ROB occupancy: 251.721 ROB OUT: 13881216
Heartbeat_Variant_0 : 1389 0.339111 per_variant_size: 0 1389 0 0 0 0 0 0 0 
Heartbeat_Variant_1 : 2644 0.645508 per_variant_size: 0 462 2182 0 0 0 0 0 0 
Heartbeat_Variant_2 : 0 0 per_variant_size: 0 0 0 0 0 0 0 0 0 
Heartbeat_Variant_3 : 0 0 per_variant_size: 0 0 0 0 0 0 0 0 0 
Heartbeat_Variant_0_evicts 0 : 5795 1 : 311 2 : 0 3 : 0 
Heartbeat_Variant_1_evicts 0 : 311 1 : 0 2 : 0 3 : 0 
Heartbeat_Variant_2_evicts 0 : 0 1 : 0 2 : 0 3 : 0 
Heartbeat_Variant_3_evicts 0 : 0 1 : 0 2 : 0 3 : 0 
Heartbeat CPU 0 instructions: 80000002 cycles: 35462709 heartbeat IPC: 1.39931 cumulative IPC: 1.39658 (Simulation time: 0 hr 13 min 3 sec) 
Cycle: 40000000 FTQ IN: 14032994 FTQ occupancy: 15.9528 DECODE IN: 14033036 DECODE occupancy: 39.7508 ROB IN: 14033036 ROB occupancy: 254.592 ROB OUT: 14033065
Heartbeat_Variant_0 : 1398 0.341309 per_variant_size: 0 1398 0 0 0 0 0 0 0 
Heartbeat_Variant_1 : 2640 0.644531 per_variant_size: 0 449 2191 0 0 0 0 0 0 
Heartbeat_Variant_2 : 0 0 per_variant_size: 0 0 0 0 0 0 0 0 0 
Heartbeat_Variant_3 : 0 0 per_variant_size: 0 0 0 0 0 0 0 0 0 
Heartbeat_Variant_0_evicts 0 : 5609 1 : 219 2 : 0 3 : 0 
Heartbeat_Variant_1_evicts 0 : 211 1 : 0 2 : 0 3 : 0 
Heartbeat_Variant_2_evicts 0 : 0 1 : 0 2 : 0 3 : 0 
Heartbeat_Variant_3_evicts 0 : 0 1 : 0 2 : 0 3 : 0 
Heartbeat CPU 0 instructions: 90000002 cycles: 42691685 heartbeat IPC: 1.38332 cumulative IPC: 1.39324 (Simulation time: 0 hr 14 min 50 sec) 
Heartbeat_Variant_0 : 1398 0.341309 per_variant_size: 0 1398 0 0 0 0 0 0 0 
Heartbeat_Variant_1 : 2640 0.644531 per_variant_size: 0 443 2197 0 0 0 0 0 0 
Heartbeat_Variant_2 : 0 0 per_variant_size: 0 0 0 0 0 0 0 0 0 
Heartbeat_Variant_3 : 0 0 per_variant_size: 0 0 0 0 0 0 0 0 0 
Heartbeat_Variant_0_evicts 0 : 5507 1 : 6 2 : 0 3 : 0 
Heartbeat_Variant_1_evicts 0 : 6 1 : 0 2 : 0 3 : 0 
Heartbeat_Variant_2_evicts 0 : 0 1 : 0 2 : 0 3 : 0 
Heartbeat_Variant_3_evicts 0 : 0 1 : 0 2 : 0 3 : 0 
Heartbeat CPU 0 instructions: 100000000 cycles: 49819360 heartbeat IPC: 1.40298 cumulative IPC: 1.39518 (Simulation time: 0 hr 16 min 32 sec) 
Finished CPU 0 instructions: 50000000 cycles: 35837731 cumulative IPC: 1.39518 (Simulation time: 0 hr 16 min 32 sec) 

ChampSim completed all CPUs

Region of Interest Statistics

CPU 0 cumulative IPC: 1.39518 instructions: 50000000 cycles: 35837731
 Fetch stage stalled: 38.3567  Sim cycles: 35837731 fetch stall cycle: 13746171
 Empty decode stage: 20.2926  Sim cycles: 35837731 fetch stall cycle: 7272412
ITLB TOTAL     ACCESS:    5838950  HIT:    5344316  MISS:     494634  HIT %:    91.5287  MISS %:    8.47128   MPKI: 9.89268
ITLB LOAD TRANSLATION INSTRUCTION	ACCESS:    5686932  HIT:    5192298  MISS:     494634  HIT %:    91.3023  MISS %:    8.69773  MPKI: 9.89268
ITLB TRANSLATION FROM L1D PREFETCHER INSTRUCTION	ACCESS:     152018  HIT:     152018  MISS:          0  HIT %:        100  MISS %:          0  MPKI: 0

ITLB AVERAGE MISS LATENCY: 9.05804 cycles
ITLB RQ	ACCESS:    7884016	FORWARD:          0	MERGED:    1523815	TO_CACHE:    6360201

DTLB TOTAL     ACCESS:    8935847  HIT:    8457128  MISS:     478719  HIT %:    94.6427  MISS %:    5.35729   MPKI: 9.57438
DTLB LOAD TRANSLATION DATA	ACCESS:    8935847  HIT:    8457128  MISS:     478719  HIT %:    94.6427  MISS %:    5.35729  MPKI: 9.57438

DTLB AVERAGE MISS LATENCY: 9.3269 cycles
DTLB RQ	ACCESS:   13306416	FORWARD:          0	MERGED:    4334437	TO_CACHE:    8971979

STLB TOTAL     ACCESS:    1223277  HIT:    1221254  MISS:       2023  HIT %:    99.8346  MISS %:   0.165375   MPKI: 0.04046
STLB LOAD TRANSLATION INSTRUCTION	ACCESS:     494634  HIT:     494366  MISS:        268  HIT %:    99.9458  MISS %:  0.0541815  MPKI: 0.00536
STLB LOAD TRANSLATION DATA	ACCESS:     478719  HIT:     476982  MISS:       1737  HIT %:    99.6372  MISS %:   0.362843  MPKI: 0.03474
STLB TRANSLATION FROM L1D PREFETCHER DATA	ACCESS:     249924  HIT:     249906  MISS:         18  HIT %:    99.9928  MISS %: 0.00720219  MPKI: 0.00036

STLB AVERAGE MISS LATENCY: 76.5042 cycles
STLB RQ	ACCESS:    1358816	FORWARD:          0	MERGED:     135496	TO_CACHE:    1223320

STLB Hit, L1D data hit: 0
STLB Hit, L2C data hit: 0
STLB Hit, LLC data hit: 0
STLB Hit, LLC data miss: 0
STLB STLB hints to L2: 0
L1D TOTAL     ACCESS:   13055360  HIT:   11899980  MISS:    1155380  HIT %:    91.1501  MISS %:    8.84985   MPKI: 23.1076
L1D LOAD DATA	ACCESS:    6540609  HIT:    5775969  MISS:     764640  HIT %:    88.3093  MISS %:    11.6907  MPKI: 15.2928
L1D RFO DATA	ACCESS:    6186234  HIT:    5898769  MISS:     287465  HIT %:    95.3532  MISS %:    4.64685  MPKI: 5.7493
L1D PREFETCH DATA	ACCESS:     328517  HIT:     225242  MISS:     103275  HIT %:    68.5633  MISS %:    31.4367  MPKI: 2.0655

L1D PREFETCH  REQUESTED:     771289  ISSUED:     771289  USEFUL:      44200  USELESS:      71247
L1D USEFUL LOAD PREFETCHES:      44200 PREFETCH ISSUED TO LOWER LEVEL:     115488  ACCURACY: 38.2724
 TIMELY PREFETCHES:      44200 LATE PREFETCHES: 12179 DROPPED PREFETCHES: 3
L1D AVERAGE MISS LATENCY: 338390 cycles
L1D RQ	ACCESS:   10661633	FORWARD:          0	MERGED:    3920215	TO_CACHE:    6576204
L1D WQ	ACCESS:    6928288	FORWARD:     165577	MERGED:     198076	TO_CACHE:    6730212
L1D PQ	ACCESS:     385826	FORWARD:          0	MERGED:          0	TO_CACHE:     385463

L1D UNIQUE REGIONS ACCESSED: 0
L1D REGIONS CONFLICTS: 0
L1D Cross Page Prefetch Requests: 5793
L1D Same Page Prefetch Requests: 786666
L1D ROI Sum of L1D PQ occupancy: 4884404
L1D PREFETCHES PUSHED FROM L2C: 0
L1I TOTAL     ACCESS:    7071461  HIT:    4305450  MISS:    2766011  HIT %:    60.8849  MISS %:    39.1151   MPKI: 55.3202
L1I LOAD INSTRUCTION	ACCESS:    6408018  HIT:    3642007  MISS:    2766011  HIT %:    56.8352  MISS %:    43.1648  MPKI: 55.3202
L1I PREFETCH INSTRUCTION	ACCESS:     663443  HIT:     663443  MISS:          0  HIT %:        100  MISS %:          0  MPKI: 0

L1I PREFETCH  REQUESTED:    1616581  ISSUED:    1616581  USEFUL:          0  USELESS:          0
L1I USEFUL LOAD PREFETCHES:          0 PREFETCH ISSUED TO LOWER LEVEL:          0  ACCURACY: -nan
 TIMELY PREFETCHES:          0 LATE PREFETCHES: 0 DROPPED PREFETCHES: 0
L1I AVERAGE MISS LATENCY: 17.3284 cycles
L1I RQ	ACCESS:    9671351	FORWARD:          0	MERGED:    2978672	TO_CACHE:    6692679
L1I PQ	ACCESS:    1616581	FORWARD:          0	MERGED:     425244	TO_CACHE:    1191337

L1BTB TOTAL     ACCESS:    5677352  HIT:    2046680  MISS:    3630672  HIT %:    36.0499  MISS %:    63.9501   MPKI: 72.6134
L1BTB BRANCH_DIRECT_JUMP	ACCESS:     545247 HIT:     142500 MISS:     402747 AVERAGE STALL: 66.1202 AVERAGE FETCH STALL: 13.4964 AVERAGE FETCH QUEUE STALL: 22.2692 AVERAGE DECODE STALL: 29.4182 AVERAGE EXECUTE STALL: 2.12741e+15
L1BTB BRANCH_INDIRECT	ACCESS:     181516 HIT:      65137 MISS:     116379 AVERAGE STALL: 121.228 AVERAGE FETCH STALL: 10.8458 AVERAGE FETCH QUEUE STALL: 22.8185 AVERAGE DECODE STALL: 14.9455 AVERAGE EXECUTE STALL: 71.6553
L1BTB BRANCH_CONDITIONAL	ACCESS:    2716808 HIT:    1424815 MISS:    1291993 AVERAGE STALL: 82.6735 AVERAGE FETCH STALL: 19.5119 AVERAGE FETCH QUEUE STALL: 36.392 AVERAGE DECODE STALL: 26.0397 AVERAGE EXECUTE STALL: 2.43168e+15
L1BTB BRANCH_DIRECT_CALL	ACCESS:     945050 HIT:     103912 MISS:     841138 AVERAGE STALL: 72.9064 AVERAGE FETCH STALL: 30.2659 AVERAGE FETCH QUEUE STALL: 23.5967 AVERAGE DECODE STALL: 18.3165 AVERAGE EXECUTE STALL: 8.80513e+15
L1BTB BRANCH_INDIRECT_CALL	ACCESS:     171838 HIT:      21386 MISS:     150452 AVERAGE STALL: 148.621 AVERAGE FETCH STALL: 12.4139 AVERAGE FETCH QUEUE STALL: 20.3903 AVERAGE DECODE STALL: 13.1056 AVERAGE EXECUTE STALL: 102.218
L1BTB BRANCH_RETURN	ACCESS:    1116893 HIT:     288930 MISS:     827963 AVERAGE STALL: 52.8585 AVERAGE FETCH STALL: 16.5243 AVERAGE FETCH QUEUE STALL: 6.51825 AVERAGE DECODE STALL: 6.41416 AVERAGE EXECUTE STALL: 4.30415e+14
L1BTB BRANCH_OTHER ACCESS:          0 HIT:          0 MISS:          0 AVERAGE STALL: -nan AVERAGE FETCH STALL: -nan AVERAGE FETCH QUEUE STALL: -nan AVERAGE DECODE STALL: -nan AVERAGE EXECUTE STALL: -nan
L1BTB TOTAL ROB OCCUPANCY AT BTB MISS: 3.10329

L2BTB TOTAL     ACCESS:    3605476  HIT:    3536727  MISS:      68749  HIT %:    98.0932  MISS %:    1.90679   MPKI: 1.37498
L2BTB BRANCH_DIRECT_JUMP	ACCESS:     398663 HIT:     394061 MISS:       4602 AVERAGE STALL: 66.1202 AVERAGE FETCH STALL: 13.4964 AVERAGE FETCH QUEUE STALL: 22.2692 AVERAGE DECODE STALL: 29.4182 AVERAGE EXECUTE STALL: 2.12741e+15
L2BTB BRANCH_INDIRECT	ACCESS:     106118 HIT:     103376 MISS:       2742 AVERAGE STALL: 121.228 AVERAGE FETCH STALL: 10.8458 AVERAGE FETCH QUEUE STALL: 22.8185 AVERAGE DECODE STALL: 14.9455 AVERAGE EXECUTE STALL: 71.6553
L2BTB BRANCH_CONDITIONAL	ACCESS:    1291993 HIT:    1284317 MISS:       7676 AVERAGE STALL: 82.6735 AVERAGE FETCH STALL: 19.5119 AVERAGE FETCH QUEUE STALL: 36.392 AVERAGE DECODE STALL: 26.0397 AVERAGE EXECUTE STALL: 2.43168e+15
L2BTB BRANCH_DIRECT_CALL	ACCESS:     841138 HIT:     839011 MISS:       2127 AVERAGE STALL: 72.9064 AVERAGE FETCH STALL: 30.2659 AVERAGE FETCH QUEUE STALL: 23.5967 AVERAGE DECODE STALL: 18.3165 AVERAGE EXECUTE STALL: 8.80513e+15
L2BTB BRANCH_INDIRECT_CALL	ACCESS:     141016 HIT:     130890 MISS:      10126 AVERAGE STALL: 148.621 AVERAGE FETCH STALL: 12.4139 AVERAGE FETCH QUEUE STALL: 20.3903 AVERAGE DECODE STALL: 13.1056 AVERAGE EXECUTE STALL: 102.218
L2BTB BRANCH_RETURN	ACCESS:     826548 HIT:     785072 MISS:      41476 AVERAGE STALL: 52.8585 AVERAGE FETCH STALL: 16.5243 AVERAGE FETCH QUEUE STALL: 6.51825 AVERAGE DECODE STALL: 6.41416 AVERAGE EXECUTE STALL: 4.30415e+14
L2BTB BRANCH_OTHER ACCESS:          0 HIT:          0 MISS:          0 AVERAGE STALL: -nan AVERAGE FETCH STALL: -nan AVERAGE FETCH QUEUE STALL: -nan AVERAGE DECODE STALL: -nan AVERAGE EXECUTE STALL: -nan
L2BTB TOTAL ROB OCCUPANCY AT BTB MISS: 163.887

L2C TOTAL     ACCESS:    4536437  HIT:    4050877  MISS:     485560  HIT %:    89.2964  MISS %:    10.7036   MPKI: 9.7112
L2C LOAD INSTRUCTION	ACCESS:    2766010  HIT:    2502600  MISS:     263410  HIT %:    90.4769  MISS %:     9.5231  MPKI: 5.2682
L2C LOAD TRANSLATION INSTRUCTION	ACCESS:        307  HIT:         67  MISS:        240  HIT %:    21.8241  MISS %:    78.1759  MPKI: 0.0048
L2C LOAD DATA	ACCESS:     752418  HIT:     676658  MISS:      75760  HIT %:    89.9311  MISS %:    10.0689  MPKI: 1.5152
L2C RFO DATA	ACCESS:     287406  HIT:     229544  MISS:      57862  HIT %:    79.8675  MISS %:    20.1325  MPKI: 1.15724
L2C PREFETCH DATA	ACCESS:     200933  HIT:     127069  MISS:      73864  HIT %:    63.2395  MISS %:    36.7605  MPKI: 1.47728
L2C WRITEBACK DATA	ACCESS:     527498  HIT:     514442  MISS:      13056  HIT %:    97.5249  MISS %:    2.47508  MPKI: 0.26112
L2C LOAD TRANSLATION DATA	ACCESS:       1837  HIT:        476  MISS:       1361  HIT %:    25.9118  MISS %:    74.0882  MPKI: 0.02722
L2C TRANSLATION FROM L1D PREFETCHER DATA	ACCESS:         28  HIT:         21  MISS:          7  HIT %:         75  MISS %:         25  MPKI: 0.00014

L2C PREFETCH  REQUESTED:      93162  ISSUED:      93162  USEFUL:       8178  USELESS:      66011
L2C USEFUL LOAD PREFETCHES:       8178 PREFETCH ISSUED TO LOWER LEVEL:      74258  ACCURACY: 11.013
 TIMELY PREFETCHES:       8178 LATE PREFETCHES: 394 DROPPED PREFETCHES: 0
L2C AVERAGE MISS LATENCY: 38.2828 cycles
L2C RQ	ACCESS:    3808075	FORWARD:          0	MERGED:          0	TO_CACHE:    3808007
L2C WQ	ACCESS:     527498	FORWARD:         70	MERGED:          0	TO_CACHE:     527498
L2C PQ	ACCESS:     208650	FORWARD:          0	MERGED:       3572	TO_CACHE:     205076

L2C Dense regions hint from L2: 0
PSCL5 TOTAL     ACCESS:       4058  HIT:       2029  MISS:       2029  HIT %:         50  MISS %:         50   MPKI: 0.04058
PSCL5 LOAD TRANSLATION INSTRUCTION	ACCESS:       4002  HIT:       2001  MISS:       2001  HIT %:         50  MISS %:         50  MPKI: 0.04002
PSCL5 TRANSLATION FROM L1D PREFETCHER INSTRUCTION	ACCESS:         56  HIT:         28  MISS:         28  HIT %:         50  MISS %:         50  MPKI: 0.00056


PSCL4 TOTAL     ACCESS:       2269  HIT:       1131  MISS:       1138  HIT %:    49.8457  MISS %:    50.1543   MPKI: 0.02276
PSCL4 LOAD TRANSLATION INSTRUCTION	ACCESS:       1393  HIT:       1126  MISS:        267  HIT %:    80.8327  MISS %:    19.1673  MPKI: 0.00534
PSCL4 TRANSLATION FROM L1D PREFETCHER INSTRUCTION	ACCESS:          6  HIT:          5  MISS:          1  HIT %:    83.3333  MISS %:    16.6667  MPKI: 2e-05
PSCL4 LOAD TRANSLATION DATA	ACCESS:        866  HIT:          0  MISS:        866  HIT %:          0  MISS %:        100  MPKI: 0.01732
PSCL4 TRANSLATION FROM L1D PREFETCHER DATA	ACCESS:          4  HIT:          0  MISS:          4  HIT %:          0  MISS %:        100  MPKI: 8e-05


PSCL3 TOTAL     ACCESS:       3300  HIT:       1642  MISS:       1658  HIT %:    49.7576  MISS %:    50.2424   MPKI: 0.03316
PSCL3 LOAD TRANSLATION INSTRUCTION	ACCESS:       2279  HIT:       1621  MISS:        658  HIT %:    71.1277  MISS %:    28.8723  MPKI: 0.01316
PSCL3 TRANSLATION FROM L1D PREFETCHER INSTRUCTION	ACCESS:         29  HIT:         21  MISS:          8  HIT %:    72.4138  MISS %:    27.5862  MPKI: 0.00016
PSCL3 LOAD TRANSLATION DATA	ACCESS:        979  HIT:          0  MISS:        979  HIT %:          0  MISS %:        100  MPKI: 0.01958
PSCL3 TRANSLATION FROM L1D PREFETCHER DATA	ACCESS:         13  HIT:          0  MISS:         13  HIT %:          0  MISS %:        100  MPKI: 0.00026


PSCL2 TOTAL     ACCESS:       3935  HIT:       1906  MISS:       2029  HIT %:    48.4371  MISS %:    51.5629   MPKI: 0.04058
PSCL2 LOAD TRANSLATION INSTRUCTION	ACCESS:       2146  HIT:       1878  MISS:        268  HIT %:    87.5116  MISS %:    12.4884  MPKI: 0.00536
PSCL2 TRANSLATION FROM L1D PREFETCHER INSTRUCTION	ACCESS:         28  HIT:         28  MISS:          0  HIT %:        100  MISS %:          0  MPKI: 0
PSCL2 LOAD TRANSLATION DATA	ACCESS:       1733  HIT:          0  MISS:       1733  HIT %:          0  MISS %:        100  MPKI: 0.03466
PSCL2 TRANSLATION FROM L1D PREFETCHER DATA	ACCESS:         28  HIT:          0  MISS:         28  HIT %:          0  MISS %:        100  MPKI: 0.00056


LLC TOTAL     ACCESS:     548812  HIT:     520854  MISS:      27958  HIT %:    94.9057  MISS %:    5.09428   MPKI: 0.55916
LLC LOAD INSTRUCTION	ACCESS:     263410  HIT:     262516  MISS:        894  HIT %:    99.6606  MISS %:   0.339395  MPKI: 0.01788
LLC LOAD TRANSLATION INSTRUCTION	ACCESS:        240  HIT:        210  MISS:         30  HIT %:       87.5  MISS %:       12.5  MPKI: 0.0006
LLC LOAD DATA	ACCESS:      75377  HIT:      71892  MISS:       3485  HIT %:    95.3766  MISS %:    4.62343  MPKI: 0.0697
LLC RFO DATA	ACCESS:      57847  HIT:      44790  MISS:      13057  HIT %:    77.4284  MISS %:    22.5716  MPKI: 0.26114
LLC PREFETCH DATA	ACCESS:      74258  HIT:      64208  MISS:      10050  HIT %:    86.4661  MISS %:    13.5339  MPKI: 0.201
LLC WRITEBACK DATA	ACCESS:      76312  HIT:      75959  MISS:        353  HIT %:    99.5374  MISS %:   0.462575  MPKI: 0.00706
LLC LOAD TRANSLATION DATA	ACCESS:       1361  HIT:       1272  MISS:         89  HIT %:    93.4607  MISS %:    6.53931  MPKI: 0.00178
LLC TRANSLATION FROM L1D PREFETCHER DATA	ACCESS:          7  HIT:          7  MISS:          0  HIT %:        100  MISS %:          0  MPKI: 0

LLC AVERAGE MISS LATENCY: 156.52 cycles
LLC RQ	ACCESS:     398245	FORWARD:          0	MERGED:          0	TO_CACHE:     398241
LLC WQ	ACCESS:      76312	FORWARD:          4	MERGED:          0	TO_CACHE:      76312
LLC PQ	ACCESS:      74258	FORWARD:          0	MERGED:          0	TO_CACHE:      74258

LLC Dense regions hint to LLC: 0

RAW hits: 1950983
Loads Generated: 12612616
Loads sent to L1D: 10661633
Stores Generated: 6928273
Stores sent to L1D: 6928288
Major fault: 0 Minor fault: 2567
Allocated PAGES: 2567

stream: 
stream:times selected: 1228812
stream:pref_filled: 127138
stream:pref_useful: 28019
stream:pref_late: 8774
stream:misses: 8867
stream:misses_by_poll: 0

CS: 
CS:times selected: 188892
CS:pref_filled: 69831
CS:pref_useful: 45567
CS:pref_late: 9693
CS:misses: 22015
CS:misses_by_poll: 2

CPLX: 
CPLX:times selected: 1038803
CPLX:pref_filled: 23497
CPLX:pref_useful: 6960
CPLX:pref_late: 3524
CPLX:misses: 119345
CPLX:misses_by_poll: 0

NL_L1: 
NL:times selected: 12297
NL:pref_filled: 1526
NL:pref_useful: 237
NL:pref_late: 216
NL:misses: 1596
NL:misses_by_poll: 0

total selections: 2468804
total_filled: 103275
total_useful: 44200
total_late: 24094
total_polluted: 2
total_misses_after_warmup: 800235
conflicts: 5497075

test: 117430

DRAM Statistics
 CHANNEL 0
 RQ ROW_BUFFER_HIT:       9926  ROW_BUFFER_MISS:      17674
 DBUS_CONGESTED:         11
 WQ ROW_BUFFER_HIT:       1372  ROW_BUFFER_MISS:      12278  FULL:          0

 AVG_CONGESTED_CYCLE: 4

CPU 0 Branch Prediction Accuracy: 99.8139% MPKI: 0.34088 Average ROB Occupancy at Mispredict: 190.252
Branch types
NOT_BRANCH: 40841507 81.683%
BRANCH_DIRECT_JUMP: 545247 1.09049%
BRANCH_INDIRECT: 181516 0.363032%
BRANCH_CONDITIONAL: 6197943 12.3959%
BRANCH_DIRECT_CALL: 945050 1.8901%
BRANCH_INDIRECT_CALL: 171838 0.343676%
BRANCH_RETURN: 1116893 2.23379%
BRANCH_OTHER: 0 0%

DRAM PAGES: 1048576
Allocated PAGES: 2567
Average_ROB_Occupancy: 255.036
Average_Decode_Occupancy: 39.7253
Average_FTQ_Occupancy: 15.9788
Indirect max targets: 14 Average targets: 1.15182
Branch_type:  BRANCH_DIRECT_JUMP:  Count Percentage: 2.90114 7.61231 3.32713 7.29824 1.87395 3.03862 0.980298 72.9683 
Branch_type:  BRANCH_INDIRECT:  Count Percentage: 11.7623 3.42909 2.53583 9.67335 3.34915 4.018 2.00982 63.2225 
Branch_type:  BRANCH_CONDITIONAL:  Count Percentage: 21.1288 6.70915 1.64177 4.5187 5.90282 2.81989 0.646939 56.632 
Branch_type:  BRANCH_DIRECT_CALL:  Count Percentage: 0.734978 1.24578 1.1277 3.76749 2.50496 2.07335 0.439742 88.106 
Branch_type:  BRANCH_INDIRECT_CALL:  Count Percentage: 9.55957 0.568935 2.99532 4.8513 0.969968 2.99415 0.998341 77.0624 
Branch_type:  BRANCH_RETURN:  Count Percentage: 4.21149 3.79208 1.64238 5.53923 7.8068 4.40885 1.06659 71.5326 
Branch_type:  BRANCH_DIRECT_JUMP:  Total Count: 31675 83112 36326 79683 20460 33176 10703 796676 
Branch_type:  BRANCH_INDIRECT:  Total Count: 42822 12484 9232 35217 12193 14628 7317 230169 
Branch_type:  BRANCH_CONDITIONAL:  Total Count: 2618975 831619 203502 560106 731672 349534 80190 7019706 
Branch_type:  BRANCH_DIRECT_CALL:  Total Count: 13819 23423 21203 70836 47098 38983 8268 1656563 
Branch_type:  BRANCH_INDIRECT_CALL:  Total Count: 32681 1945 10240 16585 3316 10236 3413 263451 
Branch_type:  BRANCH_RETURN:  Total Count: 93616 84293 36508 123130 173535 98003 23709 1590077 
Number of unique branch instructions: 10075
Upper 32 bits: 
aaaa
ffff
ffff0000
Unique upper 32 bits: 3
Unique upper 36 bits: 3
Unique upper 40 bits: 5
Unique upper 44 bits: 32
Unique upper 48 bits: 157
Variant_0 : 1398 0.341309
Variant_1 : 2640 0.644531
Variant_2 : 0 0
Variant_3 : 0 0
Offset_3 4143
Offset_4 261
Offset_5 465
Offset_6 510
Offset_7 588
Offset_8 520
Offset_9 483
Offset_10 388
Offset_11 310
Offset_12 277
Offset_13 210
Offset_14 228
Offset_15 188
Offset_16 225
Offset_17 154
Offset_18 118
Offset_19 239
Offset_20 138
Offset_21 261
Offset_22 395
Offset_23 241
Offset_24 350
Offset_25 88
Offset_47 86
decode_dispatch_called: 26616965 74.2708
Dispatch_width: 0 14371298 53.993 40.101
Dispatch_width: 1 1042507 3.9167 2.90896
Dispatch_width: 2 862940 3.24207 2.40791
Dispatch_width: 3 493658 1.85467 1.37748
Dispatch_width: 4 6620651 24.8738 18.474
Dispatch_width: 5 87431 0.328478 0.243964
Dispatch_width: 6 3138480 11.7913 8.75747
Empty_decode_cycles: 9220766 25.7292
ROB_full_cycles: 10576536 29.5123
Starvation_cycles_per_kilo_instr: 221.227
Starvation_cycles_per_kilo_instr_3: 154.146
Starvation_cycles_per_kilo_instr_0: 130.155
Branch_type_1  (3,1)  (4,10)  (5,39)  (6,70)  (7,115)  (8,132)  (9,128)  (10,100)  (11,69)  (12,43)  (13,8)  (14,2)  (15,3)  (16,4)  (18,1)  (19,4)  (20,2)  (21,1)  (22,3)  (23,2)  (24,10)  (25,12) 
Branch_type_2  (3,1)  (5,1)  (8,3)  (9,3)  (12,1)  (13,1)  (14,1)  (16,3)  (17,2)  (20,2)  (21,2)  (23,5)  (24,1)  (47,40) 
Branch_type_3  (3,4141)  (4,251)  (5,421)  (6,425)  (7,443)  (8,325)  (9,268)  (10,157)  (11,123)  (12,50)  (13,7) 
Branch_type_4  (6,3)  (7,8)  (8,25)  (9,52)  (10,61)  (11,61)  (12,99)  (13,89)  (14,101)  (15,89)  (16,100)  (17,69)  (18,53)  (19,117)  (20,71)  (21,141)  (22,210)  (23,136)  (24,200)  (25,72) 
Branch_type_5  (8,2)  (9,1)  (10,4)  (11,5)  (12,3)  (13,14)  (14,16)  (15,11)  (16,20)  (17,11)  (18,16)  (19,13)  (20,11)  (21,13)  (22,42)  (23,26)  (24,41) 
Branch_type_6  (5,4)  (6,12)  (7,22)  (8,33)  (9,31)  (10,66)  (11,52)  (12,81)  (13,91)  (14,108)  (15,85)  (16,98)  (17,72)  (18,48)  (19,105)  (20,52)  (21,104)  (22,140)  (23,72)  (24,98)  (25,4)  (47,46) 
Unique trigger count: 
Variant_0_evicts_0 : 0
Variant_0_evicts_1 : 0
Variant_0_evicts_2 : 0
Variant_0_evicts_3 : 0
Variant_1_evicts_0 : 0
Variant_1_evicts_1 : 0
Variant_1_evicts_2 : 0
Variant_1_evicts_3 : 0
Variant_2_evicts_0 : 0
Variant_2_evicts_1 : 0
Variant_2_evicts_2 : 0
Variant_2_evicts_3 : 0
Variant_3_evicts_0 : 0
Variant_3_evicts_1 : 0
Variant_3_evicts_2 : 0
Variant_3_evicts_3 : 0
BTB PER SET UNIQUE ADDR: 8 15 8 15 13 13 10 13 9 12 11 12 12 10 13 6 9 12 14 12 14 10 13 14 8 12 10 9 7 8 8 10 12 7 7 12 8 13 9 12 10 10 12 13 6 8 12 8 8 10 13 12 8 9 10 7 7 9 6 8 10 14 11 8 14 12 13 8 12 12 8 11 16 13 11 9 8 13 8 15 12 6 10 13 11 11 10 11 9 15 9 11 15 11 11 14 8 12 12 9 15 11 9 8 11 10 7 11 5 12 10 14 11 8 7 6 9 17 10 10 10 9 9 10 9 10 7 12 12 9 8 14 12 12 12 9 8 15 12 18 10 11 9 11 11 9 13 10 8 11 12 9 13 10 10 14 9 8 13 10 9 9 12 10 10 11 11 9 10 12 12 10 10 12 10 8 10 10 14 11 8 9 9 11 13 15 7 8 12 11 10 10 8 11 13 9 5 14 5 9 12 8 12 11 10 9 14 13 10 12 8 8 12 12 8 10 10 11 13 16 5 8 8 11 8 12 16 9 9 10 9 8 11 13 11 9 11 10 12 9 8 9 15 10 10 8 8 12 12 11 13 12 12 7 15 11 9 6 11 9 11 10 5 14 10 8 11 11 10 8 12 11 11 8 7 6 12 12 9 14 12 10 9 13 11 9 11 14 15 16 13 9 10 14 8 14 12 9 9 11 8 12 6 19 16 15 11 11 16 10 13 12 7 17 9 7 13 11 11 18 10 8 9 13 13 11 9 6 11 6 8 14 9 9 8 9 9 11 7 15 10 15 10 12 14 15 10 9 13 10 12 8 11 9 11 8 7 10 6 9 9 16 9 13 10 14 8 9 8 12 13 9 14 12 8 15 10 14 11 11 11 9 10 12 12 12 12 13 10 11 13 9 15 18 9 10 10 10 10 10 9 11 8 14 10 12 11 15 12 11 16 6 10 9 10 9 9 8 16 15 11 9 12 11 10 10 10 11 13 12 12 13 6 7 15 10 14 5 10 12 8 10 7 13 15 9 7 8 11 16 12 17 14 9 14 13 12 11 10 13 9 11 7 11 12 9 8 13 8 9 12 10 12 11 14 13 11 14 14 8 14 16 11 14 10 13 11 12 14 12 8 12 6 7 12 10 14 8 10 11 12 14 13 15 11 7 10 11 11 10 10 10 11 10 11 12 11 14 9 7 11 7 11 9 9 10 19 7 5 9 13 8 14 11 10 10 9 15 10 10 11 9 16 11 12 9 8 13 10 8 15 12 12 10 13 16 10 9 15 12 9 12 11 14 9 12 13 10 11 12 13 10 14 15 10 12 15 14 14 12 14 11 5 10 15 7 8 13 12 11 11 7 10 9 12 10 12 14 9 12 9 7 13 5 7 13 13 12 12 9 11 11 7 11 7 11 9 12 10 15 14 10 6 8 8 12 11 14 10 11 8 14 10 16 7 10 7 14 13 8 12 8 10 12 8 10 11 10 14 8 7 15 9 6 13 12 8 11 8 12 11 6 15 14 12 10 6 12 11 9 8 9 10 9 16 13 8 14 9 15 12 13 12 11 13 14 12 10 11 13 11 12 13 7 11 11 10 13 8 10 9 10 9 15 8 15 9 11 10 10 8 13 11 11 9 9 14 11 12 10 9 11 12 10 11 7 11 6 9 12 13 9 14 8 12 13 16 13 9 8 9 9 10 12 11 8 8 13 8 12 15 9 11 11 8 13 16 12 11 12 13 6 8 10 17 9 7 9 14 14 11 8 12 9 9 9 11 10 10 14 8 14 14 8 13 6 11 16 7 10 9 6 10 7 14 9 7 11 14 10 14 12 14 13 14 14 11 11 9 7 13 15 12 12 9 9 13 13 10 15 8 13 5 11 15 9 7 11 11 17 12 16 15 11 8 11 14 11 9 8 14 10 11 12 12 16 8 12 8 11 9 6 7 11 8 13 8 10 8 8 10 6 11 8 10 8 14 7 14 5 9 12 14 11 13 6 12 11 8 13 7 7 11 10 12 15 10 10 11 11 14 9 11 7 8 15 16 10 9 9 10 7 11 9 9 13 6 11 12 10 10 11 15 18 12 11 12 9 10 10 13 9 10 10 10 10 7 8 11 12 10 16 15 8 10 15 12 13 17 10 6 15 11 11 8 8 8 13 12 12 7 11 6 10 10 14 10 11 9 13 16 13 12 14 14 12 14 11 9 11 13 11 10 10 13 10 18 13 13 12 10 13 14 11 6 15 17 9 14 13 8 13 9 11 10 7 11 11 13 8 9 8 10 8 11 12 7 15 7 12 12 12 12 6 7 13 3 9 6 9 6 10 13 8 
BTB PER SET COUNT: 983 16 1956 19 20 16 1467 98 1473 15 18 13 16498 13 15 6 15 15 149 19 18 14 503 83 9 17 14 10 7 10 11 12 12 13 11 245 12 21 10 1963 11 14 16 15 14 115 14 11 11 15 16 543 16 12 383 382 10 9 7 15 13 17 298 8 16 16 20 10 21 18 1470 11 22 16 14 12 12 1132 9 24 278 8 14 13 12 36 10 13 1473 21 13 12 20 15 16 17 1072 23 15 9 18 17 9 383 2117 14 10 11 5 833 12 25 1636 12 7 527 11 23 1107 11 584 39 9 11 11 11 8 20 16 982 9 4405 14 19 127 9 987 23 13 23 15 13 10 18 11 9 606 19 12 31 16 289 995 17 13 24 470 9 17 14 10 186 17 14 1474 17 11 11 11 15 22 10 14 18 13 8 12 14 423 15 122 12 49 14 17 1159 12 10 18 12 14 15 9 13 21 9 6 990 6 11 15 13 989 13 11 9 19 15 11 1475 9 10 21 455 13 599 11 15 1364 21 10 13 11 15 15 19 21 247 764 14 11 9 16 18 19 11 15 16 20 13 13 11 21 13 15 8 12 18 20 13 19 16 12 7 28 23 107 6 13 14 14 10 5 21 10 8 14 15 396 10 15 15 135 11 7 6 13 14 10 965 16 15 11 983 14 12 12 16 22 18 16 9 14 402 8 21 205 11 11 27 8 25 6 25 20 42 20 497 28 169 991 18 8 21 1780 980 17 17 15 40 14 2932 11 18 900 15 10 7 16 8 8 22 33 12 10 11 14 516 12 17 10 1176 16 14 23 17 14 19 14 11 16 1472 20 10 16 8 8 11 224 13 15 21 19 15 13 2103 10 12 16 15 14 15 14 17 409 26 15 17 14 1265 987 10 14 13 18 12 16 13 12 12 18 13 23 177 9 43 10 13 10 19 16 13 10 22 14 16 24 503 16 15 65 6 12 9 12 10 12 4186 24 16 16 9 21 12 10 16 255 16 18 883 19 15 8 8 26 16 20 5 10 18 12 14 12 18 279 9 516 11 14 22 1370 835 21 12 25 60 18 14 11 18 9 14 8 17 15 126 4101 15 9 11 25 16 20 13 26 14 15 17 21 12 21 27 13 26 11 127 13 18 20 18 13 18 6 8 17 13 1280 10 11 16 15 25 17 43 15 9 19 12 21 10 497 25 15 1114 14 22 13 22 13 9 15 9 11 10 11 12 24 1474 5 2334 22 13 19 13 13 13 9 28 12 625 16 10 53 19 18 13 11 17 12 11 17 18 13 12 23 19 13 12 27 20 14 17 12 24 12 15 23 11 13 14 16 14 21 29 15 15 33 23 15 20 20 15 5 973 22 13 10 19 22 13 13 9 12 10 16 13 2433 73 12 15 14 7 17 5 7 26 18 24 16 14 11 15 9 11 8 12 10 15 10 508 16 15 6 9 10 17 15 22 10 990 9 92 11 166 9 13 8 46 15 9 17 9 10 726 1024 119 441 14 21 8 7 19 10 7 1997 119 9 57 27 13 12 6 16 25 18 16 8 1597 1692 11 8 12 908 9 826 39 8 18 13 28 19 15 993 23 1958 18 17 13 13 24 16 16 18 7 847 17 279 285 12 14 162 17 11 19 9 125 9 15 18 14 383 85 988 16 11 153 599 204 15 12 12 558 20 1474 12 7 13 8 982 17 409 10111 15 9 19 1755 374 14 17 8 15 19 989 22 720 9 404 16 17 19 20 11 1239 16 11 18 20 886 14 16 20 11 9 14 23 11 7 11 20 15 13 349 17 9 17 13 18 985 12 145 1467 18 985 9 22 225 13 25 19 12 10 951 12 7 1148 13 207 18 20 1362 64 15 327 17 49 18 12 15 13 55 16 9704 18 14 9 23 1016 17 16 17 9 1174 5 15 808 9 7 12 11 397 17 22 19 14 498 20 20 950 13 494 20 991 16 14 770 25 17 14 11 12 27 6 10 20 9 25 13 11 12 8 983 7 13 8 726 9 20 8 14 5 308 19 15 16 14 6 18 17 23 18 7 9 14 13 374 1520 10 11 11 24 17 1466 20 9 8 25 26 13 17 11 15 7 20 249 10 25 7 15 123 11 142 254 21 29 22 228 17 1030 13 13 20 142 12 13 13 16 9 8 12 14 14 25 18 9 17 2116 12 20 1726 15 6 1115 16 13 9 630 16 17 12 18 7 11 9 360 12 17 12 12 13 18 19 21 14 19 23 15 21 11 12 128 23 16 15 10 20 13 32 16 431 14 11 1325 19 239 6 27 29 366 17 18 10 176 9 17 1280 7 15 1480 23 17 15 12 14 8 19 19 8 27 7 999 698 14 13 7 9 15 3 10 6 11 6 538 33 8 
To predecode: 0
Predecoding something: 0
Predecode request dropped: 0
sizeofblock_0 0
sizeofblock_1 46931
sizeofblock_2 93086
sizeofblock_3 0
sizeofblock_4 0
sizeofblock_5 0
sizeofblock_6 0
sizeofblock_7 0
sizeofblock_8 0
Variant_0 Correct: 1607927 Incorrect: 0 Accuracy: 1
Variant_1 Correct: 5715378 Incorrect: 0 Accuracy: 1
Variant_2 Correct: 0 Incorrect: 0 Accuracy: -nan
Variant_3 Correct: 0 Incorrect: 0 Accuracy: -nan
