Set 35: way: 00
Set 35: way: 11
Set 35: way: 22
Set 35: way: 33

*** ChampSim Multicore Out-of-Order Simulator ***

Warmup Instructions: 50000000
Simulation Instructions: 50000000
Number of CPUs: 1
LLC sets: 2048
LLC ways: 16
Off-chip DRAM Size: 4096 MB Channels: 1 Width: 64-bit Data Rate: 6400 MT/s
CPU 0 runs ./micro_traces/srv696.trace.gz
.gz
ITLB has LRU replacement policy
DTLB has LRU replacement policy
STLB has LRU replacement policy
L1I has LRU replacement policy
L1D has LRU replacement policy
Initialize SRRIP state for L2C
Initialize DRRIP state for LLC
Heartbeat CPU 0 instructions: 10000001 cycles: 2796970 heartbeat IPC: 3.5753 cumulative IPC: 3.5753 (Simulation time: 0 hr 1 min 37 sec) 
Heartbeat CPU 0 instructions: 20000000 cycles: 5594099 heartbeat IPC: 3.57509 cumulative IPC: 3.5752 (Simulation time: 0 hr 3 min 14 sec) 
Heartbeat CPU 0 instructions: 30000002 cycles: 8390680 heartbeat IPC: 3.5758 cumulative IPC: 3.5754 (Simulation time: 0 hr 4 min 50 sec) 
Heartbeat CPU 0 instructions: 40000003 cycles: 11188010 heartbeat IPC: 3.57484 cumulative IPC: 3.57526 (Simulation time: 0 hr 6 min 30 sec) 
Heartbeat CPU 0 instructions: 50000003 cycles: 13982686 heartbeat IPC: 3.57823 cumulative IPC: 3.57585 (Simulation time: 0 hr 8 min 8 sec) 

Warmup complete CPU 0 instructions: 50000003 cycles: 13982686 (Simulation time: 0 hr 8 min 8 sec) 

Cycle: 20000000 FTQ IN: 56931757 FTQ occupancy: 17.8601 DECODE IN: 56931699 DECODE occupancy: 45.9846 ROB IN: 56931699 ROB occupancy: 282.564 ROB OUT: 56931475
Heartbeat CPU 0 instructions: 60000000 cycles: 22618417 heartbeat IPC: 1.15798 cumulative IPC: 1.15798 (Simulation time: 0 hr 9 min 28 sec) 
Cycle: 30000000 FTQ IN: 11694962 FTQ occupancy: 5.71986 DECODE IN: 11695020 DECODE occupancy: 12.9592 ROB IN: 11695013 ROB occupancy: 127.936 ROB OUT: 11694956
Heartbeat CPU 0 instructions: 70000000 cycles: 31176066 heartbeat IPC: 1.16855 cumulative IPC: 1.16324 (Simulation time: 0 hr 10 min 48 sec) 
Heartbeat CPU 0 instructions: 80000001 cycles: 39782611 heartbeat IPC: 1.16191 cumulative IPC: 1.16279 (Simulation time: 0 hr 12 min 10 sec) 
Cycle: 40000000 FTQ IN: 11626526 FTQ occupancy: 5.86061 DECODE IN: 11626526 DECODE occupancy: 13.2082 ROB IN: 11626533 ROB occupancy: 129.15 ROB OUT: 11626753
Heartbeat CPU 0 instructions: 90000001 cycles: 48326903 heartbeat IPC: 1.17037 cumulative IPC: 1.16468 (Simulation time: 0 hr 13 min 31 sec) 
Cycle: 50000000 FTQ IN: 11705225 FTQ occupancy: 5.66629 DECODE IN: 11705225 DECODE occupancy: 12.8274 ROB IN: 11705170 ROB occupancy: 128.086 ROB OUT: 11704879
Heartbeat CPU 0 instructions: 100000003 cycles: 56979782 heartbeat IPC: 1.15568 cumulative IPC: 1.16287 (Simulation time: 0 hr 14 min 48 sec) 
Finished CPU 0 instructions: 50000000 cycles: 42997096 cumulative IPC: 1.16287 (Simulation time: 0 hr 14 min 48 sec) 

ChampSim completed all CPUs

Region of Interest Statistics

CPU 0 cumulative IPC: 1.16287 instructions: 50000000 cycles: 42997096
 Fetch stage stalled: 72.4668  Sim cycles: 42997096 fetch stall cycle: 31158621
 Empty decode stage: 66.9664  Sim cycles: 42997096 fetch stall cycle: 28793601
ITLB TOTAL     ACCESS:    9151557  HIT:    8652811  MISS:     498746  HIT %:    94.5502  MISS %:    5.44985   MPKI: 9.97492
ITLB LOAD TRANSLATION INSTRUCTION	ACCESS:    5860554  HIT:    5438186  MISS:     422368  HIT %:     92.793  MISS %:    7.20696  MPKI: 8.44736
ITLB TRANSLATION FROM L1D PREFETCHER INSTRUCTION	ACCESS:    3291003  HIT:    3214625  MISS:      76378  HIT %:    97.6792  MISS %:    2.32081  MPKI: 1.52756

ITLB AVERAGE MISS LATENCY: 2.88948e+07 cycles
ITLB RQ	ACCESS:   11222614	FORWARD:          0	MERGED:    1301216	TO_CACHE:    9921398

DTLB TOTAL     ACCESS:    9386998  HIT:    8913088  MISS:     473910  HIT %:    94.9514  MISS %:    5.04858   MPKI: 9.4782
DTLB LOAD TRANSLATION DATA	ACCESS:    9386998  HIT:    8913088  MISS:     473910  HIT %:    94.9514  MISS %:    5.04858  MPKI: 9.4782

DTLB AVERAGE MISS LATENCY: 9.319 cycles
DTLB RQ	ACCESS:   13659999	FORWARD:          0	MERGED:    4240197	TO_CACHE:    9419802

STLB TOTAL     ACCESS:    1225087  HIT:    1223034  MISS:       2053  HIT %:    99.8324  MISS %:    0.16758   MPKI: 0.04106
STLB LOAD TRANSLATION INSTRUCTION	ACCESS:      15747  HIT:      15732  MISS:         15  HIT %:    99.9047  MISS %:  0.0952562  MPKI: 0.0003
STLB TRANSLATION FROM L1D PREFETCHER INSTRUCTION	ACCESS:     482999  HIT:     482766  MISS:        233  HIT %:    99.9518  MISS %:  0.0482403  MPKI: 0.00466
STLB LOAD TRANSLATION DATA	ACCESS:     473876  HIT:     472099  MISS:       1777  HIT %:     99.625  MISS %:   0.374993  MPKI: 0.03554
STLB TRANSLATION FROM L1D PREFETCHER DATA	ACCESS:     252465  HIT:     252437  MISS:         28  HIT %:    99.9889  MISS %:  0.0110906  MPKI: 0.00056

STLB AVERAGE MISS LATENCY: 72.2182 cycles
STLB RQ	ACCESS:    1345759	FORWARD:          0	MERGED:     120627	TO_CACHE:    1225132

STLB Hit, L1D data hit: 0
STLB Hit, L2C data hit: 0
STLB Hit, LLC data hit: 0
STLB Hit, LLC data miss: 0
STLB STLB hints to L2: 0
L1D TOTAL     ACCESS:   13421542  HIT:   12302441  MISS:    1119101  HIT %:    91.6619  MISS %:     8.3381   MPKI: 22.382
L1D LOAD DATA	ACCESS:    6850594  HIT:    6113432  MISS:     737162  HIT %:    89.2394  MISS %:    10.7606  MPKI: 14.7432
L1D RFO DATA	ACCESS:    6241189  HIT:    5954015  MISS:     287174  HIT %:    95.3987  MISS %:    4.60127  MPKI: 5.74348
L1D PREFETCH DATA	ACCESS:     329759  HIT:     234994  MISS:      94765  HIT %:    71.2623  MISS %:    28.7377  MPKI: 1.8953

L1D PREFETCH  REQUESTED:     746480  ISSUED:     746480  USEFUL:      36430  USELESS:      68730
L1D USEFUL LOAD PREFETCHES:      36430 PREFETCH ISSUED TO LOWER LEVEL:     105204  ACCURACY: 34.628
 TIMELY PREFETCHES:      36430 LATE PREFETCHES: 10378 DROPPED PREFETCHES: 14
L1D AVERAGE MISS LATENCY: 331702 cycles
L1D RQ	ACCESS:   10911544	FORWARD:          0	MERGED:    3859766	TO_CACHE:    6885924
L1D WQ	ACCESS:    6949900	FORWARD:     166130	MERGED:     175825	TO_CACHE:    6774075
L1D PQ	ACCESS:     373378	FORWARD:          0	MERGED:          0	TO_CACHE:     373102

L1D UNIQUE REGIONS ACCESSED: 0
L1D REGIONS CONFLICTS: 0
L1D Cross Page Prefetch Requests: 7034
L1D Same Page Prefetch Requests: 746407
L1D ROI Sum of L1D PQ occupancy: 4738966
L1D PREFETCHES PUSHED FROM L2C: 0
L1I TOTAL     ACCESS:    9768524  HIT:    7001458  MISS:    2767066  HIT %:    71.6737  MISS %:    28.3263   MPKI: 55.3413
L1I LOAD INSTRUCTION	ACCESS:    6727117  HIT:    4225925  MISS:    2501192  HIT %:    62.8193  MISS %:    37.1807  MPKI: 50.0238
L1I PREFETCH INSTRUCTION	ACCESS:    3041407  HIT:    2775533  MISS:     265874  HIT %:    91.2582  MISS %:    8.74181  MPKI: 5.31748

L1I PREFETCH  REQUESTED:    4595515  ISSUED:    4595515  USEFUL:    1026752  USELESS:       1937
L1I USEFUL LOAD PREFETCHES:    1026752 PREFETCH ISSUED TO LOWER LEVEL:    1028688  ACCURACY: 99.8118
 TIMELY PREFETCHES:    1026752 LATE PREFETCHES: 762815 DROPPED PREFETCHES: 1
L1I AVERAGE MISS LATENCY: 9.77641e+06 cycles
L1I RQ	ACCESS:    9438895	FORWARD:          0	MERGED:    2558885	TO_CACHE:    6880010
L1I PQ	ACCESS:    4595515	FORWARD:          0	MERGED:     252911	TO_CACHE:    4342604

BTB TOTAL     ACCESS:    6782085  HIT:    6240997  MISS:     466567  MISS TARGET:      74521  HIT %:    92.0218  MISS %:     6.8794   MPKI: 9.33134
BTB BRANCH_DIRECT_JUMP	ACCESS:     546686  HIT:     508895  MISS:      31815  MISS TARGET:       5976	AVERAGE STALL: 29.6449
BTB BRANCH_INDIRECT	ACCESS:     182830  HIT:     167859  MISS:       2554  MISS TARGET:      12417	AVERAGE STALL: 75.2065
BTB BRANCH_CONDITIONAL	ACCESS:    3821780  HIT:    3513939  MISS:     307770  MISS TARGET:         71	AVERAGE STALL: 33.0805
BTB BRANCH_DIRECT_CALL	ACCESS:     944188  HIT:     865680  MISS:      78508  MISS TARGET:          0	AVERAGE STALL: 35.8
BTB BRANCH_INDIRECT_CALL	ACCESS:     171217  HIT:     141025  MISS:      12072  MISS TARGET:      18120	AVERAGE STALL: 111.416
BTB BRANCH_RETURN	ACCESS:    1115384  HIT:    1043599  MISS:      33848  MISS TARGET:      37937	AVERAGE STALL: 33.8124
BTB BRANCH_OTHER ACCESS:          0  HIT:          0  MISS:          0  MISS TARGET:          0	AVERAGE STALL: -nan
L2C TOTAL     ACCESS:    5406806  HIT:    4836491  MISS:     570315  HIT %:    89.4519  MISS %:    10.5481   MPKI: 11.4063
L2C LOAD INSTRUCTION	ACCESS:    1738376  HIT:    1581042  MISS:     157334  HIT %:    90.9494  MISS %:    9.05063  MPKI: 3.14668
L2C PREFETCH INSTRUCTION	ACCESS:    1028688  HIT:     923596  MISS:     105092  HIT %:    89.7839  MISS %:    10.2161  MPKI: 2.10184
L2C LOAD TRANSLATION INSTRUCTION	ACCESS:         17  HIT:          5  MISS:         12  HIT %:    29.4118  MISS %:    70.5882  MPKI: 0.00024
L2C TRANSLATION FROM L1D PREFETCHER INSTRUCTION	ACCESS:        264  HIT:         69  MISS:        195  HIT %:    26.1364  MISS %:    73.8636  MPKI: 0.0039
L2C LOAD DATA	ACCESS:     726763  HIT:     638489  MISS:      88274  HIT %:    87.8538  MISS %:    12.1462  MPKI: 1.76548
L2C RFO DATA	ACCESS:     287082  HIT:     229058  MISS:      58024  HIT %:    79.7884  MISS %:    20.2116  MPKI: 1.16048
L2C PREFETCH DATA	ACCESS:    1101091  HIT:     958408  MISS:     142683  HIT %:    87.0417  MISS %:    12.9583  MPKI: 2.85366
L2C WRITEBACK DATA	ACCESS:     522615  HIT:     505274  MISS:      17341  HIT %:    96.6819  MISS %:    3.31812  MPKI: 0.34682
L2C LOAD TRANSLATION DATA	ACCESS:       1853  HIT:        510  MISS:       1343  HIT %:    27.5229  MISS %:    72.4771  MPKI: 0.02686
L2C TRANSLATION FROM L1D PREFETCHER DATA	ACCESS:         57  HIT:         40  MISS:         17  HIT %:    70.1754  MISS %:    29.8246  MPKI: 0.00034

L2C PREFETCH  REQUESTED:    1100098  ISSUED:    1100098  USEFUL:      36591  USELESS:     224307
L2C USEFUL LOAD PREFETCHES:      36591 PREFETCH ISSUED TO LOWER LEVEL:     260015  ACCURACY: 14.0726
 TIMELY PREFETCHES:      36591 LATE PREFETCHES: 12240 DROPPED PREFETCHES: 0
L2C AVERAGE MISS LATENCY: 37.4426 cycles
L2C RQ	ACCESS:    2754464	FORWARD:          0	MERGED:          0	TO_CACHE:    2754412
L2C WQ	ACCESS:     522615	FORWARD:         52	MERGED:          0	TO_CACHE:     522615
L2C PQ	ACCESS:    2233990	FORWARD:          0	MERGED:      64130	TO_CACHE:    2169860

L2C Dense regions hint from L2: 0
PSCL5 TOTAL     ACCESS:       4146  HIT:       2073  MISS:       2073  HIT %:         50  MISS %:         50   MPKI: 0.04146
PSCL5 LOAD TRANSLATION INSTRUCTION	ACCESS:       3564  HIT:       1782  MISS:       1782  HIT %:         50  MISS %:         50  MPKI: 0.03564
PSCL5 TRANSLATION FROM L1D PREFETCHER INSTRUCTION	ACCESS:        582  HIT:        291  MISS:        291  HIT %:         50  MISS %:         50  MPKI: 0.00582


PSCL4 TOTAL     ACCESS:       3687  HIT:       1838  MISS:       1849  HIT %:    49.8508  MISS %:    50.1492   MPKI: 0.03698
PSCL4 LOAD TRANSLATION INSTRUCTION	ACCESS:       1591  HIT:       1570  MISS:         21  HIT %:    98.6801  MISS %:    1.31992  MPKI: 0.00042
PSCL4 TRANSLATION FROM L1D PREFETCHER INSTRUCTION	ACCESS:        345  HIT:        268  MISS:         77  HIT %:    77.6812  MISS %:    22.3188  MPKI: 0.00154
PSCL4 LOAD TRANSLATION DATA	ACCESS:       1560  HIT:          0  MISS:       1560  HIT %:          0  MISS %:        100  MPKI: 0.0312
PSCL4 TRANSLATION FROM L1D PREFETCHER DATA	ACCESS:        191  HIT:          0  MISS:        191  HIT %:          0  MISS %:        100  MPKI: 0.00382


PSCL3 TOTAL     ACCESS:       3731  HIT:       1860  MISS:       1871  HIT %:    49.8526  MISS %:    50.1474   MPKI: 0.03742
PSCL3 LOAD TRANSLATION INSTRUCTION	ACCESS:       1613  HIT:       1592  MISS:         21  HIT %:    98.6981  MISS %:    1.30192  MPKI: 0.00042
PSCL3 TRANSLATION FROM L1D PREFETCHER INSTRUCTION	ACCESS:        345  HIT:        268  MISS:         77  HIT %:    77.6812  MISS %:    22.3188  MPKI: 0.00154
PSCL3 LOAD TRANSLATION DATA	ACCESS:       1582  HIT:          0  MISS:       1582  HIT %:          0  MISS %:        100  MPKI: 0.03164
PSCL3 TRANSLATION FROM L1D PREFETCHER DATA	ACCESS:        191  HIT:          0  MISS:        191  HIT %:          0  MISS %:        100  MPKI: 0.00382


PSCL2 TOTAL     ACCESS:       4047  HIT:       1974  MISS:       2073  HIT %:    48.7769  MISS %:    51.2231   MPKI: 0.04146
PSCL2 LOAD TRANSLATION INSTRUCTION	ACCESS:       1749  HIT:       1709  MISS:         40  HIT %:     97.713  MISS %:    2.28702  MPKI: 0.0008
PSCL2 TRANSLATION FROM L1D PREFETCHER INSTRUCTION	ACCESS:        471  HIT:        265  MISS:        206  HIT %:    56.2633  MISS %:    43.7367  MPKI: 0.00412
PSCL2 LOAD TRANSLATION DATA	ACCESS:       1768  HIT:          0  MISS:       1768  HIT %:          0  MISS %:        100  MPKI: 0.03536
PSCL2 TRANSLATION FROM L1D PREFETCHER DATA	ACCESS:         59  HIT:          0  MISS:         59  HIT %:          0  MISS %:        100  MPKI: 0.00118


LLC TOTAL     ACCESS:     639366  HIT:     609197  MISS:      30169  HIT %:    95.2814  MISS %:    4.71858   MPKI: 0.60338
LLC LOAD INSTRUCTION	ACCESS:     145527  HIT:     145043  MISS:        484  HIT %:    99.6674  MISS %:   0.332584  MPKI: 0.00968
LLC PREFETCH INSTRUCTION	ACCESS:     103469  HIT:     103153  MISS:        316  HIT %:    99.6946  MISS %:   0.305405  MPKI: 0.00632
LLC LOAD TRANSLATION INSTRUCTION	ACCESS:         12  HIT:          5  MISS:          7  HIT %:    41.6667  MISS %:    58.3333  MPKI: 0.00014
LLC TRANSLATION FROM L1D PREFETCHER INSTRUCTION	ACCESS:        195  HIT:        171  MISS:         24  HIT %:    87.6923  MISS %:    12.3077  MPKI: 0.00048
LLC LOAD DATA	ACCESS:      87856  HIT:      84402  MISS:       3454  HIT %:    96.0686  MISS %:    3.93143  MPKI: 0.06908
LLC RFO DATA	ACCESS:      58008  HIT:      42577  MISS:      15431  HIT %:    73.3985  MISS %:    26.6015  MPKI: 0.30862
LLC PREFETCH DATA	ACCESS:     156546  HIT:     146544  MISS:      10002  HIT %:    93.6108  MISS %:    6.38918  MPKI: 0.20004
LLC WRITEBACK DATA	ACCESS:      86393  HIT:      86017  MISS:        376  HIT %:    99.5648  MISS %:    0.43522  MPKI: 0.00752
LLC LOAD TRANSLATION DATA	ACCESS:       1343  HIT:       1268  MISS:         75  HIT %:    94.4155  MISS %:    5.58451  MPKI: 0.0015
LLC TRANSLATION FROM L1D PREFETCHER DATA	ACCESS:         17  HIT:         17  MISS:          0  HIT %:        100  MISS %:          0  MPKI: 0

LLC AVERAGE MISS LATENCY: 157.72 cycles
LLC RQ	ACCESS:     292959	FORWARD:          0	MERGED:          0	TO_CACHE:     292958
LLC WQ	ACCESS:      86393	FORWARD:          1	MERGED:          0	TO_CACHE:      86393
LLC PQ	ACCESS:     260015	FORWARD:          0	MERGED:          0	TO_CACHE:     260015

LLC Dense regions hint to LLC: 0

RAW hits: 1727967
Loads Generated: 12639511
Loads sent to L1D: 10911544
Stores Generated: 6949898
Stores sent to L1D: 6949900
Major fault: 0 Minor fault: 2551
Allocated PAGES: 2551

stream: 
stream:times selected: 1182729
stream:pref_filled: 120541
stream:pref_useful: 23007
stream:pref_late: 8780
stream:misses: 7968
stream:misses_by_poll: 0

CS: 
CS:times selected: 179675
CS:pref_filled: 57164
CS:pref_useful: 34248
CS:pref_late: 10344
CS:misses: 19800
CS:misses_by_poll: 13

CPLX: 
CPLX:times selected: 1001891
CPLX:pref_filled: 19420
CPLX:pref_useful: 3809
CPLX:pref_late: 4195
CPLX:misses: 96683
CPLX:misses_by_poll: 1

NL_L1: 
NL:times selected: 21077
NL:pref_filled: 775
NL:pref_useful: 268
NL:pref_late: 392
NL:misses: 1899
NL:misses_by_poll: 0

total selections: 2385372
total_filled: 94765
total_useful: 36430
total_late: 25188
total_polluted: 14
total_misses_after_warmup: 772490
conflicts: 5665907

test: 118272

DRAM Statistics
 CHANNEL 0
 RQ ROW_BUFFER_HIT:      11251  ROW_BUFFER_MISS:      18528
 DBUS_CONGESTED:          9
 WQ ROW_BUFFER_HIT:       1446  ROW_BUFFER_MISS:      12671  FULL:          0

 AVG_CONGESTED_CYCLE: 6

CPU 0 Branch Prediction Accuracy: 99.8224% MPKI: 0.3247 Average ROB Occupancy at Mispredict: 150.045
Branch types
NOT_BRANCH: 40859959 81.7199%
BRANCH_DIRECT_JUMP: 546686 1.09337%
BRANCH_INDIRECT: 182830 0.36566%
BRANCH_CONDITIONAL: 6179284 12.3586%
BRANCH_DIRECT_CALL: 944188 1.88838%
BRANCH_INDIRECT_CALL: 171217 0.342434%
BRANCH_RETURN: 1115384 2.23077%
BRANCH_OTHER: 0 0%

DRAM PAGES: 1048576
Allocated PAGES: 2551
Average_ROB_Occupancy: 129.812
Average_Decode_Occupancy: 13.0864
Average_FTQ_Occupancy: 5.80177
Indirect max targets: 14 Average targets: 1.14915
Branch_type:  BRANCH_DIRECT_JUMP:  Count Percentage: 3.63652 6.64181 3.55445 8.24334 1.87287 6.34168 1.66038 68.0489 
Branch_type:  BRANCH_INDIRECT:  Count Percentage: 6.10941 3.41666 8.1456 9.68486 3.34739 2.81294 3.89059 62.5925 
Branch_type:  BRANCH_CONDITIONAL:  Count Percentage: 25.1231 3.49214 0.870614 4.98018 2.0006 4.0397 2.35348 57.1402 
Branch_type:  BRANCH_DIRECT_CALL:  Count Percentage: 0.90379 1.30861 0.419143 4.0103 2.34684 2.61171 3.39465 85.005 
Branch_type:  BRANCH_INDIRECT_CALL:  Count Percentage: 5.2889 0 7.29899 0 0 1.71739 5.00058 80.6941 
Branch_type:  BRANCH_RETURN:  Count Percentage: 8.32406 1.22665 1.18992 4.45199 3.27473 4.31622 2.89822 74.3182 
Branch_type:  BRANCH_DIRECT_JUMP:  Total Count: 39791 72675 38893 90199 20493 69391 18168 744595 
Branch_type:  BRANCH_INDIRECT:  Total Count: 22314 12479 29751 35373 12226 10274 14210 228613 
Branch_type:  BRANCH_CONDITIONAL:  Total Count: 3103920 431448 107563 615293 247171 499099 290769 7059575 
Branch_type:  BRANCH_DIRECT_CALL:  Total Count: 17095 24752 7928 75854 44390 49400 64209 1607851 
Branch_type:  BRANCH_INDIRECT_CALL:  Total Count: 18142 0 25037 0 0 5891 17153 276797 
Branch_type:  BRANCH_RETURN:  Total Count: 186065 27419 26598 99514 73199 96479 64783 1661211 
To Predecode: 22796246 Predecode_something: 34039603 Conditional: 14563171 Direct call: 8456423 Direct Branch: 3743073
Number of unique branch instructions: 9855
Upper 32 bits: 
aaaa
ffff
ffff0000
Unique upper 32 bits: 3
Unique upper 36 bits: 3
Unique upper 40 bits: 5
Unique upper 44 bits: 32
Unique upper 48 bits: 153
Offset_3 4064
Offset_4 244
Offset_5 448
Offset_6 500
Offset_7 578
Offset_8 514
Offset_9 464
Offset_10 375
Offset_11 313
Offset_12 269
Offset_13 203
Offset_14 225
Offset_15 189
Offset_16 219
Offset_17 144
Offset_18 126
Offset_19 235
Offset_20 139
Offset_21 235
Offset_22 389
Offset_23 241
Offset_24 331
Offset_25 88
Offset_47 82
decode_dispatch_called: 22040060 51.2594
Dispatch_width: 0 11602046 52.6407 26.9833
Dispatch_width: 1 626019 2.84037 1.45596
Dispatch_width: 2 915098 4.15198 2.12828
Dispatch_width: 3 568545 2.5796 1.32229
Dispatch_width: 4 1861257 8.44488 4.3288
Dispatch_width: 5 409744 1.85909 0.952957
Dispatch_width: 6 6057351 27.4834 14.0878
Empty_decode_cycles: 20957036 48.7406
ROB_full_cycles: 2301831 5.35346
Starvation_cycles_per_kilo_instr: 346.379
Starvation_cycles_per_kilo_instr_3: 323.669
Starvation_cycles_per_kilo_instr_0: 302.573
Branch_type_1  (3,1)  (4,7)  (5,36)  (6,69)  (7,114)  (8,127)  (9,123)  (10,98)  (11,70)  (12,44)  (13,5)  (14,2)  (15,3)  (16,4)  (18,1)  (19,4)  (20,2)  (21,1)  (22,3)  (23,2)  (24,10)  (25,12) 
Branch_type_2  (3,1)  (5,1)  (8,3)  (9,3)  (12,1)  (13,1)  (14,1)  (16,3)  (17,2)  (20,2)  (21,2)  (23,5)  (24,1)  (47,38) 
Branch_type_3  (3,4062)  (4,237)  (5,407)  (6,415)  (7,433)  (8,323)  (9,255)  (10,150)  (11,128)  (12,51)  (13,4) 
Branch_type_4  (6,4)  (7,8)  (8,26)  (9,51)  (10,60)  (11,59)  (12,95)  (13,88)  (14,99)  (15,89)  (16,98)  (17,64)  (18,57)  (19,114)  (20,72)  (21,124)  (22,207)  (23,136)  (24,193)  (25,72) 
Branch_type_5  (8,2)  (9,1)  (10,3)  (11,5)  (12,3)  (13,14)  (14,16)  (15,11)  (16,20)  (17,11)  (18,16)  (19,12)  (20,10)  (21,13)  (22,42)  (23,26)  (24,36) 
Branch_type_6  (5,4)  (6,12)  (7,23)  (8,33)  (9,31)  (10,64)  (11,51)  (12,75)  (13,91)  (14,107)  (15,86)  (16,94)  (17,67)  (18,52)  (19,105)  (20,53)  (21,95)  (22,137)  (23,72)  (24,91)  (25,4)  (47,44) 
Unique trigger count: 
UBTB set used: 955
CBTB set used: 512
RIB set used: 456
UBTB PER SET UNIQUE ADDR: 5 4 4 2 3 2 4 4 4 2 1 6 3 3 3 3 0 0 2 0 4 1 3 2 3 1 0 3 2 3 2 4 2 2 3 1 3 5 1 3 2 1 3 0 6 1 4 4 2 3 3 2 4 0 3 4 4 1 4 1 2 4 5 0 3 4 1 3 2 4 3 1 5 3 2 1 4 1 2 6 3 6 5 1 4 0 3 2 3 2 2 3 4 1 4 4 5 4 7 0 6 6 1 3 2 4 6 1 3 2 5 5 5 3 3 2 1 2 2 5 0 5 0 4 2 3 2 1 7 3 2 2 5 2 1 3 5 2 3 5 4 1 3 2 1 4 2 1 4 0 5 3 2 5 3 2 6 3 5 4 3 3 4 4 4 1 3 3 2 2 0 3 3 1 2 0 3 5 0 3 3 3 1 2 4 2 2 3 3 3 1 4 6 1 3 3 3 2 2 1 2 5 0 1 3 1 2 3 1 0 3 2 4 1 1 4 1 3 1 2 1 0 2 2 1 0 3 4 2 4 2 1 4 2 3 4 4 3 1 6 2 3 4 3 2 1 3 3 1 5 2 4 0 3 2 1 4 1 1 1 4 1 2 3 3 2 0 5 2 0 0 3 2 3 4 1 4 5 2 5 5 2 2 2 3 1 4 2 6 1 4 0 4 3 6 0 2 2 1 1 3 3 4 1 1 0 2 0 0 0 3 1 3 4 2 2 4 2 3 1 3 3 4 2 2 2 3 2 1 3 4 4 4 1 5 3 4 2 1 4 7 5 2 3 1 2 4 3 2 3 2 4 2 1 3 4 3 1 2 0 2 1 1 2 5 2 3 2 5 2 5 4 3 0 0 2 1 0 3 5 3 2 3 1 1 3 1 5 2 2 1 5 2 3 1 6 1 2 1 3 2 6 4 2 3 6 2 4 2 4 2 4 5 3 3 0 3 2 3 3 0 3 0 1 2 2 2 3 3 1 3 1 2 3 1 4 4 1 5 5 3 3 2 3 4 6 2 5 0 2 3 2 1 3 1 2 3 6 6 5 5 3 3 7 4 0 0 4 2 3 1 1 4 3 4 3 2 4 2 1 3 1 1 3 6 2 3 2 0 1 3 1 2 5 1 2 2 2 4 5 7 3 3 3 2 4 1 2 1 3 2 4 4 3 2 4 2 3 5 2 3 4 2 2 0 2 1 3 3 4 5 4 3 2 3 3 4 2 2 2 6 1 7 1 1 3 2 4 7 4 2 3 1 3 1 6 3 0 2 1 7 2 2 2 3 1 2 5 3 3 1 0 1 3 3 2 4 3 7 2 4 2 3 2 4 3 2 3 3 5 4 5 1 1 4 1 3 3 3 5 3 3 6 2 5 3 5 4 2 2 5 6 2 5 2 6 1 0 1 7 4 1 4 3 1 3 1 2 3 1 3 2 7 3 3 2 4 2 3 3 5 2 1 0 3 2 1 3 0 1 2 2 3 1 2 4 3 2 1 1 3 6 5 1 2 1 0 2 2 3 2 1 1 2 1 2 4 4 4 1 3 3 2 4 2 2 0 4 0 0 2 3 0 2 1 1 2 3 2 1 3 3 2 2 2 1 3 3 4 1 2 6 2 3 1 4 2 3 3 4 1 1 0 1 1 3 3 3 2 2 2 1 2 1 2 4 4 5 1 3 3 4 0 1 5 6 3 3 6 3 5 5 4 2 2 3 3 4 0 2 2 4 3 2 3 2 0 3 4 4 4 4 2 2 1 1 3 4 1 2 2 2 3 4 2 0 3 3 3 1 1 3 3 1 2 1 3 0 3 3 5 1 2 2 2 4 0 0 2 1 2 5 0 5 1 0 5 0 2 6 2 3 2 3 2 1 2 3 1 1 5 1 2 1 0 1 6 1 4 1 1 2 3 2 4 3 0 4 2 4 2 6 3 4 2 2 7 1 2 7 4 4 3 5 1 2 2 3 4 4 4 3 4 2 2 5 5 2 2 1 2 2 4 2 2 3 4 2 2 4 2 4 4 5 5 2 4 1 3 4 4 2 7 4 3 4 2 5 1 2 3 1 3 6 4 4 2 1 3 3 5 2 2 4 5 4 3 3 1 1 2 6 2 1 5 5 3 1 4 4 4 1 1 4 3 1 5 1 3 6 3 1 3 3 1 5 5 5 2 6 4 4 5 3 5 4 1 3 2 0 0 4 4 1 1 2 4 2 4 6 1 2 2 2 2 3 2 4 1 5 1 2 7 2 1 5 3 2 1 1 1 4 4 0 2 1 4 3 3 3 2 3 0 3 4 2 0 4 5 2 7 3 7 2 
CBTB PER SET UNIQUE ADDR: 8 12 12 10 10 9 8 5 13 5 13 8 6 5 9 9 8 9 9 10 12 6 5 10 10 12 14 8 7 11 11 7 14 7 9 9 8 7 12 9 8 12 7 7 11 16 5 10 9 14 7 12 13 6 8 11 10 11 11 8 7 14 12 4 10 13 11 7 10 9 10 10 6 11 10 8 14 10 12 13 7 11 8 10 10 13 12 14 8 11 12 7 11 12 11 9 12 13 13 10 5 16 10 12 10 12 15 11 11 13 7 11 9 13 11 12 11 11 13 8 9 5 6 12 6 11 8 8 10 10 13 18 9 7 6 11 9 7 11 15 8 10 11 6 10 9 5 13 13 8 13 18 3 7 12 4 8 4 9 9 8 4 13 11 5 6 5 8 12 7 10 8 15 5 9 11 5 7 2 12 6 8 5 11 8 8 10 13 6 5 5 12 12 7 4 7 14 12 12 9 10 13 8 6 7 9 11 3 6 12 7 6 5 11 8 8 12 6 5 2 9 11 6 10 5 9 8 7 8 13 7 7 12 10 7 10 12 14 5 8 11 8 10 6 7 8 10 5 13 3 6 5 10 10 6 5 10 11 9 11 7 12 9 6 11 11 5 6 12 10 6 9 10 10 9 10 9 6 10 4 12 9 13 10 7 9 12 4 10 15 12 10 12 6 11 8 10 13 7 9 6 8 10 14 11 16 5 6 8 12 11 10 9 13 15 10 9 10 5 8 9 8 11 19 8 5 12 10 11 9 11 11 10 9 10 10 11 6 9 14 9 10 6 13 8 8 12 7 10 8 7 10 4 12 9 10 10 13 10 8 14 8 5 6 8 15 12 7 8 9 6 10 10 9 9 12 11 14 11 6 10 9 14 11 12 8 4 13 13 15 13 11 11 12 12 12 8 13 5 9 13 6 10 13 9 6 7 6 15 9 11 14 16 10 10 14 9 9 11 8 10 13 11 19 7 13 8 4 11 9 8 12 9 11 10 6 6 12 15 13 13 8 13 4 12 15 8 13 10 9 16 11 11 14 11 9 10 12 8 17 9 9 10 11 11 11 5 5 8 11 8 11 14 13 8 10 5 11 13 9 8 8 12 13 10 10 12 9 8 13 9 13 2 16 5 12 14 7 10 11 7 14 16 9 9 3 13 8 11 14 12 8 
RIB PER SET UNIQUE ADDR: 2 5 4 1 2 3 2 2 0 2 2 4 2 3 0 1 4 2 0 1 2 1 5 4 1 3 2 2 1 0 2 0 1 4 3 3 1 5 0 2 1 3 2 1 2 4 2 2 3 1 0 2 2 3 0 1 2 4 3 2 0 1 2 1 3 6 3 0 2 1 2 3 0 2 3 0 1 4 1 2 0 1 4 4 2 1 0 4 4 2 0 1 2 2 3 4 3 3 0 0 2 2 1 4 0 1 5 2 3 4 2 1 1 4 2 2 0 4 2 7 3 1 3 4 1 1 1 2 1 4 2 3 4 3 0 2 1 2 5 4 1 2 2 5 2 3 4 2 4 1 3 2 2 2 2 1 4 1 0 2 3 1 1 2 3 0 0 1 4 2 1 1 3 0 0 3 0 2 2 2 3 0 3 2 6 1 3 4 1 1 1 2 3 1 2 3 3 0 4 2 3 2 3 3 1 5 2 4 1 5 2 2 0 3 4 0 5 0 4 2 2 3 2 1 2 4 2 3 1 1 2 4 1 4 0 3 2 2 1 4 2 0 3 1 5 3 5 0 3 2 3 0 2 2 1 5 4 2 1 1 1 0 2 2 3 2 0 3 4 3 1 2 0 1 5 3 0 2 2 1 2 2 2 1 3 0 2 5 2 2 2 5 1 1 2 5 1 4 3 1 2 2 3 4 2 3 2 3 2 3 3 5 1 1 0 3 2 3 1 3 4 4 5 5 1 3 3 4 1 1 4 4 4 5 6 3 1 0 2 2 0 1 7 2 5 4 6 2 0 5 3 3 3 1 4 1 6 2 5 2 0 2 3 1 4 6 1 0 4 3 2 4 2 3 4 3 1 3 0 1 2 1 3 2 0 5 1 0 3 2 2 4 1 4 1 2 4 7 3 3 2 1 1 2 3 3 4 1 3 1 2 1 3 1 1 3 5 1 1 0 1 4 4 2 2 5 0 1 3 1 2 1 2 2 3 2 3 3 2 3 1 4 4 3 5 2 3 1 1 5 4 1 2 3 2 4 1 1 2 3 3 1 2 2 3 3 2 5 1 0 3 0 2 1 2 2 1 9 6 4 3 1 0 5 1 1 3 0 1 3 2 3 0 5 1 1 2 2 3 1 2 2 3 4 2 1 1 3 1 2 2 1 
UBTB PER SET COUNT: 5 4 4 2 3 2 4 4 4 2 1 2411 3 3 3 3 0 0 2 0 4 1 3 2 3 1 0 3 2 3 2 4 2 2 3 1 3 303 1 3 2 1 3 0 2888 1 4 4 2 3 3 2 4 0 3 4 4 1 4 1 2 4 2147 0 3 4 1 3 2 4 3 1 420 3 2 1 4 1 2 971 3 34 1112 1 4 0 3 2 3 2 2 3 4 1 4 4 1277 4 2895 0 2888 34 1 3 2 4 2890 1 3 2 966 29 8 3 3 2 1 2 2 8 0 1445 0 4 2 3 2 1 2891 3 2 2 934 2 1 3 1445 2 3 5 4 1 3 2 1 4 2 1 4 0 29 3 2 1626 3 2 1928 3 1447 4 3 3 4 4 4 1 3 3 2 2 0 3 3 1 2 0 3 14 0 3 3 3 1 2 4 2 2 3 3 3 1 4 2661 1 3 3 3 2 2 1 2 1445 0 1 3 1 2 3 1 0 3 2 4 1 1 4 1 3 1 2 1 0 2 2 1 0 3 4 2 4 2 1 4 2 3 4 4 3 1 2377 2 3 4 3 2 1 3 3 1 1446 2 4 0 3 2 1 4 1 1 1 4 1 2 3 3 2 0 1446 2 0 0 3 2 3 4 1 4 1021 2 627 581 2 2 2 3 1 4 2 1023 1 4 0 4 3 2889 0 2 2 1 1 3 3 4 1 1 0 2 0 0 0 3 1 3 4 2 2 4 2 3 1 3 3 4 2 2 2 3 2 1 3 4 4 4 1 19 3 4 2 1 4 1044 24 2 3 1 2 4 3 2 3 2 4 2 1 3 4 3 1 2 0 2 1 1 2 10 2 3 2 10 2 54 4 3 0 0 2 1 0 3 12 3 2 3 1 1 3 1 1416 2 2 1 6 2 3 1 4448 1 2 1 3 2 7873 4 2 3 5948 2 4 2 4 2 4 1321 3 3 0 3 2 3 3 0 3 0 1 2 2 2 3 3 1 3 1 2 3 1 4 4 1 1928 94 3 3 2 3 4 4025 2 1022 0 2 3 2 1 3 1 2 3 2300 1019 24 2153 3 3 3376 4 0 0 4 2 3 1 1 4 3 4 3 2 4 2 1 3 1 1 3 5438 2 3 2 0 1 3 1 2 38 1 2 2 2 4 14 2893 3 3 3 2 4 1 2 1 3 2 4 4 3 2 4 2 3 1447 2 3 4 2 2 0 2 1 3 3 4 1022 4 3 2 3 3 4 2 2 2 2407 1 6440 1 1 3 2 4 2895 4 2 3 1 3 1 2890 3 0 2 1 1938 2 2 2 3 1 2 8 3 3 1 0 1 3 3 2 4 3 3370 2 4 2 3 2 4 3 2 3 3 1276 4 1276 1 1 4 1 3 3 3 778 3 3 2464 2 29 3 29 4 2 2 4958 2407 2 19 2 2764 1 0 1 3370 4 1 4 3 1 3 1 2 3 1 3 2 3370 3 3 2 4 2 3 3 2408 2 1 0 3 2 1 3 0 1 2 2 3 1 2 4 3 2 1 1 3 2889 2408 1 2 1 0 2 2 3 2 1 1 2 1 2 4 4 4 1 3 3 2 4 2 2 0 4 0 0 2 3 0 2 1 1 2 3 2 1 3 3 2 2 2 1 3 3 4 1 2 1928 2 3 1 4 2 3 3 4 1 1 0 1 1 3 3 3 2 2 2 1 2 1 2 4 4 1928 1 3 3 4 0 1 1927 3997 3 3 2888 3 1021 966 4 2 2 3 3 4 0 2 2 4 3 2 3 2 0 3 4 4 4 4 2 2 1 1 3 4 1 2 2 2 3 4 2 0 3 3 3 1 1 3 3 1 2 1 3 0 3 3 2407 1 2 2 2 4 0 0 2 1 2 1021 0 2406 1 0 1925 0 2 4421 2 3 2 3 2 1 2 3 1 1 2407 1 2 1 0 1 2889 1 4 1 1 2 3 2 4 3 0 4 2 4 2 2409 3 4 2 2 3378 1 2 5797 4 4 3 1927 1 2 2 3 4 4 4 3 4 2 2 1927 10 2 2 1 2 2 4 2 2 3 4 2 2 4 2 4 4 1446 1927 2 4 1 3 4 4 2 2407 4 3 4 2 19 1 2 3 1 3 7872 4 4 2 1 3 3 18 2 2 4 763 4 3 3 1 1 2 2182 2 1 8 1670 3 1 4 4 4 1 1 4 3 1 1190 1 3 3848 3 1 3 3 1 776 14 1471 2 2889 4 4 1928 3 3996 4 1 3 2 0 0 4 4 1 1 2 4 2 4 2888 1 2 2 2 2 3 2 4 1 1447 1 2 6880 2 1 332 3 2 1 1 1 4 4 0 2 1 4 3 3 3 2 3 0 3 4 2 0 4 1928 2 2845 3 2917 2 
CBTB PER SET COUNT: 10 1062 97 239 15 22 9 68 4486 5 7516 3859 7 6 115 32 1456 32 19 1490 2422 8 7 68 2498 6676 6586 22 23 20 17 10 9842 1448 2415 15 33 9 5446 14 15 1943 27 15 31 7002 6 1932 22 8331 17 7858 4971 6 2411 3505 11 17 2935 35 11 2429 49 4 1037 4006 2415 8 2546 3374 36 37 25 2194 22 4930 8363 23 39 2429 4483 4460 10 37 3372 26 28 8394 19 25 4536 17 18 23 23 52 27 1944 24 1014 5 2218 1469 7372 14 2897 6382 1490 23 3869 11 4429 14 3866 22 27 34 2415 252 2218 2417 1701 10 717 12 1946 15 14 24 19 3380 10357 28 8 14 1945 11 27 2416 18 10 7880 22 9 4457 2308 7 5430 8437 5923 7858 14257 3 9 4968 4 1458 4 13 38 14 4 5555 6449 5 8 5 12 2901 12 8365 12 7827 6 70 2419 513 11 2 2188 23 16 7 17 4454 19 30 23 10 5 7 9364 8819 14 4 9 3016 7350 2001 18 1457 2848 1613 10 1448 18 30 3 13 9348 1928 9 7 2900 16 22 6897 6 10 2 1454 20 12 1710 5 1680 35 18 8 3706 22 8 4607 45 12 2828 28 4470 8 20 14 16 249 6 1938 18 1957 5 805 3 6 5 1455 4975 10 10 1453 5446 10 1934 9 2418 1932 27 1464 1470 6 2559 1717 2899 20 26 20 23 2882 780 74 1933 2482 4 28 1931 103 2198 8 164 2906 4 6410 9324 1063 19 123 11 5139 1444 20 39 1935 57 10 13 19 5902 58 9842 5 18 1461 27 2512 117 2419 2416 6170 1753 2587 40 6 2435 5388 244 2928 6479 12 6 654 127 182 21 2904 1465 25 21 1933 1935 3969 1026 2429 3921 673 146 11 37 10 11 6421 8 1932 11 15 15 4 9803 24 33 2427 3117 2167 1468 814 8 6 8 774 3271 2903 19 9 787 1938 26 1035 49 3974 2419 1478 3161 4228 7 7430 27 6265 29 2418 9 4 50 27 4714 1469 30 8335 10344 3951 2419 4710 3504 5 19 3709 8 4456 2902 22 16 10 11 12129 26 2418 4704 52 4966 10307 2455 19 235 2199 33 13 4831 2455 11801 12 2900 33 4 6982 1454 11 5484 19 45 24 7 14 43 3159 35 4494 12 3969 4 3386 1999 16 1478 33 25 3774 6406 25 1465 34 26 3866 4028 976 10317 2423 1934 1429 1481 7882 239 5 6 1566 2448 1452 982 1014 27 1927 16 5 2584 5451 16 15 12 3510 11754 21 28 38 1936 13 7712 4425 5853 2 7313 6 2425 2905 7 13 2414 13 4476 2449 16 1240 3 19 14 24 2428 2909 12 
RIB PER SET COUNT: 2 8 4 1 2 3 2 2 0 2 2 4 2 3 0 1 4 2 0 1 2 1 1926 4 1 3 2 2 1 0 2 0 1 4 3 3 1 2406 0 2 1 3 2 1 2 4 2 2 3 1 0 2 2 3 0 1 2 4 3 2 0 1 2 1 3 1930 3 0 2 1 2 3 0 2 3 0 1 4 1 2 0 1 4 4 2 1 0 4 4 2 0 1 2 2 3 4 3 3 0 0 2 2 1 4 0 1 2406 2 3 4 2 1 1 4 2 2 0 4 2 1934 3 1 3 4 1 1 1 2 1 4 2 3 4 3 0 2 1 2 19 4 1 2 2 8 2 3 4 2 4 1 3 2 2 2 2 1 4 1 0 2 3 1 1 2 3 0 0 1 4 2 1 1 3 0 0 3 0 2 2 2 3 0 3 2 1932 1 3 4 1 1 1 2 3 1 2 3 3 0 4 2 3 2 3 3 1 24 2 4 1 10 2 2 0 3 4 0 966 0 4 2 2 3 2 1 2 4 2 3 1 1 2 4 1 4 0 3 2 2 1 4 2 0 3 1 451 3 8 0 3 2 3 0 2 2 1 5 4 2 1 1 1 0 2 2 3 2 0 3 4 3 1 2 0 1 8 3 0 2 2 1 2 2 2 1 3 0 2 1446 2 2 2 1442 1 1 2 775 1 4 3 1 2 2 3 4 2 3 2 3 2 3 3 12 1 1 0 3 2 3 1 3 4 4 3995 1447 1 3 3 4 1 1 4 4 4 1447 6400 3 1 0 2 2 0 1 4195 2 1276 4 1453 2 0 19 3 3 3 1 4 1 3460 2 10 2 0 2 3 1 4 1520 1 0 4 3 2 4 2 3 4 3 1 3 0 1 2 1 3 2 0 10 1 0 3 2 2 4 1 4 1 2 4 3940 3 3 2 1 1 2 3 3 4 1 3 1 2 1 3 1 1 3 10 1 1 0 1 4 4 2 2 6400 0 1 3 1 2 1 2 2 3 2 3 3 2 3 1 4 4 3 966 2 3 1 1 14 4 1 2 3 2 4 1 1 2 3 3 1 2 2 3 3 2 1927 1 0 3 0 2 1 2 2 1 6563 2889 4 3 1 0 2562 1 1 3 0 1 3 2 3 0 9 1 1 2 2 3 1 2 2 3 4 2 1 1 3 1 2 2 1 
