
*** ChampSim Multicore Out-of-Order Simulator ***

Warmup Instructions: 50000000
Simulation Instructions: 50000000
Number of CPUs: 1
LLC sets: 2048
LLC ways: 16
Off-chip DRAM Size: 4096 MB Channels: 1 Width: 64-bit Data Rate: 6400 MT/s
CPU 0 runs ./micro_traces/srv631.trace.gz
.gz
ITLB has LRU replacement policy
DTLB has LRU replacement policy
STLB has LRU replacement policy
L1I has LRU replacement policy
L1D has LRU replacement policy
Initialize SRRIP state for L2C
Initialize DRRIP state for LLC
Heartbeat_Variant_0 : 1324 0.323242 per_variant_size: 0 1324 0 0 0 0 0 0 0 
Heartbeat_Variant_1 : 1219 0.297607 per_variant_size: 0 608 611 0 0 0 0 0 0 
Heartbeat_Variant_2 : 1297 0.31665 per_variant_size: 0 527 353 228 189 0 0 0 0 
Heartbeat_Variant_3 : 0 0 per_variant_size: 0 0 0 0 0 0 0 0 0 
Heartbeat_Variant_0_evicts 0 : 5802 1 : 231 2 : 238 3 : 0 
Heartbeat_Variant_1_evicts 0 : 241 1 : 0 2 : 393 3 : 0 
Heartbeat_Variant_2_evicts 0 : 194 1 : 398 2 : 0 3 : 0 
Heartbeat_Variant_3_evicts 0 : 0 1 : 0 2 : 0 3 : 0 
Heartbeat CPU 0 instructions: 10000000 cycles: 2798650 heartbeat IPC: 3.57315 cumulative IPC: 3.57315 (Simulation time: 0 hr 1 min 18 sec) 
Heartbeat_Variant_0 : 1351 0.329834 per_variant_size: 0 1351 0 0 0 0 0 0 0 
Heartbeat_Variant_1 : 1259 0.307373 per_variant_size: 0 633 626 0 0 0 0 0 0 
Heartbeat_Variant_2 : 1337 0.326416 per_variant_size: 0 530 373 230 204 0 0 0 0 
Heartbeat_Variant_3 : 0 0 per_variant_size: 0 0 0 0 0 0 0 0 0 
Heartbeat_Variant_0_evicts 0 : 5702 1 : 212 2 : 188 3 : 0 
Heartbeat_Variant_1_evicts 0 : 208 1 : 0 2 : 365 3 : 0 
Heartbeat_Variant_2_evicts 0 : 192 1 : 354 2 : 0 3 : 0 
Heartbeat_Variant_3_evicts 0 : 0 1 : 0 2 : 0 3 : 0 
Heartbeat CPU 0 instructions: 20000002 cycles: 5596701 heartbeat IPC: 3.57392 cumulative IPC: 3.57353 (Simulation time: 0 hr 2 min 37 sec) 
Heartbeat_Variant_0 : 1348 0.329102 per_variant_size: 0 1348 0 0 0 0 0 0 0 
Heartbeat_Variant_1 : 1261 0.307861 per_variant_size: 0 640 621 0 0 0 0 0 0 
Heartbeat_Variant_2 : 1346 0.328613 per_variant_size: 0 528 384 234 200 0 0 0 0 
Heartbeat_Variant_3 : 0 0 per_variant_size: 0 0 0 0 0 0 0 0 0 
Heartbeat_Variant_0_evicts 0 : 5614 1 : 25 2 : 24 3 : 0 
Heartbeat_Variant_1_evicts 0 : 32 1 : 0 2 : 218 3 : 0 
Heartbeat_Variant_2_evicts 0 : 24 1 : 224 2 : 0 3 : 0 
Heartbeat_Variant_3_evicts 0 : 0 1 : 0 2 : 0 3 : 0 
Heartbeat CPU 0 instructions: 30000002 cycles: 8392935 heartbeat IPC: 3.57624 cumulative IPC: 3.57444 (Simulation time: 0 hr 3 min 54 sec) 
Heartbeat_Variant_0 : 1354 0.330566 per_variant_size: 0 1354 0 0 0 0 0 0 0 
Heartbeat_Variant_1 : 1274 0.311035 per_variant_size: 0 625 649 0 0 0 0 0 0 
Heartbeat_Variant_2 : 1362 0.33252 per_variant_size: 0 542 391 236 193 0 0 0 0 
Heartbeat_Variant_3 : 0 0 per_variant_size: 0 0 0 0 0 0 0 0 0 
Heartbeat_Variant_0_evicts 0 : 5775 1 : 125 2 : 134 3 : 0 
Heartbeat_Variant_1_evicts 0 : 129 1 : 0 2 : 320 3 : 0 
Heartbeat_Variant_2_evicts 0 : 130 1 : 322 2 : 0 3 : 0 
Heartbeat_Variant_3_evicts 0 : 0 1 : 0 2 : 0 3 : 0 
Heartbeat CPU 0 instructions: 40000001 cycles: 11189939 heartbeat IPC: 3.57525 cumulative IPC: 3.57464 (Simulation time: 0 hr 5 min 11 sec) 
Heartbeat_Variant_0 : 1354 0.330566 per_variant_size: 0 1354 0 0 0 0 0 0 0 
Heartbeat_Variant_1 : 1271 0.310303 per_variant_size: 0 617 654 0 0 0 0 0 0 
Heartbeat_Variant_2 : 1368 0.333984 per_variant_size: 0 543 395 237 193 0 0 0 0 
Heartbeat_Variant_3 : 0 0 per_variant_size: 0 0 0 0 0 0 0 0 0 
Heartbeat_Variant_0_evicts 0 : 5589 1 : 18 2 : 25 3 : 0 
Heartbeat_Variant_1_evicts 0 : 19 1 : 0 2 : 216 3 : 0 
Heartbeat_Variant_2_evicts 0 : 24 1 : 222 2 : 0 3 : 0 
Heartbeat_Variant_3_evicts 0 : 0 1 : 0 2 : 0 3 : 0 
Heartbeat CPU 0 instructions: 50000002 cycles: 13987710 heartbeat IPC: 3.57427 cumulative IPC: 3.57457 (Simulation time: 0 hr 6 min 24 sec) 

Warmup complete CPU 0 instructions: 50000002 cycles: 13987710 (Simulation time: 0 hr 6 min 24 sec) 

Cycle: 20000000 FTQ IN: 54948395 FTQ occupancy: 15.5947 DECODE IN: 54948377 DECODE occupancy: 9.40366 ROB IN: 54948377 ROB occupancy: 258.468 ROB OUT: 54948366
Heartbeat_Variant_0 : 1364 0.333008 per_variant_size: 0 1364 0 0 0 0 0 0 0 
Heartbeat_Variant_1 : 1279 0.312256 per_variant_size: 0 629 650 0 0 0 0 0 0 
Heartbeat_Variant_2 : 1357 0.331299 per_variant_size: 0 521 404 239 193 0 0 0 0 
Heartbeat_Variant_3 : 0 0 per_variant_size: 0 0 0 0 0 0 0 0 0 
Heartbeat_Variant_0_evicts 0 : 5751 1 : 72 2 : 61 3 : 0 
Heartbeat_Variant_1_evicts 0 : 66 1 : 0 2 : 249 3 : 0 
Heartbeat_Variant_2_evicts 0 : 59 1 : 237 2 : 0 3 : 0 
Heartbeat_Variant_3_evicts 0 : 0 1 : 0 2 : 0 3 : 0 
Heartbeat CPU 0 instructions: 60000002 cycles: 26022676 heartbeat IPC: 0.830912 cumulative IPC: 0.830912 (Simulation time: 0 hr 7 min 35 sec) 
Cycle: 30000000 FTQ IN: 8388081 FTQ occupancy: 13.885 DECODE IN: 8388081 DECODE occupancy: 4.60291 ROB IN: 8388081 ROB occupancy: 46.9439 ROB OUT: 8388072
Heartbeat_Variant_0 : 1366 0.333496 per_variant_size: 0 1366 0 0 0 0 0 0 0 
Heartbeat_Variant_1 : 1281 0.312744 per_variant_size: 0 627 654 0 0 0 0 0 0 
Heartbeat_Variant_2 : 1360 0.332031 per_variant_size: 0 527 402 230 201 0 0 0 0 
Heartbeat_Variant_3 : 0 0 per_variant_size: 0 0 0 0 0 0 0 0 0 
Heartbeat_Variant_0_evicts 0 : 5734 1 : 43 2 : 45 3 : 0 
Heartbeat_Variant_1_evicts 0 : 43 1 : 0 2 : 242 3 : 0 
Heartbeat_Variant_2_evicts 0 : 44 1 : 243 2 : 0 3 : 0 
Heartbeat_Variant_3_evicts 0 : 0 1 : 0 2 : 0 3 : 0 
Heartbeat CPU 0 instructions: 70000001 cycles: 37957163 heartbeat IPC: 0.837908 cumulative IPC: 0.834395 (Simulation time: 0 hr 8 min 46 sec) 
Cycle: 40000000 FTQ IN: 8283218 FTQ occupancy: 13.9068 DECODE IN: 8283223 DECODE occupancy: 4.61819 ROB IN: 8283211 ROB occupancy: 48.7685 ROB OUT: 8283215
Heartbeat_Variant_0 : 1371 0.334717 per_variant_size: 0 1371 0 0 0 0 0 0 0 
Heartbeat_Variant_1 : 1277 0.311768 per_variant_size: 0 617 660 0 0 0 0 0 0 
Heartbeat_Variant_2 : 1361 0.332275 per_variant_size: 0 513 424 225 199 0 0 0 0 
Heartbeat_Variant_3 : 0 0 per_variant_size: 0 0 0 0 0 0 0 0 0 
Heartbeat_Variant_0_evicts 0 : 5684 1 : 25 2 : 20 3 : 0 
Heartbeat_Variant_1_evicts 0 : 22 1 : 0 2 : 222 3 : 0 
Heartbeat_Variant_2_evicts 0 : 18 1 : 224 2 : 0 3 : 0 
Heartbeat_Variant_3_evicts 0 : 0 1 : 0 2 : 0 3 : 0 
Heartbeat CPU 0 instructions: 80000001 cycles: 49991259 heartbeat IPC: 0.830972 cumulative IPC: 0.833251 (Simulation time: 0 hr 9 min 57 sec) 
Cycle: 50000000 FTQ IN: 8386195 FTQ occupancy: 13.8963 DECODE IN: 8386208 DECODE occupancy: 4.60832 ROB IN: 8386211 ROB occupancy: 46.8155 ROB OUT: 8386215
Cycle: 60000000 FTQ IN: 8333951 FTQ occupancy: 13.8782 DECODE IN: 8333933 DECODE occupancy: 4.59205 ROB IN: 8333942 ROB occupancy: 46.0317 ROB OUT: 8333890
Heartbeat_Variant_0 : 1383 0.337646 per_variant_size: 0 1383 0 0 0 0 0 0 0 
Heartbeat_Variant_1 : 1273 0.310791 per_variant_size: 0 597 676 0 0 0 0 0 0 
Heartbeat_Variant_2 : 1360 0.332031 per_variant_size: 0 507 419 230 204 0 0 0 0 
Heartbeat_Variant_3 : 0 0 per_variant_size: 0 0 0 0 0 0 0 0 0 
Heartbeat_Variant_0_evicts 0 : 5620 1 : 40 2 : 59 3 : 0 
Heartbeat_Variant_1_evicts 0 : 32 1 : 0 2 : 232 3 : 0 
Heartbeat_Variant_2_evicts 0 : 58 1 : 232 2 : 0 3 : 0 
Heartbeat_Variant_3_evicts 0 : 0 1 : 0 2 : 0 3 : 0 
Heartbeat CPU 0 instructions: 90000002 cycles: 61992949 heartbeat IPC: 0.833216 cumulative IPC: 0.833242 (Simulation time: 0 hr 11 min 10 sec) 
Cycle: 70000000 FTQ IN: 8270209 FTQ occupancy: 13.9376 DECODE IN: 8270210 DECODE occupancy: 4.62266 ROB IN: 8270198 ROB occupancy: 48.9504 ROB OUT: 8270165
Heartbeat_Variant_0 : 1384 0.337891 per_variant_size: 0 1384 0 0 0 0 0 0 0 
Heartbeat_Variant_1 : 1282 0.312988 per_variant_size: 0 608 674 0 0 0 0 0 0 
Heartbeat_Variant_2 : 1352 0.330078 per_variant_size: 0 499 412 233 208 0 0 0 0 
Heartbeat_Variant_3 : 0 0 per_variant_size: 0 0 0 0 0 0 0 0 0 
Heartbeat_Variant_0_evicts 0 : 5594 1 : 28 2 : 25 3 : 0 
Heartbeat_Variant_1_evicts 0 : 28 1 : 0 2 : 229 3 : 0 
Heartbeat_Variant_2_evicts 0 : 24 1 : 220 2 : 0 3 : 0 
Heartbeat_Variant_3_evicts 0 : 0 1 : 0 2 : 0 3 : 0 
Heartbeat CPU 0 instructions: 100000001 cycles: 74054685 heartbeat IPC: 0.829068 cumulative IPC: 0.832404 (Simulation time: 0 hr 12 min 27 sec) 
Finished CPU 0 instructions: 50000003 cycles: 60066976 cumulative IPC: 0.832404 (Simulation time: 0 hr 12 min 27 sec) 

ChampSim completed all CPUs

Region of Interest Statistics

CPU 0 cumulative IPC: 0.832404 instructions: 50000003 cycles: 60066976
 Fetch stage stalled: 37.0906  Sim cycles: 60066976 fetch stall cycle: 22279178
 Empty decode stage: 70.8768  Sim cycles: 60066976 fetch stall cycle: 42573571
ITLB TOTAL     ACCESS:    7245728  HIT:    6752811  MISS:     492917  HIT %:    93.1971  MISS %:    6.80286   MPKI: 9.85834
ITLB LOAD TRANSLATION INSTRUCTION	ACCESS:    7245728  HIT:    6752811  MISS:     492917  HIT %:    93.1971  MISS %:    6.80286  MPKI: 9.85834

ITLB AVERAGE MISS LATENCY: 9.04419 cycles
ITLB RQ	ACCESS:    8385822	FORWARD:          0	MERGED:     938262	TO_CACHE:    7447560

DTLB TOTAL     ACCESS:   10509543  HIT:   10038613  MISS:     470930  HIT %:     95.519  MISS %:    4.48098   MPKI: 9.4186
DTLB LOAD TRANSLATION DATA	ACCESS:   10509543  HIT:   10038613  MISS:     470930  HIT %:     95.519  MISS %:    4.48098  MPKI: 9.4186

DTLB AVERAGE MISS LATENCY: 9.32996 cycles
DTLB RQ	ACCESS:   14598836	FORWARD:          0	MERGED:    4060699	TO_CACHE:   10538137

STLB TOTAL     ACCESS:    1225066  HIT:    1222738  MISS:       2328  HIT %:      99.81  MISS %:   0.190031   MPKI: 0.04656
STLB LOAD TRANSLATION INSTRUCTION	ACCESS:     492917  HIT:     492597  MISS:        320  HIT %:    99.9351  MISS %:  0.0649197  MPKI: 0.0064
STLB LOAD TRANSLATION DATA	ACCESS:     470928  HIT:     468944  MISS:       1984  HIT %:    99.5787  MISS %:   0.421296  MPKI: 0.03968
STLB TRANSLATION FROM L1D PREFETCHER DATA	ACCESS:     261221  HIT:     261197  MISS:         24  HIT %:    99.9908  MISS %: 0.00918762  MPKI: 0.00048

STLB AVERAGE MISS LATENCY: 66.8965 cycles
STLB RQ	ACCESS:    1340338	FORWARD:          0	MERGED:     115238	TO_CACHE:    1225100

STLB Hit, L1D data hit: 0
STLB Hit, L2C data hit: 0
STLB Hit, LLC data hit: 0
STLB Hit, LLC data miss: 0
STLB STLB hints to L2: 0
L1D TOTAL     ACCESS:   14403340  HIT:   13292465  MISS:    1110875  HIT %:    92.2874  MISS %:    7.71262   MPKI: 22.2175
L1D LOAD DATA	ACCESS:    7733680  HIT:    7004649  MISS:     729031  HIT %:    90.5733  MISS %:     9.4267  MPKI: 14.5806
L1D RFO DATA	ACCESS:    6331353  HIT:    6042554  MISS:     288799  HIT %:    95.4386  MISS %:    4.56141  MPKI: 5.77598
L1D PREFETCH DATA	ACCESS:     338307  HIT:     245262  MISS:      93045  HIT %:    72.4969  MISS %:    27.5031  MPKI: 1.8609

L1D PREFETCH  REQUESTED:     753131  ISSUED:     753131  USEFUL:      34902  USELESS:      66958
L1D USEFUL LOAD PREFETCHES:      34902 PREFETCH ISSUED TO LOWER LEVEL:     101977  ACCURACY: 34.2254
 TIMELY PREFETCHES:      34902 LATE PREFETCHES: 8830 DROPPED PREFETCHES: 5
L1D AVERAGE MISS LATENCY: 348778 cycles
L1D RQ	ACCESS:   11512364	FORWARD:          0	MERGED:    3600166	TO_CACHE:    7762452
L1D WQ	ACCESS:    6947999	FORWARD:     149895	MERGED:     111615	TO_CACHE:    6836384
L1D PQ	ACCESS:     376640	FORWARD:          0	MERGED:          0	TO_CACHE:     376491

L1D UNIQUE REGIONS ACCESSED: 0
L1D REGIONS CONFLICTS: 0
L1D Cross Page Prefetch Requests: 5971
L1D Same Page Prefetch Requests: 751477
L1D ROI Sum of L1D PQ occupancy: 4783609
L1D PREFETCHES PUSHED FROM L2C: 0
L1I TOTAL     ACCESS:    7886103  HIT:    5128321  MISS:    2757782  HIT %:    65.0299  MISS %:    34.9701   MPKI: 55.1556
L1I LOAD INSTRUCTION	ACCESS:    7886103  HIT:    5128321  MISS:    2757782  HIT %:    65.0299  MISS %:    34.9701  MPKI: 55.1556

L1I AVERAGE MISS LATENCY: 17.4571 cycles
L1I RQ	ACCESS:   15251630	FORWARD:          0	MERGED:    6865808	TO_CACHE:    8385822

L1BTB TOTAL     ACCESS:    5671792  HIT:    2051300  MISS:    3620492  HIT %:    36.1667  MISS %:    63.8333   MPKI: 72.4098
L1BTB BRANCH_DIRECT_JUMP	ACCESS:     548794  HIT:     144978  MISS:     403816	AVERAGE STALL: 21.5491
L1BTB BRANCH_INDIRECT	ACCESS:     183512  HIT:      66481  MISS:     117031	AVERAGE STALL: 48.2379
L1BTB BRANCH_CONDITIONAL	ACCESS:    2718259  HIT:    1426937  MISS:    1291322	AVERAGE STALL: 30.7103
L1BTB BRANCH_DIRECT_CALL	ACCESS:     939618  HIT:     103838  MISS:     835780	AVERAGE STALL: 31.4127
L1BTB BRANCH_INDIRECT_CALL	ACCESS:     170996  HIT:      20798  MISS:     150198	AVERAGE STALL: 65.5253
L1BTB BRANCH_RETURN	ACCESS:    1110613  HIT:     288268  MISS:     822345	AVERAGE STALL: 32.8501
L1BTB BRANCH_OTHER ACCESS:          0  HIT:          0  MISS:          0	AVERAGE STALL: -nan
L1BTB TOTAL ROB OCCUPANCY AT BTB MISS: 0.538048

L2BTB TOTAL     ACCESS:    3594928  HIT:    3530137  MISS:      64791  HIT %:    98.1977  MISS %:    1.80229   MPKI: 1.29582
L2BTB BRANCH_DIRECT_JUMP	ACCESS:     399573  HIT:     395333  MISS:       4240	AVERAGE STALL: 21.5491
L2BTB BRANCH_INDIRECT	ACCESS:     106743  HIT:     104027  MISS:       2716	AVERAGE STALL: 48.2379
L2BTB BRANCH_CONDITIONAL	ACCESS:    1291322  HIT:    1287749  MISS:       3573	AVERAGE STALL: 30.7103
L2BTB BRANCH_DIRECT_CALL	ACCESS:     835780  HIT:     834853  MISS:        927	AVERAGE STALL: 31.4127
L2BTB BRANCH_INDIRECT_CALL	ACCESS:     140563  HIT:     129169  MISS:      11394	AVERAGE STALL: 65.5253
L2BTB BRANCH_RETURN	ACCESS:     820947  HIT:     779006  MISS:      41941	AVERAGE STALL: 32.8501
L2BTB BRANCH_OTHER ACCESS:          0  HIT:          0  MISS:          0	AVERAGE STALL: -nan
L2BTB TOTAL ROB OCCUPANCY AT BTB MISS: 30.0659

L2C TOTAL     ACCESS:    4484390  HIT:    3953391  MISS:     530999  HIT %:    88.1589  MISS %:    11.8411   MPKI: 10.62
L2C LOAD INSTRUCTION	ACCESS:    2757782  HIT:    2456131  MISS:     301651  HIT %:    89.0618  MISS %:    10.9382  MPKI: 6.03302
L2C LOAD TRANSLATION INSTRUCTION	ACCESS:        362  HIT:        101  MISS:        261  HIT %:    27.9006  MISS %:    72.0994  MPKI: 0.00522
L2C LOAD DATA	ACCESS:     720138  HIT:     640743  MISS:      79395  HIT %:     88.975  MISS %:     11.025  MPKI: 1.5879
L2C RFO DATA	ACCESS:     288689  HIT:     233476  MISS:      55213  HIT %:    80.8746  MISS %:    19.1254  MPKI: 1.10426
L2C PREFETCH DATA	ACCESS:     192798  HIT:     117686  MISS:      75112  HIT %:    61.0411  MISS %:    38.9589  MPKI: 1.50224
L2C WRITEBACK DATA	ACCESS:     522513  HIT:     504611  MISS:      17902  HIT %:    96.5739  MISS %:    3.42613  MPKI: 0.35804
L2C LOAD TRANSLATION DATA	ACCESS:       2065  HIT:        617  MISS:       1448  HIT %:    29.8789  MISS %:    70.1211  MPKI: 0.02896
L2C TRANSLATION FROM L1D PREFETCHER DATA	ACCESS:         43  HIT:         26  MISS:         17  HIT %:    60.4651  MISS %:    39.5349  MPKI: 0.00034

L2C PREFETCH  REQUESTED:      98458  ISSUED:      98458  USEFUL:       9986  USELESS:      65723
L2C USEFUL LOAD PREFETCHES:       9986 PREFETCH ISSUED TO LOWER LEVEL:      75641  ACCURACY: 13.2018
 TIMELY PREFETCHES:       9986 LATE PREFETCHES: 529 DROPPED PREFETCHES: 0
L2C AVERAGE MISS LATENCY: 37.9716 cycles
L2C RQ	ACCESS:    3769150	FORWARD:          0	MERGED:          0	TO_CACHE:    3769079
L2C WQ	ACCESS:     522513	FORWARD:         71	MERGED:          0	TO_CACHE:     522513
L2C PQ	ACCESS:     200435	FORWARD:          0	MERGED:       3565	TO_CACHE:     196870

L2C Dense regions hint from L2: 0
PSCL5 TOTAL     ACCESS:       4668  HIT:       2334  MISS:       2334  HIT %:         50  MISS %:         50   MPKI: 0.04668
PSCL5 LOAD TRANSLATION INSTRUCTION	ACCESS:       4584  HIT:       2292  MISS:       2292  HIT %:         50  MISS %:         50  MPKI: 0.04584
PSCL5 TRANSLATION FROM L1D PREFETCHER INSTRUCTION	ACCESS:         84  HIT:         42  MISS:         42  HIT %:         50  MISS %:         50  MPKI: 0.00084


PSCL4 TOTAL     ACCESS:       4469  HIT:       2228  MISS:       2241  HIT %:    49.8546  MISS %:    50.1454   MPKI: 0.04482
PSCL4 LOAD TRANSLATION INSTRUCTION	ACCESS:       3429  HIT:       2186  MISS:       1243  HIT %:    63.7504  MISS %:    36.2496  MPKI: 0.02486
PSCL4 TRANSLATION FROM L1D PREFETCHER INSTRUCTION	ACCESS:         73  HIT:         42  MISS:         31  HIT %:    57.5342  MISS %:    42.4658  MPKI: 0.00062
PSCL4 LOAD TRANSLATION DATA	ACCESS:        956  HIT:          0  MISS:        956  HIT %:          0  MISS %:        100  MPKI: 0.01912
PSCL4 TRANSLATION FROM L1D PREFETCHER DATA	ACCESS:         11  HIT:          0  MISS:         11  HIT %:          0  MISS %:        100  MPKI: 0.00022


PSCL3 TOTAL     ACCESS:       4593  HIT:       2290  MISS:       2303  HIT %:    49.8585  MISS %:    50.1415   MPKI: 0.04606
PSCL3 LOAD TRANSLATION INSTRUCTION	ACCESS:       3491  HIT:       2248  MISS:       1243  HIT %:    64.3942  MISS %:    35.6058  MPKI: 0.02486
PSCL3 TRANSLATION FROM L1D PREFETCHER INSTRUCTION	ACCESS:         73  HIT:         42  MISS:         31  HIT %:    57.5342  MISS %:    42.4658  MPKI: 0.00062
PSCL3 LOAD TRANSLATION DATA	ACCESS:       1018  HIT:          0  MISS:       1018  HIT %:          0  MISS %:        100  MPKI: 0.02036
PSCL3 TRANSLATION FROM L1D PREFETCHER DATA	ACCESS:         11  HIT:          0  MISS:         11  HIT %:          0  MISS %:        100  MPKI: 0.00022


PSCL2 TOTAL     ACCESS:       4556  HIT:       2222  MISS:       2334  HIT %:    48.7709  MISS %:    51.2291   MPKI: 0.04668
PSCL2 LOAD TRANSLATION INSTRUCTION	ACCESS:       2501  HIT:       2181  MISS:        320  HIT %:    87.2051  MISS %:    12.7949  MPKI: 0.0064
PSCL2 TRANSLATION FROM L1D PREFETCHER INSTRUCTION	ACCESS:         41  HIT:         41  MISS:          0  HIT %:        100  MISS %:          0  MPKI: 0
PSCL2 LOAD TRANSLATION DATA	ACCESS:       1973  HIT:          0  MISS:       1973  HIT %:          0  MISS %:        100  MPKI: 0.03946
PSCL2 TRANSLATION FROM L1D PREFETCHER DATA	ACCESS:         41  HIT:          0  MISS:         41  HIT %:          0  MISS %:        100  MPKI: 0.00082


LLC TOTAL     ACCESS:     593712  HIT:     563319  MISS:      30393  HIT %:    94.8809  MISS %:    5.11915   MPKI: 0.60786
LLC LOAD INSTRUCTION	ACCESS:     301651  HIT:     300751  MISS:        900  HIT %:    99.7016  MISS %:   0.298358  MPKI: 0.018
LLC LOAD TRANSLATION INSTRUCTION	ACCESS:        261  HIT:        245  MISS:         16  HIT %:    93.8697  MISS %:    6.13027  MPKI: 0.00032
LLC LOAD DATA	ACCESS:      78878  HIT:      75385  MISS:       3493  HIT %:    95.5716  MISS %:    4.42836  MPKI: 0.06986
LLC RFO DATA	ACCESS:      55201  HIT:      39443  MISS:      15758  HIT %:    71.4534  MISS %:    28.5466  MPKI: 0.31516
LLC PREFETCH DATA	ACCESS:      75641  HIT:      65891  MISS:       9750  HIT %:    87.1102  MISS %:    12.8898  MPKI: 0.195
LLC WRITEBACK DATA	ACCESS:      80615  HIT:      80218  MISS:        397  HIT %:    99.5075  MISS %:   0.492464  MPKI: 0.00794
LLC LOAD TRANSLATION DATA	ACCESS:       1448  HIT:       1370  MISS:         78  HIT %:    94.6133  MISS %:    5.38674  MPKI: 0.00156
LLC TRANSLATION FROM L1D PREFETCHER DATA	ACCESS:         17  HIT:         16  MISS:          1  HIT %:    94.1176  MISS %:    5.88235  MPKI: 2e-05

LLC AVERAGE MISS LATENCY: 155.578 cycles
LLC RQ	ACCESS:     437456	FORWARD:          0	MERGED:          0	TO_CACHE:     437456
LLC WQ	ACCESS:      80615	FORWARD:          0	MERGED:          0	TO_CACHE:      80615
LLC PQ	ACCESS:      75641	FORWARD:          0	MERGED:          0	TO_CACHE:      75641

LLC Dense regions hint to LLC: 0

RAW hits: 1132224
Loads Generated: 12644589
Loads sent to L1D: 11512364
Stores Generated: 6947977
Stores sent to L1D: 6947999
Major fault: 0 Minor fault: 2543
Allocated PAGES: 2543

stream: 
stream:times selected: 1184226
stream:pref_filled: 120282
stream:pref_useful: 24549
stream:pref_late: 6128
stream:misses: 6103
stream:misses_by_poll: 0

CS: 
CS:times selected: 179536
CS:pref_filled: 56712
CS:pref_useful: 33583
CS:pref_late: 8567
CS:misses: 18299
CS:misses_by_poll: 3

CPLX: 
CPLX:times selected: 1003490
CPLX:pref_filled: 21742
CPLX:pref_useful: 4881
CPLX:pref_late: 3167
CPLX:misses: 88616
CPLX:misses_by_poll: 0

NL_L1: 
NL:times selected: 19666
NL:pref_filled: 567
NL:pref_useful: 252
NL:pref_late: 192
NL:misses: 713
NL:misses_by_poll: 0

total selections: 2386918
total_filled: 93045
total_useful: 34902
total_late: 19407
total_polluted: 3
total_misses_after_warmup: 757803
conflicts: 6068769

test: 116204

DRAM Statistics
 CHANNEL 0
 RQ ROW_BUFFER_HIT:      11445  ROW_BUFFER_MISS:      18527
 DBUS_CONGESTED:          4
 WQ ROW_BUFFER_HIT:       1402  ROW_BUFFER_MISS:      13216  FULL:          0

 AVG_CONGESTED_CYCLE: 6

CPU 0 Branch Prediction Accuracy: 99.8224% MPKI: 0.32442 Average ROB Occupancy at Mispredict: 67.6449
Branch types
NOT_BRANCH: 40865130 81.7303%
BRANCH_DIRECT_JUMP: 548794 1.09759%
BRANCH_INDIRECT: 183512 0.367024%
BRANCH_CONDITIONAL: 6181049 12.3621%
BRANCH_DIRECT_CALL: 939618 1.87924%
BRANCH_INDIRECT_CALL: 170996 0.341992%
BRANCH_RETURN: 1110613 2.22123%
BRANCH_OTHER: 0 0%

DRAM PAGES: 1048576
Allocated PAGES: 2543
Average_ROB_Occupancy: 48.4492
Average_Decode_Occupancy: 4.60683
Average_FTQ_Occupancy: 13.895
Indirect max targets: 14 Average targets: 1.14527
Branch_type:  BRANCH_DIRECT_JUMP:  Count Percentage: 1.95661 7.25669 3.5512 8.77551 8.95351 4.15021 0.997681 64.3586 
Branch_type:  BRANCH_INDIRECT:  Count Percentage: 11.771 3.42829 2.56363 0 16.6688 9.67701 2.27186 53.6194 
Branch_type:  BRANCH_CONDITIONAL:  Count Percentage: 24.3784 3.49503 1.73505 4.94291 4.68182 4.40647 0.461119 55.8992 
Branch_type:  BRANCH_DIRECT_CALL:  Count Percentage: 0.260615 1.29157 1.28738 4.31046 3.1532 1.23706 0.800297 87.6594 
Branch_type:  BRANCH_INDIRECT_CALL:  Count Percentage: 9.53935 0 2.98953 8.70259 1.70876 0.677386 1.28572 75.0967 
Branch_type:  BRANCH_RETURN:  Count Percentage: 7.97363 0.658628 1.16689 5.77751 5.90406 5.25862 1.36058 71.9001 
Branch_type:  BRANCH_DIRECT_JUMP:  Total Count: 21457 79580 38944 96236 98188 45513 10941 705784 
Branch_type:  BRANCH_INDIRECT:  Total Count: 43087 12549 9384 0 61015 35422 8316 196270 
Branch_type:  BRANCH_CONDITIONAL:  Total Count: 3011522 431749 214335 610608 578355 544341 56963 6905348 
Branch_type:  BRANCH_DIRECT_CALL:  Total Count: 4915 24358 24279 81292 59467 23330 15093 1653191 
Branch_type:  BRANCH_INDIRECT_CALL:  Total Count: 32742 0 10261 29870 5865 2325 4413 257755 
Branch_type:  BRANCH_RETURN:  Total Count: 177807 14687 26021 128835 131657 117264 30340 1603328 
Number of unique branch instructions: 9792
Upper 32 bits: 
aaaa
ffff
ffff0000
Unique upper 32 bits: 3
Unique upper 36 bits: 3
Unique upper 40 bits: 5
Unique upper 44 bits: 32
Unique upper 48 bits: 154
Variant_0 : 1384 0.337891
Variant_1 : 1282 0.312988
Variant_2 : 1352 0.330078
Variant_3 : 0 0
Offset_3 4032
Offset_4 247
Offset_5 448
Offset_6 498
Offset_7 579
Offset_8 501
Offset_9 461
Offset_10 378
Offset_11 304
Offset_12 270
Offset_13 198
Offset_14 225
Offset_15 179
Offset_16 220
Offset_17 143
Offset_18 118
Offset_19 234
Offset_20 135
Offset_21 235
Offset_22 393
Offset_23 241
Offset_24 334
Offset_25 88
Offset_47 82
Offset_64 1
decode_dispatch_called: 30643830 51.0161
Dispatch_width: 0 18530081 60.4692 30.849
Dispatch_width: 1 2321189 7.57474 3.86433
Dispatch_width: 2 1129521 3.68597 1.88044
Dispatch_width: 3 1087010 3.54724 1.80966
Dispatch_width: 4 1010855 3.29872 1.68288
Dispatch_width: 5 1276013 4.16401 2.12432
Dispatch_width: 6 5289161 17.2601 8.80544
Empty_decode_cycles: 29423146 48.9839
ROB_full_cycles: 510274 0.849508
Starvation_cycles_per_kilo_instr: 542.675
Starvation_cycles_per_kilo_instr_3: 519.807
Starvation_cycles_per_kilo_instr_0: 474.43
Branch_type_1  (3,1)  (4,9)  (5,37)  (6,69)  (7,116)  (8,125)  (9,122)  (10,98)  (11,69)  (12,43)  (13,5)  (14,2)  (15,3)  (16,4)  (18,1)  (19,4)  (20,2)  (21,1)  (22,3)  (23,2)  (24,10)  (25,12) 
Branch_type_2  (3,1)  (5,1)  (8,3)  (9,3)  (12,1)  (13,1)  (14,1)  (16,3)  (17,2)  (20,2)  (21,2)  (23,5)  (24,1)  (47,38) 
Branch_type_3  (3,4030)  (4,238)  (5,406)  (6,414)  (7,434)  (8,314)  (9,253)  (10,154)  (11,125)  (12,50)  (13,4)  (24,1)  (64,1) 
Branch_type_4  (6,3)  (7,8)  (8,24)  (9,52)  (10,60)  (11,55)  (12,97)  (13,85)  (14,99)  (15,84)  (16,98)  (17,64)  (18,53)  (19,114)  (20,71)  (21,124)  (22,208)  (23,136)  (24,193)  (25,72) 
Branch_type_5  (8,2)  (9,1)  (10,3)  (11,5)  (12,3)  (13,14)  (14,16)  (15,11)  (16,20)  (17,11)  (18,16)  (19,12)  (20,10)  (21,13)  (22,42)  (23,26)  (24,37) 
Branch_type_6  (5,4)  (6,12)  (7,21)  (8,33)  (9,30)  (10,63)  (11,50)  (12,76)  (13,89)  (14,107)  (15,81)  (16,95)  (17,66)  (18,48)  (19,104)  (20,50)  (21,95)  (22,140)  (23,72)  (24,92)  (25,4)  (47,44) 
Unique trigger count: 
Variant_0_evicts_0 : 0
Variant_0_evicts_1 : 0
Variant_0_evicts_2 : 0
Variant_0_evicts_3 : 0
Variant_1_evicts_0 : 0
Variant_1_evicts_1 : 0
Variant_1_evicts_2 : 0
Variant_1_evicts_3 : 0
Variant_2_evicts_0 : 0
Variant_2_evicts_1 : 0
Variant_2_evicts_2 : 0
Variant_2_evicts_3 : 0
Variant_3_evicts_0 : 0
Variant_3_evicts_1 : 0
Variant_3_evicts_2 : 0
Variant_3_evicts_3 : 0
BTB PER SET UNIQUE ADDR: 13 11 8 10 11 12 6 9 6 9 11 15 16 12 10 8 7 7 9 17 10 9 10 7 10 9 9 10 10 9 14 12 11 8 6 9 14 12 7 12 5 8 10 12 9 7 12 7 11 8 17 11 8 11 11 5 10 8 12 10 9 13 8 12 10 7 11 10 13 12 9 10 13 6 10 8 6 11 10 16 16 7 9 12 11 13 11 7 5 22 7 8 14 8 7 11 9 10 10 11 18 13 14 7 9 7 11 11 10 8 9 15 11 12 11 5 11 12 10 13 10 7 8 11 11 9 9 10 12 11 10 9 10 13 9 13 8 12 8 13 9 10 8 13 12 10 16 9 8 10 13 8 13 12 9 14 17 13 18 10 15 8 12 14 10 11 10 6 11 7 9 10 7 14 6 10 9 7 7 9 6 14 13 9 11 13 5 11 6 9 12 12 11 11 13 13 6 14 7 8 13 11 7 9 5 11 10 13 9 8 11 12 11 9 12 9 11 8 9 19 7 11 8 8 8 10 18 11 8 13 8 5 9 13 5 14 12 13 12 5 12 10 13 11 8 9 13 7 9 9 20 8 14 10 11 12 9 9 10 10 12 9 5 10 10 5 9 8 7 12 7 9 5 7 6 8 9 12 13 10 11 12 7 9 10 5 10 17 15 8 9 8 12 15 6 13 14 11 13 7 9 9 13 17 11 10 8 8 12 10 12 14 7 11 6 6 16 8 16 13 11 15 9 10 13 10 15 8 9 7 11 8 9 9 12 14 10 11 7 19 7 10 5 13 15 9 11 11 10 8 8 6 13 6 10 11 14 13 7 6 7 10 9 11 7 9 8 12 17 10 11 7 11 13 8 11 10 12 11 12 11 8 11 8 9 9 9 13 9 8 9 7 13 18 9 8 8 10 11 6 11 9 12 12 13 14 6 11 10 12 17 6 7 15 10 11 12 9 13 16 9 11 8 15 13 8 9 11 12 13 11 15 11 6 10 13 10 9 10 12 13 8 14 9 15 7 7 11 15 10 14 12 10 11 12 16 16 9 10 19 8 9 12 8 10 9 8 11 6 16 16 10 10 12 12 14 11 8 6 17 15 9 13 13 9 11 14 11 14 13 8 12 9 7 6 11 13 10 5 11 7 12 12 17 10 8 10 17 13 12 8 16 9 10 12 14 10 16 5 8 7 9 10 9 10 12 16 6 9 14 9 8 9 8 11 13 10 13 13 10 14 6 12 15 13 16 7 9 7 13 12 13 10 9 10 11 14 11 11 13 9 18 13 12 11 12 9 16 9 12 12 14 13 14 11 13 11 13 8 10 11 15 7 11 13 13 14 9 16 14 10 16 12 10 15 10 6 8 10 9 12 11 8 8 6 11 16 10 10 11 17 11 10 11 3 12 8 13 12 12 16 13 9 6 8 12 8 14 5 15 7 8 11 14 10 11 12 14 10 12 11 13 9 5 8 17 10 12 14 11 10 10 7 10 14 9 10 12 12 14 8 7 13 13 11 12 8 13 5 6 13 10 13 18 16 8 16 12 10 13 11 15 13 12 13 15 11 8 18 11 12 14 13 10 7 9 12 10 11 11 7 10 15 8 7 10 9 10 9 9 8 12 8 7 9 11 12 10 8 13 13 9 11 12 11 12 13 6 9 11 9 7 13 9 7 11 17 9 15 10 10 11 7 13 9 15 10 9 11 10 10 7 12 14 13 10 12 10 10 6 10 7 7 9 9 13 12 12 10 13 11 17 7 8 7 10 13 10 17 12 6 11 12 10 13 10 9 14 9 6 8 6 10 12 11 15 8 13 14 9 13 15 13 11 20 10 7 11 12 9 11 16 13 12 13 17 15 9 5 15 12 16 8 11 12 13 7 10 16 7 10 10 11 10 10 8 12 14 12 10 13 15 8 13 7 17 8 16 11 7 7 13 10 11 12 14 13 9 10 11 8 10 9 9 17 8 10 9 15 11 8 10 14 12 14 5 13 11 7 11 9 11 14 9 11 14 15 12 10 12 11 7 10 12 9 11 16 10 10 6 14 9 16 11 6 12 10 13 8 11 10 12 12 11 11 8 17 16 12 7 10 18 9 9 13 10 10 13 12 7 11 17 18 12 8 14 9 11 11 12 10 13 13 10 9 10 15 14 12 12 10 11 9 10 10 11 11 11 12 13 14 7 11 17 9 11 13 6 7 12 11 15 14 13 12 9 17 14 11 15 9 8 10 12 8 10 11 12 13 11 11 9 10 11 8 11 7 7 18 13 17 16 9 9 14 10 7 9 7 15 10 13 11 9 10 10 6 9 6 8 8 15 9 8 
BTB PER SET COUNT: 19 13 1987 12 12 16 6 139 1471 10 14 265 20526 1293 10 9 979 11 14 26 12 10 768 8 16 13 11 13 10 11 21 15 24 12 8 94 15 1481 8 20 5 8 16 1471 12 8 17 7 12 9 24 16 9 13 11 5 16 10 18 18 11 20 10 15 10 11 13 1668 17 13 11 995 14 6 11 10 9 631 15 16 18 7 9 13 16 79 20 9 9 100 7 762 195 9 10 18 901 11 15 12 21 1627 20 7 1965 8 13 12 860 67 9 22 721 15 16 5 11 14 1470 943 15 7 11 13 12 13 15 13 18 952 11 10 24 27 15 21 10 14 8 16 12 13 15 23 17 371 771 12 16 14 17 8 1691 15 10 20 55 16 31 13 31 355 927 19 15 142 15 6 15 1843 10 13 7 15 8 13 9 8 8 9 999 165 21 10 12 56 5 19 7 10 18 15 12 22 27 149 6 522 10 750 18 117 7 10 5 14 12 446 17 222 13 18 14 12 20 11 12 8 2043 29 11 17 11 8 11 25 29 13 9 18 12 6 13 23 9 22 13 285 1204 8 743 12 450 364 12 720 1005 7 377 10 24 11 17 12 13 499 9 448 17 19 517 11 5 14 11 7 9 10 1632 15 7 9 5 7 7 9 9 14 17 13 14 14 842 10 11 5 10 21 18 8 10 10 13 512 9 16 18 21 16 13 10 13 16 22 19 13 17 8 59 700 20 18 8 15 8 10 22 11 24 32 15 1395 12 13 13 13 406 8 10 10 21 10 13 12 13 22 12 17 7 23 7 997 5 15 432 9 13 16 10 16 11 1471 22 7 12 11 19 20 500 6 7 14 10 16 7 11 10 14 22 12 15 58 18 20 921 169 11 16 16 14 1081 8 1579 15 12 9 11 17 10 595 10 7 15 23 12 10 8 11 1036 7 14 11 15 23 16 19 7 75 17 16 1234 7 7 244 15 13 12 113 13 29 13 24 15 20 18 8 11 13 18 17 15 22 20 9 314 15 10 14 15 20 1360 9 20 10 2461 10 7 17 17 10 149 2972 10 11 73 18 23 9 12 33 10 13 15 8 19 12 8 14 13 24 26 14 13 16 16 23 13 12 6 20 26 12 18 14 201 709 20 14 18 20 1005 22 2153 7 6 19 1742 11 5 14 9 20 12 303 16 8 13 20 13 13 11 3374 30 965 16 20 15 20 6 13 7 9 14 483 13 17 3573 7 11 19 15 9 12 9 20 522 11 609 15 435 17 6 36 20 18 115 7 13 7 145 15 17 89 295 15 21 41 13 17 22 9 95 14 18 79 25 136 22 9 13 14 16 19 19 2452 22 14 19 9 18 15 21 20 38 17 23 18 10 18 15 15 19 13 11 30 12 6 382 10 9 13 15 115 9 6 14 29 2865 10 14 21 14 1379 12 3 16 445 16 15 887 18 16 15 984 11 17 14 20 5 20 12 9 18 21 12 12 16 92 14 13 13 19 13 7 9 25 561 19 152 12 12 18 7 15 17 508 15 15 307 290 9 7 13 20 34 18 10 992 1470 6 23 10 905 24 26 12 29 16 12 25 16 24 16 12 18 17 13 13 34 15 15 15 15 12 437 10 22 38 14 13 965 20 1054 8 7 17 13 13 11 12 17 256 576 7 12 15 22 16 8 595 22 14 15 799 1540 20 13 8 11 16 10 7 27 11 17 989 1026 15 20 15 1000 16 7 99 791 19 15 13 12 23 1485 8 452 294 1148 10 14 15 15 8 17 14 8 11 9 16 18 14 12 16 59 22 10 12 10 11 14 10 30 15 388 13 1347 13 21 250 13 20 10 8 10 476 11 20 12 24 8 19 22 202 460 21 420 17 31 12 7 16 17 52 13 1210 21 14 35 670 24 1476 5 275 13 765 10 21 14 22 7 10 26 8 14 12 18 14 77 1861 24 22 811 11 13 23 8 16 773 24 11 19 15 14666 446 177 24 12 1476 17 14 9 20 11 12 18 9 11 30 10 13 10 15 12 11 14 17 15 14 5 16 19 7 12 14 13 25 10 12 84 21 16 10 12 17 10 15 6349 11 19 22 11 1537 6 20 10 25 256 9 17 13 15 8 15 12 867 17 13 13 8 376 29 16 11 11 23 10 13 16 15 11 15 14 13 14 35 745 21 8 22 17 18 12 14 13 1088 20 11 11 21 55 16 19 21 14 109 2054 3145 11 13 15 17 17 18 203 7 997 23 11 13 29 6 60 44 53 219 24 18 446 9 18 17 16 43 10 8 10 992 11 12 11 508 16 175 15 15 12 17 8 13 8 1474 18 709 172 1484 10 11 20 11 12 14 8 993 199 17 14 12 15 14 7 333 7 8 9 22 10 11 
To predecode: 0
Predecoding something: 0
Predecode request dropped: 0
sizeofblock_0 0
sizeofblock_1 33312
sizeofblock_2 43631
sizeofblock_3 40100
sizeofblock_4 20519
sizeofblock_5 0
sizeofblock_6 0
sizeofblock_7 0
sizeofblock_8 0
Variant_0 Correct: 1613257 Incorrect: 0 Accuracy: 1
Variant_1 Correct: 2088792 Incorrect: 0 Accuracy: 1
Variant_2 Correct: 3645009 Incorrect: 0 Accuracy: 1
Variant_3 Correct: 0 Incorrect: 0 Accuracy: -nan
