
*** ChampSim Multicore Out-of-Order Simulator ***

Warmup Instructions: 50000000
Simulation Instructions: 50000000
Number of CPUs: 1
LLC sets: 2048
LLC ways: 16
Off-chip DRAM Size: 4096 MB Channels: 1 Width: 64-bit Data Rate: 6400 MT/s
CPU 0 runs ./micro_traces/srv615.trace.gz
.gz
ITLB has LRU replacement policy
DTLB has LRU replacement policy
STLB has LRU replacement policy
L1I has LRU replacement policy
L1D has LRU replacement policy
Initialize SRRIP state for L2C
Initialize DRRIP state for LLC
Heartbeat_Variant_0 : 1295 0.316162 per_variant_size: 0 1295 0 0 0 0 0 0 0 
Heartbeat_Variant_1 : 1189 0.290283 per_variant_size: 0 612 577 0 0 0 0 0 0 
Heartbeat_Variant_2 : 1280 0.3125 per_variant_size: 0 550 347 198 185 0 0 0 0 
Heartbeat_Variant_3 : 0 0 per_variant_size: 0 0 0 0 0 0 0 0 0 
Heartbeat_Variant_0_evicts 0 : 5713 1 : 201 2 : 229 3 : 0 
Heartbeat_Variant_1_evicts 0 : 199 1 : 0 2 : 380 3 : 0 
Heartbeat_Variant_2_evicts 0 : 209 1 : 368 2 : 0 3 : 0 
Heartbeat_Variant_3_evicts 0 : 0 1 : 0 2 : 0 3 : 0 
Heartbeat CPU 0 instructions: 10000001 cycles: 2795949 heartbeat IPC: 3.5766 cumulative IPC: 3.5766 (Simulation time: 0 hr 1 min 20 sec) 
Heartbeat_Variant_0 : 1354 0.330566 per_variant_size: 0 1354 0 0 0 0 0 0 0 
Heartbeat_Variant_1 : 1239 0.30249 per_variant_size: 0 583 656 0 0 0 0 0 0 
Heartbeat_Variant_2 : 1331 0.324951 per_variant_size: 0 541 352 229 209 0 0 0 0 
Heartbeat_Variant_3 : 0 0 per_variant_size: 0 0 0 0 0 0 0 0 0 
Heartbeat_Variant_0_evicts 0 : 5663 1 : 130 2 : 126 3 : 0 
Heartbeat_Variant_1_evicts 0 : 121 1 : 0 2 : 306 3 : 0 
Heartbeat_Variant_2_evicts 0 : 119 1 : 294 2 : 0 3 : 0 
Heartbeat_Variant_3_evicts 0 : 0 1 : 0 2 : 0 3 : 0 
Heartbeat CPU 0 instructions: 20000001 cycles: 5593303 heartbeat IPC: 3.57481 cumulative IPC: 3.5757 (Simulation time: 0 hr 2 min 35 sec) 
Heartbeat_Variant_0 : 1356 0.331055 per_variant_size: 0 1356 0 0 0 0 0 0 0 
Heartbeat_Variant_1 : 1236 0.301758 per_variant_size: 0 573 663 0 0 0 0 0 0 
Heartbeat_Variant_2 : 1336 0.326172 per_variant_size: 0 546 352 238 200 0 0 0 0 
Heartbeat_Variant_3 : 0 0 per_variant_size: 0 0 0 0 0 0 0 0 0 
Heartbeat_Variant_0_evicts 0 : 5663 1 : 15 2 : 19 3 : 0 
Heartbeat_Variant_1_evicts 0 : 17 1 : 0 2 : 210 3 : 0 
Heartbeat_Variant_2_evicts 0 : 16 1 : 216 2 : 0 3 : 0 
Heartbeat_Variant_3_evicts 0 : 0 1 : 0 2 : 0 3 : 0 
Heartbeat CPU 0 instructions: 30000001 cycles: 8390061 heartbeat IPC: 3.57557 cumulative IPC: 3.57566 (Simulation time: 0 hr 3 min 50 sec) 
Heartbeat_Variant_0 : 1359 0.331787 per_variant_size: 0 1359 0 0 0 0 0 0 0 
Heartbeat_Variant_1 : 1237 0.302002 per_variant_size: 0 571 666 0 0 0 0 0 0 
Heartbeat_Variant_2 : 1342 0.327637 per_variant_size: 0 542 363 234 203 0 0 0 0 
Heartbeat_Variant_3 : 0 0 per_variant_size: 0 0 0 0 0 0 0 0 0 
Heartbeat_Variant_0_evicts 0 : 5597 1 : 21 2 : 23 3 : 0 
Heartbeat_Variant_1_evicts 0 : 16 1 : 0 2 : 223 3 : 0 
Heartbeat_Variant_2_evicts 0 : 27 1 : 220 2 : 0 3 : 0 
Heartbeat_Variant_3_evicts 0 : 0 1 : 0 2 : 0 3 : 0 
Heartbeat CPU 0 instructions: 40000002 cycles: 11186059 heartbeat IPC: 3.57654 cumulative IPC: 3.57588 (Simulation time: 0 hr 5 min 9 sec) 
Heartbeat_Variant_0 : 1363 0.332764 per_variant_size: 0 1363 0 0 0 0 0 0 0 
Heartbeat_Variant_1 : 1242 0.303223 per_variant_size: 0 565 677 0 0 0 0 0 0 
Heartbeat_Variant_2 : 1367 0.33374 per_variant_size: 0 561 373 225 208 0 0 0 0 
Heartbeat_Variant_3 : 0 0 per_variant_size: 0 0 0 0 0 0 0 0 0 
Heartbeat_Variant_0_evicts 0 : 5751 1 : 109 2 : 114 3 : 0 
Heartbeat_Variant_1_evicts 0 : 104 1 : 0 2 : 298 3 : 0 
Heartbeat_Variant_2_evicts 0 : 123 1 : 299 2 : 0 3 : 0 
Heartbeat_Variant_3_evicts 0 : 0 1 : 0 2 : 0 3 : 0 
Heartbeat CPU 0 instructions: 50000001 cycles: 13981888 heartbeat IPC: 3.57676 cumulative IPC: 3.57606 (Simulation time: 0 hr 6 min 28 sec) 

Warmup complete CPU 0 instructions: 50000001 cycles: 13981888 (Simulation time: 0 hr 6 min 28 sec) 

Cycle: 20000000 FTQ IN: 55591006 FTQ occupancy: 16.0215 DECODE IN: 55590988 DECODE occupancy: 9.52727 ROB IN: 55590988 ROB occupancy: 260.77 ROB OUT: 55590934
Heartbeat_Variant_0 : 1362 0.33252 per_variant_size: 0 1362 0 0 0 0 0 0 0 
Heartbeat_Variant_1 : 1245 0.303955 per_variant_size: 0 569 676 0 0 0 0 0 0 
Heartbeat_Variant_2 : 1366 0.333496 per_variant_size: 0 559 373 231 203 0 0 0 0 
Heartbeat_Variant_3 : 0 0 per_variant_size: 0 0 0 0 0 0 0 0 0 
Heartbeat_Variant_0_evicts 0 : 5552 1 : 3 2 : 2 3 : 0 
Heartbeat_Variant_1_evicts 0 : 4 1 : 0 2 : 197 3 : 0 
Heartbeat_Variant_2_evicts 0 : 2 1 : 196 2 : 0 3 : 0 
Heartbeat_Variant_3_evicts 0 : 0 1 : 0 2 : 0 3 : 0 
Heartbeat CPU 0 instructions: 60000000 cycles: 24734581 heartbeat IPC: 0.929999 cumulative IPC: 0.929999 (Simulation time: 0 hr 7 min 39 sec) 
Cycle: 30000000 FTQ IN: 9197732 FTQ occupancy: 15.4038 DECODE IN: 9197732 DECODE occupancy: 5.00469 ROB IN: 9197732 ROB occupancy: 59.4998 ROB OUT: 9197781
Heartbeat_Variant_0 : 1365 0.333252 per_variant_size: 0 1365 0 0 0 0 0 0 0 
Heartbeat_Variant_1 : 1251 0.30542 per_variant_size: 0 562 689 0 0 0 0 0 0 
Heartbeat_Variant_2 : 1368 0.333984 per_variant_size: 0 545 387 238 198 0 0 0 0 
Heartbeat_Variant_3 : 0 0 per_variant_size: 0 0 0 0 0 0 0 0 0 
Heartbeat_Variant_0_evicts 0 : 5645 1 : 68 2 : 88 3 : 0 
Heartbeat_Variant_1_evicts 0 : 76 1 : 0 2 : 242 3 : 0 
Heartbeat_Variant_2_evicts 0 : 81 1 : 248 2 : 0 3 : 0 
Heartbeat_Variant_3_evicts 0 : 0 1 : 0 2 : 0 3 : 0 
Heartbeat CPU 0 instructions: 70000000 cycles: 35660941 heartbeat IPC: 0.915218 cumulative IPC: 0.922549 (Simulation time: 0 hr 8 min 54 sec) 
Cycle: 40000000 FTQ IN: 9244323 FTQ occupancy: 15.3457 DECODE IN: 9244341 DECODE occupancy: 4.99342 ROB IN: 9244341 ROB occupancy: 56.8643 ROB OUT: 9244284
Heartbeat_Variant_0 : 1364 0.333008 per_variant_size: 0 1364 0 0 0 0 0 0 0 
Heartbeat_Variant_1 : 1251 0.30542 per_variant_size: 0 564 687 0 0 0 0 0 0 
Heartbeat_Variant_2 : 1369 0.334229 per_variant_size: 0 544 388 231 206 0 0 0 0 
Heartbeat_Variant_3 : 0 0 per_variant_size: 0 0 0 0 0 0 0 0 0 
Heartbeat_Variant_0_evicts 0 : 5584 1 : 4 2 : 7 3 : 0 
Heartbeat_Variant_1_evicts 0 : 6 1 : 0 2 : 199 3 : 0 
Heartbeat_Variant_2_evicts 0 : 6 1 : 201 2 : 0 3 : 0 
Heartbeat_Variant_3_evicts 0 : 0 1 : 0 2 : 0 3 : 0 
Heartbeat CPU 0 instructions: 80000003 cycles: 46385983 heartbeat IPC: 0.932398 cumulative IPC: 0.925809 (Simulation time: 0 hr 10 min 7 sec) 
Cycle: 50000000 FTQ IN: 9204967 FTQ occupancy: 15.3892 DECODE IN: 9204949 DECODE occupancy: 5.01171 ROB IN: 9204949 ROB occupancy: 58.6989 ROB OUT: 9204973
Heartbeat_Variant_0 : 1372 0.334961 per_variant_size: 0 1372 0 0 0 0 0 0 0 
Heartbeat_Variant_1 : 1260 0.307617 per_variant_size: 0 578 682 0 0 0 0 0 0 
Heartbeat_Variant_2 : 1363 0.332764 per_variant_size: 0 537 387 238 201 0 0 0 0 
Heartbeat_Variant_3 : 0 0 per_variant_size: 0 0 0 0 0 0 0 0 0 
Heartbeat_Variant_0_evicts 0 : 5596 1 : 65 2 : 49 3 : 0 
Heartbeat_Variant_1_evicts 0 : 60 1 : 0 2 : 245 3 : 0 
Heartbeat_Variant_2_evicts 0 : 48 1 : 236 2 : 0 3 : 0 
Heartbeat_Variant_3_evicts 0 : 0 1 : 0 2 : 0 3 : 0 
Heartbeat CPU 0 instructions: 90000001 cycles: 57310230 heartbeat IPC: 0.915395 cumulative IPC: 0.923183 (Simulation time: 0 hr 11 min 18 sec) 
Cycle: 60000000 FTQ IN: 9254758 FTQ occupancy: 15.368 DECODE IN: 9254758 DECODE occupancy: 4.98729 ROB IN: 9254747 ROB occupancy: 57.2825 ROB OUT: 9254751
Heartbeat_Variant_0 : 1372 0.334961 per_variant_size: 0 1372 0 0 0 0 0 0 0 
Heartbeat_Variant_1 : 1267 0.309326 per_variant_size: 0 591 676 0 0 0 0 0 0 
Heartbeat_Variant_2 : 1359 0.331787 per_variant_size: 0 531 388 243 197 0 0 0 0 
Heartbeat_Variant_3 : 0 0 per_variant_size: 0 0 0 0 0 0 0 0 0 
Heartbeat_Variant_0_evicts 0 : 5547 1 : 21 2 : 25 3 : 0 
Heartbeat_Variant_1_evicts 0 : 23 1 : 0 2 : 217 3 : 0 
Heartbeat_Variant_2_evicts 0 : 24 1 : 214 2 : 0 3 : 0 
Heartbeat_Variant_3_evicts 0 : 0 1 : 0 2 : 0 3 : 0 
Heartbeat CPU 0 instructions: 100000000 cycles: 68058391 heartbeat IPC: 0.930392 cumulative IPC: 0.924616 (Simulation time: 0 hr 12 min 27 sec) 
Finished CPU 0 instructions: 50000003 cycles: 54076504 cumulative IPC: 0.924616 (Simulation time: 0 hr 12 min 27 sec) 

ChampSim completed all CPUs

Region of Interest Statistics

CPU 0 cumulative IPC: 0.924616 instructions: 50000003 cycles: 54076504
 Fetch stage stalled: 21.9668  Sim cycles: 54076504 fetch stall cycle: 11878863
 Empty decode stage: 68.2516  Sim cycles: 54076504 fetch stall cycle: 36908058
ITLB TOTAL     ACCESS:    7293639  HIT:    6795289  MISS:     498350  HIT %:    93.1673  MISS %:    6.83267   MPKI: 9.967
ITLB LOAD TRANSLATION INSTRUCTION	ACCESS:    7293639  HIT:    6795289  MISS:     498350  HIT %:    93.1673  MISS %:    6.83267  MPKI: 9.967

ITLB AVERAGE MISS LATENCY: 9.03499 cycles
ITLB RQ	ACCESS:    8371055	FORWARD:          0	MERGED:     870757	TO_CACHE:    7500298

DTLB TOTAL     ACCESS:   10215855  HIT:    9739281  MISS:     476574  HIT %:     95.335  MISS %:    4.66504   MPKI: 9.53148
DTLB LOAD TRANSLATION DATA	ACCESS:   10215855  HIT:    9739281  MISS:     476574  HIT %:     95.335  MISS %:    4.66504  MPKI: 9.53148

DTLB AVERAGE MISS LATENCY: 9.26866 cycles
DTLB RQ	ACCESS:   14364012	FORWARD:          0	MERGED:    4118592	TO_CACHE:   10245420

STLB TOTAL     ACCESS:    1230889  HIT:    1229076  MISS:       1813  HIT %:    99.8527  MISS %:   0.147292   MPKI: 0.03626
STLB LOAD TRANSLATION INSTRUCTION	ACCESS:     498349  HIT:     498150  MISS:        199  HIT %:    99.9601  MISS %:  0.0399319  MPKI: 0.00398
STLB LOAD TRANSLATION DATA	ACCESS:     476568  HIT:     474976  MISS:       1592  HIT %:    99.6659  MISS %:   0.334055  MPKI: 0.03184
STLB TRANSLATION FROM L1D PREFETCHER DATA	ACCESS:     255972  HIT:     255950  MISS:         22  HIT %:    99.9914  MISS %: 0.00859469  MPKI: 0.00044

STLB AVERAGE MISS LATENCY: 70.4308 cycles
STLB RQ	ACCESS:    1346714	FORWARD:          0	MERGED:     115778	TO_CACHE:    1230936

STLB Hit, L1D data hit: 0
STLB Hit, L2C data hit: 0
STLB Hit, LLC data hit: 0
STLB Hit, LLC data miss: 0
STLB STLB hints to L2: 0
L1D TOTAL     ACCESS:   14148778  HIT:   13024637  MISS:    1124141  HIT %:    92.0549  MISS %:    7.94515   MPKI: 22.4828
L1D LOAD DATA	ACCESS:    7504686  HIT:    6761265  MISS:     743421  HIT %:    90.0939  MISS %:    9.90609  MPKI: 14.8684
L1D RFO DATA	ACCESS:    6314679  HIT:    6027391  MISS:     287288  HIT %:    95.4505  MISS %:    4.54953  MPKI: 5.74576
L1D PREFETCH DATA	ACCESS:     329413  HIT:     235981  MISS:      93432  HIT %:    71.6368  MISS %:    28.3632  MPKI: 1.86864

L1D PREFETCH  REQUESTED:     743655  ISSUED:     743655  USEFUL:      34628  USELESS:      68030
L1D USEFUL LOAD PREFETCHES:      34628 PREFETCH ISSUED TO LOWER LEVEL:     102765  ACCURACY: 33.6963
 TIMELY PREFETCHES:      34628 LATE PREFETCHES: 9208 DROPPED PREFETCHES: 8
L1D AVERAGE MISS LATENCY: 336095 cycles
L1D RQ	ACCESS:   11338527	FORWARD:          0	MERGED:    3644233	TO_CACHE:    7537563
L1D WQ	ACCESS:    6956185	FORWARD:     156806	MERGED:     129736	TO_CACHE:    6826449
L1D PQ	ACCESS:     371865	FORWARD:          0	MERGED:          0	TO_CACHE:     371790

L1D UNIQUE REGIONS ACCESSED: 0
L1D REGIONS CONFLICTS: 0
L1D Cross Page Prefetch Requests: 6851
L1D Same Page Prefetch Requests: 751622
L1D ROI Sum of L1D PQ occupancy: 4712456
L1D PREFETCHES PUSHED FROM L2C: 0
L1I TOTAL     ACCESS:    7877912  HIT:    5096432  MISS:    2781480  HIT %:    64.6927  MISS %:    35.3073   MPKI: 55.6296
L1I LOAD INSTRUCTION	ACCESS:    7877912  HIT:    5096432  MISS:    2781480  HIT %:    64.6927  MISS %:    35.3073  MPKI: 55.6296

L1I AVERAGE MISS LATENCY: 17.051 cycles
L1I RQ	ACCESS:   15730064	FORWARD:          0	MERGED:    7359009	TO_CACHE:    8371055

L1BTB TOTAL     ACCESS:    5670733  HIT:    2023721  MISS:    3647012  HIT %:    35.6871  MISS %:    64.3129   MPKI: 72.9402
L1BTB BRANCH_DIRECT_JUMP	ACCESS:     547751  HIT:     142930  MISS:     404821	AVERAGE STALL: 21.1277
L1BTB BRANCH_INDIRECT	ACCESS:     182288  HIT:      65469  MISS:     116819	AVERAGE STALL: 49.1778
L1BTB BRANCH_CONDITIONAL	ACCESS:    2697385  HIT:    1398881  MISS:    1298504	AVERAGE STALL: 27.9791
L1BTB BRANCH_DIRECT_CALL	ACCESS:     949106  HIT:     105106  MISS:     844000	AVERAGE STALL: 26.0654
L1BTB BRANCH_INDIRECT_CALL	ACCESS:     172548  HIT:      21336  MISS:     151212	AVERAGE STALL: 69.2156
L1BTB BRANCH_RETURN	ACCESS:    1121655  HIT:     289999  MISS:     831656	AVERAGE STALL: 32.6018
L1BTB BRANCH_OTHER ACCESS:          0  HIT:          0  MISS:          0	AVERAGE STALL: -nan
L1BTB TOTAL ROB OCCUPANCY AT BTB MISS: 0.686467

L2BTB TOTAL     ACCESS:    3621741  HIT:    3554702  MISS:      67039  HIT %:     98.149  MISS %:    1.85102   MPKI: 1.34078
L2BTB BRANCH_DIRECT_JUMP	ACCESS:     400747  HIT:     396118  MISS:       4629	AVERAGE STALL: 21.1277
L2BTB BRANCH_INDIRECT	ACCESS:     106496  HIT:     103818  MISS:       2678	AVERAGE STALL: 49.1778
L2BTB BRANCH_CONDITIONAL	ACCESS:    1298504  HIT:    1294022  MISS:       4482	AVERAGE STALL: 27.9791
L2BTB BRANCH_DIRECT_CALL	ACCESS:     844000  HIT:     842959  MISS:       1041	AVERAGE STALL: 26.0654
L2BTB BRANCH_INDIRECT_CALL	ACCESS:     141758  HIT:     131611  MISS:      10147	AVERAGE STALL: 69.2156
L2BTB BRANCH_RETURN	ACCESS:     830236  HIT:     786174  MISS:      44062	AVERAGE STALL: 32.6018
L2BTB BRANCH_OTHER ACCESS:          0  HIT:          0  MISS:          0	AVERAGE STALL: -nan
L2BTB TOTAL ROB OCCUPANCY AT BTB MISS: 37.3447

L2C TOTAL     ACCESS:    4518637  HIT:    4029946  MISS:     488691  HIT %:     89.185  MISS %:     10.815   MPKI: 9.77382
L2C LOAD INSTRUCTION	ACCESS:    2781479  HIT:    2516143  MISS:     265336  HIT %:    90.4606  MISS %:    9.53939  MPKI: 5.30672
L2C LOAD TRANSLATION INSTRUCTION	ACCESS:        224  HIT:         56  MISS:        168  HIT %:         25  MISS %:         75  MPKI: 0.00336
L2C LOAD DATA	ACCESS:     734206  HIT:     654027  MISS:      80179  HIT %:    89.0795  MISS %:    10.9205  MPKI: 1.60358
L2C RFO DATA	ACCESS:     287153  HIT:     239206  MISS:      47947  HIT %:    83.3026  MISS %:    16.6974  MPKI: 0.95894
L2C PREFETCH DATA	ACCESS:     189445  HIT:     111884  MISS:      77561  HIT %:    59.0588  MISS %:    40.9412  MPKI: 1.55122
L2C WRITEBACK DATA	ACCESS:     524457  HIT:     508175  MISS:      16282  HIT %:    96.8955  MISS %:    3.10454  MPKI: 0.32564
L2C LOAD TRANSLATION DATA	ACCESS:       1627  HIT:        424  MISS:       1203  HIT %:    26.0602  MISS %:    73.9398  MPKI: 0.02406
L2C TRANSLATION FROM L1D PREFETCHER DATA	ACCESS:         46  HIT:         31  MISS:         15  HIT %:    67.3913  MISS %:    32.6087  MPKI: 0.0003

L2C PREFETCH  REQUESTED:      94935  ISSUED:      94935  USEFUL:       9034  USELESS:      68919
L2C USEFUL LOAD PREFETCHES:       9034 PREFETCH ISSUED TO LOWER LEVEL:      77964  ACCURACY: 11.5874
 TIMELY PREFETCHES:       9034 LATE PREFETCHES: 403 DROPPED PREFETCHES: 0
L2C AVERAGE MISS LATENCY: 37.3964 cycles
L2C RQ	ACCESS:    3804752	FORWARD:          0	MERGED:          0	TO_CACHE:    3804736
L2C WQ	ACCESS:     524457	FORWARD:         17	MERGED:          0	TO_CACHE:     524457
L2C PQ	ACCESS:     197700	FORWARD:          0	MERGED:       4276	TO_CACHE:     193423

L2C Dense regions hint from L2: 0
PSCL5 TOTAL     ACCESS:       3646  HIT:       1823  MISS:       1823  HIT %:         50  MISS %:         50   MPKI: 0.03646
PSCL5 LOAD TRANSLATION INSTRUCTION	ACCESS:       3554  HIT:       1777  MISS:       1777  HIT %:         50  MISS %:         50  MPKI: 0.03554
PSCL5 TRANSLATION FROM L1D PREFETCHER INSTRUCTION	ACCESS:         92  HIT:         46  MISS:         46  HIT %:         50  MISS %:         50  MPKI: 0.00092


PSCL4 TOTAL     ACCESS:       3566  HIT:       1781  MISS:       1785  HIT %:    49.9439  MISS %:    50.0561   MPKI: 0.0357
PSCL4 LOAD TRANSLATION INSTRUCTION	ACCESS:       2204  HIT:       1740  MISS:        464  HIT %:    78.9474  MISS %:    21.0526  MPKI: 0.00928
PSCL4 TRANSLATION FROM L1D PREFETCHER INSTRUCTION	ACCESS:         52  HIT:         41  MISS:         11  HIT %:    78.8462  MISS %:    21.1538  MPKI: 0.00022
PSCL4 LOAD TRANSLATION DATA	ACCESS:       1280  HIT:          0  MISS:       1280  HIT %:          0  MISS %:        100  MPKI: 0.0256
PSCL4 TRANSLATION FROM L1D PREFETCHER DATA	ACCESS:         30  HIT:          0  MISS:         30  HIT %:          0  MISS %:        100  MPKI: 0.0006


PSCL3 TOTAL     ACCESS:       3582  HIT:       1789  MISS:       1793  HIT %:    49.9442  MISS %:    50.0558   MPKI: 0.03586
PSCL3 LOAD TRANSLATION INSTRUCTION	ACCESS:       2212  HIT:       1748  MISS:        464  HIT %:    79.0235  MISS %:    20.9765  MPKI: 0.00928
PSCL3 TRANSLATION FROM L1D PREFETCHER INSTRUCTION	ACCESS:         52  HIT:         41  MISS:         11  HIT %:    78.8462  MISS %:    21.1538  MPKI: 0.00022
PSCL3 LOAD TRANSLATION DATA	ACCESS:       1288  HIT:          0  MISS:       1288  HIT %:          0  MISS %:        100  MPKI: 0.02576
PSCL3 TRANSLATION FROM L1D PREFETCHER DATA	ACCESS:         30  HIT:          0  MISS:         30  HIT %:          0  MISS %:        100  MPKI: 0.0006


PSCL2 TOTAL     ACCESS:       3580  HIT:       1757  MISS:       1823  HIT %:    49.0782  MISS %:    50.9218   MPKI: 0.03646
PSCL2 LOAD TRANSLATION INSTRUCTION	ACCESS:       1910  HIT:       1711  MISS:        199  HIT %:    89.5812  MISS %:    10.4188  MPKI: 0.00398
PSCL2 TRANSLATION FROM L1D PREFETCHER INSTRUCTION	ACCESS:         46  HIT:         46  MISS:          0  HIT %:        100  MISS %:          0  MPKI: 0
PSCL2 LOAD TRANSLATION DATA	ACCESS:       1578  HIT:          0  MISS:       1578  HIT %:          0  MISS %:        100  MPKI: 0.03156
PSCL2 TRANSLATION FROM L1D PREFETCHER DATA	ACCESS:         46  HIT:          0  MISS:         46  HIT %:          0  MISS %:        100  MPKI: 0.00092


LLC TOTAL     ACCESS:     545121  HIT:     518424  MISS:      26697  HIT %:    95.1026  MISS %:    4.89744   MPKI: 0.53394
LLC LOAD INSTRUCTION	ACCESS:     265336  HIT:     264584  MISS:        752  HIT %:    99.7166  MISS %:   0.283414  MPKI: 0.01504
LLC LOAD TRANSLATION INSTRUCTION	ACCESS:        168  HIT:        151  MISS:         17  HIT %:     89.881  MISS %:     10.119  MPKI: 0.00034
LLC LOAD DATA	ACCESS:      79793  HIT:      76356  MISS:       3437  HIT %:    95.6926  MISS %:     4.3074  MPKI: 0.06874
LLC RFO DATA	ACCESS:      47929  HIT:      35141  MISS:      12788  HIT %:    73.3189  MISS %:    26.6811  MPKI: 0.25576
LLC PREFETCH DATA	ACCESS:      77964  HIT:      68630  MISS:       9334  HIT %:    88.0278  MISS %:    11.9722  MPKI: 0.18668
LLC WRITEBACK DATA	ACCESS:      72713  HIT:      72411  MISS:        302  HIT %:    99.5847  MISS %:   0.415332  MPKI: 0.00604
LLC LOAD TRANSLATION DATA	ACCESS:       1203  HIT:       1136  MISS:         67  HIT %:    94.4306  MISS %:    5.56941  MPKI: 0.00134
LLC TRANSLATION FROM L1D PREFETCHER DATA	ACCESS:         15  HIT:         15  MISS:          0  HIT %:        100  MISS %:          0  MPKI: 0

LLC AVERAGE MISS LATENCY: 152.309 cycles
LLC RQ	ACCESS:     394445	FORWARD:          0	MERGED:          0	TO_CACHE:     394444
LLC WQ	ACCESS:      72713	FORWARD:          1	MERGED:          0	TO_CACHE:      72713
LLC PQ	ACCESS:      77964	FORWARD:          0	MERGED:          0	TO_CACHE:      77964

LLC Dense regions hint to LLC: 0

RAW hits: 1294025
Loads Generated: 12632550
Loads sent to L1D: 11338527
Stores Generated: 6956178
Stores sent to L1D: 6956185
Major fault: 0 Minor fault: 2481
Allocated PAGES: 2481

stream: 
stream:times selected: 1177653
stream:pref_filled: 119628
stream:pref_useful: 24277
stream:pref_late: 6407
stream:misses: 7174
stream:misses_by_poll: 0

CS: 
CS:times selected: 176788
CS:pref_filled: 57536
CS:pref_useful: 34454
CS:pref_late: 7866
CS:misses: 16924
CS:misses_by_poll: 0

CPLX: 
CPLX:times selected: 999803
CPLX:pref_filled: 22091
CPLX:pref_useful: 5391
CPLX:pref_late: 3004
CPLX:misses: 93745
CPLX:misses_by_poll: 0

NL_L1: 
NL:times selected: 20156
NL:pref_filled: 619
NL:pref_useful: 287
NL:pref_late: 321
NL:misses: 1491
NL:misses_by_poll: 0

total selections: 2374400
total_filled: 93432
total_useful: 34628
total_late: 19006
total_polluted: 0
total_misses_after_warmup: 776300
conflicts: 5965152

test: 117141

DRAM Statistics
 CHANNEL 0
 RQ ROW_BUFFER_HIT:       9730  ROW_BUFFER_MISS:      16656
 DBUS_CONGESTED:          8
 WQ ROW_BUFFER_HIT:       1189  ROW_BUFFER_MISS:      11476  FULL:          0

 AVG_CONGESTED_CYCLE: 5

CPU 0 Branch Prediction Accuracy: 99.8257% MPKI: 0.31912 Average ROB Occupancy at Mispredict: 77.2027
Branch types
NOT_BRANCH: 40846913 81.6938%
BRANCH_DIRECT_JUMP: 547751 1.0955%
BRANCH_INDIRECT: 182288 0.364576%
BRANCH_CONDITIONAL: 6179442 12.3589%
BRANCH_DIRECT_CALL: 949106 1.89821%
BRANCH_INDIRECT_CALL: 172548 0.345096%
BRANCH_RETURN: 1121655 2.24331%
BRANCH_OTHER: 0 0%

DRAM PAGES: 1048576
Allocated PAGES: 2481
Average_ROB_Occupancy: 58.8504
Average_Decode_Occupancy: 4.99908
Average_FTQ_Occupancy: 15.3669
Indirect max targets: 14 Average targets: 1.14576
Branch_type:  BRANCH_DIRECT_JUMP:  Count Percentage: 3.28166 5.97631 3.65443 7.17979 2.92367 6.32152 1.29156 69.3711 
Branch_type:  BRANCH_INDIRECT:  Count Percentage: 6.12122 0.788748 8.14555 9.6825 3.34841 2.8139 0.937785 68.1619 
Branch_type:  BRANCH_CONDITIONAL:  Count Percentage: 20.8927 3.45952 1.53094 7.20978 3.07247 3.54878 0.573502 59.7123 
Branch_type:  BRANCH_DIRECT_CALL:  Count Percentage: 0.901754 1.2805 0.724847 3.62233 2.78687 2.60828 0.885748 87.1897 
Branch_type:  BRANCH_INDIRECT_CALL:  Count Percentage: 9.54037 0 2.99243 0 0.000290245 1.70984 0.99351 84.7636 
Branch_type:  BRANCH_RETURN:  Count Percentage: 4.74564 4.79183 1.02069 4.82811 4.10446 3.40968 0.580774 76.5188 
Branch_type:  BRANCH_DIRECT_JUMP:  Total Count: 35953 65475 40037 78660 32031 69257 14150 760012 
Branch_type:  BRANCH_INDIRECT:  Total Count: 22343 2879 29732 35342 12222 10271 3423 248797 
Branch_type:  BRANCH_CONDITIONAL:  Total Count: 2581472 427453 189160 890830 379630 438482 70861 7377959 
Branch_type:  BRANCH_DIRECT_CALL:  Total Count: 17071 24241 13722 68574 52758 49377 16768 1650578 
Branch_type:  BRANCH_INDIRECT_CALL:  Total Count: 32870 0 10310 0 1 5891 3423 292041 
Branch_type:  BRANCH_RETURN:  Total Count: 106226 107260 22847 108072 91874 76322 13000 1712791 
Number of unique branch instructions: 9763
Upper 32 bits: 
aaaa
ffff
ffff0000
Unique upper 32 bits: 3
Unique upper 36 bits: 3
Unique upper 40 bits: 5
Unique upper 44 bits: 32
Unique upper 48 bits: 154
Variant_0 : 1372 0.334961
Variant_1 : 1267 0.309326
Variant_2 : 1359 0.331787
Variant_3 : 0 0
Offset_3 4036
Offset_4 241
Offset_5 442
Offset_6 503
Offset_7 572
Offset_8 499
Offset_9 459
Offset_10 377
Offset_11 303
Offset_12 265
Offset_13 201
Offset_14 223
Offset_15 190
Offset_16 218
Offset_17 145
Offset_18 120
Offset_19 235
Offset_20 135
Offset_21 235
Offset_22 391
Offset_23 241
Offset_24 325
Offset_25 88
Offset_47 80
decode_dispatch_called: 29297126 54.1772
Dispatch_width: 0 17222994 58.7873 31.8493
Dispatch_width: 1 2174693 7.42289 4.02151
Dispatch_width: 2 1198698 4.09152 2.21667
Dispatch_width: 3 1091225 3.72468 2.01793
Dispatch_width: 4 1135071 3.87434 2.09901
Dispatch_width: 5 1233014 4.20865 2.28013
Dispatch_width: 6 5241431 17.8906 9.69262
Empty_decode_cycles: 24779378 45.8228
ROB_full_cycles: 510972 0.944906
Starvation_cycles_per_kilo_instr: 483.241
Starvation_cycles_per_kilo_instr_3: 459.56
Starvation_cycles_per_kilo_instr_0: 414.914
Branch_type_1  (3,1)  (4,7)  (5,36)  (6,71)  (7,115)  (8,125)  (9,124)  (10,98)  (11,67)  (12,43)  (13,8)  (14,2)  (15,3)  (16,4)  (18,1)  (19,4)  (20,2)  (21,1)  (22,3)  (23,2)  (24,10)  (25,12) 
Branch_type_2  (3,1)  (5,1)  (8,3)  (9,3)  (12,1)  (13,1)  (14,1)  (16,3)  (17,2)  (20,2)  (21,2)  (23,5)  (24,1)  (47,36) 
Branch_type_3  (3,4034)  (4,234)  (5,401)  (6,417)  (7,428)  (8,312)  (9,251)  (10,154)  (11,122)  (12,50)  (13,7) 
Branch_type_4  (6,3)  (7,8)  (8,24)  (9,50)  (10,59)  (11,58)  (12,93)  (13,84)  (14,98)  (15,90)  (16,98)  (17,63)  (18,54)  (19,115)  (20,71)  (21,124)  (22,207)  (23,136)  (24,186)  (25,72) 
Branch_type_5  (8,2)  (9,1)  (10,3)  (11,5)  (12,3)  (13,14)  (14,16)  (15,11)  (16,20)  (17,13)  (18,16)  (19,12)  (20,10)  (21,13)  (22,42)  (23,26)  (24,36) 
Branch_type_6  (5,4)  (6,12)  (7,21)  (8,33)  (9,30)  (10,63)  (11,51)  (12,75)  (13,87)  (14,106)  (15,86)  (16,93)  (17,67)  (18,49)  (19,104)  (20,50)  (21,95)  (22,139)  (23,72)  (24,92)  (25,4)  (47,44) 
Unique trigger count: 
Variant_0_evicts_0 : 0
Variant_0_evicts_1 : 0
Variant_0_evicts_2 : 0
Variant_0_evicts_3 : 0
Variant_1_evicts_0 : 0
Variant_1_evicts_1 : 0
Variant_1_evicts_2 : 0
Variant_1_evicts_3 : 0
Variant_2_evicts_0 : 0
Variant_2_evicts_1 : 0
Variant_2_evicts_2 : 0
Variant_2_evicts_3 : 0
Variant_3_evicts_0 : 0
Variant_3_evicts_1 : 0
Variant_3_evicts_2 : 0
Variant_3_evicts_3 : 0
BTB PER SET UNIQUE ADDR: 9 11 7 11 13 13 7 10 7 8 11 13 11 7 7 6 6 8 8 9 7 8 12 10 6 8 9 7 9 6 8 11 11 5 7 9 10 15 7 11 6 7 15 7 8 9 14 11 7 7 10 8 9 9 9 4 9 11 7 10 7 8 10 10 8 10 8 11 10 13 13 9 10 5 8 5 9 10 8 16 12 5 8 8 11 11 6 7 8 15 5 8 10 12 6 11 6 7 14 7 13 8 13 9 8 6 6 11 6 6 8 16 13 8 8 6 7 8 10 11 9 11 12 6 11 10 6 10 14 9 10 8 10 10 11 11 8 10 12 13 10 13 9 10 9 11 11 7 7 11 6 10 13 10 8 9 9 14 12 8 11 7 9 13 8 11 7 6 15 10 13 13 8 11 7 9 11 5 8 10 7 9 9 12 15 11 5 6 9 6 9 11 13 11 10 10 7 10 7 14 12 9 7 6 9 10 10 9 11 7 10 9 7 10 8 13 7 12 12 13 9 11 8 8 6 10 14 9 7 11 5 6 9 16 10 9 12 10 9 6 10 12 16 5 9 10 10 11 10 9 12 10 13 11 10 10 10 6 8 9 11 8 5 8 11 5 9 9 6 8 5 10 5 8 7 8 9 12 8 10 8 9 6 8 11 5 9 17 14 14 10 8 10 13 4 16 8 11 9 9 9 7 11 12 10 11 11 8 17 4 10 14 7 10 10 5 12 9 9 15 8 10 9 10 13 7 13 9 8 7 9 13 7 13 9 7 7 8 7 17 9 8 6 8 9 12 11 10 7 8 11 7 12 9 10 8 11 13 9 8 5 10 12 9 9 9 6 12 10 13 8 4 11 11 5 12 8 11 11 13 10 14 8 10 9 12 9 10 12 10 12 8 11 12 6 8 8 11 15 9 9 16 10 9 15 12 10 10 12 12 10 4 7 13 12 12 12 10 12 11 7 8 12 7 13 6 10 8 9 8 8 8 10 14 13 9 10 7 11 10 15 8 8 15 15 7 10 9 11 9 12 13 12 11 10 14 9 14 10 13 8 10 11 11 11 11 5 11 9 10 8 10 8 8 10 12 9 10 10 12 11 9 11 12 6 15 12 11 13 10 10 12 11 7 7 7 12 10 9 11 9 16 9 14 10 8 9 12 16 12 9 13 8 8 9 14 9 16 7 7 7 12 13 4 6 13 12 5 6 16 12 8 11 6 9 6 6 12 14 10 10 10 13 11 11 16 8 9 10 8 10 12 11 8 9 11 10 12 11 10 9 10 7 8 8 10 9 9 10 10 13 13 13 11 12 12 13 13 10 7 8 8 8 10 14 6 13 8 11 16 6 12 15 7 12 6 6 10 10 9 12 10 9 5 9 11 16 10 10 9 10 10 11 11 4 8 9 12 8 9 17 8 6 5 12 14 9 12 9 9 9 13 13 13 9 10 12 14 9 12 9 8 12 7 10 14 12 10 10 8 12 12 4 12 9 8 10 8 6 8 10 6 14 14 8 10 9 9 9 9 11 8 8 15 11 10 10 11 14 8 8 15 8 10 11 9 8 9 12 11 10 12 11 9 7 14 14 11 9 14 5 15 10 10 5 10 10 9 8 7 11 13 6 10 13 9 12 9 9 9 8 6 10 8 10 11 11 8 8 12 9 6 13 9 6 11 12 7 16 12 11 9 8 13 8 15 9 9 8 9 13 9 11 10 10 9 13 8 6 6 9 7 5 8 10 8 12 8 9 11 10 11 8 6 5 6 15 8 10 9 7 10 12 10 12 10 9 10 9 8 9 4 13 9 14 11 10 8 14 8 11 9 10 10 11 12 9 12 8 11 11 8 10 14 9 13 15 12 8 11 8 16 7 12 13 7 6 11 8 8 8 9 14 9 9 9 8 9 9 6 11 12 8 7 7 12 7 16 11 8 9 11 10 11 12 14 11 12 11 12 10 10 8 10 8 6 7 7 13 6 8 8 12 9 9 4 8 8 7 12 14 6 9 13 15 9 12 8 11 12 9 8 10 12 8 8 15 9 9 8 11 6 12 11 5 6 11 10 10 9 7 11 9 13 10 6 15 12 10 9 11 15 12 5 6 12 8 9 10 4 15 11 16 11 7 14 11 7 10 13 9 11 14 8 12 10 11 6 8 9 13 13 8 13 7 10 11 7 11 13 9 11 10 11 9 9 14 11 7 12 5 14 11 10 14 9 13 6 12 15 6 11 8 8 6 11 13 14 14 7 8 7 7 14 9 11 8 11 11 12 8 18 11 6 9 10 6 8 10 12 10 11 9 4 6 10 7 7 4 6 11 14 10 8 
BTB PER SET COUNT: 10 12 1928 12 16 15 9 666 1480 10 17 957 12442 9 8 11 997 10 9 10 7 8 750 187 6 11 12 12 373 8 8 20 17 5 7 9 12 694 12 18 6 8 21 12 1480 10 33 17 9 8 15 8 14 10 9 4 9 15 9 10 9 9 15 11 8 10 8 964 10 14 591 1367 11 5 8 5 10 12 10 20 976 6 15 323 19 43 6 11 8 20 9 833 491 14 6 15 487 8 16 8 16 14 16 11 1244 6 6 11 8 6 10 26 408 9 10 6 7 13 2714 196 576 21 12 8 13 79 7 15 18 765 15 10 10 12 18 15 818 14 16 13 16 16 11 11 17 377 1486 7 7 207 7 12 664 14 8 13 1510 15 18 9 16 359 11 14 9 982 7 7 21 375 18 17 8 17 12 13 13 5 12 12 7 247 3433 12 22 13 5 8 10 965 12 11 16 11 10 167 7 118 9 19 12 15 7 7 9 14 11 9 12 7 16 14 8 11 10 1498 7 19 2941 19 11 19 375 8 10 21 18 11 7 18 6 6 9 24 17 9 17 14 14 10 13 20 23 5 15 657 11 16 12 14 17 15 15 13 11 14 12 10 10 12 1004 12 5 9 13 5 13 9 8 8 5 17 5 8 7 8 12 14 8 440 12 11 940 12 14 5 11 26 22 17 11 8 11 104 4 20 8 15 10 9 10 7 14 16 10 15 15 13 481 4 12 14 7 12 815 965 12 23 12 34 8 5413 11 12 15 7 273 14 9 7 10 18 10 19 9 8 7 11 7 23 12 244 6 8 9 15 16 15 8 10 16 8 15 9 10 10 15 18 313 8 7 13 18 9 11 998 6 13 11 14 12 4 19 13 6 14 8 12 12 1310 1140 17 1002 10 13 15 13 10 17 546 39 10 20 14 6 12 10 22 199 10 10 20 12 10 21 20 10 14 14 20 12 4 7 18 13 15 14 8071 16 13 7 20 19 10 15 6 12 8 9 844 11 9 13 17 471 16 11 20 11 12 788 8 43 19 2484 7 224 12 12 9 975 1727 14 13 14 17 9 14 21 17 11 11 11 13 11 11 5 13 11 12 10 11 8 12 17 34 10 31 11 15 16 12 11 16 7 21 15 17 14 11 16 13 158 10 7 7 1507 10 19 12 12 20 10 154 17 12 11 12 20 19 18 498 25 8 11 21 20 24 14 8 7 15 15 6 7 24 72 5 9 596 16 9 12 6 11 6 8 976 18 461 13 13 15 12 15 113 15 9 16 1000 13 14 13 16 11 13 12 16 14 12 10 96 7 8 999 16 85 11 10 10 28 13 13 13 496 14 14 14 15 8 9 8 8 4150 17 7 61 12 15 21 9 100 26 8 19 8 6 382 49 14 13 17 9 5 13 16 19 1480 11 11 14 14 68 15 4 14 367 24 8 20 19 9 6 970 15 16 11 12 10 11 14 19 23 15 11 12 16 556 14 880 13 10 17 7 833 18 675 11 1980 8 15 16 4 14 11 491 11 9 953 10 77 6 17 22 161 11 13 1000 1483 12 11 8 1000 16 15 13 10 11 22 8 13 22 10 12 1193 11 9 10 19 11 10 18 12 14 2375 22 18 2552 9 21 5 26 665 10 5 11 11 10 8 8 14 246 993 12 15 9 480 19 9 9 12 1024 16 1480 14 13 12 11 794 12 14 13465 14 103 6 1004 974 8 19 17 988 18 11 67 8 20 10 10 8 9 1487 12 13 1962 1137 10 23 10 7 8 12 9 5 129 938 8 14 10 13 13 11 18 12 11 6 6 19 551 12 11 969 11 1331 12 17 11 10 13 11 13 9 4 19 10 264 16 10 9 18 10 17 9 12 12 11 16 13 12 10 11 14 7786 20 14 14 706 22 1969 10 79 10 817 7 19 162 7 8 14 8 9 10 11 22 17 510 1800 11 970 187 6 12 20 8 7 1104 17 8 22 14 1278 10 330 15 16 1543 17 311 15 17 21 941 14 8 18 8 7 7 7 20 12 9 13 15 9 10 4 8 8 9 19 19 7 13 94 975 1408 13 11 11 12 11 8 749 20 11 13 23 11 1989 11 17 8 18 51 6 7 13 10 10 12 8 492 12 17 18 6 29 15 16 56 19 33 970 6 6 1038 9 9 10 4 21 11 23 16 7 265 17 7 10 19 9 275 25 8 12 15 13 6 12 11 23 86 1481 292 8 10 13 7 13 15 60 14 976 11 9 9 1487 14 9 16 6 1284 12 21 494 14 15 7 514 230 7 973 9 15 6 375 1960 323 21 7 8 7 8 440 1194 19 14 1493 23 15 130 312 13 12 9 10 6 9 11 1005 33 476 11 4 6 14 8 304 4 9 11 18 10 8 
To predecode: 0
Predecoding something: 0
Predecode request dropped: 0
sizeofblock_0 0
sizeofblock_1 31842
sizeofblock_2 37277
sizeofblock_3 47569
sizeofblock_4 24653
sizeofblock_5 0
sizeofblock_6 0
sizeofblock_7 0
sizeofblock_8 0
Variant_0 Correct: 1616682 Incorrect: 0 Accuracy: 1
Variant_1 Correct: 2094464 Incorrect: 0 Accuracy: 1
Variant_2 Correct: 3648488 Incorrect: 0 Accuracy: 1
Variant_3 Correct: 0 Incorrect: 0 Accuracy: -nan
