
*** ChampSim Multicore Out-of-Order Simulator ***

Warmup Instructions: 50000000
Simulation Instructions: 50000000
Number of CPUs: 1
LLC sets: 2048
LLC ways: 16
Off-chip DRAM Size: 4096 MB Channels: 1 Width: 64-bit Data Rate: 6400 MT/s
CPU 0 runs ./micro_traces/srv687.trace.gz
.gz
ITLB has LRU replacement policy
DTLB has LRU replacement policy
STLB has LRU replacement policy
L1I has LRU replacement policy
L1D has LRU replacement policy
Initialize SRRIP state for L2C
Initialize DRRIP state for LLC
Heartbeat_Variant_0 : 1323 0.322998 per_variant_size: 0 1323 0 0 0 0 0 0 0 
Heartbeat_Variant_1 : 1220 0.297852 per_variant_size: 0 598 622 0 0 0 0 0 0 
Heartbeat_Variant_2 : 1313 0.320557 per_variant_size: 0 533 379 206 195 0 0 0 0 
Heartbeat_Variant_3 : 0 0 per_variant_size: 0 0 0 0 0 0 0 0 0 
Heartbeat_Variant_0_evicts 0 : 5872 1 : 262 2 : 254 3 : 0 
Heartbeat_Variant_1_evicts 0 : 250 1 : 0 2 : 417 3 : 0 
Heartbeat_Variant_2_evicts 0 : 229 1 : 418 2 : 0 3 : 0 
Heartbeat_Variant_3_evicts 0 : 0 1 : 0 2 : 0 3 : 0 
Heartbeat CPU 0 instructions: 10000003 cycles: 2798875 heartbeat IPC: 3.57287 cumulative IPC: 3.57287 (Simulation time: 0 hr 1 min 19 sec) 
Heartbeat_Variant_0 : 1341 0.327393 per_variant_size: 0 1341 0 0 0 0 0 0 0 
Heartbeat_Variant_1 : 1244 0.303711 per_variant_size: 0 593 651 0 0 0 0 0 0 
Heartbeat_Variant_2 : 1333 0.325439 per_variant_size: 0 523 388 222 200 0 0 0 0 
Heartbeat_Variant_3 : 0 0 per_variant_size: 0 0 0 0 0 0 0 0 0 
Heartbeat_Variant_0_evicts 0 : 5815 1 : 108 2 : 124 3 : 0 
Heartbeat_Variant_1_evicts 0 : 109 1 : 0 2 : 311 3 : 0 
Heartbeat_Variant_2_evicts 0 : 124 1 : 309 2 : 0 3 : 0 
Heartbeat_Variant_3_evicts 0 : 0 1 : 0 2 : 0 3 : 0 
Heartbeat CPU 0 instructions: 20000002 cycles: 5596555 heartbeat IPC: 3.57439 cumulative IPC: 3.57363 (Simulation time: 0 hr 2 min 36 sec) 
Heartbeat_Variant_0 : 1343 0.327881 per_variant_size: 0 1343 0 0 0 0 0 0 0 
Heartbeat_Variant_1 : 1247 0.304443 per_variant_size: 0 594 653 0 0 0 0 0 0 
Heartbeat_Variant_2 : 1344 0.328125 per_variant_size: 0 538 382 233 191 0 0 0 0 
Heartbeat_Variant_3 : 0 0 per_variant_size: 0 0 0 0 0 0 0 0 0 
Heartbeat_Variant_0_evicts 0 : 5619 1 : 19 2 : 43 3 : 0 
Heartbeat_Variant_1_evicts 0 : 20 1 : 0 2 : 225 3 : 0 
Heartbeat_Variant_2_evicts 0 : 44 1 : 228 2 : 0 3 : 0 
Heartbeat_Variant_3_evicts 0 : 0 1 : 0 2 : 0 3 : 0 
Heartbeat CPU 0 instructions: 30000002 cycles: 8393384 heartbeat IPC: 3.57548 cumulative IPC: 3.57424 (Simulation time: 0 hr 3 min 55 sec) 
Heartbeat_Variant_0 : 1367 0.33374 per_variant_size: 0 1367 0 0 0 0 0 0 0 
Heartbeat_Variant_1 : 1257 0.306885 per_variant_size: 0 584 673 0 0 0 0 0 0 
Heartbeat_Variant_2 : 1351 0.329834 per_variant_size: 0 529 389 233 200 0 0 0 0 
Heartbeat_Variant_3 : 0 0 per_variant_size: 0 0 0 0 0 0 0 0 0 
Heartbeat_Variant_0_evicts 0 : 5607 1 : 106 2 : 123 3 : 0 
Heartbeat_Variant_1_evicts 0 : 96 1 : 0 2 : 305 3 : 0 
Heartbeat_Variant_2_evicts 0 : 119 1 : 300 2 : 0 3 : 0 
Heartbeat_Variant_3_evicts 0 : 0 1 : 0 2 : 0 3 : 0 
Heartbeat CPU 0 instructions: 40000000 cycles: 11190230 heartbeat IPC: 3.57546 cumulative IPC: 3.57455 (Simulation time: 0 hr 5 min 11 sec) 
Heartbeat_Variant_0 : 1370 0.334473 per_variant_size: 0 1370 0 0 0 0 0 0 0 
Heartbeat_Variant_1 : 1256 0.306641 per_variant_size: 0 579 677 0 0 0 0 0 0 
Heartbeat_Variant_2 : 1351 0.329834 per_variant_size: 0 532 387 238 194 0 0 0 0 
Heartbeat_Variant_3 : 0 0 per_variant_size: 0 0 0 0 0 0 0 0 0 
Heartbeat_Variant_0_evicts 0 : 5661 1 : 26 2 : 19 3 : 0 
Heartbeat_Variant_1_evicts 0 : 23 1 : 0 2 : 223 3 : 0 
Heartbeat_Variant_2_evicts 0 : 19 1 : 223 2 : 0 3 : 0 
Heartbeat_Variant_3_evicts 0 : 0 1 : 0 2 : 0 3 : 0 
Heartbeat CPU 0 instructions: 50000001 cycles: 13988287 heartbeat IPC: 3.57391 cumulative IPC: 3.57442 (Simulation time: 0 hr 6 min 28 sec) 

Warmup complete CPU 0 instructions: 50000001 cycles: 13988287 (Simulation time: 0 hr 6 min 28 sec) 

Cycle: 20000000 FTQ IN: 55636512 FTQ occupancy: 16.0312 DECODE IN: 55636494 DECODE occupancy: 9.53977 ROB IN: 55636494 ROB occupancy: 260.643 ROB OUT: 55636344
Heartbeat_Variant_0 : 1374 0.335449 per_variant_size: 0 1374 0 0 0 0 0 0 0 
Heartbeat_Variant_1 : 1263 0.30835 per_variant_size: 0 593 670 0 0 0 0 0 0 
Heartbeat_Variant_2 : 1360 0.332031 per_variant_size: 0 536 374 254 196 0 0 0 0 
Heartbeat_Variant_3 : 0 0 per_variant_size: 0 0 0 0 0 0 0 0 0 
Heartbeat_Variant_0_evicts 0 : 5723 1 : 57 2 : 56 3 : 0 
Heartbeat_Variant_1_evicts 0 : 55 1 : 0 2 : 249 3 : 0 
Heartbeat_Variant_2_evicts 0 : 56 1 : 250 2 : 0 3 : 0 
Heartbeat_Variant_3_evicts 0 : 0 1 : 0 2 : 0 3 : 0 
Heartbeat CPU 0 instructions: 60000000 cycles: 24818838 heartbeat IPC: 0.923314 cumulative IPC: 0.923314 (Simulation time: 0 hr 7 min 37 sec) 
Cycle: 30000000 FTQ IN: 9154013 FTQ occupancy: 15.3709 DECODE IN: 9154028 DECODE occupancy: 5.0118 ROB IN: 9154028 ROB occupancy: 58.326 ROB OUT: 9154168
Heartbeat_Variant_0 : 1369 0.334229 per_variant_size: 0 1369 0 0 0 0 0 0 0 
Heartbeat_Variant_1 : 1268 0.30957 per_variant_size: 0 606 662 0 0 0 0 0 0 
Heartbeat_Variant_2 : 1362 0.33252 per_variant_size: 0 535 382 253 192 0 0 0 0 
Heartbeat_Variant_3 : 0 0 per_variant_size: 0 0 0 0 0 0 0 0 0 
Heartbeat_Variant_0_evicts 0 : 5616 1 : 33 2 : 23 3 : 0 
Heartbeat_Variant_1_evicts 0 : 37 1 : 0 2 : 231 3 : 0 
Heartbeat_Variant_2_evicts 0 : 24 1 : 232 2 : 0 3 : 0 
Heartbeat_Variant_3_evicts 0 : 0 1 : 0 2 : 0 3 : 0 
Heartbeat CPU 0 instructions: 70000003 cycles: 35563461 heartbeat IPC: 0.930698 cumulative IPC: 0.926991 (Simulation time: 0 hr 8 min 49 sec) 
Cycle: 40000000 FTQ IN: 9321664 FTQ occupancy: 15.3734 DECODE IN: 9321649 DECODE occupancy: 5.03497 ROB IN: 9321637 ROB occupancy: 57.7142 ROB OUT: 9321619
Heartbeat_Variant_0 : 1368 0.333984 per_variant_size: 0 1368 0 0 0 0 0 0 0 
Heartbeat_Variant_1 : 1273 0.310791 per_variant_size: 0 605 668 0 0 0 0 0 0 
Heartbeat_Variant_2 : 1361 0.332275 per_variant_size: 0 535 380 246 200 0 0 0 0 
Heartbeat_Variant_3 : 0 0 per_variant_size: 0 0 0 0 0 0 0 0 0 
Heartbeat_Variant_0_evicts 0 : 5526 1 : 11 2 : 7 3 : 0 
Heartbeat_Variant_1_evicts 0 : 12 1 : 0 2 : 215 3 : 0 
Heartbeat_Variant_2_evicts 0 : 8 1 : 211 2 : 0 3 : 0 
Heartbeat_Variant_3_evicts 0 : 0 1 : 0 2 : 0 3 : 0 
Heartbeat CPU 0 instructions: 80000003 cycles: 46288119 heartbeat IPC: 0.932431 cumulative IPC: 0.928797 (Simulation time: 0 hr 10 min 3 sec) 
Cycle: 50000000 FTQ IN: 9015621 FTQ occupancy: 15.1567 DECODE IN: 9015621 DECODE occupancy: 4.91888 ROB IN: 9015633 ROB occupancy: 57.583 ROB OUT: 9015661
Heartbeat_Variant_0 : 1398 0.341309 per_variant_size: 0 1398 0 0 0 0 0 0 0 
Heartbeat_Variant_1 : 1304 0.318359 per_variant_size: 0 553 751 0 0 0 0 0 0 
Heartbeat_Variant_2 : 1351 0.329834 per_variant_size: 0 480 382 267 222 0 0 0 0 
Heartbeat_Variant_3 : 0 0 per_variant_size: 0 0 0 0 0 0 0 0 0 
Heartbeat_Variant_0_evicts 0 : 6017 1 : 432 2 : 409 3 : 0 
Heartbeat_Variant_1_evicts 0 : 438 1 : 0 2 : 595 3 : 0 
Heartbeat_Variant_2_evicts 0 : 385 1 : 585 2 : 0 3 : 0 
Heartbeat_Variant_3_evicts 0 : 0 1 : 0 2 : 0 3 : 0 
Heartbeat CPU 0 instructions: 90000000 cycles: 57398603 heartbeat IPC: 0.900051 cumulative IPC: 0.92144 (Simulation time: 0 hr 11 min 14 sec) 
Cycle: 60000000 FTQ IN: 9318671 FTQ occupancy: 15.3475 DECODE IN: 9318671 DECODE occupancy: 5.02868 ROB IN: 9318671 ROB occupancy: 57.2257 ROB OUT: 9318608
Heartbeat_Variant_0 : 1396 0.34082 per_variant_size: 0 1396 0 0 0 0 0 0 0 
Heartbeat_Variant_1 : 1304 0.318359 per_variant_size: 0 549 755 0 0 0 0 0 0 
Heartbeat_Variant_2 : 1353 0.330322 per_variant_size: 0 480 384 265 224 0 0 0 0 
Heartbeat_Variant_3 : 0 0 per_variant_size: 0 0 0 0 0 0 0 0 0 
Heartbeat_Variant_0_evicts 0 : 5614 1 : 0 2 : 2 3 : 0 
Heartbeat_Variant_1_evicts 0 : 1 1 : 0 2 : 198 3 : 0 
Heartbeat_Variant_2_evicts 0 : 3 1 : 199 2 : 0 3 : 0 
Heartbeat_Variant_3_evicts 0 : 0 1 : 0 2 : 0 3 : 0 
Heartbeat CPU 0 instructions: 100000001 cycles: 68076154 heartbeat IPC: 0.936544 cumulative IPC: 0.924422 (Simulation time: 0 hr 12 min 23 sec) 
Finished CPU 0 instructions: 50000000 cycles: 54087867 cumulative IPC: 0.924422 (Simulation time: 0 hr 12 min 23 sec) 

ChampSim completed all CPUs

Region of Interest Statistics

CPU 0 cumulative IPC: 0.924422 instructions: 50000000 cycles: 54087867
 Fetch stage stalled: 22.3011  Sim cycles: 54087867 fetch stall cycle: 12062201
 Empty decode stage: 68.133  Sim cycles: 54087867 fetch stall cycle: 36851681
ITLB TOTAL     ACCESS:    7287827  HIT:    6792892  MISS:     494935  HIT %:    93.2087  MISS %:    6.79126   MPKI: 9.8987
ITLB LOAD TRANSLATION INSTRUCTION	ACCESS:    7287827  HIT:    6792892  MISS:     494935  HIT %:    93.2087  MISS %:    6.79126  MPKI: 9.8987

ITLB AVERAGE MISS LATENCY: 9.05392 cycles
ITLB RQ	ACCESS:    8358786	FORWARD:          0	MERGED:     862360	TO_CACHE:    7496426

DTLB TOTAL     ACCESS:   10220445  HIT:    9742191  MISS:     478254  HIT %:    95.3206  MISS %:    4.67939   MPKI: 9.56508
DTLB LOAD TRANSLATION DATA	ACCESS:   10220445  HIT:    9742191  MISS:     478254  HIT %:    95.3206  MISS %:    4.67939  MPKI: 9.56508

DTLB AVERAGE MISS LATENCY: 9.31208 cycles
DTLB RQ	ACCESS:   14368891	FORWARD:          0	MERGED:    4118998	TO_CACHE:   10249893

STLB TOTAL     ACCESS:    1231970  HIT:    1229837  MISS:       2133  HIT %:    99.8269  MISS %:   0.173137   MPKI: 0.04266
STLB LOAD TRANSLATION INSTRUCTION	ACCESS:     494935  HIT:     494657  MISS:        278  HIT %:    99.9438  MISS %:   0.056169  MPKI: 0.00556
STLB LOAD TRANSLATION DATA	ACCESS:     478224  HIT:     476391  MISS:       1833  HIT %:    99.6167  MISS %:   0.383293  MPKI: 0.03666
STLB TRANSLATION FROM L1D PREFETCHER DATA	ACCESS:     258811  HIT:     258789  MISS:         22  HIT %:    99.9915  MISS %: 0.00850041  MPKI: 0.00044

STLB AVERAGE MISS LATENCY: 74.136 cycles
STLB RQ	ACCESS:    1350244	FORWARD:          0	MERGED:     118239	TO_CACHE:    1232005

STLB Hit, L1D data hit: 0
STLB Hit, L2C data hit: 0
STLB Hit, LLC data hit: 0
STLB Hit, LLC data miss: 0
STLB STLB hints to L2: 0
L1D TOTAL     ACCESS:   14165366  HIT:   13051592  MISS:    1113774  HIT %:    92.1373  MISS %:    7.86266   MPKI: 22.2755
L1D LOAD DATA	ACCESS:    7516705  HIT:    6783738  MISS:     732967  HIT %:    90.2488  MISS %:    9.75117  MPKI: 14.6593
L1D RFO DATA	ACCESS:    6311943  HIT:    6026244  MISS:     285699  HIT %:    95.4737  MISS %:    4.52632  MPKI: 5.71398
L1D PREFETCH DATA	ACCESS:     336718  HIT:     241610  MISS:      95108  HIT %:    71.7544  MISS %:    28.2456  MPKI: 1.90216

L1D PREFETCH  REQUESTED:     754170  ISSUED:     754170  USEFUL:      34925  USELESS:      68240
L1D USEFUL LOAD PREFETCHES:      34925 PREFETCH ISSUED TO LOWER LEVEL:     103221  ACCURACY: 33.8352
 TIMELY PREFETCHES:      34925 LATE PREFETCHES: 8065 DROPPED PREFETCHES: 5
L1D AVERAGE MISS LATENCY: 294509 cycles
L1D RQ	ACCESS:   11356986	FORWARD:          0	MERGED:    3653269	TO_CACHE:    7547378
L1D WQ	ACCESS:    6947034	FORWARD:     156399	MERGED:     125521	TO_CACHE:    6821513
L1D PQ	ACCESS:     377115	FORWARD:          0	MERGED:          0	TO_CACHE:     377055

L1D UNIQUE REGIONS ACCESSED: 0
L1D REGIONS CONFLICTS: 0
L1D Cross Page Prefetch Requests: 6796
L1D Same Page Prefetch Requests: 758308
L1D ROI Sum of L1D PQ occupancy: 4786430
L1D PREFETCHES PUSHED FROM L2C: 0
L1I TOTAL     ACCESS:    7865854  HIT:    5099814  MISS:    2766040  HIT %:    64.8348  MISS %:    35.1652   MPKI: 55.3208
L1I LOAD INSTRUCTION	ACCESS:    7865854  HIT:    5099814  MISS:    2766040  HIT %:    64.8348  MISS %:    35.1652  MPKI: 55.3208

L1I AVERAGE MISS LATENCY: 17.029 cycles
L1I RQ	ACCESS:   15750867	FORWARD:          0	MERGED:    7392081	TO_CACHE:    8358786

L1BTB TOTAL     ACCESS:    5671176  HIT:    2039850  MISS:    3631326  HIT %:    35.9687  MISS %:    64.0313   MPKI: 72.6265
L1BTB BRANCH_DIRECT_JUMP	ACCESS:     548369  HIT:     144631  MISS:     403738	AVERAGE STALL: 21.406
L1BTB BRANCH_INDIRECT	ACCESS:     182835  HIT:      65935  MISS:     116900	AVERAGE STALL: 50.9245
L1BTB BRANCH_CONDITIONAL	ACCESS:    2705280  HIT:    1412139  MISS:    1293141	AVERAGE STALL: 27.4266
L1BTB BRANCH_DIRECT_CALL	ACCESS:     945680  HIT:     105365  MISS:     840315	AVERAGE STALL: 34.8231
L1BTB BRANCH_INDIRECT_CALL	ACCESS:     171667  HIT:      21211  MISS:     150456	AVERAGE STALL: 67.3118
L1BTB BRANCH_RETURN	ACCESS:    1117345  HIT:     290569  MISS:     826776	AVERAGE STALL: 33.1683
L1BTB BRANCH_OTHER ACCESS:          0  HIT:          0  MISS:          0	AVERAGE STALL: -nan
L1BTB TOTAL ROB OCCUPANCY AT BTB MISS: 0.725265

L2BTB TOTAL     ACCESS:    3605906  HIT:    3534592  MISS:      71314  HIT %:    98.0223  MISS %:     1.9777   MPKI: 1.42628
L2BTB BRANCH_DIRECT_JUMP	ACCESS:     399578  HIT:     393981  MISS:       5597	AVERAGE STALL: 21.406
L2BTB BRANCH_INDIRECT	ACCESS:     106577  HIT:     103840  MISS:       2737	AVERAGE STALL: 50.9245
L2BTB BRANCH_CONDITIONAL	ACCESS:    1293141  HIT:    1288033  MISS:       5108	AVERAGE STALL: 27.4266
L2BTB BRANCH_DIRECT_CALL	ACCESS:     840315  HIT:     838142  MISS:       2173	AVERAGE STALL: 34.8231
L2BTB BRANCH_INDIRECT_CALL	ACCESS:     140925  HIT:     130567  MISS:      10358	AVERAGE STALL: 67.3118
L2BTB BRANCH_RETURN	ACCESS:     825370  HIT:     780029  MISS:      45341	AVERAGE STALL: 33.1683
L2BTB BRANCH_OTHER ACCESS:          0  HIT:          0  MISS:          0	AVERAGE STALL: -nan
L2BTB TOTAL ROB OCCUPANCY AT BTB MISS: 36.9307

L2C TOTAL     ACCESS:    4481870  HIT:    4017737  MISS:     464133  HIT %:    89.6442  MISS %:    10.3558   MPKI: 9.28266
L2C LOAD INSTRUCTION	ACCESS:    2766041  HIT:    2506738  MISS:     259303  HIT %:    90.6255  MISS %:    9.37452  MPKI: 5.18606
L2C LOAD TRANSLATION INSTRUCTION	ACCESS:        314  HIT:         67  MISS:        247  HIT %:    21.3376  MISS %:    78.6624  MPKI: 0.00494
L2C LOAD DATA	ACCESS:     724895  HIT:     657452  MISS:      67443  HIT %:    90.6962  MISS %:    9.30383  MPKI: 1.34886
L2C RFO DATA	ACCESS:     285645  HIT:     234464  MISS:      51181  HIT %:    82.0823  MISS %:    17.9177  MPKI: 1.02362
L2C PREFETCH DATA	ACCESS:     183247  HIT:     114338  MISS:      68909  HIT %:    62.3956  MISS %:    37.6044  MPKI: 1.37818
L2C WRITEBACK DATA	ACCESS:     519784  HIT:     504052  MISS:      15732  HIT %:    96.9734  MISS %:    3.02664  MPKI: 0.31464
L2C LOAD TRANSLATION DATA	ACCESS:       1901  HIT:        598  MISS:       1303  HIT %:    31.4571  MISS %:    68.5429  MPKI: 0.02606
L2C TRANSLATION FROM L1D PREFETCHER DATA	ACCESS:         43  HIT:         28  MISS:         15  HIT %:    65.1163  MISS %:    34.8837  MPKI: 0.0003

L2C PREFETCH  REQUESTED:      87318  ISSUED:      87318  USEFUL:       7527  USELESS:      61873
L2C USEFUL LOAD PREFETCHES:       7527 PREFETCH ISSUED TO LOWER LEVEL:      69285  ACCURACY: 10.8638
 TIMELY PREFETCHES:       7527 LATE PREFETCHES: 376 DROPPED PREFETCHES: 0
L2C AVERAGE MISS LATENCY: 38.6446 cycles
L2C RQ	ACCESS:    3778854	FORWARD:          0	MERGED:          0	TO_CACHE:    3778841
L2C WQ	ACCESS:     519784	FORWARD:         13	MERGED:          0	TO_CACHE:     519784
L2C PQ	ACCESS:     190539	FORWARD:          0	MERGED:       4028	TO_CACHE:     186511

L2C Dense regions hint from L2: 0
PSCL5 TOTAL     ACCESS:       4284  HIT:       2142  MISS:       2142  HIT %:         50  MISS %:         50   MPKI: 0.04284
PSCL5 LOAD TRANSLATION INSTRUCTION	ACCESS:       4202  HIT:       2101  MISS:       2101  HIT %:         50  MISS %:         50  MPKI: 0.04202
PSCL5 TRANSLATION FROM L1D PREFETCHER INSTRUCTION	ACCESS:         82  HIT:         41  MISS:         41  HIT %:         50  MISS %:         50  MPKI: 0.00082


PSCL4 TOTAL     ACCESS:       3323  HIT:       1659  MISS:       1664  HIT %:    49.9248  MISS %:    50.0752   MPKI: 0.03328
PSCL4 LOAD TRANSLATION INSTRUCTION	ACCESS:       3143  HIT:       1625  MISS:       1518  HIT %:    51.7022  MISS %:    48.2978  MPKI: 0.03036
PSCL4 TRANSLATION FROM L1D PREFETCHER INSTRUCTION	ACCESS:         68  HIT:         34  MISS:         34  HIT %:         50  MISS %:         50  MPKI: 0.00068
PSCL4 LOAD TRANSLATION DATA	ACCESS:        112  HIT:          0  MISS:        112  HIT %:          0  MISS %:        100  MPKI: 0.00224


PSCL3 TOTAL     ACCESS:       4250  HIT:       2120  MISS:       2130  HIT %:    49.8824  MISS %:    50.1176   MPKI: 0.0426
PSCL3 LOAD TRANSLATION INSTRUCTION	ACCESS:       3218  HIT:       2080  MISS:       1138  HIT %:    64.6364  MISS %:    35.3636  MPKI: 0.02276
PSCL3 TRANSLATION FROM L1D PREFETCHER INSTRUCTION	ACCESS:         60  HIT:         40  MISS:         20  HIT %:    66.6667  MISS %:    33.3333  MPKI: 0.0004
PSCL3 LOAD TRANSLATION DATA	ACCESS:        952  HIT:          0  MISS:        952  HIT %:          0  MISS %:        100  MPKI: 0.01904
PSCL3 TRANSLATION FROM L1D PREFETCHER DATA	ACCESS:         20  HIT:          0  MISS:         20  HIT %:          0  MISS %:        100  MPKI: 0.0004


PSCL2 TOTAL     ACCESS:       4178  HIT:       2036  MISS:       2142  HIT %:    48.7315  MISS %:    51.2685   MPKI: 0.04284
PSCL2 LOAD TRANSLATION INSTRUCTION	ACCESS:       2296  HIT:       1996  MISS:        300  HIT %:    86.9338  MISS %:    13.0662  MPKI: 0.006
PSCL2 TRANSLATION FROM L1D PREFETCHER INSTRUCTION	ACCESS:         40  HIT:         40  MISS:          0  HIT %:        100  MISS %:          0  MPKI: 0
PSCL2 LOAD TRANSLATION DATA	ACCESS:       1802  HIT:          0  MISS:       1802  HIT %:          0  MISS %:        100  MPKI: 0.03604
PSCL2 TRANSLATION FROM L1D PREFETCHER DATA	ACCESS:         40  HIT:          0  MISS:         40  HIT %:          0  MISS %:        100  MPKI: 0.0008


LLC TOTAL     ACCESS:     520173  HIT:     491455  MISS:      28718  HIT %:    94.4791  MISS %:    5.52086   MPKI: 0.57436
LLC LOAD INSTRUCTION	ACCESS:     259303  HIT:     258071  MISS:       1232  HIT %:    99.5249  MISS %:    0.47512  MPKI: 0.02464
LLC LOAD TRANSLATION INSTRUCTION	ACCESS:        247  HIT:        210  MISS:         37  HIT %:    85.0202  MISS %:    14.9798  MPKI: 0.00074
LLC LOAD DATA	ACCESS:      67072  HIT:      63201  MISS:       3871  HIT %:    94.2286  MISS %:    5.77141  MPKI: 0.07742
LLC RFO DATA	ACCESS:      51175  HIT:      38065  MISS:      13110  HIT %:     74.382  MISS %:     25.618  MPKI: 0.2622
LLC PREFETCH DATA	ACCESS:      69285  HIT:      59206  MISS:      10079  HIT %:    85.4528  MISS %:    14.5472  MPKI: 0.20158
LLC WRITEBACK DATA	ACCESS:      71773  HIT:      71470  MISS:        303  HIT %:    99.5778  MISS %:   0.422164  MPKI: 0.00606
LLC LOAD TRANSLATION DATA	ACCESS:       1303  HIT:       1218  MISS:         85  HIT %:    93.4766  MISS %:    6.52341  MPKI: 0.0017
LLC TRANSLATION FROM L1D PREFETCHER DATA	ACCESS:         15  HIT:         14  MISS:          1  HIT %:    93.3333  MISS %:    6.66667  MPKI: 2e-05

LLC AVERAGE MISS LATENCY: 154.668 cycles
LLC RQ	ACCESS:     379116	FORWARD:          0	MERGED:          0	TO_CACHE:     379115
LLC WQ	ACCESS:      71773	FORWARD:          1	MERGED:          0	TO_CACHE:      71773
LLC PQ	ACCESS:      69285	FORWARD:          0	MERGED:          0	TO_CACHE:      69285

LLC Dense regions hint to LLC: 0

RAW hits: 1274450
Loads Generated: 12631438
Loads sent to L1D: 11356986
Stores Generated: 6947023
Stores sent to L1D: 6947034
Major fault: 0 Minor fault: 2574
Allocated PAGES: 2574

stream: 
stream:times selected: 1192031
stream:pref_filled: 121262
stream:pref_useful: 24772
stream:pref_late: 6251
stream:misses: 7271
stream:misses_by_poll: 0

CS: 
CS:times selected: 178261
CS:pref_filled: 59193
CS:pref_useful: 35740
CS:pref_late: 6823
CS:misses: 16077
CS:misses_by_poll: 2

CPLX: 
CPLX:times selected: 1012582
CPLX:pref_filled: 21777
CPLX:pref_useful: 5045
CPLX:pref_late: 3042
CPLX:misses: 92156
CPLX:misses_by_poll: 0

NL_L1: 
NL:times selected: 19975
NL:pref_filled: 605
NL:pref_useful: 282
NL:pref_late: 364
NL:misses: 1450
NL:misses_by_poll: 0

total selections: 2402849
total_filled: 95108
total_useful: 34925
total_late: 17665
total_polluted: 2
total_misses_after_warmup: 763641
conflicts: 5961028

test: 119661

DRAM Statistics
 CHANNEL 0
 RQ ROW_BUFFER_HIT:      10237  ROW_BUFFER_MISS:      18173
 DBUS_CONGESTED:          8
 WQ ROW_BUFFER_HIT:       1481  ROW_BUFFER_MISS:      12136  FULL:          0

 AVG_CONGESTED_CYCLE: 5

CPU 0 Branch Prediction Accuracy: 99.8079% MPKI: 0.3514 Average ROB Occupancy at Mispredict: 73.7077
Branch types
NOT_BRANCH: 40852231 81.7045%
BRANCH_DIRECT_JUMP: 548369 1.09674%
BRANCH_INDIRECT: 182835 0.36567%
BRANCH_CONDITIONAL: 6181531 12.3631%
BRANCH_DIRECT_CALL: 945680 1.89136%
BRANCH_INDIRECT_CALL: 171667 0.343334%
BRANCH_RETURN: 1117345 2.23469%
BRANCH_OTHER: 0 0%

DRAM PAGES: 1048576
Allocated PAGES: 2574
Average_ROB_Occupancy: 58.5338
Average_Decode_Occupancy: 5.00409
Average_FTQ_Occupancy: 15.317
Indirect max targets: 14 Average targets: 1.17891
Branch_type:  BRANCH_DIRECT_JUMP:  Count Percentage: 2.91477 6.57486 4.47909 8.3518 1.69881 6.29095 1.28634 68.4034 
Branch_type:  BRANCH_INDIRECT:  Count Percentage: 19.771 3.43624 2.55867 15.34 3.34635 1.20543 2.00322 52.3391 
Branch_type:  BRANCH_CONDITIONAL:  Count Percentage: 21.5929 3.18601 2.1372 4.24156 1.40314 4.15349 0.685974 62.5998 
Branch_type:  BRANCH_DIRECT_CALL:  Count Percentage: 0.260149 1.2659 1.44177 2.14266 2.67733 2.3642 0.621334 89.2266 
Branch_type:  BRANCH_INDIRECT_CALL:  Count Percentage: 9.55895 0.575714 2.99412 4.85549 0.938708 3.00112 0.999694 77.0762 
Branch_type:  BRANCH_RETURN:  Count Percentage: 4.50727 0.574686 1.97107 5.62672 2.66038 4.66119 1.06683 78.9319 
Branch_type:  BRANCH_DIRECT_JUMP:  Total Count: 31970 72115 49128 91605 18633 69001 14109 750268 
Branch_type:  BRANCH_INDIRECT:  Total Count: 72364 12577 9365 56146 12248 4412 7332 191567 
Branch_type:  BRANCH_CONDITIONAL:  Total Count: 2668835 393785 264154 524248 173425 513363 84785 7737203 
Branch_type:  BRANCH_DIRECT_CALL:  Total Count: 4905 23868 27184 40399 50480 44576 11715 1682331 
Branch_type:  BRANCH_INDIRECT_CALL:  Total Count: 32759 1973 10261 16640 3217 10285 3426 264144 
Branch_type:  BRANCH_RETURN:  Total Count: 100469 12810 43936 125422 59301 103900 23780 1759425 
Number of unique branch instructions: 10765
Upper 32 bits: 
aaaa
ffff
ffff0000
Unique upper 32 bits: 3
Unique upper 36 bits: 3
Unique upper 40 bits: 5
Unique upper 44 bits: 32
Unique upper 48 bits: 158
Variant_0 : 1396 0.34082
Variant_1 : 1304 0.318359
Variant_2 : 1353 0.330322
Variant_3 : 0 0
Offset_3 4455
Offset_4 258
Offset_5 483
Offset_6 538
Offset_7 638
Offset_8 572
Offset_9 524
Offset_10 426
Offset_11 355
Offset_12 327
Offset_13 236
Offset_14 247
Offset_15 194
Offset_16 232
Offset_17 167
Offset_18 149
Offset_19 257
Offset_20 143
Offset_21 235
Offset_22 413
Offset_23 241
Offset_24 344
Offset_25 117
Offset_47 92
Offset_64 2
decode_dispatch_called: 29321821 54.2115
Dispatch_width: 0 17245431 58.8143 31.8841
Dispatch_width: 1 2186670 7.45748 4.04281
Dispatch_width: 2 1196979 4.08221 2.21303
Dispatch_width: 3 1081426 3.68813 1.99939
Dispatch_width: 4 1123114 3.8303 2.07646
Dispatch_width: 5 1246898 4.25246 2.30532
Dispatch_width: 6 5241303 17.8751 9.69035
Empty_decode_cycles: 24766046 45.7885
ROB_full_cycles: 531927 0.98345
Starvation_cycles_per_kilo_instr: 483.146
Starvation_cycles_per_kilo_instr_3: 459.446
Starvation_cycles_per_kilo_instr_0: 414.795
Branch_type_1  (3,1)  (4,9)  (5,39)  (6,72)  (7,125)  (8,149)  (9,136)  (10,111)  (11,79)  (12,55)  (13,11)  (14,2)  (15,3)  (16,4)  (18,1)  (19,5)  (20,2)  (21,1)  (22,3)  (23,2)  (24,10)  (25,12) 
Branch_type_2  (3,1)  (4,1)  (5,1)  (8,4)  (9,4)  (10,1)  (12,1)  (13,1)  (14,1)  (16,3)  (17,2)  (20,2)  (21,2)  (23,5)  (24,1)  (47,41) 
Branch_type_3  (3,4453)  (4,248)  (5,439)  (6,450)  (7,483)  (8,353)  (9,289)  (10,171)  (11,140)  (12,62)  (13,10)  (64,2) 
Branch_type_4  (6,3)  (7,8)  (8,25)  (9,56)  (10,68)  (11,70)  (12,117)  (13,100)  (14,112)  (15,92)  (16,102)  (17,78)  (18,65)  (19,125)  (20,73)  (21,124)  (22,218)  (23,136)  (24,199)  (25,101) 
Branch_type_5  (8,3)  (9,1)  (10,4)  (11,5)  (12,3)  (13,14)  (14,16)  (15,11)  (16,22)  (17,11)  (18,23)  (19,14)  (20,11)  (21,13)  (22,43)  (23,26)  (24,38) 
Branch_type_6  (5,4)  (6,13)  (7,22)  (8,38)  (9,38)  (10,71)  (11,61)  (12,89)  (13,100)  (14,116)  (15,88)  (16,101)  (17,76)  (18,60)  (19,113)  (20,55)  (21,95)  (22,149)  (23,72)  (24,96)  (25,4)  (47,51) 
Unique trigger count: 
Variant_0_evicts_0 : 0
Variant_0_evicts_1 : 0
Variant_0_evicts_2 : 0
Variant_0_evicts_3 : 0
Variant_1_evicts_0 : 0
Variant_1_evicts_1 : 0
Variant_1_evicts_2 : 0
Variant_1_evicts_3 : 0
Variant_2_evicts_0 : 0
Variant_2_evicts_1 : 0
Variant_2_evicts_2 : 0
Variant_2_evicts_3 : 0
Variant_3_evicts_0 : 0
Variant_3_evicts_1 : 0
Variant_3_evicts_2 : 0
Variant_3_evicts_3 : 0
BTB PER SET UNIQUE ADDR: 12 13 14 16 14 15 8 13 12 14 14 22 15 10 11 12 9 15 9 13 11 9 13 15 11 15 12 14 10 12 14 15 17 7 8 13 10 10 9 8 9 5 13 15 12 11 12 10 14 12 13 10 11 15 15 5 6 11 11 11 12 19 11 14 16 13 14 11 13 12 13 14 9 10 10 12 7 14 11 13 12 10 7 17 12 13 15 10 6 22 7 9 12 12 7 10 11 11 9 15 17 19 14 11 12 10 9 10 8 10 8 17 9 10 11 9 12 11 14 9 16 10 10 8 14 10 7 12 16 14 16 14 12 13 13 14 9 13 10 17 7 10 11 11 12 13 14 10 9 14 13 14 9 16 11 15 17 9 14 8 13 10 13 13 10 15 13 12 10 11 16 13 10 12 11 11 6 12 13 9 8 12 10 15 12 12 14 10 15 14 13 10 11 12 16 14 8 12 7 14 16 13 11 8 15 12 12 12 11 9 7 13 10 11 14 13 16 12 10 20 8 15 11 11 9 11 15 13 6 17 7 9 9 12 7 17 14 11 8 13 15 11 20 15 9 15 9 9 13 8 13 11 18 10 12 14 12 12 8 12 12 10 4 13 9 9 10 7 7 12 9 17 13 6 11 11 11 17 11 10 13 11 12 11 14 10 10 18 13 17 9 6 13 16 7 17 9 7 11 14 12 10 11 17 11 12 8 6 20 9 15 13 11 13 12 8 17 11 14 8 7 12 8 12 10 17 10 9 11 9 11 10 9 9 14 14 10 11 8 16 16 10 7 13 15 12 14 12 11 10 12 9 9 12 11 15 9 13 7 10 10 14 9 20 10 15 7 12 14 12 10 7 11 13 8 15 12 14 15 15 17 8 8 9 7 8 16 17 14 11 16 8 13 14 10 13 7 12 15 11 11 10 9 8 19 15 10 14 12 6 12 11 10 16 13 15 17 19 13 16 6 13 10 11 12 12 14 7 10 11 16 12 16 12 10 12 13 8 14 12 15 12 11 14 19 8 11 13 18 16 13 18 15 11 13 17 14 18 13 17 11 9 11 18 25 16 11 10 15 15 12 16 14 11 14 16 19 17 9 16 16 16 11 15 8 17 18 16 19 14 13 16 13 10 8 6 14 19 11 19 10 16 8 17 12 8 13 9 19 11 12 14 9 11 18 12 13 17 7 12 10 12 11 10 16 15 18 9 14 18 16 15 14 12 9 13 11 13 12 13 14 12 15 14 15 15 8 14 7 14 14 16 12 13 14 15 12 10 19 19 12 11 14 12 13 16 10 15 11 15 13 11 13 14 13 15 17 14 10 10 16 11 9 10 18 14 12 12 10 15 10 11 16 11 12 9 12 14 7 10 13 9 12 10 6 16 11 12 10 9 19 11 7 14 6 13 10 16 14 14 14 12 7 9 16 16 12 19 11 12 10 14 15 8 12 15 11 17 8 13 12 12 12 17 9 13 10 14 19 10 9 13 10 13 16 9 13 13 9 11 11 6 10 15 11 18 8 16 8 8 12 11 9 13 18 8 14 17 9 11 11 13 17 9 13 12 12 17 17 17 15 11 14 11 12 12 11 13 10 15 9 12 16 18 7 10 8 11 11 11 11 15 10 12 14 10 16 11 10 13 14 9 14 14 11 11 10 7 10 10 12 12 9 9 8 15 9 18 16 10 9 11 14 12 15 17 11 15 10 9 14 9 15 12 10 7 17 8 10 10 12 7 10 11 15 19 11 12 15 12 13 15 13 9 11 5 15 9 13 13 5 10 18 13 9 13 10 10 13 5 6 10 19 10 19 15 8 10 19 9 14 11 10 8 18 12 7 12 8 13 14 22 10 15 11 14 21 13 8 14 10 19 9 14 11 12 11 11 15 15 15 12 13 12 11 17 14 11 13 18 17 14 11 10 12 15 13 16 14 11 9 10 10 12 16 17 14 15 14 16 18 11 8 11 17 7 11 9 16 14 10 15 12 16 14 7 16 10 11 13 21 9 12 14 17 10 12 13 16 14 15 13 12 17 11 17 12 7 11 10 11 10 11 14 7 12 7 11 13 13 8 9 14 16 13 12 15 13 11 12 13 18 10 10 9 10 13 12 15 10 18 17 14 12 11 13 10 9 16 13 9 15 8 14 9 13 11 15 13 14 14 17 11 12 11 12 10 9 13 10 13 10 19 14 17 13 10 13 15 18 13 14 16 14 14 15 10 11 14 18 11 15 12 14 10 22 21 10 10 9 15 14 7 13 15 10 10 12 10 12 18 20 12 11 15 16 9 15 12 14 12 14 11 5 7 12 9 10 8 9 11 15 12 7 
BTB PER SET COUNT: 997 21 1229 26 639 24 10 712 1222 21 24 32 18986 1197 17 12 563 1266 620 16 47 9 729 20 18 22 17 1020 292 298 21 21 28 11 11 21 11 11 10 495 13 6 16 1202 1484 11 14 21 1603 14 25 407 14 19 257 5 6 14 14 13 13 3850 132 19 19 324 22 792 15 20 21 399 13 11 10 18 8 189 20 20 1002 13 800 32 17 308 29 10 6 49 8 904 509 17 7 12 415 20 16 19 24 215 16 18 1281 13 9 12 995 17 11 43 11 16 22 1197 25 18 1419 514 267 12 10 8 18 13 8 15 27 962 22 17 21 23 16 28 896 21 12 24 8 261 14 19 14 319 30 12 11 260 22 168 753 23 18 18 173 11 17 10 20 161 17 19 18 932 19 14 12 1259 23 20 13 20 14 17 6 14 601 997 15 17 3435 22 14 631 15 10 256 1009 16 10 15 14 24 16 10 53 7 200 21 15 986 11 20 16 13 18 12 13 8 18 10 12 17 192 26 16 899 32 10 31 12 13 12 21 20 105 443 19 8 11 10 19 7 27 38 252 12 16 20 16 31 17 10 24 12 15 19 14 17 14 25 10 19 28 49 16 11 16 807 10 5 19 10 13 14 14 1633 25 11 1011 19 8 420 11 13 20 16 815 15 17 805 12 18 14 12 376 20 21 10 6 15 27 10 21 1955 11 12 414 16 13 95 25 11 19 13 7 29 13 19 25 13 15 464 1486 23 15 15 12 8 2435 9 15 13 154 13 11 14 16 16 12 11 12 14 21 13 987 8 33 23 998 7 22 22 16 16 18 16 16 19 10 21 16 12 21 14 24 135 24 25 18 10 24 12 1460 8 18 20 15 15 13 11 20 89 18 16 19 19 21 1283 12 8 12 10 8 1325 26 21 14 108 9 17 20 12 16 9 20 18 16 11 20 13 12 39 19 15 19 16 14 17 13 11 22 17 19 22 1604 100 26 9 17 13 18 19 16 24 7 18 12 28 18 25 21 19 21 18 11 16 22 1364 17 14 32 456 8 414 18 22 23 1500 2415 18 15 222 20 23 26 14 21 34 9 12 26 36 122 14391 10 19 28 26 20 15 18 21 28 32 42 11 27 24 16 12 17 11 23 110 20 1347 132 22 23 4847 14 11 6 1003 32 13 34 14 16 8 119 20 8 16 14 29 15 274 23 11 15 35 19 15 21 7 809 16 17 15 344 19 22 227 10 21 500 26 97 21 14 12 17 16 1009 14 439 18 18 30 21 22 342 15 27 7 31 17 24 21 14 21 21 19 15 39 27 15 98 15 15 512 26 13 21 17 516 1474 22 16 21 2453 17 41 1162 12 22 25 15 12 4148 25 22 170 16 11 19 13 16 24 15 19 18 2019 401 8 11 19 11 15 13 9 19 14 3835 15 10 24 984 448 19 7 19 14 19 20 21 22 16 9 789 19 22 16 35 12 16 12 22 17 14 15 24 18 210 9 22 16 20 15 27 9 27 1000 20 23 13 11 17 14 17 24 506 23 206 809 13 149 6 15 19 194 32 10 247 1474 8 14 14 411 20 69 503 19 30 13 14 17 17 1626 33 20 14 17 25 246 26 20 14 17 14 701 16 19 2443 14 20 979 21 1489 25 9 12 11 15 12 26 12 18 1039 19 207 16 198 13 15 715 20 12 20 1680 18 11 10 10 13 13 134 136 12 119 10 30 11 26 26 11 222 15 19 26 988 22 14 15 15 11 1485 11 17 1974 1108 9 25 8 13 14 21 9 12 147 563 29 11 13 19 13 14 17 18 9 18 5 17 551 15 15 7 12 584 18 9 85 12 13 19 5 6 191 30 19 39 30 9 12 29 981 23 24 13 15 30 12 9 16 10 62 21 129 17 874 18 345 25 1483 8 22 10 150 14 17 20 13 16 12 32 25 20 23 17 16 408 1805 15 13 876 145 28 21 14 17 14 21 19 27 24 176 13 385 14 17 1488 21 17 28 19 18 27 14 8 17 21 10 17 13 23 19 497 23 16 21 19 7 21 13 14 22 27 15 126 64 431 12 12 18 25 22 19 19 360 3192 12 26 15 9 19 12 15 12 16 1006 10 19 9 15 17 170 8 9 23 24 34 16 20 495 15 16 18 222 916 12 10 1096 19 13 23 28 29 24 127 21 22 52 16 12 29 16 10 27 10 21 13 24 14 26 14 18 25 68 89 1083 16 15 193 13 56 18 17 18 927 23 21 17 10 19 48 28 35 389 21 25 20 20 15 17 446 155 13 22 16 208 15 33 402 505 10 13 24 197 9 17 26 13 11 1213 26 19 93 938 22 12 23 20 16 19 13 993 1495 31 15 5 8 25 13 13 12 11 15 18 23 8 
To predecode: 0
Predecoding something: 0
Predecode request dropped: 0
sizeofblock_0 0
sizeofblock_1 31032
sizeofblock_2 41489
sizeofblock_3 48492
sizeofblock_4 24901
sizeofblock_5 0
sizeofblock_6 0
sizeofblock_7 0
sizeofblock_8 0
Variant_0 Correct: 1612602 Incorrect: 0 Accuracy: 1
Variant_1 Correct: 2089527 Incorrect: 0 Accuracy: 1
Variant_2 Correct: 3637042 Incorrect: 0 Accuracy: 1
Variant_3 Correct: 0 Incorrect: 0 Accuracy: -nan
