
*** ChampSim Multicore Out-of-Order Simulator ***

Warmup Instructions: 50000000
Simulation Instructions: 50000000
Number of CPUs: 1
LLC sets: 2048
LLC ways: 16
Off-chip DRAM Size: 4096 MB Channels: 1 Width: 64-bit Data Rate: 6400 MT/s
CPU 0 runs ./micro_traces/srv67.trace.gz
.gz
ITLB has LRU replacement policy
DTLB has LRU replacement policy
STLB has LRU replacement policy
FDIP Prefetcher at L1I
L1I has LRU replacement policy
L1D has LRU replacement policy
Initialize SRRIP state for L2C
Initialize DRRIP state for LLC
Heartbeat_Variant_0 : 1131 0.276123 per_variant_size: 0 1131 0 0 0 0 0 0 0 
Heartbeat_Variant_1 : 1090 0.266113 per_variant_size: 0 504 586 0 0 0 0 0 0 
Heartbeat_Variant_2 : 983 0.23999 per_variant_size: 0 292 300 238 153 0 0 0 0 
Heartbeat_Variant_3 : 0 0 per_variant_size: 0 0 0 0 0 0 0 0 0 
Heartbeat_Variant_0_evicts 0 : 18010 1 : 7334 2 : 6826 3 : 0 
Heartbeat_Variant_1_evicts 0 : 7284 1 : 0 2 : 4463 3 : 0 
Heartbeat_Variant_2_evicts 0 : 6815 1 : 4284 2 : 0 3 : 0 
Heartbeat_Variant_3_evicts 0 : 0 1 : 0 2 : 0 3 : 0 
Heartbeat CPU 0 instructions: 10000000 cycles: 2795651 heartbeat IPC: 3.57698 cumulative IPC: 3.57698 (Simulation time: 0 hr 1 min 54 sec) 
Heartbeat_Variant_0 : 1170 0.285645 per_variant_size: 0 1170 0 0 0 0 0 0 0 
Heartbeat_Variant_1 : 1139 0.278076 per_variant_size: 0 487 652 0 0 0 0 0 0 
Heartbeat_Variant_2 : 997 0.243408 per_variant_size: 0 261 300 250 186 0 0 0 0 
Heartbeat_Variant_3 : 0 0 per_variant_size: 0 0 0 0 0 0 0 0 0 
Heartbeat_Variant_0_evicts 0 : 18569 1 : 7350 2 : 6988 3 : 0 
Heartbeat_Variant_1_evicts 0 : 7352 1 : 0 2 : 4399 3 : 0 
Heartbeat_Variant_2_evicts 0 : 6975 1 : 4381 2 : 0 3 : 0 
Heartbeat_Variant_3_evicts 0 : 0 1 : 0 2 : 0 3 : 0 
Heartbeat CPU 0 instructions: 20000003 cycles: 5590883 heartbeat IPC: 3.57752 cumulative IPC: 3.57725 (Simulation time: 0 hr 3 min 39 sec) 
Heartbeat_Variant_0 : 1165 0.284424 per_variant_size: 0 1165 0 0 0 0 0 0 0 
Heartbeat_Variant_1 : 1145 0.279541 per_variant_size: 0 496 649 0 0 0 0 0 0 
Heartbeat_Variant_2 : 998 0.243652 per_variant_size: 0 267 301 247 183 0 0 0 0 
Heartbeat_Variant_3 : 0 0 per_variant_size: 0 0 0 0 0 0 0 0 0 
Heartbeat_Variant_0_evicts 0 : 18215 1 : 7263 2 : 6832 3 : 0 
Heartbeat_Variant_1_evicts 0 : 7235 1 : 0 2 : 4337 3 : 0 
Heartbeat_Variant_2_evicts 0 : 6865 1 : 4304 2 : 0 3 : 0 
Heartbeat_Variant_3_evicts 0 : 0 1 : 0 2 : 0 3 : 0 
Heartbeat CPU 0 instructions: 30000000 cycles: 8386638 heartbeat IPC: 3.57685 cumulative IPC: 3.57712 (Simulation time: 0 hr 5 min 32 sec) 
Heartbeat_Variant_0 : 1184 0.289062 per_variant_size: 0 1184 0 0 0 0 0 0 0 
Heartbeat_Variant_1 : 1134 0.276855 per_variant_size: 0 477 657 0 0 0 0 0 0 
Heartbeat_Variant_2 : 1003 0.244873 per_variant_size: 0 266 300 247 190 0 0 0 0 
Heartbeat_Variant_3 : 0 0 per_variant_size: 0 0 0 0 0 0 0 0 0 
Heartbeat_Variant_0_evicts 0 : 18587 1 : 7222 2 : 6983 3 : 0 
Heartbeat_Variant_1_evicts 0 : 7215 1 : 0 2 : 4365 3 : 0 
Heartbeat_Variant_2_evicts 0 : 6972 1 : 4377 2 : 0 3 : 0 
Heartbeat_Variant_3_evicts 0 : 0 1 : 0 2 : 0 3 : 0 
Heartbeat CPU 0 instructions: 40000001 cycles: 11182183 heartbeat IPC: 3.57712 cumulative IPC: 3.57712 (Simulation time: 0 hr 7 min 18 sec) 
Heartbeat_Variant_0 : 1167 0.284912 per_variant_size: 0 1167 0 0 0 0 0 0 0 
Heartbeat_Variant_1 : 1144 0.279297 per_variant_size: 0 493 651 0 0 0 0 0 0 
Heartbeat_Variant_2 : 1011 0.246826 per_variant_size: 0 270 299 248 194 0 0 0 0 
Heartbeat_Variant_3 : 0 0 per_variant_size: 0 0 0 0 0 0 0 0 0 
Heartbeat_Variant_0_evicts 0 : 18339 1 : 7106 2 : 6827 3 : 0 
Heartbeat_Variant_1_evicts 0 : 7101 1 : 0 2 : 4345 3 : 0 
Heartbeat_Variant_2_evicts 0 : 6849 1 : 4331 2 : 0 3 : 0 
Heartbeat_Variant_3_evicts 0 : 0 1 : 0 2 : 0 3 : 0 
Heartbeat CPU 0 instructions: 50000000 cycles: 13977634 heartbeat IPC: 3.57724 cumulative IPC: 3.57714 (Simulation time: 0 hr 9 min 18 sec) 

Warmup complete CPU 0 instructions: 50000004 cycles: 13977635 (Simulation time: 0 hr 9 min 18 sec) 

Cycle: 20000000 FTQ IN: 56654204 FTQ occupancy: 18.0982 DECODE IN: 56654200 DECODE occupancy: 46.2417 ROB IN: 56654200 ROB occupancy: 278.611 ROB OUT: 56654164
Heartbeat_Variant_0 : 1182 0.288574 per_variant_size: 0 1182 0 0 0 0 0 0 0 
Heartbeat_Variant_1 : 1148 0.280273 per_variant_size: 0 493 655 0 0 0 0 0 0 
Heartbeat_Variant_2 : 996 0.243164 per_variant_size: 0 256 302 250 188 0 0 0 0 
Heartbeat_Variant_3 : 0 0 per_variant_size: 0 0 0 0 0 0 0 0 0 
Heartbeat_Variant_0_evicts 0 : 18619 1 : 7270 2 : 7067 3 : 0 
Heartbeat_Variant_1_evicts 0 : 7338 1 : 0 2 : 4281 3 : 0 
Heartbeat_Variant_2_evicts 0 : 6984 1 : 4348 2 : 0 3 : 0 
Heartbeat_Variant_3_evicts 0 : 0 1 : 0 2 : 0 3 : 0 
Heartbeat CPU 0 instructions: 60000003 cycles: 22980917 heartbeat IPC: 1.11071 cumulative IPC: 1.11071 (Simulation time: 0 hr 10 min 56 sec) 
Cycle: 30000000 FTQ IN: 11207718 FTQ occupancy: 6.56978 DECODE IN: 11207692 DECODE occupancy: 13.9939 ROB IN: 11207692 ROB occupancy: 115.235 ROB OUT: 11207569
Heartbeat_Variant_0 : 1174 0.286621 per_variant_size: 0 1174 0 0 0 0 0 0 0 
Heartbeat_Variant_1 : 1149 0.280518 per_variant_size: 0 486 663 0 0 0 0 0 0 
Heartbeat_Variant_2 : 1005 0.245361 per_variant_size: 0 263 303 245 194 0 0 0 0 
Heartbeat_Variant_3 : 0 0 per_variant_size: 0 0 0 0 0 0 0 0 0 
Heartbeat_Variant_0_evicts 0 : 18522 1 : 7541 2 : 6968 3 : 0 
Heartbeat_Variant_1_evicts 0 : 7426 1 : 0 2 : 4453 3 : 0 
Heartbeat_Variant_2_evicts 0 : 7091 1 : 4337 2 : 0 3 : 0 
Heartbeat_Variant_3_evicts 0 : 0 1 : 0 2 : 0 3 : 0 
Heartbeat CPU 0 instructions: 70000000 cycles: 31906334 heartbeat IPC: 1.1204 cumulative IPC: 1.11553 (Simulation time: 0 hr 12 min 47 sec) 
Cycle: 40000000 FTQ IN: 11134373 FTQ occupancy: 6.75628 DECODE IN: 11134385 DECODE occupancy: 14.3623 ROB IN: 11134385 ROB occupancy: 116.002 ROB OUT: 11134409
Heartbeat_Variant_0 : 1177 0.287354 per_variant_size: 0 1177 0 0 0 0 0 0 0 
Heartbeat_Variant_1 : 1147 0.280029 per_variant_size: 0 490 657 0 0 0 0 0 0 
Heartbeat_Variant_2 : 1004 0.245117 per_variant_size: 0 261 302 246 195 0 0 0 0 
Heartbeat_Variant_3 : 0 0 per_variant_size: 0 0 0 0 0 0 0 0 0 
Heartbeat_Variant_0_evicts 0 : 18478 1 : 7527 2 : 7001 3 : 0 
Heartbeat_Variant_1_evicts 0 : 7447 1 : 0 2 : 4423 3 : 0 
Heartbeat_Variant_2_evicts 0 : 7078 1 : 4345 2 : 0 3 : 0 
Heartbeat_Variant_3_evicts 0 : 0 1 : 0 2 : 0 3 : 0 
Heartbeat CPU 0 instructions: 80000000 cycles: 40892208 heartbeat IPC: 1.11286 cumulative IPC: 1.11464 (Simulation time: 0 hr 14 min 23 sec) 
Heartbeat_Variant_0 : 1180 0.288086 per_variant_size: 0 1180 0 0 0 0 0 0 0 
Heartbeat_Variant_1 : 1157 0.282471 per_variant_size: 0 499 658 0 0 0 0 0 0 
Heartbeat_Variant_2 : 1000 0.244141 per_variant_size: 0 255 302 250 193 0 0 0 0 
Heartbeat_Variant_3 : 0 0 per_variant_size: 0 0 0 0 0 0 0 0 0 
Heartbeat_Variant_0_evicts 0 : 18477 1 : 7400 2 : 6960 3 : 0 
Heartbeat_Variant_1_evicts 0 : 7308 1 : 0 2 : 4492 3 : 0 
Heartbeat_Variant_2_evicts 0 : 7050 1 : 4391 2 : 0 3 : 0 
Heartbeat_Variant_3_evicts 0 : 0 1 : 0 2 : 0 3 : 0 
Heartbeat CPU 0 instructions: 90000002 cycles: 49791010 heartbeat IPC: 1.12375 cumulative IPC: 1.1169 (Simulation time: 0 hr 16 min 11 sec) 
Cycle: 50000000 FTQ IN: 11240081 FTQ occupancy: 6.49969 DECODE IN: 11240039 DECODE occupancy: 13.8069 ROB IN: 11240016 ROB occupancy: 115.475 ROB OUT: 11240092
Heartbeat_Variant_0 : 1186 0.289551 per_variant_size: 0 1186 0 0 0 0 0 0 0 
Heartbeat_Variant_1 : 1149 0.280518 per_variant_size: 0 492 657 0 0 0 0 0 0 
Heartbeat_Variant_2 : 1003 0.244873 per_variant_size: 0 255 306 243 199 0 0 0 0 
Heartbeat_Variant_3 : 0 0 per_variant_size: 0 0 0 0 0 0 0 0 0 
Heartbeat_Variant_0_evicts 0 : 18643 1 : 7420 2 : 7035 3 : 0 
Heartbeat_Variant_1_evicts 0 : 7381 1 : 0 2 : 4397 3 : 0 
Heartbeat_Variant_2_evicts 0 : 7068 1 : 4366 2 : 0 3 : 0 
Heartbeat_Variant_3_evicts 0 : 0 1 : 0 2 : 0 3 : 0 
Heartbeat CPU 0 instructions: 100000000 cycles: 58754495 heartbeat IPC: 1.11564 cumulative IPC: 1.11665 (Simulation time: 0 hr 18 min 8 sec) 
Finished CPU 0 instructions: 50000000 cycles: 44776861 cumulative IPC: 1.11665 (Simulation time: 0 hr 18 min 8 sec) 

ChampSim completed all CPUs

Region of Interest Statistics

CPU 0 cumulative IPC: 1.11665 instructions: 50000000 cycles: 44776861
 Fetch stage stalled: 70.9778  Sim cycles: 44776861 fetch stall cycle: 31781623
 Empty decode stage: 63.7269  Sim cycles: 44776861 fetch stall cycle: 28534923
ITLB TOTAL     ACCESS:    5774482  HIT:    5284591  MISS:     489891  HIT %:    91.5163  MISS %:    8.48372   MPKI: 9.79782
ITLB LOAD TRANSLATION INSTRUCTION	ACCESS:    5675830  HIT:    5185939  MISS:     489891  HIT %:    91.3688  MISS %:    8.63118  MPKI: 9.79782
ITLB TRANSLATION FROM L1D PREFETCHER INSTRUCTION	ACCESS:      98652  HIT:      98652  MISS:          0  HIT %:        100  MISS %:          0  MPKI: 0

ITLB AVERAGE MISS LATENCY: 9.04667 cycles
ITLB RQ	ACCESS:    7585593	FORWARD:          0	MERGED:    1381604	TO_CACHE:    6203989

DTLB TOTAL     ACCESS:    9343207  HIT:    8877094  MISS:     466113  HIT %:    95.0112  MISS %:    4.98879   MPKI: 9.32226
DTLB LOAD TRANSLATION DATA	ACCESS:    9343207  HIT:    8877094  MISS:     466113  HIT %:    95.0112  MISS %:    4.98879  MPKI: 9.32226

DTLB AVERAGE MISS LATENCY: 9.3347 cycles
DTLB RQ	ACCESS:   13617085	FORWARD:          0	MERGED:    4239949	TO_CACHE:    9377136

STLB TOTAL     ACCESS:    1212195  HIT:    1210162  MISS:       2033  HIT %:    99.8323  MISS %:   0.167712   MPKI: 0.04066
STLB LOAD TRANSLATION INSTRUCTION	ACCESS:     489890  HIT:     489628  MISS:        262  HIT %:    99.9465  MISS %:  0.0534814  MPKI: 0.00524
STLB LOAD TRANSLATION DATA	ACCESS:     465789  HIT:     464029  MISS:       1760  HIT %:    99.6221  MISS %:   0.377853  MPKI: 0.0352
STLB TRANSLATION FROM L1D PREFETCHER DATA	ACCESS:     256516  HIT:     256505  MISS:         11  HIT %:    99.9957  MISS %: 0.00428823  MPKI: 0.00022

STLB AVERAGE MISS LATENCY: 75.9621 cycles
STLB RQ	ACCESS:    1341179	FORWARD:          0	MERGED:     128945	TO_CACHE:    1212234

STLB Hit, L1D data hit: 0
STLB Hit, L2C data hit: 0
STLB Hit, LLC data hit: 0
STLB Hit, LLC data miss: 0
STLB STLB hints to L2: 0
L1D TOTAL     ACCESS:   13383331  HIT:   12258854  MISS:    1124477  HIT %:    91.5979  MISS %:    8.40207   MPKI: 22.4895
L1D LOAD DATA	ACCESS:    6825153  HIT:    6087370  MISS:     737783  HIT %:    89.1902  MISS %:    10.8098  MPKI: 14.7557
L1D RFO DATA	ACCESS:    6221385  HIT:    5934128  MISS:     287257  HIT %:    95.3827  MISS %:    4.61725  MPKI: 5.74514
L1D PREFETCH DATA	ACCESS:     336793  HIT:     237356  MISS:      99437  HIT %:    70.4753  MISS %:    29.5247  MPKI: 1.98874

L1D PREFETCH  REQUESTED:     770695  ISSUED:     770695  USEFUL:      39592  USELESS:      69600
L1D USEFUL LOAD PREFETCHES:      39592 PREFETCH ISSUED TO LOWER LEVEL:     109255  ACCURACY: 36.2382
 TIMELY PREFETCHES:      39592 LATE PREFETCHES: 9753 DROPPED PREFETCHES: 4
L1D AVERAGE MISS LATENCY: 317665 cycles
L1D RQ	ACCESS:   10907493	FORWARD:          0	MERGED:    3891228	TO_CACHE:    6857205
L1D WQ	ACCESS:    6927607	FORWARD:     159405	MERGED:     167727	TO_CACHE:    6759880
L1D PQ	ACCESS:     385520	FORWARD:          0	MERGED:          0	TO_CACHE:     385175

L1D UNIQUE REGIONS ACCESSED: 0
L1D REGIONS CONFLICTS: 0
L1D Cross Page Prefetch Requests: 5281
L1D Same Page Prefetch Requests: 775855
L1D ROI Sum of L1D PQ occupancy: 4898908
L1D PREFETCHES PUSHED FROM L2C: 0
L1I TOTAL     ACCESS:    7077347  HIT:    4332626  MISS:    2744721  HIT %:    61.2182  MISS %:    38.7818   MPKI: 54.8944
L1I LOAD INSTRUCTION	ACCESS:    6570738  HIT:    3826017  MISS:    2744721  HIT %:    58.2281  MISS %:    41.7719  MPKI: 54.8944
L1I PREFETCH INSTRUCTION	ACCESS:     506609  HIT:     506609  MISS:          0  HIT %:        100  MISS %:          0  MPKI: 0

L1I PREFETCH  REQUESTED:    1076380  ISSUED:    1076380  USEFUL:          0  USELESS:          0
L1I USEFUL LOAD PREFETCHES:          0 PREFETCH ISSUED TO LOWER LEVEL:          0  ACCURACY: -nan
 TIMELY PREFETCHES:          0 LATE PREFETCHES: 0 DROPPED PREFETCHES: 0
L1I AVERAGE MISS LATENCY: 17.0845 cycles
L1I RQ	ACCESS:    9451838	FORWARD:          0	MERGED:    2636959	TO_CACHE:    6814879
L1I PQ	ACCESS:    1076380	FORWARD:          0	MERGED:     305666	TO_CACHE:     770714

L1BTB TOTAL     ACCESS:    5673399  HIT:    2066133  MISS:    3607266  HIT %:    36.4179  MISS %:    63.5821   MPKI: 72.1453
L1BTB BRANCH_DIRECT_JUMP	ACCESS:     548416  HIT:     145414  MISS:     403002	AVERAGE STALL: 34.8529
L1BTB BRANCH_INDIRECT	ACCESS:     183049  HIT:      66359  MISS:     116690	AVERAGE STALL: 79.1646
L1BTB BRANCH_CONDITIONAL	ACCESS:    2727816  HIT:    1440998  MISS:    1286818	AVERAGE STALL: 36.8764
L1BTB BRANCH_DIRECT_CALL	ACCESS:     936625  HIT:     104446  MISS:     832179	AVERAGE STALL: 36.8431
L1BTB BRANCH_INDIRECT_CALL	ACCESS:     170432  HIT:      20874  MISS:     149558	AVERAGE STALL: 104.798
L1BTB BRANCH_RETURN	ACCESS:    1107061  HIT:     288042  MISS:     819019	AVERAGE STALL: 36.3191
L1BTB BRANCH_OTHER ACCESS:          0  HIT:          0  MISS:          0	AVERAGE STALL: -nan
L1BTB TOTAL ROB OCCUPANCY AT BTB MISS: 12.8599

L2BTB TOTAL     ACCESS:    3581811  HIT:    3115328  MISS:     466483  HIT %:    86.9763  MISS %:    13.0237   MPKI: 9.32966
L2BTB BRANCH_DIRECT_JUMP	ACCESS:     398766  HIT:     353328  MISS:      45438	AVERAGE STALL: 34.8529
L2BTB BRANCH_INDIRECT	ACCESS:     106482  HIT:      99144  MISS:       7338	AVERAGE STALL: 79.1646
L2BTB BRANCH_CONDITIONAL	ACCESS:    1286818  HIT:    1134219  MISS:     152599	AVERAGE STALL: 36.8764
L2BTB BRANCH_DIRECT_CALL	ACCESS:     832179  HIT:     691623  MISS:     140556	AVERAGE STALL: 36.8431
L2BTB BRANCH_INDIRECT_CALL	ACCESS:     139941  HIT:     111325  MISS:      28616	AVERAGE STALL: 104.798
L2BTB BRANCH_RETURN	ACCESS:     817625  HIT:     725689  MISS:      91936	AVERAGE STALL: 36.3191
L2BTB BRANCH_OTHER ACCESS:          0  HIT:          0  MISS:          0	AVERAGE STALL: -nan
L2BTB TOTAL ROB OCCUPANCY AT BTB MISS: 99.4445

L2C TOTAL     ACCESS:    4475845  HIT:    3990895  MISS:     484950  HIT %:    89.1652  MISS %:    10.8348   MPKI: 9.699
L2C LOAD INSTRUCTION	ACCESS:    2744721  HIT:    2496479  MISS:     248242  HIT %:    90.9557  MISS %:    9.04434  MPKI: 4.96484
L2C LOAD TRANSLATION INSTRUCTION	ACCESS:        309  HIT:         75  MISS:        234  HIT %:    24.2718  MISS %:    75.7282  MPKI: 0.00468
L2C LOAD DATA	ACCESS:     728010  HIT:     648735  MISS:      79275  HIT %:    89.1107  MISS %:    10.8893  MPKI: 1.5855
L2C RFO DATA	ACCESS:     287156  HIT:     229673  MISS:      57483  HIT %:     79.982  MISS %:     20.018  MPKI: 1.14966
L2C PREFETCH DATA	ACCESS:     193255  HIT:     114952  MISS:      78303  HIT %:     59.482  MISS %:     40.518  MPKI: 1.56606
L2C WRITEBACK DATA	ACCESS:     520524  HIT:     500539  MISS:      19985  HIT %:    96.1606  MISS %:     3.8394  MPKI: 0.3997
L2C LOAD TRANSLATION DATA	ACCESS:       1843  HIT:        427  MISS:       1416  HIT %:    23.1687  MISS %:    76.8313  MPKI: 0.02832
L2C TRANSLATION FROM L1D PREFETCHER DATA	ACCESS:         27  HIT:         15  MISS:         12  HIT %:    55.5556  MISS %:    44.4444  MPKI: 0.00024

L2C PREFETCH  REQUESTED:      91896  ISSUED:      91896  USEFUL:       8328  USELESS:      70610
L2C USEFUL LOAD PREFETCHES:       8328 PREFETCH ISSUED TO LOWER LEVEL:      78825  ACCURACY: 10.5652
 TIMELY PREFETCHES:       8328 LATE PREFETCHES: 522 DROPPED PREFETCHES: 0
L2C AVERAGE MISS LATENCY: 38.8225 cycles
L2C RQ	ACCESS:    3762124	FORWARD:          0	MERGED:          0	TO_CACHE:    3762069
L2C WQ	ACCESS:     520524	FORWARD:         55	MERGED:          0	TO_CACHE:     520524
L2C PQ	ACCESS:     201151	FORWARD:          0	MERGED:       3640	TO_CACHE:     197511

L2C Dense regions hint from L2: 0
PSCL5 TOTAL     ACCESS:       4078  HIT:       2039  MISS:       2039  HIT %:         50  MISS %:         50   MPKI: 0.04078
PSCL5 LOAD TRANSLATION INSTRUCTION	ACCESS:       4024  HIT:       2012  MISS:       2012  HIT %:         50  MISS %:         50  MPKI: 0.04024
PSCL5 TRANSLATION FROM L1D PREFETCHER INSTRUCTION	ACCESS:         54  HIT:         27  MISS:         27  HIT %:         50  MISS %:         50  MPKI: 0.00054


PSCL4 TOTAL     ACCESS:       3918  HIT:       1954  MISS:       1964  HIT %:    49.8724  MISS %:    50.1276   MPKI: 0.03928
PSCL4 LOAD TRANSLATION INSTRUCTION	ACCESS:       2734  HIT:       1933  MISS:        801  HIT %:    70.7023  MISS %:    29.2977  MPKI: 0.01602
PSCL4 TRANSLATION FROM L1D PREFETCHER INSTRUCTION	ACCESS:         30  HIT:         21  MISS:          9  HIT %:         70  MISS %:         30  MPKI: 0.00018
PSCL4 LOAD TRANSLATION DATA	ACCESS:       1142  HIT:          0  MISS:       1142  HIT %:          0  MISS %:        100  MPKI: 0.02284
PSCL4 TRANSLATION FROM L1D PREFETCHER DATA	ACCESS:         12  HIT:          0  MISS:         12  HIT %:          0  MISS %:        100  MPKI: 0.00024


PSCL3 TOTAL     ACCESS:       3994  HIT:       1992  MISS:       2002  HIT %:    49.8748  MISS %:    50.1252   MPKI: 0.04004
PSCL3 LOAD TRANSLATION INSTRUCTION	ACCESS:       2772  HIT:       1971  MISS:        801  HIT %:    71.1039  MISS %:    28.8961  MPKI: 0.01602
PSCL3 TRANSLATION FROM L1D PREFETCHER INSTRUCTION	ACCESS:         30  HIT:         21  MISS:          9  HIT %:         70  MISS %:         30  MPKI: 0.00018
PSCL3 LOAD TRANSLATION DATA	ACCESS:       1180  HIT:          0  MISS:       1180  HIT %:          0  MISS %:        100  MPKI: 0.0236
PSCL3 TRANSLATION FROM L1D PREFETCHER DATA	ACCESS:         12  HIT:          0  MISS:         12  HIT %:          0  MISS %:        100  MPKI: 0.00024


PSCL2 TOTAL     ACCESS:       3958  HIT:       1919  MISS:       2039  HIT %:    48.4841  MISS %:    51.5159   MPKI: 0.04078
PSCL2 LOAD TRANSLATION INSTRUCTION	ACCESS:       2152  HIT:       1892  MISS:        260  HIT %:    87.9182  MISS %:    12.0818  MPKI: 0.0052
PSCL2 TRANSLATION FROM L1D PREFETCHER INSTRUCTION	ACCESS:         27  HIT:         27  MISS:          0  HIT %:        100  MISS %:          0  MPKI: 0
PSCL2 LOAD TRANSLATION DATA	ACCESS:       1752  HIT:          0  MISS:       1752  HIT %:          0  MISS %:        100  MPKI: 0.03504
PSCL2 TRANSLATION FROM L1D PREFETCHER DATA	ACCESS:         27  HIT:          0  MISS:         27  HIT %:          0  MISS %:        100  MPKI: 0.00054


LLC TOTAL     ACCESS:     545951  HIT:     515432  MISS:      30519  HIT %:    94.4099  MISS %:    5.59006   MPKI: 0.61038
LLC LOAD INSTRUCTION	ACCESS:     248242  HIT:     247171  MISS:       1071  HIT %:    99.5686  MISS %:   0.431434  MPKI: 0.02142
LLC LOAD TRANSLATION INSTRUCTION	ACCESS:        234  HIT:        196  MISS:         38  HIT %:    83.7607  MISS %:    16.2393  MPKI: 0.00076
LLC LOAD DATA	ACCESS:      78760  HIT:      75224  MISS:       3536  HIT %:    95.5104  MISS %:    4.48959  MPKI: 0.07072
LLC RFO DATA	ACCESS:      57473  HIT:      41930  MISS:      15543  HIT %:     72.956  MISS %:     27.044  MPKI: 0.31086
LLC PREFETCH DATA	ACCESS:      78825  HIT:      69000  MISS:       9825  HIT %:    87.5357  MISS %:    12.4643  MPKI: 0.1965
LLC WRITEBACK DATA	ACCESS:      80989  HIT:      80565  MISS:        424  HIT %:    99.4765  MISS %:   0.523528  MPKI: 0.00848
LLC LOAD TRANSLATION DATA	ACCESS:       1416  HIT:       1334  MISS:         82  HIT %:     94.209  MISS %:    5.79096  MPKI: 0.00164
LLC TRANSLATION FROM L1D PREFETCHER DATA	ACCESS:         12  HIT:         12  MISS:          0  HIT %:        100  MISS %:          0  MPKI: 0

LLC AVERAGE MISS LATENCY: 158.506 cycles
LLC RQ	ACCESS:     386140	FORWARD:          0	MERGED:          0	TO_CACHE:     386137
LLC WQ	ACCESS:      80989	FORWARD:          3	MERGED:          0	TO_CACHE:      80989
LLC PQ	ACCESS:      78825	FORWARD:          0	MERGED:          0	TO_CACHE:      78825

LLC Dense regions hint to LLC: 0

RAW hits: 1724139
Loads Generated: 12631632
Loads sent to L1D: 10907493
Stores Generated: 6927584
Stores sent to L1D: 6927607
Major fault: 0 Minor fault: 2540
Allocated PAGES: 2540

stream: 
stream:times selected: 1214322
stream:pref_filled: 124554
stream:pref_useful: 26089
stream:pref_late: 7935
stream:misses: 9225
stream:misses_by_poll: 0

CS: 
CS:times selected: 185528
CS:pref_filled: 64909
CS:pref_useful: 40844
CS:pref_late: 8104
CS:misses: 19754
CS:misses_by_poll: 7

CPLX: 
CPLX:times selected: 1027678
CPLX:pref_filled: 21702
CPLX:pref_useful: 5853
CPLX:pref_late: 3065
CPLX:misses: 105690
CPLX:misses_by_poll: 16

NL_L1: 
NL:times selected: 13233
NL:pref_filled: 610
NL:pref_useful: 143
NL:pref_late: 358
NL:misses: 1209
NL:misses_by_poll: 0

total selections: 2440761
total_filled: 99437
total_useful: 39592
total_late: 20873
total_polluted: 23
total_misses_after_warmup: 769835
conflicts: 5629708

test: 117207

DRAM Statistics
 CHANNEL 0
 RQ ROW_BUFFER_HIT:      11379  ROW_BUFFER_MISS:      18711
 DBUS_CONGESTED:          8
 WQ ROW_BUFFER_HIT:       1527  ROW_BUFFER_MISS:      13062  FULL:          0

 AVG_CONGESTED_CYCLE: 5

CPU 0 Branch Prediction Accuracy: 99.8196% MPKI: 0.32972 Average ROB Occupancy at Mispredict: 131.33
Branch types
NOT_BRANCH: 40858521 81.717%
BRANCH_DIRECT_JUMP: 548416 1.09683%
BRANCH_INDIRECT: 183049 0.366098%
BRANCH_CONDITIONAL: 6195461 12.3909%
BRANCH_DIRECT_CALL: 936625 1.87325%
BRANCH_INDIRECT_CALL: 170432 0.340864%
BRANCH_RETURN: 1107061 2.21412%
BRANCH_OTHER: 0 0%

DRAM PAGES: 1048576
Allocated PAGES: 2540
Average_ROB_Occupancy: 116.796
Average_Decode_Occupancy: 14.1057
Average_FTQ_Occupancy: 6.64534
Indirect max targets: 14 Average targets: 1.14626
Branch_type:  BRANCH_DIRECT_JUMP:  Count Percentage: 2.91457 6.24774 4.36172 8.78922 2.61495 6.18616 2.02437 66.8613 
Branch_type:  BRANCH_INDIRECT:  Count Percentage: 11.7421 3.44129 2.56447 3.72854 3.34079 4.01059 3.19922 67.973 
Branch_type:  BRANCH_CONDITIONAL:  Count Percentage: 20.8858 3.31184 5.57626 4.81141 1.72276 4.74575 0.898458 58.0477 
Branch_type:  BRANCH_DIRECT_CALL:  Count Percentage: 0.260141 1.75857 1.45318 3.89568 2.55866 3.42186 0.773564 85.8783 
Branch_type:  BRANCH_INDIRECT_CALL:  Count Percentage: 9.53127 0 2.98572 5.40257 0 4.04251 0.997479 77.0405 
Branch_type:  BRANCH_RETURN:  Count Percentage: 3.48059 1.56671 5.99764 3.11508 3.38244 5.64313 1.43177 75.3826 
Branch_type:  BRANCH_DIRECT_JUMP:  Total Count: 31896 68373 47733 96186 28617 67699 22154 731705 
Branch_type:  BRANCH_INDIRECT:  Total Count: 42880 12567 9365 13616 12200 14646 11683 248226 
Branch_type:  BRANCH_CONDITIONAL:  Total Count: 2585868 410039 690397 595701 213295 587571 111238 7186887 
Branch_type:  BRANCH_DIRECT_CALL:  Total Count: 4893 33077 27333 73274 48126 64362 14550 1615290 
Branch_type:  BRANCH_INDIRECT_CALL:  Total Count: 32622 0 10219 18491 0 13836 3414 263681 
Branch_type:  BRANCH_RETURN:  Total Count: 77407 34843 133385 69278 75224 125501 31842 1676479 
Number of unique branch instructions: 9822
Upper 32 bits: 
aaaa
ffff
ffff0000
Unique upper 32 bits: 3
Unique upper 36 bits: 3
Unique upper 40 bits: 5
Unique upper 44 bits: 32
Unique upper 48 bits: 154
Variant_0 : 1186 0.289551
Variant_1 : 1149 0.280518
Variant_2 : 1003 0.244873
Variant_3 : 0 0
Offset_3 4059
Offset_4 250
Offset_5 446
Offset_6 502
Offset_7 578
Offset_8 496
Offset_9 465
Offset_10 379
Offset_11 305
Offset_12 270
Offset_13 197
Offset_14 227
Offset_15 184
Offset_16 221
Offset_17 141
Offset_18 118
Offset_19 234
Offset_20 137
Offset_21 235
Offset_22 392
Offset_23 243
Offset_24 324
Offset_25 88
Offset_47 80
decode_dispatch_called: 20534362 45.8593
Dispatch_width: 0 10532333 51.2913 23.5218
Dispatch_width: 1 540156 2.6305 1.20633
Dispatch_width: 2 657172 3.20035 1.46766
Dispatch_width: 3 454461 2.21317 1.01495
Dispatch_width: 4 1483376 7.22387 3.31282
Dispatch_width: 5 352852 1.71835 0.788023
Dispatch_width: 6 6514012 31.7225 14.5477
Empty_decode_cycles: 24242499 54.1407
ROB_full_cycles: 2075109 4.63433
Starvation_cycles_per_kilo_instr: 361.877
Starvation_cycles_per_kilo_instr_3: 343.515
Starvation_cycles_per_kilo_instr_0: 326.997
Branch_type_1  (3,1)  (4,9)  (5,37)  (6,70)  (7,115)  (8,126)  (9,124)  (10,97)  (11,67)  (12,43)  (13,5)  (14,2)  (15,3)  (16,4)  (18,1)  (19,4)  (20,2)  (21,1)  (22,3)  (23,2)  (24,10)  (25,12) 
Branch_type_2  (3,1)  (5,1)  (8,3)  (9,3)  (12,1)  (13,1)  (14,1)  (16,3)  (17,2)  (20,2)  (21,2)  (23,5)  (24,1)  (47,36) 
Branch_type_3  (3,4057)  (4,241)  (5,404)  (6,417)  (7,433)  (8,307)  (9,254)  (10,152)  (11,122)  (12,50)  (13,4) 
Branch_type_4  (6,3)  (7,8)  (8,25)  (9,52)  (10,62)  (11,59)  (12,97)  (13,85)  (14,100)  (15,86)  (16,99)  (17,63)  (18,53)  (19,114)  (20,72)  (21,124)  (22,208)  (23,137)  (24,185)  (25,72) 
Branch_type_5  (8,2)  (9,1)  (10,3)  (11,5)  (12,3)  (13,14)  (14,16)  (15,11)  (16,20)  (17,11)  (18,16)  (19,12)  (20,10)  (21,13)  (22,42)  (23,26)  (24,37) 
Branch_type_6  (5,4)  (6,12)  (7,22)  (8,33)  (9,31)  (10,65)  (11,52)  (12,76)  (13,88)  (14,108)  (15,84)  (16,95)  (17,65)  (18,48)  (19,104)  (20,51)  (21,95)  (22,139)  (23,73)  (24,91)  (25,4)  (47,44) 
Unique trigger count: 
Variant_0_evicts_0 : 0
Variant_0_evicts_1 : 0
Variant_0_evicts_2 : 0
Variant_0_evicts_3 : 0
Variant_1_evicts_0 : 0
Variant_1_evicts_1 : 0
Variant_1_evicts_2 : 0
Variant_1_evicts_3 : 0
Variant_2_evicts_0 : 0
Variant_2_evicts_1 : 0
Variant_2_evicts_2 : 0
Variant_2_evicts_3 : 0
Variant_3_evicts_0 : 0
Variant_3_evicts_1 : 0
Variant_3_evicts_2 : 0
Variant_3_evicts_3 : 0
BTB PER SET UNIQUE ADDR: 4 7 6 4 3 3 6 9 10 2 5 2 8 5 3 4 6 4 7 8 4 8 7 9 8 11 1 8 6 5 9 10 7 3 7 4 4 6 7 3 6 5 6 10 9 7 6 11 11 6 5 3 12 2 2 8 5 5 8 8 4 10 5 7 6 9 7 7 5 7 6 3 6 4 6 7 6 13 5 4 8 6 7 6 6 7 7 8 8 10 10 8 9 6 6 4 10 7 4 6 7 5 9 9 4 7 6 8 7 5 7 4 4 8 5 11 3 7 6 2 7 8 4 2 6 4 4 6 10 5 10 3 10 4 8 5 5 2 6 7 7 7 6 6 3 10 3 8 10 6 5 11 6 10 4 8 6 8 6 10 9 6 9 5 9 5 3 4 12 4 4 3 7 6 3 2 5 4 9 4 6 6 8 6 6 10 5 5 6 8 5 8 7 6 6 10 10 3 9 5 4 6 10 3 8 4 5 7 6 2 3 6 9 9 6 6 4 9 8 6 6 2 6 6 6 8 13 7 2 9 13 8 4 2 6 8 9 5 3 4 5 3 9 7 14 10 1 5 5 5 7 10 6 6 5 11 4 6 9 6 8 5 7 4 10 14 6 4 7 5 7 6 4 9 8 7 5 4 4 8 7 4 10 5 9 8 7 8 7 4 5 7 4 10 6 4 5 10 5 6 6 6 4 4 6 4 6 4 10 9 6 3 8 3 7 4 8 14 7 2 6 11 5 7 5 6 5 9 3 0 7 2 5 6 9 4 5 6 7 1 6 6 2 8 6 6 3 4 8 4 4 9 8 6 8 6 7 2 7 5 6 9 6 8 10 8 4 3 4 4 7 4 7 5 7 4 11 6 5 8 9 7 6 12 6 4 8 5 5 3 9 5 8 4 7 3 5 5 2 8 5 4 6 5 5 6 7 4 4 3 5 3 10 4 2 5 9 4 2 6 2 5 5 7 9 6 3 2 4 7 3 4 14 6 8 10 6 6 6 3 4 7 8 3 6 8 4 6 5 3 6 3 4 2 9 3 5 6 11 5 5 4 6 10 5 5 12 3 5 6 2 6 8 7 4 3 9 5 2 3 5 2 4 4 3 7 8 3 6 2 9 5 4 8 1 11 4 7 4 4 10 4 3 3 2 6 6 3 3 6 7 3 5 9 3 3 2 10 5 8 6 4 7 4 11 8 4 8 9 7 5 6 4 7 4 7 3 1 6 4 4 8 9 3 8 5 9 12 12 11 5 8 7 6 2 6 8 3 5 3 10 4 8 4 5 5 9 7 9 7 7 3 9 11 6 7 6 10 3 9 12 5 1 6 4 3 3 13 6 5 7 7 3 5 4 5 7 5 4 4 8 5 9 9 6 5 5 9 6 5 8 6 7 5 7 4 7 5 5 7 8 7 9 3 5 10 7 8 4 6 8 7 6 6 7 4 5 4 5 3 10 8 4 5 2 3 6 6 8 6 7 4 11 3 5 2 9 5 6 8 11 3 6 11 7 8 7 5 5 10 7 6 6 6 11 9 6 6 8 5 7 10 7 6 8 8 7 8 8 6 3 7 2 4 4 6 10 7 7 6 3 10 4 5 6 9 3 4 5 5 7 7 6 5 5 7 9 6 1 8 4 3 5 3 4 1 3 9 2 11 7 9 7 2 6 7 6 3 6 4 4 8 5 10 4 3 5 3 5 6 6 3 4 6 2 5 4 10 9 4 4 6 6 7 7 6 14 5 6 3 8 6 0 5 7 5 5 10 3 3 7 5 4 6 10 9 9 6 2 8 3 9 5 6 6 12 11 4 5 4 12 4 9 3 7 6 7 7 5 6 3 4 6 3 4 6 1 5 4 10 6 4 9 4 5 4 5 3 6 6 7 3 7 4 10 5 4 4 6 3 5 3 6 5 4 8 8 5 5 4 8 7 6 8 5 10 7 4 8 5 7 7 4 4 14 5 5 8 9 8 4 6 6 10 7 2 2 5 7 4 5 5 5 5 9 5 7 4 4 7 8 2 5 7 6 3 9 10 4 3 12 8 4 5 7 6 5 10 6 8 10 6 4 3 3 7 4 3 7 6 8 5 10 5 8 8 6 4 5 10 5 4 10 9 5 8 10 10 2 8 7 8 4 4 6 7 8 6 7 3 9 2 13 7 3 5 9 11 6 9 5 6 10 5 3 8 10 8 8 4 2 5 2 8 10 5 7 5 4 7 11 6 4 5 5 6 4 3 8 6 8 7 7 11 4 9 6 11 5 6 3 4 5 4 6 6 7 4 5 5 8 3 9 5 10 4 9 4 3 6 10 6 12 5 
BTB PER SET COUNT: 4 1485 6 4 3 3 6 1992 7288 2 7 1935 1492 9 3 8 1226 4 33 3436 4 8 12 1449 5848 2742 1 10 1465 5 4510 759 2894 4 7 7 2926 6 23 3 25 8 7 2222 4866 9 6 4917 2969 6 5 3 12290 2 2 1485 6 5 15 106 4 3047 5 9 7 616 2121 30 5 8 1195 12 10 4 992 9 504 7208 948 4 1053 1482 1418 714 990 10 12 17 3946 2660 1439 500 1983 6 7 5 717 7 4 6 9 7 10 970 4 7 1483 3534 2469 5 1978 9 4 9 9 7073 3 9 6 2 7 30 4 3 1695 4 5 15 5162 1975 1507 3 3385 4 3430 6 6 2 6 9 7 20 6 6 3 2014 3 9 10 2467 6 5566 8 9259 4 11 9 1981 991 998 4884 19 1964 954 33 2907 3 4 4462 993 4 3 13 164 3 2 6 496 1954 4 6 6 995 6 6 8749 5 5 2907 11 6 14 10 1482 1483 41 1948 3 27 5 4 18 13 4 14 4 5 2907 6 2 3 7 317 4880 6 6 4 295 44 6 6 2 6 6 6 8 5811 1984 2 2928 8158 8 5 2 16 3899 3457 5 3 5 5 3 10715 7 4417 12 1 5 7 6 10 3792 11 6 7 4405 5 6 1488 8 2393 5 7 8 2715 8331 974 4 2474 5 1978 13 6 13 16 715 5 6 7 2472 10 989 13 5 3399 1485 9 921 7 5 5 2433 988 3961 2960 996 5 4097 5 10 6 6 4 6 6 5 7 4 4662 11 9 5 951 3 10 7 10 2239 1515 2 10 28 5 7 54 16 5 586 5 0 3495 2 6 6 1946 4 2467 11 12 1 6 6 2 2807 995 1041 3 4 497 5 4 988 8 1938 8 10 13 3 5074 50 7 2378 15 2948 2234 9 6 4 6 4 10 6 12 8 8 4 7475 6 5 840 3457 2961 10 8027 8 4 43 5 5 3 2455 5 3948 5 1487 5 1466 7 2 11 6 4 1483 5 729 8 2925 4 4 2306 5 3 3442 8 968 7 178 4 2 1493 2 990 7 25 58 6 6 2 4 16 132 4 5693 7 10 20 11 6 1975 3 4 10 10 3 9 1021 4 973 5 3 6 5 4 2 257 3 5 6 686 6 991 4 19 77 37 5 3554 3 6 6 2 20 4719 1486 112 5 25107 5 2 3 10 2 4 496 3 31 1460 399 10 2 14 5 4 13 1 7464 5 10 4 4 43 15 3 3 3 10 8 3 3 13 15 4 5 13 5 3 2 9696 5 995 7 1465 7 455 42 1977 4 8 18 10 5 6 4 16 4 1000 4 1 13 4 8 1484 31 7 1946 5 19 71 2990 8289 9 1026 13 8 2 10 1707 3 5 3 7915 1936 2475 4 5 5 40 13 13 999 958 3 1486 4890 1482 2469 7 3954 4 4856 9198 413 1 991 1463 3 3 7340 10 7 8 12 3 1939 970 6 7 5 5 5 20 12 7030 723 2924 2969 5 996 9 5 3946 11 7 5 7 6 1943 8 5 7 11 1778 1864 3 1464 22 8 2476 7 2750 500 1466 6 10 11 13 5 4 6 3 7812 29 4 6 2 8 8 6 960 7 15 5 10228 4 7 3 12 7 1486 3948 7862 3 16 7434 7 1487 2950 990 24 56 1942 9 8 989 6413 3514 501 8 2403 6 2964 7523 9 996 20936 1003 27 4912 1472 6 3 2253 2 5 4 8 8388 11 22 43 3 2963 4 5 159 3951 4 2430 5 1464 152 11 15 989 991 11 1486 742 1 8 4 3 6 3 1936 1 988 1746 2 9481 1940 1994 1939 2 8 7 7 4 20 4 8 8 5 9966 4 4 501 3 5 992 6 4 4 843 2 6 4 13 6337 1936 4 6 975 719 3879 6 6155 5 10 3 11 23 0 225 23 1464 8 3370 3 4 2470 30 4 3400 1512 111 14 13 431 998 3 1855 8 6 226 4499 1206 4 5 4 2780 4 351 989 2004 2928 7 10 9 10 3 4 6 478 6 9 3 5 7 3289 9 4 3406 391 1483 5 1934 3 2468 66 1619 3 478 4 7948 989 990 4 6 3 344 4 8 1467 4 15 3772 5 7 4 3456 1683 13 15 5 11635 10 4 3021 13 28 10 4 4 7111 971 7 995 2963 14 4 8 8 534 7 2 3 5 7 4 6 5 7 9 23 10 1489 4 4 1785 16 2 5 1531 6 3 32 3214 4 3 5234 2556 143 66 2590 8 5 3288 6 9 1158 9 9 3 10 7 4 988 3387 2247 14 5 3894 6 43 333 7 4 5 2937 5 497 3502 1433 5 9 3479 1881 2 3457 8 954 4 972 7 9 12 259 7 3 3539 2 8273 9 4 9 1515 11231 10 2960 5 502 8269 7 4 1029 57 8 8 7 2 5 2 3300 5908 5 978 5 8 7 1504 6 497 6 5 9 4 3 9 6 1485 996 7 2532 5 1500 7 5644 12 7 3 4 7 5 11 6 1484 5 5 5 6821 3 7211 375 3032 5 2248 4 3 6 2854 7 4236 9 
To predecode: 0
Predecoding something: 0
Predecode request dropped: 0
sizeofblock_0 0
sizeofblock_1 264922
sizeofblock_2 196905
sizeofblock_3 131231
sizeofblock_4 65860
sizeofblock_5 0
sizeofblock_6 0
sizeofblock_7 0
sizeofblock_8 0
Variant_0 Correct: 0 Incorrect: 0 Accuracy: -nan
Variant_1 Correct: 0 Incorrect: 0 Accuracy: -nan
Variant_2 Correct: 0 Incorrect: 0 Accuracy: -nan
Variant_3 Correct: 0 Incorrect: 0 Accuracy: -nan
