
*** ChampSim Multicore Out-of-Order Simulator ***

Warmup Instructions: 50000000
Simulation Instructions: 50000000
Number of CPUs: 1
LLC sets: 2048
LLC ways: 16
Off-chip DRAM Size: 4096 MB Channels: 1 Width: 64-bit Data Rate: 6400 MT/s
CPU 0 runs ./micro_traces/srv674.trace.gz
.gz
ITLB has LRU replacement policy
DTLB has LRU replacement policy
STLB has LRU replacement policy
FDIP Prefetcher at L1I
L1I has LRU replacement policy
L1D has LRU replacement policy
Initialize SRRIP state for L2C
Initialize DRRIP state for LLC
Heartbeat_Variant_0 : 1135 0.2771 per_variant_size: 0 1135 0 0 0 0 0 0 0 
Heartbeat_Variant_1 : 1092 0.266602 per_variant_size: 0 499 593 0 0 0 0 0 0 
Heartbeat_Variant_2 : 981 0.239502 per_variant_size: 0 285 302 235 159 0 0 0 0 
Heartbeat_Variant_3 : 0 0 per_variant_size: 0 0 0 0 0 0 0 0 0 
Heartbeat_Variant_0_evicts 0 : 18478 1 : 7415 2 : 6965 3 : 0 
Heartbeat_Variant_1_evicts 0 : 7236 1 : 0 2 : 4571 3 : 0 
Heartbeat_Variant_2_evicts 0 : 7073 1 : 4282 2 : 0 3 : 0 
Heartbeat_Variant_3_evicts 0 : 0 1 : 0 2 : 0 3 : 0 
Heartbeat CPU 0 instructions: 10000003 cycles: 2797539 heartbeat IPC: 3.57457 cumulative IPC: 3.57457 (Simulation time: 0 hr 2 min 1 sec) 
Heartbeat_Variant_0 : 1175 0.286865 per_variant_size: 0 1175 0 0 0 0 0 0 0 
Heartbeat_Variant_1 : 1134 0.276855 per_variant_size: 0 492 642 0 0 0 0 0 0 
Heartbeat_Variant_2 : 997 0.243408 per_variant_size: 0 266 299 243 189 0 0 0 0 
Heartbeat_Variant_3 : 0 0 per_variant_size: 0 0 0 0 0 0 0 0 0 
Heartbeat_Variant_0_evicts 0 : 18647 1 : 7562 2 : 7033 3 : 0 
Heartbeat_Variant_1_evicts 0 : 7376 1 : 0 2 : 4492 3 : 0 
Heartbeat_Variant_2_evicts 0 : 7204 1 : 4298 2 : 0 3 : 0 
Heartbeat_Variant_3_evicts 0 : 0 1 : 0 2 : 0 3 : 0 
Heartbeat CPU 0 instructions: 20000000 cycles: 5594713 heartbeat IPC: 3.57504 cumulative IPC: 3.5748 (Simulation time: 0 hr 4 min 8 sec) 
Heartbeat_Variant_0 : 1171 0.285889 per_variant_size: 0 1171 0 0 0 0 0 0 0 
Heartbeat_Variant_1 : 1131 0.276123 per_variant_size: 0 489 642 0 0 0 0 0 0 
Heartbeat_Variant_2 : 1004 0.245117 per_variant_size: 0 274 297 246 187 0 0 0 0 
Heartbeat_Variant_3 : 0 0 per_variant_size: 0 0 0 0 0 0 0 0 0 
Heartbeat_Variant_0_evicts 0 : 18794 1 : 7491 2 : 7059 3 : 0 
Heartbeat_Variant_1_evicts 0 : 7296 1 : 0 2 : 4465 3 : 0 
Heartbeat_Variant_2_evicts 0 : 7258 1 : 4273 2 : 0 3 : 0 
Heartbeat_Variant_3_evicts 0 : 0 1 : 0 2 : 0 3 : 0 
Heartbeat CPU 0 instructions: 30000001 cycles: 8391354 heartbeat IPC: 3.57572 cumulative IPC: 3.57511 (Simulation time: 0 hr 5 min 57 sec) 
Heartbeat_Variant_0 : 1164 0.28418 per_variant_size: 0 1164 0 0 0 0 0 0 0 
Heartbeat_Variant_1 : 1142 0.278809 per_variant_size: 0 488 654 0 0 0 0 0 0 
Heartbeat_Variant_2 : 1008 0.246094 per_variant_size: 0 268 297 254 189 0 0 0 0 
Heartbeat_Variant_3 : 0 0 per_variant_size: 0 0 0 0 0 0 0 0 0 
Heartbeat_Variant_0_evicts 0 : 18601 1 : 7370 2 : 6950 3 : 0 
Heartbeat_Variant_1_evicts 0 : 7212 1 : 0 2 : 4356 3 : 0 
Heartbeat_Variant_2_evicts 0 : 7118 1 : 4191 2 : 0 3 : 0 
Heartbeat_Variant_3_evicts 0 : 0 1 : 0 2 : 0 3 : 0 
Heartbeat CPU 0 instructions: 40000000 cycles: 11187737 heartbeat IPC: 3.57605 cumulative IPC: 3.57534 (Simulation time: 0 hr 7 min 56 sec) 
Heartbeat_Variant_0 : 1179 0.287842 per_variant_size: 0 1179 0 0 0 0 0 0 0 
Heartbeat_Variant_1 : 1138 0.277832 per_variant_size: 0 494 644 0 0 0 0 0 0 
Heartbeat_Variant_2 : 998 0.243652 per_variant_size: 0 260 298 252 188 0 0 0 0 
Heartbeat_Variant_3 : 0 0 per_variant_size: 0 0 0 0 0 0 0 0 0 
Heartbeat_Variant_0_evicts 0 : 18786 1 : 7404 2 : 7029 3 : 0 
Heartbeat_Variant_1_evicts 0 : 7231 1 : 0 2 : 4410 3 : 0 
Heartbeat_Variant_2_evicts 0 : 7187 1 : 4242 2 : 0 3 : 0 
Heartbeat_Variant_3_evicts 0 : 0 1 : 0 2 : 0 3 : 0 
Heartbeat CPU 0 instructions: 50000000 cycles: 13984882 heartbeat IPC: 3.57507 cumulative IPC: 3.57529 (Simulation time: 0 hr 9 min 50 sec) 

Warmup complete CPU 0 instructions: 50000004 cycles: 13984883 (Simulation time: 0 hr 9 min 50 sec) 

Cycle: 20000000 FTQ IN: 56634757 FTQ occupancy: 18.1217 DECODE IN: 56634695 DECODE occupancy: 46.253 ROB IN: 56634695 ROB occupancy: 278.639 ROB OUT: 56634664
Heartbeat_Variant_0 : 1184 0.289062 per_variant_size: 0 1184 0 0 0 0 0 0 0 
Heartbeat_Variant_1 : 1137 0.277588 per_variant_size: 0 488 649 0 0 0 0 0 0 
Heartbeat_Variant_2 : 1001 0.244385 per_variant_size: 0 252 308 254 187 0 0 0 0 
Heartbeat_Variant_3 : 0 0 per_variant_size: 0 0 0 0 0 0 0 0 0 
Heartbeat_Variant_0_evicts 0 : 18776 1 : 7473 2 : 7062 3 : 0 
Heartbeat_Variant_1_evicts 0 : 7272 1 : 0 2 : 4474 3 : 0 
Heartbeat_Variant_2_evicts 0 : 7260 1 : 4276 2 : 0 3 : 0 
Heartbeat_Variant_3_evicts 0 : 0 1 : 0 2 : 0 3 : 0 
Heartbeat CPU 0 instructions: 60000002 cycles: 23003371 heartbeat IPC: 1.10883 cumulative IPC: 1.10883 (Simulation time: 0 hr 11 min 47 sec) 
Cycle: 30000000 FTQ IN: 10944955 FTQ occupancy: 6.43896 DECODE IN: 10945004 DECODE occupancy: 13.3808 ROB IN: 10945001 ROB occupancy: 112.264 ROB OUT: 10944898
Heartbeat_Variant_0 : 1228 0.299805 per_variant_size: 0 1228 0 0 0 0 0 0 0 
Heartbeat_Variant_1 : 1230 0.300293 per_variant_size: 0 494 736 0 0 0 0 0 0 
Heartbeat_Variant_2 : 1032 0.251953 per_variant_size: 0 263 282 259 228 0 0 0 0 
Heartbeat_Variant_3 : 0 0 per_variant_size: 0 0 0 0 0 0 0 0 0 
Heartbeat_Variant_0_evicts 0 : 18969 1 : 7567 2 : 7283 3 : 0 
Heartbeat_Variant_1_evicts 0 : 7414 1 : 0 2 : 4637 3 : 0 
Heartbeat_Variant_2_evicts 0 : 7447 1 : 4455 2 : 0 3 : 0 
Heartbeat_Variant_3_evicts 0 : 0 1 : 0 2 : 0 3 : 0 
Heartbeat CPU 0 instructions: 70000002 cycles: 32170282 heartbeat IPC: 1.09088 cumulative IPC: 1.09978 (Simulation time: 0 hr 13 min 27 sec) 
Cycle: 40000000 FTQ IN: 11198458 FTQ occupancy: 6.43153 DECODE IN: 11198328 DECODE occupancy: 13.4105 ROB IN: 11198271 ROB occupancy: 113.263 ROB OUT: 11198053
Heartbeat_Variant_0 : 1216 0.296875 per_variant_size: 0 1216 0 0 0 0 0 0 0 
Heartbeat_Variant_1 : 1250 0.305176 per_variant_size: 0 511 739 0 0 0 0 0 0 
Heartbeat_Variant_2 : 1024 0.25 per_variant_size: 0 251 286 260 227 0 0 0 0 
Heartbeat_Variant_3 : 0 0 per_variant_size: 0 0 0 0 0 0 0 0 0 
Heartbeat_Variant_0_evicts 0 : 18815 1 : 7605 2 : 7217 3 : 0 
Heartbeat_Variant_1_evicts 0 : 7460 1 : 0 2 : 4573 3 : 0 
Heartbeat_Variant_2_evicts 0 : 7374 1 : 4408 2 : 0 3 : 0 
Heartbeat_Variant_3_evicts 0 : 0 1 : 0 2 : 0 3 : 0 
Heartbeat CPU 0 instructions: 80000003 cycles: 41077791 heartbeat IPC: 1.12265 cumulative IPC: 1.1073 (Simulation time: 0 hr 15 min 4 sec) 
Cycle: 50000000 FTQ IN: 11090904 FTQ occupancy: 6.65438 DECODE IN: 11090997 DECODE occupancy: 13.8703 ROB IN: 11091027 ROB occupancy: 115.946 ROB OUT: 11091263
Heartbeat_Variant_0 : 1232 0.300781 per_variant_size: 0 1232 0 0 0 0 0 0 0 
Heartbeat_Variant_1 : 1232 0.300781 per_variant_size: 0 498 734 0 0 0 0 0 0 
Heartbeat_Variant_2 : 1027 0.250732 per_variant_size: 0 255 284 263 225 0 0 0 0 
Heartbeat_Variant_3 : 0 0 per_variant_size: 0 0 0 0 0 0 0 0 0 
Heartbeat_Variant_0_evicts 0 : 18590 1 : 7542 2 : 7039 3 : 0 
Heartbeat_Variant_1_evicts 0 : 7316 1 : 0 2 : 4541 3 : 0 
Heartbeat_Variant_2_evicts 0 : 7249 1 : 4334 2 : 0 3 : 0 
Heartbeat_Variant_3_evicts 0 : 0 1 : 0 2 : 0 3 : 0 
Heartbeat CPU 0 instructions: 90000000 cycles: 50118140 heartbeat IPC: 1.10615 cumulative IPC: 1.10701 (Simulation time: 0 hr 16 min 46 sec) 
Heartbeat_Variant_0 : 1225 0.299072 per_variant_size: 0 1225 0 0 0 0 0 0 0 
Heartbeat_Variant_1 : 1238 0.302246 per_variant_size: 0 502 736 0 0 0 0 0 0 
Heartbeat_Variant_2 : 1028 0.250977 per_variant_size: 0 259 280 263 226 0 0 0 0 
Heartbeat_Variant_3 : 0 0 per_variant_size: 0 0 0 0 0 0 0 0 0 
Heartbeat_Variant_0_evicts 0 : 18800 1 : 7599 2 : 7186 3 : 0 
Heartbeat_Variant_1_evicts 0 : 7408 1 : 0 2 : 4525 3 : 0 
Heartbeat_Variant_2_evicts 0 : 7384 1 : 4328 2 : 0 3 : 0 
Heartbeat_Variant_3_evicts 0 : 0 1 : 0 2 : 0 3 : 0 
Heartbeat CPU 0 instructions: 100000003 cycles: 59014909 heartbeat IPC: 1.124 cumulative IPC: 1.11037 (Simulation time: 0 hr 18 min 30 sec) 
Finished CPU 0 instructions: 50000003 cycles: 45030027 cumulative IPC: 1.11037 (Simulation time: 0 hr 18 min 30 sec) 

ChampSim completed all CPUs

Region of Interest Statistics

CPU 0 cumulative IPC: 1.11037 instructions: 50000003 cycles: 45030027
 Fetch stage stalled: 71.2574  Sim cycles: 45030027 fetch stall cycle: 32087216
 Empty decode stage: 64.3894  Sim cycles: 45030027 fetch stall cycle: 28994547
ITLB TOTAL     ACCESS:    5777367  HIT:    5287654  MISS:     489713  HIT %:    91.5236  MISS %:     8.4764   MPKI: 9.79426
ITLB LOAD TRANSLATION INSTRUCTION	ACCESS:    5676611  HIT:    5186898  MISS:     489713  HIT %:    91.3731  MISS %:    8.62686  MPKI: 9.79426
ITLB TRANSLATION FROM L1D PREFETCHER INSTRUCTION	ACCESS:     100756  HIT:     100756  MISS:          0  HIT %:        100  MISS %:          0  MPKI: 0

ITLB AVERAGE MISS LATENCY: 9.05365 cycles
ITLB RQ	ACCESS:    7582803	FORWARD:          0	MERGED:    1378131	TO_CACHE:    6204672

DTLB TOTAL     ACCESS:    9368200  HIT:    8895365  MISS:     472835  HIT %:    94.9528  MISS %:    5.04723   MPKI: 9.4567
DTLB LOAD TRANSLATION DATA	ACCESS:    9368200  HIT:    8895365  MISS:     472835  HIT %:    94.9528  MISS %:    5.04723  MPKI: 9.4567

DTLB AVERAGE MISS LATENCY: 9.33903 cycles
DTLB RQ	ACCESS:   13636562	FORWARD:          0	MERGED:    4234913	TO_CACHE:    9401649

STLB TOTAL     ACCESS:    1215405  HIT:    1213363  MISS:       2042  HIT %:     99.832  MISS %:    0.16801   MPKI: 0.04084
STLB LOAD TRANSLATION INSTRUCTION	ACCESS:     489713  HIT:     489484  MISS:        229  HIT %:    99.9532  MISS %:  0.0467621  MPKI: 0.00458
STLB LOAD TRANSLATION DATA	ACCESS:     472494  HIT:     470700  MISS:       1794  HIT %:    99.6203  MISS %:   0.379687  MPKI: 0.03588
STLB TRANSLATION FROM L1D PREFETCHER DATA	ACCESS:     253198  HIT:     253179  MISS:         19  HIT %:    99.9925  MISS %: 0.00750401  MPKI: 0.00038

STLB AVERAGE MISS LATENCY: 79.1577 cycles
STLB RQ	ACCESS:    1336325	FORWARD:          0	MERGED:     120871	TO_CACHE:    1215454

STLB Hit, L1D data hit: 0
STLB Hit, L2C data hit: 0
STLB Hit, LLC data hit: 0
STLB Hit, LLC data miss: 0
STLB STLB hints to L2: 0
L1D TOTAL     ACCESS:   13410406  HIT:   12304380  MISS:    1106026  HIT %:    91.7525  MISS %:    8.24752   MPKI: 22.1205
L1D LOAD DATA	ACCESS:    6839027  HIT:    6112188  MISS:     726839  HIT %:    89.3722  MISS %:    10.6278  MPKI: 14.5368
L1D RFO DATA	ACCESS:    6238544  HIT:    5953045  MISS:     285499  HIT %:    95.4236  MISS %:    4.57637  MPKI: 5.70998
L1D PREFETCH DATA	ACCESS:     332835  HIT:     239147  MISS:      93688  HIT %:    71.8515  MISS %:    28.1485  MPKI: 1.87376

L1D PREFETCH  REQUESTED:     747918  ISSUED:     747918  USEFUL:      33533  USELESS:      68034
L1D USEFUL LOAD PREFETCHES:      33533 PREFETCH ISSUED TO LOWER LEVEL:     101722  ACCURACY: 32.9653
 TIMELY PREFETCHES:      33533 LATE PREFETCHES: 7901 DROPPED PREFETCHES: 5
L1D AVERAGE MISS LATENCY: 259403 cycles
L1D RQ	ACCESS:   10917421	FORWARD:          0	MERGED:    3885888	TO_CACHE:    6870289
L1D WQ	ACCESS:    6936973	FORWARD:     161608	MERGED:     170700	TO_CACHE:    6766273
L1D PQ	ACCESS:     374141	FORWARD:          0	MERGED:          0	TO_CACHE:     373777

L1D UNIQUE REGIONS ACCESSED: 0
L1D REGIONS CONFLICTS: 0
L1D Cross Page Prefetch Requests: 7064
L1D Same Page Prefetch Requests: 754923
L1D ROI Sum of L1D PQ occupancy: 4760120
L1D PREFETCHES PUSHED FROM L2C: 0
L1I TOTAL     ACCESS:    7082758  HIT:    4337893  MISS:    2744865  HIT %:    61.2458  MISS %:    38.7542   MPKI: 54.8973
L1I LOAD INSTRUCTION	ACCESS:    6575853  HIT:    3830988  MISS:    2744865  HIT %:    58.2584  MISS %:    41.7416  MPKI: 54.8973
L1I PREFETCH INSTRUCTION	ACCESS:     506905  HIT:     506905  MISS:          0  HIT %:        100  MISS %:          0  MPKI: 0

L1I PREFETCH  REQUESTED:    1069041  ISSUED:    1069041  USEFUL:          0  USELESS:          0
L1I USEFUL LOAD PREFETCHES:          0 PREFETCH ISSUED TO LOWER LEVEL:          0  ACCURACY: -nan
 TIMELY PREFETCHES:          0 LATE PREFETCHES: 0 DROPPED PREFETCHES: 0
L1I AVERAGE MISS LATENCY: 17.3112 cycles
L1I RQ	ACCESS:    9445749	FORWARD:          0	MERGED:    2630763	TO_CACHE:    6814986
L1I PQ	ACCESS:    1069041	FORWARD:          0	MERGED:     301224	TO_CACHE:     767817

L1BTB TOTAL     ACCESS:    5671676  HIT:    2061912  MISS:    3609764  HIT %:    36.3545  MISS %:    63.6455   MPKI: 72.1953
L1BTB BRANCH_DIRECT_JUMP	ACCESS:     549503  HIT:     146610  MISS:     402893	AVERAGE STALL: 36.3588
L1BTB BRANCH_INDIRECT	ACCESS:     183944  HIT:      66798  MISS:     117146	AVERAGE STALL: 80.2816
L1BTB BRANCH_CONDITIONAL	ACCESS:    2721256  HIT:    1433563  MISS:    1287693	AVERAGE STALL: 36.1087
L1BTB BRANCH_DIRECT_CALL	ACCESS:     938188  HIT:     104846  MISS:     833342	AVERAGE STALL: 36.8392
L1BTB BRANCH_INDIRECT_CALL	ACCESS:     170287  HIT:      20703  MISS:     149584	AVERAGE STALL: 105.477
L1BTB BRANCH_RETURN	ACCESS:    1108498  HIT:     289392  MISS:     819106	AVERAGE STALL: 36.1243
L1BTB BRANCH_OTHER ACCESS:          0  HIT:          0  MISS:          0	AVERAGE STALL: -nan
L1BTB TOTAL ROB OCCUPANCY AT BTB MISS: 12.5835

L2BTB TOTAL     ACCESS:    3584153  HIT:    3112946  MISS:     471207  HIT %:     86.853  MISS %:     13.147   MPKI: 9.42414
L2BTB BRANCH_DIRECT_JUMP	ACCESS:     398612  HIT:     352542  MISS:      46070	AVERAGE STALL: 36.3588
L2BTB BRANCH_INDIRECT	ACCESS:     106863  HIT:      99583  MISS:       7280	AVERAGE STALL: 80.2816
L2BTB BRANCH_CONDITIONAL	ACCESS:    1287693  HIT:    1136011  MISS:     151682	AVERAGE STALL: 36.1087
L2BTB BRANCH_DIRECT_CALL	ACCESS:     833342  HIT:     692161  MISS:     141181	AVERAGE STALL: 36.8392
L2BTB BRANCH_INDIRECT_CALL	ACCESS:     139930  HIT:     110342  MISS:      29588	AVERAGE STALL: 105.477
L2BTB BRANCH_RETURN	ACCESS:     817713  HIT:     722307  MISS:      95406	AVERAGE STALL: 36.1243
L2BTB BRANCH_OTHER ACCESS:          0  HIT:          0  MISS:          0	AVERAGE STALL: -nan
L2BTB TOTAL ROB OCCUPANCY AT BTB MISS: 96.3983

L2C TOTAL     ACCESS:    4451571  HIT:    3959530  MISS:     492041  HIT %:    88.9468  MISS %:    11.0532   MPKI: 9.84082
L2C LOAD INSTRUCTION	ACCESS:    2744865  HIT:    2476771  MISS:     268094  HIT %:    90.2329  MISS %:    9.76711  MPKI: 5.36188
L2C LOAD TRANSLATION INSTRUCTION	ACCESS:        273  HIT:         84  MISS:        189  HIT %:    30.7692  MISS %:    69.2308  MPKI: 0.00378
L2C LOAD DATA	ACCESS:     718915  HIT:     639359  MISS:      79556  HIT %:    88.9339  MISS %:    11.0661  MPKI: 1.59112
L2C RFO DATA	ACCESS:     285314  HIT:     234768  MISS:      50546  HIT %:    82.2841  MISS %:    17.7159  MPKI: 1.01092
L2C PREFETCH DATA	ACCESS:     183362  HIT:     106469  MISS:      76893  HIT %:    58.0649  MISS %:    41.9351  MPKI: 1.53786
L2C WRITEBACK DATA	ACCESS:     516911  HIT:     501433  MISS:      15478  HIT %:    97.0057  MISS %:    2.99433  MPKI: 0.30956
L2C LOAD TRANSLATION DATA	ACCESS:       1887  HIT:        622  MISS:       1265  HIT %:    32.9624  MISS %:    67.0376  MPKI: 0.0253
L2C TRANSLATION FROM L1D PREFETCHER DATA	ACCESS:         44  HIT:         24  MISS:         20  HIT %:    54.5455  MISS %:    45.4545  MPKI: 0.0004

L2C PREFETCH  REQUESTED:      89832  ISSUED:      89832  USEFUL:       8242  USELESS:      69286
L2C USEFUL LOAD PREFETCHES:       8242 PREFETCH ISSUED TO LOWER LEVEL:      77497  ACCURACY: 10.6353
 TIMELY PREFETCHES:       8242 LATE PREFETCHES: 604 DROPPED PREFETCHES: 0
L2C AVERAGE MISS LATENCY: 38.8082 cycles
L2C RQ	ACCESS:    3751373	FORWARD:          0	MERGED:          0	TO_CACHE:    3751298
L2C WQ	ACCESS:     516911	FORWARD:         75	MERGED:          0	TO_CACHE:     516911
L2C PQ	ACCESS:     191554	FORWARD:          0	MERGED:       3243	TO_CACHE:     188311

L2C Dense regions hint from L2: 0
PSCL5 TOTAL     ACCESS:       4104  HIT:       2052  MISS:       2052  HIT %:         50  MISS %:         50   MPKI: 0.04104
PSCL5 LOAD TRANSLATION INSTRUCTION	ACCESS:       4018  HIT:       2009  MISS:       2009  HIT %:         50  MISS %:         50  MPKI: 0.04018
PSCL5 TRANSLATION FROM L1D PREFETCHER INSTRUCTION	ACCESS:         86  HIT:         43  MISS:         43  HIT %:         50  MISS %:         50  MPKI: 0.00086


PSCL4 TOTAL     ACCESS:       3963  HIT:       1975  MISS:       1988  HIT %:     49.836  MISS %:     50.164   MPKI: 0.03976
PSCL4 LOAD TRANSLATION INSTRUCTION	ACCESS:       2050  HIT:       1932  MISS:        118  HIT %:    94.2439  MISS %:     5.7561  MPKI: 0.00236
PSCL4 TRANSLATION FROM L1D PREFETCHER INSTRUCTION	ACCESS:         45  HIT:         43  MISS:          2  HIT %:    95.5556  MISS %:    4.44444  MPKI: 4e-05
PSCL4 LOAD TRANSLATION DATA	ACCESS:       1827  HIT:          0  MISS:       1827  HIT %:          0  MISS %:        100  MPKI: 0.03654
PSCL4 TRANSLATION FROM L1D PREFETCHER DATA	ACCESS:         41  HIT:          0  MISS:         41  HIT %:          0  MISS %:        100  MPKI: 0.00082


PSCL3 TOTAL     ACCESS:       4053  HIT:       2020  MISS:       2033  HIT %:    49.8396  MISS %:    50.1604   MPKI: 0.04066
PSCL3 LOAD TRANSLATION INSTRUCTION	ACCESS:       2095  HIT:       1977  MISS:        118  HIT %:    94.3675  MISS %:    5.63246  MPKI: 0.00236
PSCL3 TRANSLATION FROM L1D PREFETCHER INSTRUCTION	ACCESS:         45  HIT:         43  MISS:          2  HIT %:    95.5556  MISS %:    4.44444  MPKI: 4e-05
PSCL3 LOAD TRANSLATION DATA	ACCESS:       1872  HIT:          0  MISS:       1872  HIT %:          0  MISS %:        100  MPKI: 0.03744
PSCL3 TRANSLATION FROM L1D PREFETCHER DATA	ACCESS:         41  HIT:          0  MISS:         41  HIT %:          0  MISS %:        100  MPKI: 0.00082


PSCL2 TOTAL     ACCESS:       3972  HIT:       1921  MISS:       2051  HIT %:    48.3635  MISS %:    51.6365   MPKI: 0.04102
PSCL2 LOAD TRANSLATION INSTRUCTION	ACCESS:       2123  HIT:       1879  MISS:        244  HIT %:    88.5068  MISS %:    11.4932  MPKI: 0.00488
PSCL2 TRANSLATION FROM L1D PREFETCHER INSTRUCTION	ACCESS:         42  HIT:         42  MISS:          0  HIT %:        100  MISS %:          0  MPKI: 0
PSCL2 LOAD TRANSLATION DATA	ACCESS:       1765  HIT:          0  MISS:       1765  HIT %:          0  MISS %:        100  MPKI: 0.0353
PSCL2 TRANSLATION FROM L1D PREFETCHER DATA	ACCESS:         42  HIT:          0  MISS:         42  HIT %:          0  MISS %:        100  MPKI: 0.00084


LLC TOTAL     ACCESS:     550764  HIT:     520207  MISS:      30557  HIT %:    94.4519  MISS %:    5.54811   MPKI: 0.61114
LLC LOAD INSTRUCTION	ACCESS:     268094  HIT:     266822  MISS:       1272  HIT %:    99.5255  MISS %:    0.47446  MPKI: 0.02544
LLC LOAD TRANSLATION INSTRUCTION	ACCESS:        189  HIT:        148  MISS:         41  HIT %:    78.3069  MISS %:    21.6931  MPKI: 0.00082
LLC LOAD DATA	ACCESS:      78963  HIT:      75244  MISS:       3719  HIT %:    95.2902  MISS %:     4.7098  MPKI: 0.07438
LLC RFO DATA	ACCESS:      50534  HIT:      35762  MISS:      14772  HIT %:    70.7682  MISS %:    29.2318  MPKI: 0.29544
LLC PREFETCH DATA	ACCESS:      77497  HIT:      67241  MISS:      10256  HIT %:    86.7659  MISS %:    13.2341  MPKI: 0.20512
LLC WRITEBACK DATA	ACCESS:      74202  HIT:      73828  MISS:        374  HIT %:     99.496  MISS %:    0.50403  MPKI: 0.00748
LLC LOAD TRANSLATION DATA	ACCESS:       1265  HIT:       1142  MISS:        123  HIT %:    90.2767  MISS %:    9.72332  MPKI: 0.00246
LLC TRANSLATION FROM L1D PREFETCHER DATA	ACCESS:         20  HIT:         20  MISS:          0  HIT %:        100  MISS %:          0  MPKI: 0

LLC AVERAGE MISS LATENCY: 155.527 cycles
LLC RQ	ACCESS:     399066	FORWARD:          0	MERGED:          0	TO_CACHE:     399065
LLC WQ	ACCESS:      74202	FORWARD:          1	MERGED:          0	TO_CACHE:      74202
LLC PQ	ACCESS:      77497	FORWARD:          0	MERGED:          0	TO_CACHE:      77497

LLC Dense regions hint to LLC: 0

RAW hits: 1719745
Loads Generated: 12637166
Loads sent to L1D: 10917421
Stores Generated: 6936960
Stores sent to L1D: 6936973
Major fault: 0 Minor fault: 2611
Allocated PAGES: 2611

stream: 
stream:times selected: 1200744
stream:pref_filled: 121814
stream:pref_useful: 23685
stream:pref_late: 7427
stream:misses: 8072
stream:misses_by_poll: 0

CS: 
CS:times selected: 179319
CS:pref_filled: 59390
CS:pref_useful: 36060
CS:pref_late: 6853
CS:misses: 15824
CS:misses_by_poll: 12

CPLX: 
CPLX:times selected: 1020318
CPLX:pref_filled: 19224
CPLX:pref_useful: 4383
CPLX:pref_late: 3156
CPLX:misses: 92171
CPLX:misses_by_poll: 0

NL_L1: 
NL:times selected: 21671
NL:pref_filled: 606
NL:pref_useful: 254
NL:pref_late: 398
NL:misses: 1795
NL:misses_by_poll: 0

total selections: 2422052
total_filled: 93688
total_useful: 33533
total_late: 18990
total_polluted: 12
total_misses_after_warmup: 758103
conflicts: 5642226

test: 120543

DRAM Statistics
 CHANNEL 0
 RQ ROW_BUFFER_HIT:      11264  ROW_BUFFER_MISS:      18916
 DBUS_CONGESTED:         12
 WQ ROW_BUFFER_HIT:       1511  ROW_BUFFER_MISS:      12977  FULL:          0

 AVG_CONGESTED_CYCLE: 6

CPU 0 Branch Prediction Accuracy: 99.8083% MPKI: 0.35044 Average ROB Occupancy at Mispredict: 121.922
Branch types
NOT_BRANCH: 40861461 81.7229%
BRANCH_DIRECT_JUMP: 549503 1.09901%
BRANCH_INDIRECT: 183944 0.367888%
BRANCH_CONDITIONAL: 6187665 12.3753%
BRANCH_DIRECT_CALL: 938188 1.87638%
BRANCH_INDIRECT_CALL: 170287 0.340574%
BRANCH_RETURN: 1108498 2.217%
BRANCH_OTHER: 0 0%

DRAM PAGES: 1048576
Allocated PAGES: 2611
Average_ROB_Occupancy: 115.065
Average_Decode_Occupancy: 13.6638
Average_FTQ_Occupancy: 6.55226
Indirect max targets: 14 Average targets: 1.17834
Branch_type:  BRANCH_DIRECT_JUMP:  Count Percentage: 3.29439 5.64831 2.73342 9.73642 1.9817 6.296 1.31561 68.9941 
Branch_type:  BRANCH_INDIRECT:  Count Percentage: 11.7436 3.4653 1.22654 8.11874 3.2646 1.20802 10.7445 60.2287 
Branch_type:  BRANCH_CONDITIONAL:  Count Percentage: 22.3296 2.24288 2.18205 5.50569 1.27634 4.55391 1.43455 60.475 
Branch_type:  BRANCH_DIRECT_CALL:  Count Percentage: 0.264666 1.71636 1.29068 5.19648 2.18486 2.9754 0.864252 85.5073 
Branch_type:  BRANCH_INDIRECT_CALL:  Count Percentage: 9.55137 0.594835 2.99176 4.86862 0 3.85485 0 78.1386 
Branch_type:  BRANCH_RETURN:  Count Percentage: 3.66404 1.25068 1.05806 6.75108 3.18054 5.45093 2.95152 75.6931 
Branch_type:  BRANCH_DIRECT_JUMP:  Total Count: 36164 62004 30006 106881 21754 69114 14442 757379 
Branch_type:  BRANCH_INDIRECT:  Total Count: 43124 12725 4504 29813 11988 4436 39455 221167 
Branch_type:  BRANCH_CONDITIONAL:  Total Count: 2761413 277368 269845 680866 157840 563163 177405 7478691 
Branch_type:  BRANCH_DIRECT_CALL:  Total Count: 4969 32224 24232 97562 41020 55862 16226 1605367 
Branch_type:  BRANCH_INDIRECT_CALL:  Total Count: 32580 2029 10205 16607 0 13149 0 266533 
Branch_type:  BRANCH_RETURN:  Total Count: 81321 27758 23483 149836 70590 120980 65507 1679961 
Number of unique branch instructions: 10838
Upper 32 bits: 
aaaa
ffff
ffff0000
Unique upper 32 bits: 3
Unique upper 36 bits: 3
Unique upper 40 bits: 5
Unique upper 44 bits: 32
Unique upper 48 bits: 157
Variant_0 : 1225 0.299072
Variant_1 : 1238 0.302246
Variant_2 : 1028 0.250977
Variant_3 : 0 0
Offset_3 4494
Offset_4 258
Offset_5 484
Offset_6 547
Offset_7 640
Offset_8 587
Offset_9 517
Offset_10 431
Offset_11 355
Offset_12 324
Offset_13 242
Offset_14 245
Offset_15 201
Offset_16 227
Offset_17 172
Offset_18 154
Offset_19 257
Offset_20 144
Offset_21 235
Offset_22 416
Offset_23 241
Offset_24 350
Offset_25 117
Offset_47 93
Offset_64 1
decode_dispatch_called: 20391647 45.2846
Dispatch_width: 0 10364169 50.8256 23.0161
Dispatch_width: 1 551604 2.70505 1.22497
Dispatch_width: 2 665444 3.26332 1.47778
Dispatch_width: 3 461539 2.26337 1.02496
Dispatch_width: 4 1503024 7.37078 3.33783
Dispatch_width: 5 354694 1.73941 0.787683
Dispatch_width: 6 6491173 31.8325 14.4152
Empty_decode_cycles: 24638380 54.7154
ROB_full_cycles: 2028339 4.50441
Starvation_cycles_per_kilo_instr: 365.105
Starvation_cycles_per_kilo_instr_3: 346.528
Starvation_cycles_per_kilo_instr_0: 329.742
Branch_type_1  (3,1)  (4,7)  (5,38)  (6,75)  (7,125)  (8,150)  (9,136)  (10,113)  (11,80)  (12,55)  (13,11)  (14,2)  (15,3)  (16,4)  (18,1)  (19,5)  (20,2)  (21,1)  (22,3)  (23,2)  (24,10)  (25,12) 
Branch_type_2  (3,1)  (4,1)  (5,1)  (8,4)  (9,4)  (10,1)  (12,1)  (13,1)  (14,1)  (16,3)  (17,2)  (20,2)  (21,2)  (23,5)  (24,1)  (47,43) 
Branch_type_3  (3,4492)  (4,250)  (5,441)  (6,455)  (7,484)  (8,368)  (9,283)  (10,175)  (11,139)  (12,62)  (13,10)  (64,1) 
Branch_type_4  (6,4)  (7,8)  (8,26)  (9,55)  (10,67)  (11,70)  (12,115)  (13,103)  (14,111)  (15,96)  (16,100)  (17,81)  (18,67)  (19,124)  (20,73)  (21,124)  (22,222)  (23,136)  (24,206)  (25,101) 
Branch_type_5  (8,3)  (9,1)  (10,4)  (11,5)  (12,3)  (13,14)  (14,16)  (15,11)  (16,22)  (17,11)  (18,23)  (19,14)  (20,11)  (21,13)  (22,43)  (23,26)  (24,37) 
Branch_type_6  (5,4)  (6,13)  (7,23)  (8,36)  (9,38)  (10,71)  (11,61)  (12,88)  (13,103)  (14,115)  (15,91)  (16,98)  (17,78)  (18,63)  (19,114)  (20,56)  (21,95)  (22,148)  (23,72)  (24,96)  (25,4)  (47,50) 
Unique trigger count: 
Variant_0_evicts_0 : 0
Variant_0_evicts_1 : 0
Variant_0_evicts_2 : 0
Variant_0_evicts_3 : 0
Variant_1_evicts_0 : 0
Variant_1_evicts_1 : 0
Variant_1_evicts_2 : 0
Variant_1_evicts_3 : 0
Variant_2_evicts_0 : 0
Variant_2_evicts_1 : 0
Variant_2_evicts_2 : 0
Variant_2_evicts_3 : 0
Variant_3_evicts_0 : 0
Variant_3_evicts_1 : 0
Variant_3_evicts_2 : 0
Variant_3_evicts_3 : 0
BTB PER SET UNIQUE ADDR: 6 7 6 5 3 4 7 9 10 2 5 2 8 5 3 4 7 4 8 9 6 8 7 8 8 11 2 7 6 6 10 9 6 5 8 4 4 6 6 3 8 5 6 10 9 8 5 12 11 6 5 3 12 2 2 7 5 5 9 9 4 11 4 7 5 10 8 9 6 6 6 2 6 5 6 7 6 15 6 5 8 6 7 6 6 7 7 9 8 11 10 9 9 6 8 5 11 8 5 5 7 7 9 9 6 8 7 8 7 5 7 7 4 8 5 11 3 8 6 2 8 9 4 3 6 4 4 7 11 9 11 3 11 6 9 6 5 3 6 8 7 8 7 6 5 11 5 8 12 8 6 14 6 10 7 9 8 9 7 10 11 9 10 5 13 8 3 4 12 6 6 4 7 7 4 3 6 5 10 5 6 7 10 8 9 12 6 7 6 9 6 7 6 7 6 10 11 4 10 6 4 6 8 4 8 4 5 8 7 2 3 6 9 9 7 6 4 9 7 6 6 4 6 7 6 8 13 7 3 11 12 9 4 5 7 9 11 6 4 5 4 3 10 8 16 11 2 7 6 7 9 10 6 7 5 13 4 8 10 6 8 5 7 4 9 16 6 5 7 5 7 7 4 8 10 8 8 3 3 8 8 5 10 5 9 8 6 7 7 4 5 7 4 11 7 3 6 10 6 6 6 6 5 4 7 5 6 4 13 10 6 4 8 4 6 5 10 13 7 6 7 11 5 9 5 6 6 10 3 3 9 2 6 7 10 6 7 9 8 1 7 6 2 9 7 7 3 9 11 6 5 13 11 6 8 7 7 2 8 5 7 11 6 8 11 8 4 4 4 5 9 4 7 5 8 4 11 7 7 10 10 7 7 13 6 4 8 5 8 4 9 6 8 4 7 4 5 5 2 9 7 5 8 7 6 6 9 6 5 3 6 6 12 7 2 6 9 4 3 7 2 6 7 7 11 9 5 2 4 9 4 4 16 5 8 10 6 6 7 4 4 6 10 4 7 9 6 7 5 4 6 3 4 3 9 3 4 8 9 6 5 4 6 12 6 5 12 4 6 7 2 6 10 8 6 3 10 5 3 3 5 2 3 4 3 7 8 3 7 2 13 4 4 8 2 12 4 7 6 4 11 3 5 4 2 5 5 3 4 6 8 4 8 11 3 4 2 10 6 9 7 5 8 6 11 9 6 10 9 8 7 7 6 7 5 7 7 1 6 4 5 9 11 4 9 5 10 13 14 11 7 8 7 6 2 6 9 3 7 4 11 5 9 5 5 6 10 9 11 7 7 4 11 11 6 7 7 12 3 9 13 5 2 6 5 3 3 14 7 6 8 10 4 7 5 5 9 5 6 5 13 5 11 11 9 5 4 9 7 5 8 8 8 7 7 5 7 5 5 7 8 6 11 4 5 10 8 9 4 6 8 7 8 7 6 8 6 6 6 4 11 8 4 6 3 3 7 8 8 8 8 4 10 3 5 3 10 5 6 8 12 3 6 11 8 7 7 6 6 10 7 8 6 7 11 10 8 6 8 6 9 11 8 5 8 8 6 9 7 6 3 8 3 5 5 7 11 7 7 9 3 11 4 5 7 12 4 4 5 5 7 7 7 6 5 7 12 6 1 8 5 3 5 4 4 3 4 9 2 11 7 12 7 3 7 8 10 4 6 4 5 9 5 10 4 5 6 4 8 7 7 3 5 7 2 5 5 10 9 5 5 6 6 7 7 6 14 7 5 3 9 8 0 5 7 4 6 10 4 3 8 6 4 6 10 9 9 8 2 9 4 9 5 7 6 13 12 5 6 5 13 4 8 4 8 7 7 7 4 6 3 5 6 5 5 7 1 5 5 10 7 4 9 4 5 6 6 4 7 6 7 3 7 4 10 5 4 5 6 4 5 4 6 6 5 7 9 6 7 3 8 8 7 9 6 10 7 5 7 6 7 7 4 4 12 7 5 8 10 10 4 7 6 9 7 2 2 6 7 4 3 7 6 6 9 5 7 5 5 8 8 4 4 7 5 3 8 12 5 3 12 8 5 6 9 7 7 11 6 8 10 7 5 4 3 10 6 7 8 6 9 6 9 6 9 8 5 5 5 12 6 4 11 10 6 8 10 10 3 11 7 9 6 4 6 8 8 8 10 6 9 3 13 8 4 7 9 13 6 9 6 7 11 5 3 9 10 9 10 5 3 6 3 10 13 6 8 5 4 7 13 6 4 6 5 7 4 5 9 8 8 8 7 11 6 11 7 11 5 6 5 5 7 4 8 6 7 6 6 7 9 5 8 7 11 5 9 5 3 8 11 6 14 5 
BTB PER SET COUNT: 7 1528 7 5 3 4 10 2041 7231 2 7 1902 1533 9 3 6 1260 5 31 2480 6 8 10 1527 5837 1538 2 8 1463 6 4963 403 2960 8 9 6 2920 6 14 3 31 5 11 2261 5333 13 5 5048 3055 7 5 3 12281 2 2 1528 7 5 28 113 5 3121 4 8 5 640 2191 34 6 7 1235 2 11 5 1021 11 513 7214 956 5 1049 1020 1433 719 863 8 10 26 4065 1963 1558 466 2038 8 10 7 724 12 5 5 8 10 11 1758 9 9 1527 3811 2538 5 2034 10 4 9 9 7165 3 8 6 2 10 33 6 4 1645 4 5 25 6763 2037 1545 3 3306 10 3528 6 6 3 6 14 7 16 8 6 5 2054 6 8 23 2546 8 5148 9 9257 16 21 11 2038 1203 1033 4929 38 1977 890 47 2528 3 4 5340 1022 6 4 17 124 5 6 7 512 1949 5 6 8 1034 12 18 8692 10 8 2855 15 7 12 6 2034 1526 27 1917 4 20 6 5 24 11 6 13 4 5 2989 9 2 4 10 327 4889 7 6 5 13 8 6 6 4 7 7 6 12 6350 1947 5 2938 8072 10 4 6 17 3841 3564 7 4 5 5 4 5900 11 4040 21 2 9 6 8 12 3204 8 10 6 4687 4 14 1534 8 2454 5 8 7 2630 8555 958 5 2548 5 2034 11 5 8 17 723 13 3 3 2543 10 1018 16 5 3558 1529 6 957 8 4 5 3364 1020 4076 3050 1024 9 4233 7 7 6 6 5 4 7 5 8 4 4777 18 11 4 959 7 7 11 17 2295 1551 8 21 22 5 11 41 10 7 1100 4 3 3379 2 8 9 1926 8 2543 15 17 1 14 6 2 2923 1021 1030 4 9 512 10 5 973 12 1907 1527 15 11 3 4995 46 11 1838 13 3019 2166 10 5 5 7 7 16 8 9 8 13 4 7186 7 8 858 3562 3048 7 8048 9 4 39 5 13 6 2513 10 4070 5 1529 6 1464 10 2 17 18 6 1533 10 763 7 2926 8 5 2289 11 6 3048 14 952 7 221 4 3 1492 2 1022 11 25 50 15 8 2 4 17 125 4 5862 5 10 23 8 6 2043 4 4 9 28 5 11 1046 9 963 5 5 10 3 6 4 243 3 7 14 730 7 1019 5 18 388 33 6 3742 4 7 13 2 19 4735 1532 182 3 25264 5 3 3 7 2 3 510 3 9 1463 393 7 2 1020 4 5 12 2 7510 4 7 10 4 27 6 13 4 2 7 5 3 4 10 20 5 10 39 7 4 2 9572 8 1026 13 1463 23 429 41 3453 8 11 22 16 8 8 6 11 5 1024 13 1 8 4 8 1529 33 8 1910 5 23 64 3071 8432 17 1065 10 8 3 11 1675 3 7 4 7918 1907 2551 6 5 6 53 17 24 1026 892 5 1541 5044 1528 2542 14 4066 3 4770 9166 447 2 1020 1462 3 3 7492 12 8 9 41 7 1914 957 9 11 5 7 6 40 5 6960 743 2927 3052 6 1528 10 7 4062 17 17 7 12 7 1911 8 5 7 13 1765 1928 5 1462 560 12 2556 11 2819 515 1464 8 11 8 19 8 6 11 4 7814 18 4 7 3 3 9 10 3220 11 15 4 10212 4 7 3 21 5 1531 4060 7954 5 15 7524 14 1533 2946 1021 24 54 1909 9 10 1022 6601 3605 517 9 2495 6 3054 7449 9 1020 20922 1032 26 5013 1464 7 3 2313 3 5 5 7 8348 11 19 48 3 3055 4 5 162 3713 6 2411 6 1463 135 7 15 1020 1019 9 1498 759 1 17 9 4 6 4 1903 5 1017 1641 2 9534 1906 2091 1909 3 7 13 1168 7 16 4 8 9 5 9956 4 6 516 5 15 1021 18 3 5 851 2 5 5 13 6343 1905 5 7 958 743 3812 6 6112 7 6 3 12 24 0 190 14 1462 10 3472 9 4 2542 21 4 3365 1575 112 12 18 425 1027 5 1914 5 9 191 4786 1586 5 8 5 2742 5 202 1018 2061 2925 11 11 4 10 3 7 7 448 5 13 2 5 5 5038 19 4 3369 416 1525 9 1903 5 2542 121 730 3 482 4 7787 1019 1017 6 6 4 377 4 9 1800 5 9 3201 9 9 3 3555 1809 9 14 14 11575 8 6 7 15 22 10 5 4 7089 958 7 2543 2402 40 5 11 6 33 12 2 3 7 8 4 3 9 8 8 15 9 1530 6 5 1852 12 4 4 1631 5 3 40 3294 7 3 5377 2545 107 60 2435 12 7 3399 6 17 1179 15 7 4 6 19 8 1026 3470 2346 16 6 3875 6 37 301 5 7 7 2932 10 513 3616 1348 8 8 3481 1924 4 3564 9 993 8 956 10 9 13 264 15 8 3479 3 8278 10 6 11 1554 11292 15 3048 6 516 8248 7 3 1085 37 16 12 5 3 6 3 3314 6093 8 959 6 9 7 1559 9 511 9 5 13 4 6 14 11 1528 1026 9 2783 6 1550 7 5796 8 9 7 7 13 4 16 6 1527 9 11 9 6786 5 7091 392 2968 6 2334 6 4 9 3422 11 4352 9 
To predecode: 0
Predecoding something: 0
Predecode request dropped: 0
sizeofblock_0 0
sizeofblock_1 267802
sizeofblock_2 187948
sizeofblock_3 138208
sizeofblock_4 71804
sizeofblock_5 0
sizeofblock_6 0
sizeofblock_7 0
sizeofblock_8 0
Variant_0 Correct: 0 Incorrect: 0 Accuracy: -nan
Variant_1 Correct: 0 Incorrect: 0 Accuracy: -nan
Variant_2 Correct: 0 Incorrect: 0 Accuracy: -nan
Variant_3 Correct: 0 Incorrect: 0 Accuracy: -nan
