
*** ChampSim Multicore Out-of-Order Simulator ***

Warmup Instructions: 50000000
Simulation Instructions: 50000000
Number of CPUs: 1
LLC sets: 2048
LLC ways: 16
Off-chip DRAM Size: 4096 MB Channels: 1 Width: 64-bit Data Rate: 6400 MT/s
CPU 0 runs ./micro_traces/srv660.trace.gz
.gz
ITLB has LRU replacement policy
DTLB has LRU replacement policy
STLB has LRU replacement policy
FDIP Prefetcher at L1I
L1I has LRU replacement policy
L1D has LRU replacement policy
Initialize SRRIP state for L2C
Initialize DRRIP state for LLC
Heartbeat CPU 0 instructions: 10000001 cycles: 2795760 heartbeat IPC: 3.57685 cumulative IPC: 3.57685 (Simulation time: 0 hr 1 min 41 sec) 
Heartbeat CPU 0 instructions: 20000002 cycles: 5591423 heartbeat IPC: 3.57697 cumulative IPC: 3.57691 (Simulation time: 0 hr 3 min 13 sec) 
Heartbeat CPU 0 instructions: 30000002 cycles: 8386312 heartbeat IPC: 3.57796 cumulative IPC: 3.57726 (Simulation time: 0 hr 4 min 44 sec) 
Heartbeat CPU 0 instructions: 40000002 cycles: 11182562 heartbeat IPC: 3.57622 cumulative IPC: 3.577 (Simulation time: 0 hr 6 min 21 sec) 
Heartbeat CPU 0 instructions: 50000000 cycles: 13980076 heartbeat IPC: 3.5746 cumulative IPC: 3.57652 (Simulation time: 0 hr 7 min 59 sec) 

Warmup complete CPU 0 instructions: 50000004 cycles: 13980077 (Simulation time: 0 hr 7 min 59 sec) 

Cycle: 20000000 FTQ IN: 56172516 FTQ occupancy: 17.6977 DECODE IN: 56172487 DECODE occupancy: 45.1404 ROB IN: 56172487 ROB occupancy: 271.199 ROB OUT: 56172457
Heartbeat CPU 0 instructions: 60000002 cycles: 23672180 heartbeat IPC: 1.03177 cumulative IPC: 1.03177 (Simulation time: 0 hr 9 min 16 sec) 
Cycle: 30000000 FTQ IN: 10505065 FTQ occupancy: 5.35116 DECODE IN: 10505074 DECODE occupancy: 10.4816 ROB IN: 10505074 ROB occupancy: 91.616 ROB OUT: 10505072
Heartbeat CPU 0 instructions: 70000001 cycles: 33137527 heartbeat IPC: 1.05649 cumulative IPC: 1.04398 (Simulation time: 0 hr 10 min 34 sec) 
Cycle: 40000000 FTQ IN: 10487067 FTQ occupancy: 5.69397 DECODE IN: 10487087 DECODE occupancy: 11.2709 ROB IN: 10487087 ROB occupancy: 94.3832 ROB OUT: 10487013
Heartbeat CPU 0 instructions: 80000000 cycles: 42709063 heartbeat IPC: 1.04476 cumulative IPC: 1.04424 (Simulation time: 0 hr 11 min 50 sec) 
Cycle: 50000000 FTQ IN: 10474318 FTQ occupancy: 5.30707 DECODE IN: 10474285 DECODE occupancy: 10.3426 ROB IN: 10474284 ROB occupancy: 90.6786 ROB OUT: 10474354
Heartbeat CPU 0 instructions: 90000003 cycles: 52233219 heartbeat IPC: 1.04996 cumulative IPC: 1.04567 (Simulation time: 0 hr 13 min 6 sec) 
Cycle: 60000000 FTQ IN: 10458365 FTQ occupancy: 5.6122 DECODE IN: 10458398 DECODE occupancy: 11.0456 ROB IN: 10458399 ROB occupancy: 93.8557 ROB OUT: 10458127
Heartbeat CPU 0 instructions: 100000002 cycles: 61800115 heartbeat IPC: 1.04527 cumulative IPC: 1.04559 (Simulation time: 0 hr 14 min 23 sec) 
Finished CPU 0 instructions: 50000002 cycles: 47820039 cumulative IPC: 1.04559 (Simulation time: 0 hr 14 min 23 sec) 

ChampSim completed all CPUs

Region of Interest Statistics

CPU 0 cumulative IPC: 1.04559 instructions: 50000002 cycles: 47820039
 Fetch stage stalled: 74.2007  Sim cycles: 47820039 fetch stall cycle: 35482791
 Empty decode stage: 80.1127  Sim cycles: 47820039 fetch stall cycle: 38309906
ITLB TOTAL     ACCESS:    6044039  HIT:    5551022  MISS:     493017  HIT %:    91.8429  MISS %:    8.15708   MPKI: 9.86034
ITLB LOAD TRANSLATION INSTRUCTION	ACCESS:    5960852  HIT:    5467835  MISS:     493017  HIT %:    91.7291  MISS %:    8.27091  MPKI: 9.86034
ITLB TRANSLATION FROM L1D PREFETCHER INSTRUCTION	ACCESS:      83187  HIT:      83187  MISS:          0  HIT %:        100  MISS %:          0  MPKI: 0

ITLB AVERAGE MISS LATENCY: 9.06054 cycles
ITLB RQ	ACCESS:    7685940	FORWARD:          0	MERGED:    1373969	TO_CACHE:    6311971

DTLB TOTAL     ACCESS:    9596978  HIT:    9119204  MISS:     477774  HIT %:    95.0216  MISS %:    4.97838   MPKI: 9.55548
DTLB LOAD TRANSLATION DATA	ACCESS:    9596978  HIT:    9119204  MISS:     477774  HIT %:    95.0216  MISS %:    4.97838  MPKI: 9.55548

DTLB AVERAGE MISS LATENCY: 9.32918 cycles
DTLB RQ	ACCESS:   13826740	FORWARD:          0	MERGED:    4196776	TO_CACHE:    9629964

STLB TOTAL     ACCESS:    1223324  HIT:    1221266  MISS:       2058  HIT %:    99.8318  MISS %:    0.16823   MPKI: 0.04116
STLB LOAD TRANSLATION INSTRUCTION	ACCESS:     493017  HIT:     492741  MISS:        276  HIT %:     99.944  MISS %:  0.0559818  MPKI: 0.00552
STLB LOAD TRANSLATION DATA	ACCESS:     477606  HIT:     475842  MISS:       1764  HIT %:    99.6307  MISS %:   0.369342  MPKI: 0.03528
STLB TRANSLATION FROM L1D PREFETCHER DATA	ACCESS:     252701  HIT:     252683  MISS:         18  HIT %:    99.9929  MISS %: 0.00712304  MPKI: 0.00036

STLB AVERAGE MISS LATENCY: 77.948 cycles
STLB RQ	ACCESS:    1359320	FORWARD:          0	MERGED:     135965	TO_CACHE:    1223355

STLB Hit, L1D data hit: 0
STLB Hit, L2C data hit: 0
STLB Hit, LLC data hit: 0
STLB Hit, LLC data miss: 0
STLB STLB hints to L2: 0
L1D TOTAL     ACCESS:   13587318  HIT:   12439206  MISS:    1148112  HIT %:    91.5501  MISS %:    8.44988   MPKI: 22.9622
L1D LOAD DATA	ACCESS:    7030158  HIT:    6272408  MISS:     757750  HIT %:    89.2214  MISS %:    10.7786  MPKI: 15.155
L1D RFO DATA	ACCESS:    6224119  HIT:    5936414  MISS:     287705  HIT %:    95.3776  MISS %:    4.62242  MPKI: 5.7541
L1D PREFETCH DATA	ACCESS:     333041  HIT:     230384  MISS:     102657  HIT %:    69.1759  MISS %:    30.8241  MPKI: 2.05314

L1D PREFETCH  REQUESTED:     777317  ISSUED:     777317  USEFUL:      43639  USELESS:      70031
L1D USEFUL LOAD PREFETCHES:      43639 PREFETCH ISSUED TO LOWER LEVEL:     113676  ACCURACY: 38.3889
 TIMELY PREFETCHES:      43639 LATE PREFETCHES: 10989 DROPPED PREFETCHES: 3
L1D AVERAGE MISS LATENCY: 370051 cycles
L1D RQ	ACCESS:   11048305	FORWARD:          0	MERGED:    3813295	TO_CACHE:    7065129
L1D WQ	ACCESS:    6921301	FORWARD:     170140	MERGED:     159690	TO_CACHE:    6761611
L1D PQ	ACCESS:     388788	FORWARD:          0	MERGED:          0	TO_CACHE:     388529

L1D UNIQUE REGIONS ACCESSED: 0
L1D REGIONS CONFLICTS: 0
L1D Cross Page Prefetch Requests: 5794
L1D Same Page Prefetch Requests: 786924
L1D ROI Sum of L1D PQ occupancy: 4935870
L1D PREFETCHES PUSHED FROM L2C: 0
L1I TOTAL     ACCESS:    7148786  HIT:    4393217  MISS:    2755569  HIT %:     61.454  MISS %:     38.546   MPKI: 55.1114
L1I LOAD INSTRUCTION	ACCESS:    6769316  HIT:    4013747  MISS:    2755569  HIT %:    59.2932  MISS %:    40.7068  MPKI: 55.1114
L1I PREFETCH INSTRUCTION	ACCESS:     379470  HIT:     379470  MISS:          0  HIT %:        100  MISS %:          0  MPKI: 0

L1I PREFETCH  REQUESTED:     922816  ISSUED:     922816  USEFUL:          0  USELESS:          0
L1I USEFUL LOAD PREFETCHES:          0 PREFETCH ISSUED TO LOWER LEVEL:          0  ACCURACY: -nan
 TIMELY PREFETCHES:          0 LATE PREFETCHES: 0 DROPPED PREFETCHES: 0
L1I AVERAGE MISS LATENCY: 17.5069 cycles
L1I RQ	ACCESS:    9432438	FORWARD:          0	MERGED:    2401549	TO_CACHE:    7030889
L1I PQ	ACCESS:     922816	FORWARD:          0	MERGED:     267765	TO_CACHE:     655051

L1BTB TOTAL     ACCESS:    5676391  HIT:    2059298  MISS:    3617093  HIT %:    36.2783  MISS %:    63.7217   MPKI: 72.3419
L1BTB BRANCH_DIRECT_JUMP	ACCESS:     546037 HIT:     143451 MISS:     402586 AVERAGE STALL: 33.8925 AVERAGE FETCH STALL: 17.7953 AVERAGE FETCH QUEUE STALL: 7.69732 AVERAGE DECODE STALL: 7.52235 AVERAGE EXECUTE STALL: 1.09223e+15
L1BTB BRANCH_INDIRECT	ACCESS:     181869 HIT:      65538 MISS:     116331 AVERAGE STALL: 57.6011 AVERAGE FETCH STALL: 11.918 AVERAGE FETCH QUEUE STALL: 4.325 AVERAGE DECODE STALL: 5.89486 AVERAGE EXECUTE STALL: 34.5
L1BTB BRANCH_CONDITIONAL	ACCESS:    2723066 HIT:    1434479 MISS:    1288587 AVERAGE STALL: 34.5195 AVERAGE FETCH STALL: 22.5784 AVERAGE FETCH QUEUE STALL: 5.06723 AVERAGE DECODE STALL: 6.09881 AVERAGE EXECUTE STALL: 6.35963e+14
L1BTB BRANCH_DIRECT_CALL	ACCESS:     941168 HIT:     105059 MISS:     836109 AVERAGE STALL: 32.971 AVERAGE FETCH STALL: 21.1313 AVERAGE FETCH QUEUE STALL: 5.46317 AVERAGE DECODE STALL: 5.60159 AVERAGE EXECUTE STALL: 8.64421e+14
L1BTB BRANCH_INDIRECT_CALL	ACCESS:     171552 HIT:      21585 MISS:     149967 AVERAGE STALL: 74.8973 AVERAGE FETCH STALL: 13.3045 AVERAGE FETCH QUEUE STALL: 2.86175 AVERAGE DECODE STALL: 5.59535 AVERAGE EXECUTE STALL: 52.635
L1BTB BRANCH_RETURN	ACCESS:    1112699 HIT:     289186 MISS:     823513 AVERAGE STALL: 34.3966 AVERAGE FETCH STALL: 17.2572 AVERAGE FETCH QUEUE STALL: 2.26767 AVERAGE DECODE STALL: 4.70686 AVERAGE EXECUTE STALL: 3.63361e+14
L1BTB BRANCH_OTHER ACCESS:          0 HIT:          0 MISS:          0 AVERAGE STALL: -nan AVERAGE FETCH STALL: -nan AVERAGE FETCH QUEUE STALL: -nan AVERAGE DECODE STALL: -nan AVERAGE EXECUTE STALL: -nan
L1BTB TOTAL ROB OCCUPANCY AT BTB MISS: 2.16407

L2BTB TOTAL     ACCESS:    3591751  HIT:    3464655  MISS:     127096  HIT %:    96.4614  MISS %:    3.53855   MPKI: 2.54192
L2BTB BRANCH_DIRECT_JUMP	ACCESS:     398441 HIT:     385666 MISS:      12775 AVERAGE STALL: 33.8925 AVERAGE FETCH STALL: 17.7953 AVERAGE FETCH QUEUE STALL: 7.69732 AVERAGE DECODE STALL: 7.52235 AVERAGE EXECUTE STALL: 1.09223e+15
L2BTB BRANCH_INDIRECT	ACCESS:     106055 HIT:     102971 MISS:       3084 AVERAGE STALL: 57.6011 AVERAGE FETCH STALL: 11.918 AVERAGE FETCH QUEUE STALL: 4.325 AVERAGE DECODE STALL: 5.89486 AVERAGE EXECUTE STALL: 34.5
L2BTB BRANCH_CONDITIONAL	ACCESS:    1288587 HIT:    1259290 MISS:      29297 AVERAGE STALL: 34.5195 AVERAGE FETCH STALL: 22.5784 AVERAGE FETCH QUEUE STALL: 5.06723 AVERAGE DECODE STALL: 6.09881 AVERAGE EXECUTE STALL: 6.35963e+14
L2BTB BRANCH_DIRECT_CALL	ACCESS:     836109 HIT:     814726 MISS:      21383 AVERAGE STALL: 32.971 AVERAGE FETCH STALL: 21.1313 AVERAGE FETCH QUEUE STALL: 5.46317 AVERAGE DECODE STALL: 5.60159 AVERAGE EXECUTE STALL: 8.64421e+14
L2BTB BRANCH_INDIRECT_CALL	ACCESS:     140451 HIT:     129294 MISS:      11157 AVERAGE STALL: 74.8973 AVERAGE FETCH STALL: 13.3045 AVERAGE FETCH QUEUE STALL: 2.86175 AVERAGE DECODE STALL: 5.59535 AVERAGE EXECUTE STALL: 52.635
L2BTB BRANCH_RETURN	ACCESS:     822108 HIT:     772708 MISS:      49400 AVERAGE STALL: 34.3966 AVERAGE FETCH STALL: 17.2572 AVERAGE FETCH QUEUE STALL: 2.26767 AVERAGE DECODE STALL: 4.70686 AVERAGE EXECUTE STALL: 3.63361e+14
L2BTB BRANCH_OTHER ACCESS:          0 HIT:          0 MISS:          0 AVERAGE STALL: -nan AVERAGE FETCH STALL: -nan AVERAGE FETCH QUEUE STALL: -nan AVERAGE DECODE STALL: -nan AVERAGE EXECUTE STALL: -nan
L2BTB TOTAL ROB OCCUPANCY AT BTB MISS: 61.5883

L2C TOTAL     ACCESS:    4516010  HIT:    3990348  MISS:     525662  HIT %:      88.36  MISS %:      11.64   MPKI: 10.5132
L2C LOAD INSTRUCTION	ACCESS:    2755569  HIT:    2455821  MISS:     299748  HIT %:    89.1221  MISS %:    10.8779  MPKI: 5.99496
L2C LOAD TRANSLATION INSTRUCTION	ACCESS:        322  HIT:         86  MISS:        236  HIT %:    26.7081  MISS %:    73.2919  MPKI: 0.00472
L2C LOAD DATA	ACCESS:     746725  HIT:     672170  MISS:      74555  HIT %:    90.0157  MISS %:    9.98426  MPKI: 1.4911
L2C RFO DATA	ACCESS:     287643  HIT:     229910  MISS:      57733  HIT %:    79.9289  MISS %:    20.0711  MPKI: 1.15466
L2C PREFETCH DATA	ACCESS:     198830  HIT:     124706  MISS:      74124  HIT %:    62.7199  MISS %:    37.2801  MPKI: 1.48248
L2C WRITEBACK DATA	ACCESS:     525018  HIT:     507141  MISS:      17877  HIT %:     96.595  MISS %:    3.40503  MPKI: 0.35754
L2C LOAD TRANSLATION DATA	ACCESS:       1875  HIT:        492  MISS:       1383  HIT %:      26.24  MISS %:      73.76  MPKI: 0.02766
L2C TRANSLATION FROM L1D PREFETCHER DATA	ACCESS:         28  HIT:         22  MISS:          6  HIT %:    78.5714  MISS %:    21.4286  MPKI: 0.00012

L2C PREFETCH  REQUESTED:      92116  ISSUED:      92116  USEFUL:       8088  USELESS:      66526
L2C USEFUL LOAD PREFETCHES:       8088 PREFETCH ISSUED TO LOWER LEVEL:      74484  ACCURACY: 10.8587
 TIMELY PREFETCHES:       8088 LATE PREFETCHES: 360 DROPPED PREFETCHES: 0
L2C AVERAGE MISS LATENCY: 37.7009 cycles
L2C RQ	ACCESS:    3792227	FORWARD:          0	MERGED:          0	TO_CACHE:    3792159
L2C WQ	ACCESS:     525018	FORWARD:         68	MERGED:          0	TO_CACHE:     525018
L2C PQ	ACCESS:     205792	FORWARD:          0	MERGED:       3194	TO_CACHE:     202598

L2C Dense regions hint from L2: 0
PSCL5 TOTAL     ACCESS:       4122  HIT:       2061  MISS:       2061  HIT %:         50  MISS %:         50   MPKI: 0.04122
PSCL5 LOAD TRANSLATION INSTRUCTION	ACCESS:       4068  HIT:       2034  MISS:       2034  HIT %:         50  MISS %:         50  MPKI: 0.04068
PSCL5 TRANSLATION FROM L1D PREFETCHER INSTRUCTION	ACCESS:         54  HIT:         27  MISS:         27  HIT %:         50  MISS %:         50  MPKI: 0.00054


PSCL4 TOTAL     ACCESS:       3903  HIT:       1944  MISS:       1959  HIT %:    49.8078  MISS %:    50.1922   MPKI: 0.03918
PSCL4 LOAD TRANSLATION INSTRUCTION	ACCESS:       2823  HIT:       1917  MISS:        906  HIT %:    67.9065  MISS %:    32.0935  MPKI: 0.01812
PSCL4 TRANSLATION FROM L1D PREFETCHER INSTRUCTION	ACCESS:         43  HIT:         27  MISS:         16  HIT %:    62.7907  MISS %:    37.2093  MPKI: 0.00032
PSCL4 LOAD TRANSLATION DATA	ACCESS:       1026  HIT:          0  MISS:       1026  HIT %:          0  MISS %:        100  MPKI: 0.02052
PSCL4 TRANSLATION FROM L1D PREFETCHER DATA	ACCESS:         11  HIT:          0  MISS:         11  HIT %:          0  MISS %:        100  MPKI: 0.00022


PSCL3 TOTAL     ACCESS:       4019  HIT:       2002  MISS:       2017  HIT %:    49.8134  MISS %:    50.1866   MPKI: 0.04034
PSCL3 LOAD TRANSLATION INSTRUCTION	ACCESS:       2881  HIT:       1975  MISS:        906  HIT %:    68.5526  MISS %:    31.4474  MPKI: 0.01812
PSCL3 TRANSLATION FROM L1D PREFETCHER INSTRUCTION	ACCESS:         43  HIT:         27  MISS:         16  HIT %:    62.7907  MISS %:    37.2093  MPKI: 0.00032
PSCL3 LOAD TRANSLATION DATA	ACCESS:       1084  HIT:          0  MISS:       1084  HIT %:          0  MISS %:        100  MPKI: 0.02168
PSCL3 TRANSLATION FROM L1D PREFETCHER DATA	ACCESS:         11  HIT:          0  MISS:         11  HIT %:          0  MISS %:        100  MPKI: 0.00022


PSCL2 TOTAL     ACCESS:       3987  HIT:       1926  MISS:       2061  HIT %:     48.307  MISS %:     51.693   MPKI: 0.04122
PSCL2 LOAD TRANSLATION INSTRUCTION	ACCESS:       2193  HIT:       1900  MISS:        293  HIT %:    86.6393  MISS %:    13.3607  MPKI: 0.00586
PSCL2 TRANSLATION FROM L1D PREFETCHER INSTRUCTION	ACCESS:         26  HIT:         26  MISS:          0  HIT %:        100  MISS %:          0  MPKI: 0
PSCL2 LOAD TRANSLATION DATA	ACCESS:       1742  HIT:          0  MISS:       1742  HIT %:          0  MISS %:        100  MPKI: 0.03484
PSCL2 TRANSLATION FROM L1D PREFETCHER DATA	ACCESS:         26  HIT:          0  MISS:         26  HIT %:          0  MISS %:        100  MPKI: 0.00052


LLC TOTAL     ACCESS:     589656  HIT:     560612  MISS:      29044  HIT %:    95.0744  MISS %:    4.92558   MPKI: 0.58088
LLC LOAD INSTRUCTION	ACCESS:     299748  HIT:     298727  MISS:       1021  HIT %:    99.6594  MISS %:   0.340619  MPKI: 0.02042
LLC LOAD TRANSLATION INSTRUCTION	ACCESS:        236  HIT:        202  MISS:         34  HIT %:    85.5932  MISS %:    14.4068  MPKI: 0.00068
LLC LOAD DATA	ACCESS:      74202  HIT:      70665  MISS:       3537  HIT %:    95.2333  MISS %:    4.76672  MPKI: 0.07074
LLC RFO DATA	ACCESS:      57726  HIT:      43598  MISS:      14128  HIT %:    75.5258  MISS %:    24.4742  MPKI: 0.28256
LLC PREFETCH DATA	ACCESS:      74484  HIT:      64586  MISS:       9898  HIT %:    86.7112  MISS %:    13.2888  MPKI: 0.19796
LLC WRITEBACK DATA	ACCESS:      81871  HIT:      81539  MISS:        332  HIT %:    99.5945  MISS %:   0.405516  MPKI: 0.00664
LLC LOAD TRANSLATION DATA	ACCESS:       1383  HIT:       1289  MISS:         94  HIT %:    93.2032  MISS %:    6.79682  MPKI: 0.00188
LLC TRANSLATION FROM L1D PREFETCHER DATA	ACCESS:          6  HIT:          6  MISS:          0  HIT %:        100  MISS %:          0  MPKI: 0

LLC AVERAGE MISS LATENCY: 156.465 cycles
LLC RQ	ACCESS:     433301	FORWARD:          0	MERGED:          0	TO_CACHE:     433301
LLC WQ	ACCESS:      81871	FORWARD:          0	MERGED:          0	TO_CACHE:      81871
LLC PQ	ACCESS:      74484	FORWARD:          0	MERGED:          0	TO_CACHE:      74484

LLC Dense regions hint to LLC: 0

RAW hits: 1566338
Loads Generated: 12614643
Loads sent to L1D: 11048305
Stores Generated: 6921284
Stores sent to L1D: 6921301
Major fault: 0 Minor fault: 2641
Allocated PAGES: 2641

stream: 
stream:times selected: 1229431
stream:pref_filled: 126234
stream:pref_useful: 28433
stream:pref_late: 8087
stream:misses: 8790
stream:misses_by_poll: 0

CS: 
CS:times selected: 193368
CS:pref_filled: 71552
CS:pref_useful: 47018
CS:pref_late: 8439
CS:misses: 20990
CS:misses_by_poll: 10

CPLX: 
CPLX:times selected: 1035003
CPLX:pref_filled: 23997
CPLX:pref_useful: 6818
CPLX:pref_late: 3906
CPLX:misses: 119381
CPLX:misses_by_poll: 2

NL_L1: 
NL:times selected: 12475
NL:pref_filled: 1481
NL:pref_useful: 260
NL:pref_late: 186
NL:misses: 1509
NL:misses_by_poll: 0

total selections: 2470277
total_filled: 102657
total_useful: 43639
total_late: 22502
total_polluted: 12
total_misses_after_warmup: 792722
conflicts: 5730688

test: 116539

DRAM Statistics
 CHANNEL 0
 RQ ROW_BUFFER_HIT:      10746  ROW_BUFFER_MISS:      17961
 DBUS_CONGESTED:         16
 WQ ROW_BUFFER_HIT:       1461  ROW_BUFFER_MISS:      12521  FULL:          0

 AVG_CONGESTED_CYCLE: 5

CPU 0 Branch Prediction Accuracy: 99.8213% MPKI: 0.32708 Average ROB Occupancy at Mispredict: 95.4719
Branch types
NOT_BRANCH: 40846356 81.6927%
BRANCH_DIRECT_JUMP: 546037 1.09207%
BRANCH_INDIRECT: 181869 0.363738%
BRANCH_CONDITIONAL: 6199831 12.3997%
BRANCH_DIRECT_CALL: 941168 1.88234%
BRANCH_INDIRECT_CALL: 171552 0.343104%
BRANCH_RETURN: 1112699 2.2254%
BRANCH_OTHER: 0 0%

DRAM PAGES: 1048576
Allocated PAGES: 2641
Average_ROB_Occupancy: 93.5231
Average_Decode_Occupancy: 10.7654
Average_FTQ_Occupancy: 5.48026
Indirect max targets: 14 Average targets: 1.17445
Branch_type:  BRANCH_DIRECT_JUMP:  Count Percentage: 3.30547 6.32296 3.6662 7.38011 3.46413 6.02123 1.59466 68.2452 
Branch_type:  BRANCH_INDIRECT:  Count Percentage: 6.14916 3.48055 8.1631 9.6621 3.34687 2.81024 3.88213 62.5058 
Branch_type:  BRANCH_CONDITIONAL:  Count Percentage: 25.4888 3.08377 1.42264 4.45946 2.484 3.94463 2.27458 56.8421 
Branch_type:  BRANCH_DIRECT_CALL:  Count Percentage: 0.388825 1.27653 0.72773 3.53498 3.54818 2.62093 3.16808 84.7347 
Branch_type:  BRANCH_INDIRECT_CALL:  Count Percentage: 9.5639 0 2.99891 0.00263396 0.901107 1.71646 4.99516 79.8218 
Branch_type:  BRANCH_RETURN:  Count Percentage: 8.27087 1.10028 1.0315 3.52479 4.50714 4.19308 2.7826 74.5897 
Branch_type:  BRANCH_DIRECT_JUMP:  Total Count: 36086 69028 40024 80569 37818 65734 17409 745036 
Branch_type:  BRANCH_INDIRECT:  Total Count: 22402 12680 29739 35200 12193 10238 14143 227715 
Branch_type:  BRANCH_CONDITIONAL:  Total Count: 3159611 382266 176351 552797 307918 488979 281958 7046181 
Branch_type:  BRANCH_DIRECT_CALL:  Total Count: 7306 23986 13674 66422 66670 49247 59528 1592160 
Branch_type:  BRANCH_INDIRECT_CALL:  Total Count: 32679 0 10247 9 3079 5865 17068 272744 
Branch_type:  BRANCH_RETURN:  Total Count: 183739 24443 22915 78304 100127 93150 61816 1657026 
Number of unique branch instructions: 10640
Upper 32 bits: 
aaaa
ffff
ffff0000
Unique upper 32 bits: 3
Unique upper 36 bits: 3
Unique upper 40 bits: 5
Unique upper 44 bits: 32
Unique upper 48 bits: 160
Offset_3 4390
Offset_4 270
Offset_5 480
Offset_6 533
Offset_7 625
Offset_8 567
Offset_9 515
Offset_10 419
Offset_11 332
Offset_12 303
Offset_13 227
Offset_14 234
Offset_15 194
Offset_16 226
Offset_17 163
Offset_18 144
Offset_19 256
Offset_20 143
Offset_21 261
Offset_22 400
Offset_23 241
Offset_24 362
Offset_25 114
Offset_47 96
Offset_64 1
decode_dispatch_called: 20801986 43.5006
Dispatch_width: 0 10503515 50.4928 21.9647
Dispatch_width: 1 620190 2.9814 1.29692
Dispatch_width: 2 804473 3.86729 1.68229
Dispatch_width: 3 558190 2.68335 1.16727
Dispatch_width: 4 1685137 8.10085 3.52391
Dispatch_width: 5 427474 2.05497 0.893922
Dispatch_width: 6 6203007 29.8193 12.9716
Empty_decode_cycles: 27018053 56.4994
ROB_full_cycles: 1684377 3.52232
Starvation_cycles_per_kilo_instr: 399.327
Starvation_cycles_per_kilo_instr_3: 378.2
Starvation_cycles_per_kilo_instr_0: 358.372
Branch_type_1  (3,1)  (4,10)  (5,41)  (6,73)  (7,124)  (8,146)  (9,138)  (10,109)  (11,74)  (12,47)  (13,11)  (14,2)  (15,3)  (16,4)  (18,1)  (19,5)  (20,2)  (21,1)  (22,3)  (23,2)  (24,11)  (25,12) 
Branch_type_2  (3,1)  (4,1)  (5,1)  (8,4)  (9,4)  (10,1)  (12,1)  (13,1)  (14,1)  (16,3)  (17,2)  (20,2)  (21,2)  (23,5)  (24,1)  (47,44) 
Branch_type_3  (3,4388)  (4,259)  (5,434)  (6,444)  (7,470)  (8,351)  (9,282)  (10,169)  (11,128)  (12,54)  (13,10)  (64,1) 
Branch_type_4  (6,3)  (7,8)  (8,25)  (9,57)  (10,66)  (11,68)  (12,110)  (13,96)  (14,105)  (15,92)  (16,99)  (17,76)  (18,61)  (19,123)  (20,73)  (21,141)  (22,209)  (23,136)  (24,208)  (25,98) 
Branch_type_5  (8,3)  (9,1)  (10,4)  (11,5)  (12,3)  (13,14)  (14,16)  (15,11)  (16,22)  (17,11)  (18,23)  (19,15)  (20,12)  (21,13)  (22,43)  (23,26)  (24,42) 
Branch_type_6  (5,4)  (6,13)  (7,23)  (8,38)  (9,33)  (10,70)  (11,57)  (12,88)  (13,95)  (14,110)  (15,88)  (16,98)  (17,74)  (18,59)  (19,113)  (20,54)  (21,104)  (22,145)  (23,72)  (24,100)  (25,4)  (47,52) 
aaaaab1fc620: 2ac9e77e 2aca717c 2aca8eff 2acaf6bc 2acaf9aa 2acaf9f1 2acb1abc 2acb1b7f 2acd4e22 2acdb712 2acf5f9e 2ad0ef44 2ad3f15c 2ad414e6 2ad60e42 2ad8609c 2ad99830 2ada35cc 2ada4676 2ada6612 2adf183e 2adf30e5 2adf5602 2adf785c 2ae11572 2aeb2dcf 2aee101b 2aee1ae1 2aee9456 2b156a8c 2b156b61 2b156bea 2b167f35 2b177656 2b17feec 2b1a3e5a 
aaaaab1fc640: 2ac9ec07 2aca656e 2aca801d 2acaea11 2acaee73 2acb13ee 2acb1470 2acd462b 2ad0ef5d 2ad3f3fe 2ad86e9b 2ada1641 2ada4115 2ada6638 2adf30d4 2ae12e57 2aee1033 2b1693ab 2b16948c 2b169491 2b17d915 2b17fa85 2b17fccd 
aaaaab1fc740: 2aca1fb0 2aca45b3 2aca5aa1 2aca5c69 2aca66f9 2aca9426 2acaeecb 2acf3d2d 2acf3d64 2acf6089 2ad017ea 2ad5e7ef 2ad61064 2ad87373 2ad9bf84 2ad9c093 2ae9b606 2aea9ffa 2aee99f5 2aee9a2c 2aeece4b 
aaaaab1fcb00: 2acf2d72 2acf3734 2acf604c 2acfa5b7 2ad397b5 2ad3b800 2ae8af7d 2ae8aff0 2ae9aaba 2aea9fc6 2aeaa358 2aee910b 2aee91cf 2aee928e 2aee92e4 2aee99de 2af6fe87 2af70dfe 2b16850c 2b16c4a2 2b1765f4 2b178094 2b17d925 2b17db06 
aaaaab1fcb10: 2acf2d95 2acf3758 2acf6052 2acfa5f4 2ad397c3 2ad3b81c 2ae8af88 2ae8affe 2ae9aacf 2aeaa017 2aeaa36d 2aee9114 2aee91d8 2aee934d 2aee9353 2aee9a14 2af6fe8c 2af70e22 2b168526 2b16c542 2b176609 2b1780a3 2b17d95d 2b17db44 
aaaaac68f310: 2ac9ec8c 2ac9fb44 2ac9fbd2 2aca59ab 2acac04c 2acaf6e0 2acaf6ec 2acaf6f9 2acaf700 2acaf708 2acf2d90 2ad3cfbd 2ad3cfc4 2ad3d000 2ad3f35f 2ad4955d 2ad49571 2ad4f3f2 2ad4f400 2ad5f240 2ad5f37c 2ad5f86a 2ad5f86f 2ad5f880 2ad5fc0d 2ad5fc14 2ad5fc21 2ad5fe1b 2ad873bb 2ad873e3 2ad8a6b2 2ad9086e 2ad93096 2ad9bbb2 2ada152c 2ada1554 2ada3332 2ada5522 2adf3130 2adf313c 2adf3a3f 2adf3bd9 2adf5788 2adf7a8d 2ae07f6b 2ae0857a 2ae0857e 2ae08630 2ae08634 2ae08637 2ae08642 2ae0866f 2ae086e4 2ae086ec 2ae08717 2ae0871b 2aee0170 2aee1d38 2aee75f4 2aee7662 2aee85ca 2aee85e4 2aee8eef 2aee9a0a 2af70b84 2af74e8f 2b17d843 
aaaaac690ef0: 2aca598b 2acb111b 2acb175f 2acb1772 2acbfaf4 2acbfb00 2acf374f 2acf6d43 2acfa5c8 2ad3baf1 2ad3d4ac 2ad3d4b8 2ad3f1cf 2ad486b2 2ad5a59b 2ad5fc64 2ad5fcf9 2ad6121c 2ad906e9 2ad907bf 2ad9bada 2ada16ce 2ada1ad5 2ada43df 2ada64c0 2ada72ee 2adeb71a 2adf3bcb 2adf7a38 2adf7c6a 2adf8872 2adf8880 2adf9959 2adf9abe 2ae07f78 2ae08503 2ae08754 2ae12e80 2aea3bea 2aecb509 2aee00b0 2aee2bdd 2aee5467 2aee5601 2aee8f20 2af703fd 2af7048b 2af74e74 2dfba627 
Unique trigger count: 
1 10143
2 549
3 84
4 34
5 16
6 9
7 7
8 2
9 3
10 2
11 2
12 1
13 1
14 2
16 2
19 1
21 1
23 1
24 2
36 1
49 1
67 1
BTB PER SET UNIQUE ADDR: 11 17 10 9 5 16 15 20 17 6 14 7 19 15 11 12 15 12 13 15 9 17 12 15 14 12 7 11 11 14 21 13 15 9 18 16 18 19 14 12 15 13 9 16 18 11 13 15 21 11 15 9 18 9 14 16 15 12 16 12 15 22 12 15 12 23 12 18 20 12 8 8 11 8 9 21 14 21 13 15 12 14 13 11 15 14 13 15 20 15 20 18 16 12 12 14 18 13 14 15 15 12 17 14 13 14 13 15 16 12 17 9 9 19 15 19 7 13 14 9 15 17 11 9 12 10 11 10 21 14 16 9 14 7 16 13 14 10 14 12 19 12 13 8 12 16 11 16 23 10 13 25 14 18 13 15 13 20 13 18 16 16 22 14 17 13 11 10 22 18 14 11 15 15 11 11 14 13 13 12 8 12 15 16 18 19 12 15 10 20 9 13 13 18 10 14 16 9 18 12 10 11 14 11 19 10 6 15 11 5 9 9 13 12 10 16 6 21 17 16 14 5 13 14 15 11 20 11 8 18 19 19 8 10 12 13 16 12 10 7 9 10 11 13 21 20 10 11 12 13 14 17 13 14 19 17 10 9 19 12 8 11 15 9 15 24 9 9 15 11 11 13 14 17 18 15 10 11 7 18 13 13 15 18 21 14 12 11 21 8 15 10 11 16 14 14 9 16 10 10 12 10 10 10 7 9 11 14 18 13 17 8 13 9 12 8 14 20 15 8 14 15 15 13 9 11 13 15 9 6 16 8 10 16 17 10 13 10 16 9 12 16 9 19 14 11 12 12 17 14 10 15 23 13 14 14 17 12 12 11 13 20 13 10 13 14 11 8 9 11 14 11 15 10 15 9 15 14 15 14 14 15 13 15 16 16 13 8 20 13 15 11 17 11 14 13 12 14 12 16 12 9 11 15 10 12 17 12 14 10 15 10 21 13 9 11 14 17 8 11 13 16 13 15 20 17 7 11 12 17 11 8 22 13 17 17 15 12 16 8 18 13 14 9 16 22 12 16 11 10 17 9 8 13 19 13 16 13 12 10 8 12 17 16 13 10 15 10 19 13 7 11 15 14 9 9 19 12 10 11 12 14 8 14 9 18 15 9 11 7 17 10 12 16 8 20 10 14 14 8 20 10 15 8 11 9 8 11 16 13 20 9 
BTB PER SET COUNT: 11 25 11 9 5 16 16 519 21 1470 16 456 60 15 11 15 15 13 14 1481 9 29 15 504 15 13 9 12 1473 15 1852 384 17 10 22 25 2952 2423 18 14 19 16 12 19 3790 12 14 15 5242 12 15 9 3445 9 15 21 17 14 16 101 17 6006 12 15 12 4039 13 29 4867 43 8 8 1474 8 12 5850 501 72 14 18 12 988 990 12 502 14 14 15 41 18 3823 517 16 2934 13 18 23 16 16 19 15 13 26 16 992 16 13 16 17 766 383 10 1471 71 15 2823 10 13 501 1471 18 23 11 10 501 10 12 11 4928 16 503 10 14 8 18 13 502 10 15 13 34 14 14 8 13 20 1474 19 14741 10 14 9253 14 5363 2946 992 13 60 503 26 17 20 7577 989 510 1966 618 10 7806 511 15 986 14656 1109 11 1840 1477 502 989 989 8 12 15 16 24 24 13 45 10 64 9 14 163 1002 10 1483 991 1472 154 12 12 12 990 14 1500 787 6 2454 16 5 10 11 14 14 11 624 6 5960 18 16 990 5 13 14 16 11 784 1992 10 1504 265 4389 8 12 500 14 17 984 11 7 11 538 11 13 1729 5016 10 988 12 13 990 18 13 15 76 20 12 9 59 13 9 113 18 1472 1477 9597 983 9 15 15 14 15 18 59 82 16 416 11 8 105 15 14 225 33 6016 987 12 11 134 8 200 13 2447 1480 19 20 12 84 10 10 12 499 11 13 8 9 13 14 22 13 20 425 14 13 987 8 14 6334 16 9 14 15 29 17 10 11 17 16 190 6 993 1472 10 25 1000 10 990 10 16 9 13 18 9 1528 989 11 13 18 19 17 10 18 7788 1962 16 993 25 13 12 47 13 54 13 10 16 15 13 8 10 11 16 12 15 14 15 9 16 16 17 14 14 17 13 149 18 16 17 8 2402 17 141 68 19 14 15 15 1475 24 14 17 12 10 14 16 11 988 2941 13 14 2326 24 10 574 15 983 15 149 18 11 1928 14 504 14 17 6930 27 10 12 12 23 144 983 2657 14 28 269 16 12 21 9 477 15 19 10 24 3438 16 991 11 498 25 9 9 15 52 14 16 13 499 10 983 377 31 17 1008 11 17 11 62 14 495 12 45 507 124 11 20525 12 10 14 12 16 8 501 9 450 276 395 11 7 47 10 13 16 8 31 10 16 1962 8 8014 381 1227 9 12 12 8 13 1494 18 794 11 
