
*** ChampSim Multicore Out-of-Order Simulator ***

Warmup Instructions: 50000000
Simulation Instructions: 50000000
Number of CPUs: 1
LLC sets: 2048
LLC ways: 16
Off-chip DRAM Size: 4096 MB Channels: 1 Width: 64-bit Data Rate: 6400 MT/s
CPU 0 runs ./micro_traces/srv67.trace.gz
.gz
ITLB has LRU replacement policy
DTLB has LRU replacement policy
STLB has LRU replacement policy
CPU 0 L1I next line prefetcher
./conditional/srv67.cond
L1I has LRU replacement policy
L1D has LRU replacement policy
Initialize SRRIP state for L2C
Initialize DRRIP state for LLC
Heartbeat_Variant_0 : 1296 0.158203 per_variant_size: 0 1296 0 0 0 0 0 0 0 
Heartbeat_Variant_1 : 1359 0.165894 per_variant_size: 0 939 420 0 0 0 0 0 0 
Heartbeat_Variant_2 : 1617 0.197388 per_variant_size: 0 951 422 214 30 0 0 0 0 
Heartbeat_Variant_3 : 0 0 per_variant_size: 0 0 0 0 0 0 0 0 0 
Heartbeat_Variant_0_evicts 0 : 5494 1 : 1 2 : 0 3 : 0 
Heartbeat_Variant_1_evicts 0 : 0 1 : 0 2 : 253 3 : 0 
Heartbeat_Variant_2_evicts 0 : 2 1 : 249 2 : 0 3 : 0 
Heartbeat_Variant_3_evicts 0 : 0 1 : 0 2 : 0 3 : 0 
Heartbeat CPU 0 instructions: 10000000 cycles: 2796025 heartbeat IPC: 3.57651 cumulative IPC: 3.57651 (Simulation time: 0 hr 2 min 1 sec) 
Heartbeat_Variant_0 : 1389 0.169556 per_variant_size: 0 1389 0 0 0 0 0 0 0 
Heartbeat_Variant_1 : 1447 0.176636 per_variant_size: 0 968 479 0 0 0 0 0 0 
Heartbeat_Variant_2 : 1730 0.211182 per_variant_size: 0 994 450 242 44 0 0 0 0 
Heartbeat_Variant_3 : 0 0 per_variant_size: 0 0 0 0 0 0 0 0 0 
Heartbeat_Variant_0_evicts 0 : 5615 1 : 2 2 : 2 3 : 0 
Heartbeat_Variant_1_evicts 0 : 0 1 : 0 2 : 237 3 : 0 
Heartbeat_Variant_2_evicts 0 : 2 1 : 239 2 : 0 3 : 0 
Heartbeat_Variant_3_evicts 0 : 0 1 : 0 2 : 0 3 : 0 
Heartbeat CPU 0 instructions: 20000003 cycles: 5591464 heartbeat IPC: 3.57726 cumulative IPC: 3.57688 (Simulation time: 0 hr 3 min 41 sec) 
Heartbeat_Variant_0 : 1389 0.169556 per_variant_size: 0 1389 0 0 0 0 0 0 0 
Heartbeat_Variant_1 : 1449 0.17688 per_variant_size: 0 969 480 0 0 0 0 0 0 
Heartbeat_Variant_2 : 1729 0.21106 per_variant_size: 0 992 451 258 28 0 0 0 0 
Heartbeat_Variant_3 : 0 0 per_variant_size: 0 0 0 0 0 0 0 0 0 
Heartbeat_Variant_0_evicts 0 : 5494 1 : 0 2 : 0 3 : 0 
Heartbeat_Variant_1_evicts 0 : 0 1 : 0 2 : 249 3 : 0 
Heartbeat_Variant_2_evicts 0 : 0 1 : 248 2 : 0 3 : 0 
Heartbeat_Variant_3_evicts 0 : 0 1 : 0 2 : 0 3 : 0 
Heartbeat CPU 0 instructions: 30000000 cycles: 8387556 heartbeat IPC: 3.57642 cumulative IPC: 3.57673 (Simulation time: 0 hr 5 min 21 sec) 
Heartbeat_Variant_0 : 1392 0.169922 per_variant_size: 0 1392 0 0 0 0 0 0 0 
Heartbeat_Variant_1 : 1460 0.178223 per_variant_size: 0 974 486 0 0 0 0 0 0 
Heartbeat_Variant_2 : 1733 0.211548 per_variant_size: 0 993 453 248 39 0 0 0 0 
Heartbeat_Variant_3 : 0 0 per_variant_size: 0 0 0 0 0 0 0 0 0 
Heartbeat_Variant_0_evicts 0 : 5589 1 : 0 2 : 0 3 : 0 
Heartbeat_Variant_1_evicts 0 : 0 1 : 0 2 : 242 3 : 0 
Heartbeat_Variant_2_evicts 0 : 0 1 : 242 2 : 0 3 : 0 
Heartbeat_Variant_3_evicts 0 : 0 1 : 0 2 : 0 3 : 0 
Heartbeat CPU 0 instructions: 40000001 cycles: 11183246 heartbeat IPC: 3.57693 cumulative IPC: 3.57678 (Simulation time: 0 hr 7 min 4 sec) 
Heartbeat_Variant_0 : 1392 0.169922 per_variant_size: 0 1392 0 0 0 0 0 0 0 
Heartbeat_Variant_1 : 1462 0.178467 per_variant_size: 0 975 487 0 0 0 0 0 0 
Heartbeat_Variant_2 : 1732 0.211426 per_variant_size: 0 991 454 248 39 0 0 0 0 
Heartbeat_Variant_3 : 0 0 per_variant_size: 0 0 0 0 0 0 0 0 0 
Heartbeat_Variant_0_evicts 0 : 5504 1 : 0 2 : 0 3 : 0 
Heartbeat_Variant_1_evicts 0 : 0 1 : 0 2 : 250 3 : 0 
Heartbeat_Variant_2_evicts 0 : 0 1 : 249 2 : 0 3 : 0 
Heartbeat_Variant_3_evicts 0 : 0 1 : 0 2 : 0 3 : 0 
Heartbeat CPU 0 instructions: 50000000 cycles: 13978750 heartbeat IPC: 3.57717 cumulative IPC: 3.57686 (Simulation time: 0 hr 8 min 44 sec) 

Warmup complete CPU 0 instructions: 50000004 cycles: 13978751 (Simulation time: 0 hr 8 min 44 sec) 

Cycle: 20000000 FTQ IN: 58169394 FTQ occupancy: 19.7618 DECODE IN: 58169325 DECODE occupancy: 51.7926 ROB IN: 58169265 ROB occupancy: 313.983 ROB OUT: 58168917
Heartbeat_Variant_0 : 1394 0.170166 per_variant_size: 0 1394 0 0 0 0 0 0 0 
Heartbeat_Variant_1 : 1466 0.178955 per_variant_size: 0 973 493 0 0 0 0 0 0 
Heartbeat_Variant_2 : 1739 0.21228 per_variant_size: 0 997 452 230 60 0 0 0 0 
Heartbeat_Variant_3 : 0 0 per_variant_size: 0 0 0 0 0 0 0 0 0 
Heartbeat_Variant_0_evicts 0 : 5650 1 : 0 2 : 0 3 : 0 
Heartbeat_Variant_1_evicts 0 : 0 1 : 0 2 : 234 3 : 0 
Heartbeat_Variant_2_evicts 0 : 0 1 : 235 2 : 0 3 : 0 
Heartbeat_Variant_3_evicts 0 : 0 1 : 0 2 : 0 3 : 0 
Heartbeat CPU 0 instructions: 60000003 cycles: 21342282 heartbeat IPC: 1.35804 cumulative IPC: 1.35804 (Simulation time: 0 hr 10 min 35 sec) 
Heartbeat_Variant_0 : 1394 0.170166 per_variant_size: 0 1394 0 0 0 0 0 0 0 
Heartbeat_Variant_1 : 1471 0.179565 per_variant_size: 0 974 497 0 0 0 0 0 0 
Heartbeat_Variant_2 : 1741 0.212524 per_variant_size: 0 996 454 235 56 0 0 0 0 
Heartbeat_Variant_3 : 0 0 per_variant_size: 0 0 0 0 0 0 0 0 0 
Heartbeat_Variant_0_evicts 0 : 5625 1 : 0 2 : 0 3 : 0 
Heartbeat_Variant_1_evicts 0 : 0 1 : 0 2 : 242 3 : 0 
Heartbeat_Variant_2_evicts 0 : 0 1 : 242 2 : 0 3 : 0 
Heartbeat_Variant_3_evicts 0 : 0 1 : 0 2 : 0 3 : 0 
Heartbeat CPU 0 instructions: 70000000 cycles: 28639103 heartbeat IPC: 1.37046 cumulative IPC: 1.36422 (Simulation time: 0 hr 12 min 25 sec) 
Cycle: 30000000 FTQ IN: 13721915 FTQ occupancy: 12.174 DECODE IN: 13721972 DECODE occupancy: 32.8703 ROB IN: 13722032 ROB occupancy: 236.396 ROB OUT: 13722312
Heartbeat_Variant_0 : 1394 0.170166 per_variant_size: 0 1394 0 0 0 0 0 0 0 
Heartbeat_Variant_1 : 1471 0.179565 per_variant_size: 0 972 499 0 0 0 0 0 0 
Heartbeat_Variant_2 : 1741 0.212524 per_variant_size: 0 995 455 233 58 0 0 0 0 
Heartbeat_Variant_3 : 0 0 per_variant_size: 0 0 0 0 0 0 0 0 0 
Heartbeat_Variant_0_evicts 0 : 5604 1 : 0 2 : 0 3 : 0 
Heartbeat_Variant_1_evicts 0 : 0 1 : 0 2 : 239 3 : 0 
Heartbeat_Variant_2_evicts 0 : 0 1 : 239 2 : 0 3 : 0 
Heartbeat_Variant_3_evicts 0 : 0 1 : 0 2 : 0 3 : 0 
Heartbeat CPU 0 instructions: 80000002 cycles: 35957700 heartbeat IPC: 1.36638 cumulative IPC: 1.36494 (Simulation time: 0 hr 14 min 16 sec) 
Cycle: 40000000 FTQ IN: 13619816 FTQ occupancy: 12.2983 DECODE IN: 13619828 DECODE occupancy: 32.9941 ROB IN: 13619828 ROB occupancy: 237.473 ROB OUT: 13619713
Heartbeat_Variant_0 : 1396 0.17041 per_variant_size: 0 1396 0 0 0 0 0 0 0 
Heartbeat_Variant_1 : 1475 0.180054 per_variant_size: 0 974 501 0 0 0 0 0 0 
Heartbeat_Variant_2 : 1744 0.212891 per_variant_size: 0 991 457 245 51 0 0 0 0 
Heartbeat_Variant_3 : 0 0 per_variant_size: 0 0 0 0 0 0 0 0 0 
Heartbeat_Variant_0_evicts 0 : 5584 1 : 0 2 : 0 3 : 0 
Heartbeat_Variant_1_evicts 0 : 0 1 : 0 2 : 247 3 : 0 
Heartbeat_Variant_2_evicts 0 : 0 1 : 247 2 : 0 3 : 0 
Heartbeat_Variant_3_evicts 0 : 0 1 : 0 2 : 0 3 : 0 
Heartbeat CPU 0 instructions: 90000002 cycles: 43259456 heartbeat IPC: 1.36953 cumulative IPC: 1.36609 (Simulation time: 0 hr 16 min 12 sec) 
Cycle: 50000000 FTQ IN: 13692484 FTQ occupancy: 12.3998 DECODE IN: 13692484 DECODE occupancy: 33.1185 ROB IN: 13692484 ROB occupancy: 236.625 ROB OUT: 13692665
Heartbeat_Variant_0 : 1397 0.170532 per_variant_size: 0 1397 0 0 0 0 0 0 0 
Heartbeat_Variant_1 : 1475 0.180054 per_variant_size: 0 975 500 0 0 0 0 0 0 
Heartbeat_Variant_2 : 1745 0.213013 per_variant_size: 0 992 457 248 48 0 0 0 0 
Heartbeat_Variant_3 : 0 0 per_variant_size: 0 0 0 0 0 0 0 0 0 
Heartbeat_Variant_0_evicts 0 : 5651 1 : 0 2 : 0 3 : 0 
Heartbeat_Variant_1_evicts 0 : 0 1 : 0 2 : 238 3 : 0 
Heartbeat_Variant_2_evicts 0 : 0 1 : 238 2 : 0 3 : 0 
Heartbeat_Variant_3_evicts 0 : 0 1 : 0 2 : 0 3 : 0 
Heartbeat CPU 0 instructions: 100000000 cycles: 50577810 heartbeat IPC: 1.36643 cumulative IPC: 1.36616 (Simulation time: 0 hr 17 min 53 sec) 
Finished CPU 0 instructions: 50000000 cycles: 36599060 cumulative IPC: 1.36616 (Simulation time: 0 hr 17 min 53 sec) 

ChampSim completed all CPUs

Region of Interest Statistics

CPU 0 cumulative IPC: 1.36616 instructions: 50000000 cycles: 36599060
 Fetch stage stalled: 55.1713  Sim cycles: 36599060 fetch stall cycle: 20192187
 Empty decode stage: 35.8348  Sim cycles: 36599060 fetch stall cycle: 13115205
ITLB TOTAL     ACCESS:    6900570  HIT:    6399625  MISS:     500945  HIT %:    92.7405  MISS %:    7.25947   MPKI: 10.0189
ITLB LOAD TRANSLATION INSTRUCTION	ACCESS:    5684702  HIT:    5202572  MISS:     482130  HIT %:    91.5188  MISS %:    8.48118  MPKI: 9.6426
ITLB TRANSLATION FROM L1D PREFETCHER INSTRUCTION	ACCESS:    1215868  HIT:    1197053  MISS:      18815  HIT %:    98.4525  MISS %:    1.54745  MPKI: 0.3763

ITLB AVERAGE MISS LATENCY: 66557.4 cycles
ITLB RQ	ACCESS:   10111291	FORWARD:          0	MERGED:    2742189	TO_CACHE:    7369102

DTLB TOTAL     ACCESS:    8957552  HIT:    8492543  MISS:     465009  HIT %:    94.8087  MISS %:    5.19125   MPKI: 9.30018
DTLB LOAD TRANSLATION DATA	ACCESS:    8957552  HIT:    8492543  MISS:     465009  HIT %:    94.8087  MISS %:    5.19125  MPKI: 9.30018

DTLB AVERAGE MISS LATENCY: 9.37408 cycles
DTLB RQ	ACCESS:   13323880	FORWARD:          0	MERGED:    4329263	TO_CACHE:    8994617

STLB TOTAL     ACCESS:    1221151  HIT:    1219100  MISS:       2051  HIT %:     99.832  MISS %:   0.167956   MPKI: 0.04102
STLB LOAD TRANSLATION INSTRUCTION	ACCESS:     481101  HIT:     480856  MISS:        245  HIT %:    99.9491  MISS %:  0.0509249  MPKI: 0.0049
STLB TRANSLATION FROM L1D PREFETCHER INSTRUCTION	ACCESS:      19844  HIT:      19821  MISS:         23  HIT %:    99.8841  MISS %:   0.115904  MPKI: 0.00046
STLB LOAD TRANSLATION DATA	ACCESS:     465008  HIT:     463240  MISS:       1768  HIT %:    99.6198  MISS %:   0.380209  MPKI: 0.03536
STLB TRANSLATION FROM L1D PREFETCHER DATA	ACCESS:     255198  HIT:     255183  MISS:         15  HIT %:    99.9941  MISS %: 0.00587779  MPKI: 0.0003

STLB AVERAGE MISS LATENCY: 80.7499 cycles
STLB RQ	ACCESS:    1375921	FORWARD:          0	MERGED:     130881	TO_CACHE:    1245040

STLB Hit, L1D data hit: 0
STLB Hit, L2C data hit: 0
STLB Hit, LLC data hit: 0
STLB Hit, LLC data miss: 0
STLB STLB hints to L2: 0
L1D TOTAL     ACCESS:   13061033  HIT:   11935699  MISS:    1125334  HIT %:     91.384  MISS %:    8.61596   MPKI: 22.5067
L1D LOAD DATA	ACCESS:    6554474  HIT:    5814776  MISS:     739698  HIT %:    88.7146  MISS %:    11.2854  MPKI: 14.794
L1D RFO DATA	ACCESS:    6171057  HIT:    5884106  MISS:     286951  HIT %:    95.3501  MISS %:    4.64995  MPKI: 5.73902
L1D PREFETCH DATA	ACCESS:     335502  HIT:     236817  MISS:      98685  HIT %:    70.5859  MISS %:    29.4141  MPKI: 1.9737

L1D PREFETCH  REQUESTED:     772559  ISSUED:     772559  USEFUL:      39804  USELESS:      70205
L1D USEFUL LOAD PREFETCHES:      39804 PREFETCH ISSUED TO LOWER LEVEL:     110132  ACCURACY: 36.1421
 TIMELY PREFETCHES:      39804 LATE PREFETCHES: 11330 DROPPED PREFETCHES: 1
L1D AVERAGE MISS LATENCY: 328685 cycles
L1D RQ	ACCESS:   10700033	FORWARD:          0	MERGED:    3945084	TO_CACHE:    6593308
L1D WQ	ACCESS:    6927607	FORWARD:     161968	MERGED:     197035	TO_CACHE:    6730572
L1D PQ	ACCESS:     386443	FORWARD:          0	MERGED:          0	TO_CACHE:     386116

L1D UNIQUE REGIONS ACCESSED: 0
L1D REGIONS CONFLICTS: 0
L1D Cross Page Prefetch Requests: 5321
L1D Same Page Prefetch Requests: 778231
L1D ROI Sum of L1D PQ occupancy: 4923665
L1D PREFETCHES PUSHED FROM L2C: 0
L1I TOTAL     ACCESS:    8744445  HIT:    5455393  MISS:    3289052  HIT %:     62.387  MISS %:     37.613   MPKI: 65.781
L1I LOAD INSTRUCTION	ACCESS:    6561182  HIT:    4456968  MISS:    2104214  HIT %:    67.9293  MISS %:    32.0707  MPKI: 42.0843
L1I PREFETCH INSTRUCTION	ACCESS:    2183263  HIT:     998425  MISS:    1184838  HIT %:    45.7309  MISS %:    54.2691  MPKI: 23.6968

L1I PREFETCH  REQUESTED:    3875985  ISSUED:    3873300  USEFUL:     932815  USELESS:     482995
L1I USEFUL LOAD PREFETCHES:     932815 PREFETCH ISSUED TO LOWER LEVEL:    1415777  ACCURACY: 65.8871
 TIMELY PREFETCHES:     932815 LATE PREFETCHES: 230939 DROPPED PREFETCHES: 55967
L1I AVERAGE MISS LATENCY: 2.26846e+06 cycles
L1I RQ	ACCESS:    9498516	FORWARD:          0	MERGED:    2733884	TO_CACHE:    6764632
L1I PQ	ACCESS:    3873300	FORWARD:          0	MERGED:     526641	TO_CACHE:    3346659

L1BTB TOTAL     ACCESS:    5673242  HIT:    2065991  MISS:    3607251  HIT %:    36.4164  MISS %:    63.5836   MPKI: 72.145
L1BTB BRANCH_DIRECT_JUMP	ACCESS:     548416  HIT:     145415  MISS:     403001	AVERAGE STALL: 44.173
L1BTB BRANCH_INDIRECT	ACCESS:     183049  HIT:      66358  MISS:     116691	AVERAGE STALL: 103.352
L1BTB BRANCH_CONDITIONAL	ACCESS:    2727653  HIT:    1440851  MISS:    1286802	AVERAGE STALL: 61.0707
L1BTB BRANCH_DIRECT_CALL	ACCESS:     936625  HIT:     104444  MISS:     832181	AVERAGE STALL: 60.3497
L1BTB BRANCH_INDIRECT_CALL	ACCESS:     170435  HIT:      20878  MISS:     149557	AVERAGE STALL: 129.045
L1BTB BRANCH_RETURN	ACCESS:    1107064  HIT:     288045  MISS:     819019	AVERAGE STALL: 52.0286
L1BTB BRANCH_OTHER ACCESS:          0  HIT:          0  MISS:          0	AVERAGE STALL: -nan
L1BTB TOTAL ROB OCCUPANCY AT BTB MISS: 3.53462

L2BTB TOTAL     ACCESS:    3581803  HIT:    3503102  MISS:      78701  HIT %:    97.8028  MISS %:    2.19725   MPKI: 1.57402
L2BTB BRANCH_DIRECT_JUMP	ACCESS:     398764  HIT:     394541  MISS:       4223	AVERAGE STALL: 44.173
L2BTB BRANCH_INDIRECT	ACCESS:     106487  HIT:     103866  MISS:       2621	AVERAGE STALL: 103.352
L2BTB BRANCH_CONDITIONAL	ACCESS:    1286802  HIT:    1271378  MISS:      15424	AVERAGE STALL: 61.0707
L2BTB BRANCH_DIRECT_CALL	ACCESS:     832181  HIT:     831320  MISS:        861	AVERAGE STALL: 60.3497
L2BTB BRANCH_INDIRECT_CALL	ACCESS:     139944  HIT:     129812  MISS:      10132	AVERAGE STALL: 129.045
L2BTB BRANCH_RETURN	ACCESS:     817625  HIT:     772185  MISS:      45440	AVERAGE STALL: 52.0286
L2BTB BRANCH_OTHER ACCESS:          0  HIT:          0  MISS:          0	AVERAGE STALL: -nan
L2BTB TOTAL ROB OCCUPANCY AT BTB MISS: 162.009

L2C TOTAL     ACCESS:    5658193  HIT:    4836314  MISS:     821879  HIT %:    85.4745  MISS %:    14.5255   MPKI: 16.4376
L2C LOAD INSTRUCTION	ACCESS:    1873274  HIT:    1641599  MISS:     231675  HIT %:    87.6326  MISS %:    12.3674  MPKI: 4.6335
L2C PREFETCH INSTRUCTION	ACCESS:    1415777  HIT:    1252083  MISS:     163694  HIT %:    88.4379  MISS %:    11.5621  MPKI: 3.27388
L2C LOAD TRANSLATION INSTRUCTION	ACCESS:        284  HIT:         88  MISS:        196  HIT %:    30.9859  MISS %:    69.0141  MPKI: 0.00392
L2C TRANSLATION FROM L1D PREFETCHER INSTRUCTION	ACCESS:      33344  HIT:      22144  MISS:      11200  HIT %:    66.4107  MISS %:    33.5893  MPKI: 0.224
L2C LOAD DATA	ACCESS:     728345  HIT:     606902  MISS:     121443  HIT %:    83.3262  MISS %:    16.6738  MPKI: 2.42886
L2C RFO DATA	ACCESS:     286796  HIT:     208258  MISS:      78538  HIT %:    72.6154  MISS %:    27.3846  MPKI: 1.57076
L2C PREFETCH DATA	ACCESS:     797778  HIT:     617478  MISS:     180300  HIT %:    77.3997  MISS %:    22.6003  MPKI: 3.606
L2C WRITEBACK DATA	ACCESS:     520716  HIT:     487386  MISS:      33330  HIT %:    93.5992  MISS %:     6.4008  MPKI: 0.6666
L2C LOAD TRANSLATION DATA	ACCESS:       1854  HIT:        360  MISS:       1494  HIT %:    19.4175  MISS %:    80.5825  MPKI: 0.02988
L2C TRANSLATION FROM L1D PREFETCHER DATA	ACCESS:         25  HIT:         16  MISS:          9  HIT %:         64  MISS %:         36  MPKI: 0.00018

L2C PREFETCH  REQUESTED:    1484556  ISSUED:    1484556  USEFUL:      29094  USELESS:     329250
L2C USEFUL LOAD PREFETCHES:      29094 PREFETCH ISSUED TO LOWER LEVEL:     346446  ACCURACY: 8.39785
 TIMELY PREFETCHES:      29094 LATE PREFETCHES: 2451 DROPPED PREFETCHES: 0
L2C AVERAGE MISS LATENCY: 35.5201 cycles
L2C RQ	ACCESS:    2923984	FORWARD:          0	MERGED:          0	TO_CACHE:    2923923
L2C WQ	ACCESS:     520717	FORWARD:         61	MERGED:          0	TO_CACHE:     520717
L2C PQ	ACCESS:    3010465	FORWARD:          0	MERGED:     777401	TO_CACHE:    2233064

L2C Dense regions hint from L2: 0
PSCL5 TOTAL     ACCESS:      51810  HIT:      25905  MISS:      25905  HIT %:         50  MISS %:         50   MPKI: 0.5181
PSCL5 LOAD TRANSLATION INSTRUCTION	ACCESS:       4010  HIT:       2005  MISS:       2005  HIT %:         50  MISS %:         50  MPKI: 0.0401
PSCL5 TRANSLATION FROM L1D PREFETCHER INSTRUCTION	ACCESS:      47800  HIT:      23900  MISS:      23900  HIT %:         50  MISS %:         50  MPKI: 0.478


PSCL4 TOTAL     ACCESS:      50944  HIT:      25467  MISS:      25477  HIT %:    49.9902  MISS %:    50.0098   MPKI: 0.50954
PSCL4 LOAD TRANSLATION INSTRUCTION	ACCESS:       2769  HIT:       1922  MISS:        847  HIT %:    69.4113  MISS %:    30.5887  MPKI: 0.01694
PSCL4 TRANSLATION FROM L1D PREFETCHER INSTRUCTION	ACCESS:      35794  HIT:      23545  MISS:      12249  HIT %:    65.7792  MISS %:    34.2208  MPKI: 0.24498
PSCL4 LOAD TRANSLATION DATA	ACCESS:       1085  HIT:          0  MISS:       1085  HIT %:          0  MISS %:        100  MPKI: 0.0217
PSCL4 TRANSLATION FROM L1D PREFETCHER DATA	ACCESS:      11296  HIT:          0  MISS:      11296  HIT %:          0  MISS %:        100  MPKI: 0.22592


PSCL3 TOTAL     ACCESS:      51032  HIT:      25511  MISS:      25521  HIT %:    49.9902  MISS %:    50.0098   MPKI: 0.51042
PSCL3 LOAD TRANSLATION INSTRUCTION	ACCESS:       2813  HIT:       1966  MISS:        847  HIT %:    69.8898  MISS %:    30.1102  MPKI: 0.01694
PSCL3 TRANSLATION FROM L1D PREFETCHER INSTRUCTION	ACCESS:      35794  HIT:      23545  MISS:      12249  HIT %:    65.7792  MISS %:    34.2208  MPKI: 0.24498
PSCL3 LOAD TRANSLATION DATA	ACCESS:       1129  HIT:          0  MISS:       1129  HIT %:          0  MISS %:        100  MPKI: 0.02258
PSCL3 TRANSLATION FROM L1D PREFETCHER DATA	ACCESS:      11296  HIT:          0  MISS:      11296  HIT %:          0  MISS %:        100  MPKI: 0.22592


PSCL2 TOTAL     ACCESS:      33259  HIT:      16569  MISS:      16690  HIT %:    49.8181  MISS %:    50.1819   MPKI: 0.3338
PSCL2 LOAD TRANSLATION INSTRUCTION	ACCESS:       2140  HIT:       1890  MISS:        250  HIT %:    88.3178  MISS %:    11.6822  MPKI: 0.005
PSCL2 TRANSLATION FROM L1D PREFETCHER INSTRUCTION	ACCESS:      28326  HIT:      14679  MISS:      13647  HIT %:    51.8216  MISS %:    48.1784  MPKI: 0.27294
PSCL2 LOAD TRANSLATION DATA	ACCESS:       1761  HIT:          0  MISS:       1761  HIT %:          0  MISS %:        100  MPKI: 0.03522
PSCL2 TRANSLATION FROM L1D PREFETCHER DATA	ACCESS:       1032  HIT:          0  MISS:       1032  HIT %:          0  MISS %:        100  MPKI: 0.02064


LLC TOTAL     ACCESS:     903576  HIT:     870157  MISS:      33419  HIT %:    96.3015  MISS %:    3.69853   MPKI: 0.66838
LLC LOAD INSTRUCTION	ACCESS:     230462  HIT:     229755  MISS:        707  HIT %:    99.6932  MISS %:   0.306775  MPKI: 0.01414
LLC PREFETCH INSTRUCTION	ACCESS:     162554  HIT:     161449  MISS:       1105  HIT %:    99.3202  MISS %:   0.679774  MPKI: 0.0221
LLC LOAD TRANSLATION INSTRUCTION	ACCESS:        196  HIT:        186  MISS:         10  HIT %:     94.898  MISS %:    5.10204  MPKI: 0.0002
LLC TRANSLATION FROM L1D PREFETCHER INSTRUCTION	ACCESS:      11200  HIT:      11078  MISS:        122  HIT %:    98.9107  MISS %:    1.08929  MPKI: 0.00244
LLC LOAD DATA	ACCESS:     120266  HIT:     116377  MISS:       3889  HIT %:    96.7663  MISS %:    3.23367  MPKI: 0.07778
LLC RFO DATA	ACCESS:      78472  HIT:      62804  MISS:      15668  HIT %:    80.0336  MISS %:    19.9664  MPKI: 0.31336
LLC PREFETCH DATA	ACCESS:     183892  HIT:     172404  MISS:      11488  HIT %:    93.7529  MISS %:    6.24715  MPKI: 0.22976
LLC WRITEBACK DATA	ACCESS:     115031  HIT:     114727  MISS:        304  HIT %:    99.7357  MISS %:   0.264277  MPKI: 0.00608
LLC LOAD TRANSLATION DATA	ACCESS:       1494  HIT:       1368  MISS:        126  HIT %:    91.5663  MISS %:    8.43373  MPKI: 0.00252
LLC TRANSLATION FROM L1D PREFETCHER DATA	ACCESS:          9  HIT:          9  MISS:          0  HIT %:        100  MISS %:          0  MPKI: 0

LLC AVERAGE MISS LATENCY: 164.355 cycles
LLC RQ	ACCESS:     442104	FORWARD:          0	MERGED:          0	TO_CACHE:     442099
LLC WQ	ACCESS:     115030	FORWARD:          5	MERGED:          0	TO_CACHE:     115030
LLC PQ	ACCESS:     346446	FORWARD:          0	MERGED:          0	TO_CACHE:     346446

LLC Dense regions hint to LLC: 0

RAW hits: 1931599
Loads Generated: 12631632
Loads sent to L1D: 10700033
Stores Generated: 6927584
Stores sent to L1D: 6927607
Major fault: 0 Minor fault: 2540
Allocated PAGES: 2540
I-Shadow cache 408 bytes
Touched + WorthPF tables 12288 bytes 
MMA filter 42 bytes 
FNL filter 272 bytes 
TOTAL PREFETCHER STORAGE SIZE: 19922 bytes
CPU 0 L1I next line prefetcher final stats

stream: 
stream:times selected: 1214436
stream:pref_filled: 122193
stream:pref_useful: 24449
stream:pref_late: 9827
stream:misses: 9396
stream:misses_by_poll: 0

CS: 
CS:times selected: 185921
CS:pref_filled: 60645
CS:pref_useful: 36343
CS:pref_late: 12404
CS:misses: 24134
CS:misses_by_poll: 5

CPLX: 
CPLX:times selected: 1027396
CPLX:pref_filled: 21163
CPLX:pref_useful: 5054
CPLX:pref_late: 3992
CPLX:misses: 108118
CPLX:misses_by_poll: 17

NL_L1: 
NL:times selected: 13302
NL:pref_filled: 650
NL:pref_useful: 158
NL:pref_late: 364
NL:misses: 1221
NL:misses_by_poll: 0

total selections: 2441055
total_filled: 98685
total_useful: 39804
total_late: 28162
total_polluted: 22
total_misses_after_warmup: 778535
conflicts: 5504713

test: 117443

DRAM Statistics
 CHANNEL 0
 RQ ROW_BUFFER_HIT:      11589  ROW_BUFFER_MISS:      21524
 DBUS_CONGESTED:         13
 WQ ROW_BUFFER_HIT:       1665  ROW_BUFFER_MISS:      14097  FULL:          0

 AVG_CONGESTED_CYCLE: 5

CPU 0 Branch Prediction Accuracy: 99.8196% MPKI: 0.32972 Average ROB Occupancy at Mispredict: 190.928
Branch types
NOT_BRANCH: 40858539 81.7171%
BRANCH_DIRECT_JUMP: 548416 1.09683%
BRANCH_INDIRECT: 183049 0.366098%
BRANCH_CONDITIONAL: 6195464 12.3909%
BRANCH_DIRECT_CALL: 936625 1.87325%
BRANCH_INDIRECT_CALL: 170435 0.34087%
BRANCH_RETURN: 1107064 2.21413%
BRANCH_OTHER: 0 0%

DRAM PAGES: 1048576
Allocated PAGES: 2540
Average_ROB_Occupancy: 237.437
Average_Decode_Occupancy: 32.9129
Average_FTQ_Occupancy: 12.2787
Indirect max targets: 14 Average targets: 1.14626
Branch_type:  BRANCH_DIRECT_JUMP:  Count Percentage: 2.91457 6.24774 4.36172 8.78922 2.61495 6.18616 2.02437 66.8613 
Branch_type:  BRANCH_INDIRECT:  Count Percentage: 11.7421 3.44129 2.56447 3.72854 3.34079 4.01059 3.19922 67.973 
Branch_type:  BRANCH_CONDITIONAL:  Count Percentage: 20.8858 3.31184 5.57626 4.81141 1.72276 4.74575 0.898457 58.0477 
Branch_type:  BRANCH_DIRECT_CALL:  Count Percentage: 0.260141 1.75857 1.45318 3.89568 2.55866 3.42186 0.773564 85.8783 
Branch_type:  BRANCH_INDIRECT_CALL:  Count Percentage: 9.53118 0 2.98569 5.40252 0 4.04247 0.99747 77.0407 
Branch_type:  BRANCH_RETURN:  Count Percentage: 3.48072 1.56671 5.99763 3.11507 3.38243 5.64313 1.43177 75.3825 
Branch_type:  BRANCH_DIRECT_JUMP:  Total Count: 31896 68373 47733 96186 28617 67699 22154 731705 
Branch_type:  BRANCH_INDIRECT:  Total Count: 42880 12567 9365 13616 12200 14646 11683 248226 
Branch_type:  BRANCH_CONDITIONAL:  Total Count: 2585868 410039 690397 595701 213295 587571 111238 7186890 
Branch_type:  BRANCH_DIRECT_CALL:  Total Count: 4893 33077 27333 73274 48126 64362 14550 1615290 
Branch_type:  BRANCH_INDIRECT_CALL:  Total Count: 32622 0 10219 18491 0 13836 3414 263684 
Branch_type:  BRANCH_RETURN:  Total Count: 77410 34843 133385 69278 75224 125501 31842 1676479 
Number of unique branch instructions: 9822
Upper 32 bits: 
aaaa
ffff
ffff0000
Unique upper 32 bits: 3
Unique upper 36 bits: 3
Unique upper 40 bits: 5
Unique upper 44 bits: 32
Unique upper 48 bits: 154
Variant_0 : 1397 0.170532
Variant_1 : 1475 0.180054
Variant_2 : 1745 0.213013
Variant_3 : 0 0
Offset_3 4059
Offset_4 250
Offset_5 446
Offset_6 502
Offset_7 578
Offset_8 496
Offset_9 465
Offset_10 379
Offset_11 305
Offset_12 270
Offset_13 197
Offset_14 227
Offset_15 184
Offset_16 221
Offset_17 141
Offset_18 118
Offset_19 234
Offset_20 137
Offset_21 235
Offset_22 392
Offset_23 243
Offset_24 324
Offset_25 88
Offset_47 80
decode_dispatch_called: 25321619 69.1865
Dispatch_width: 0 13623145 53.8005 37.2227
Dispatch_width: 1 905816 3.57724 2.47497
Dispatch_width: 2 824499 3.25611 2.25279
Dispatch_width: 3 485913 1.91896 1.32767
Dispatch_width: 4 5369748 21.2062 14.6718
Dispatch_width: 5 166802 0.658734 0.455755
Dispatch_width: 6 3945696 15.5823 10.7809
Empty_decode_cycles: 11277441 30.8135
ROB_full_cycles: 8764472 23.9473
Starvation_cycles_per_kilo_instr: 238.889
Starvation_cycles_per_kilo_instr_3: 183.523
Starvation_cycles_per_kilo_instr_0: 161.361
Branch_type_1  (3,1)  (4,9)  (5,37)  (6,70)  (7,115)  (8,126)  (9,124)  (10,97)  (11,67)  (12,43)  (13,5)  (14,2)  (15,3)  (16,4)  (18,1)  (19,4)  (20,2)  (21,1)  (22,3)  (23,2)  (24,10)  (25,12) 
Branch_type_2  (3,1)  (5,1)  (8,3)  (9,3)  (12,1)  (13,1)  (14,1)  (16,3)  (17,2)  (20,2)  (21,2)  (23,5)  (24,1)  (47,36) 
Branch_type_3  (3,4057)  (4,241)  (5,404)  (6,417)  (7,433)  (8,307)  (9,254)  (10,152)  (11,122)  (12,50)  (13,4) 
Branch_type_4  (6,3)  (7,8)  (8,25)  (9,52)  (10,62)  (11,59)  (12,97)  (13,85)  (14,100)  (15,86)  (16,99)  (17,63)  (18,53)  (19,114)  (20,72)  (21,124)  (22,208)  (23,137)  (24,185)  (25,72) 
Branch_type_5  (8,2)  (9,1)  (10,3)  (11,5)  (12,3)  (13,14)  (14,16)  (15,11)  (16,20)  (17,11)  (18,16)  (19,12)  (20,10)  (21,13)  (22,42)  (23,26)  (24,37) 
Branch_type_6  (5,4)  (6,12)  (7,22)  (8,33)  (9,31)  (10,65)  (11,52)  (12,76)  (13,88)  (14,108)  (15,84)  (16,95)  (17,65)  (18,48)  (19,104)  (20,51)  (21,95)  (22,139)  (23,73)  (24,91)  (25,4)  (47,44) 
Unique trigger count: 
Variant_0_evicts_0 : 0
Variant_0_evicts_1 : 0
Variant_0_evicts_2 : 0
Variant_0_evicts_3 : 0
Variant_1_evicts_0 : 0
Variant_1_evicts_1 : 0
Variant_1_evicts_2 : 0
Variant_1_evicts_3 : 0
Variant_2_evicts_0 : 0
Variant_2_evicts_1 : 0
Variant_2_evicts_2 : 0
Variant_2_evicts_3 : 0
Variant_3_evicts_0 : 0
Variant_3_evicts_1 : 0
Variant_3_evicts_2 : 0
Variant_3_evicts_3 : 0
BTB PER SET UNIQUE ADDR: 1 4 3 6 3 3 4 3 2 3 3 2 1 6 2 5 1 3 3 2 2 4 4 3 2 4 2 2 3 4 3 3 2 3 3 4 3 2 2 3 3 4 4 1 2 3 3 3 2 2 2 3 2 3 3 4 3 2 1 3 3 3 2 2 6 1 3 4 5 3 2 3 5 3 1 5 4 4 7 4 7 5 3 6 3 3 2 3 3 2 2 5 3 4 3 1 4 2 3 4 3 4 3 4 2 5 2 2 3 6 6 3 2 3 0 2 4 5 4 5 3 3 3 3 7 3 2 2 3 1 7 3 3 2 5 3 3 1 3 3 2 3 2 4 4 6 5 3 5 5 3 1 4 7 4 3 3 2 5 4 1 3 5 2 4 1 1 5 4 6 4 3 3 1 3 3 2 5 2 2 3 2 3 5 2 4 2 4 5 3 3 1 2 5 1 3 3 4 4 3 4 2 3 2 0 3 2 2 5 3 3 4 5 2 3 3 3 3 2 5 2 5 3 2 5 2 3 5 4 5 1 3 5 5 3 3 2 4 3 4 3 6 2 4 3 1 3 2 6 4 2 2 1 2 2 4 2 2 3 2 6 1 6 2 3 2 5 2 4 5 1 4 3 3 3 3 4 1 0 3 5 2 1 5 2 1 3 2 4 1 3 3 3 3 2 4 2 2 2 2 5 1 2 4 3 2 2 6 6 2 3 2 5 3 4 4 2 2 3 4 7 4 2 2 6 2 2 4 1 6 3 7 2 3 2 4 2 4 2 3 4 4 3 2 2 3 4 2 1 3 3 5 3 3 3 5 4 2 2 3 4 4 2 4 2 4 2 5 2 2 5 4 1 2 2 3 1 2 1 1 2 4 3 3 3 3 1 4 3 5 3 2 2 4 2 3 5 1 2 2 5 5 3 1 2 3 2 2 8 2 3 4 1 4 6 2 2 4 3 3 2 2 3 6 3 2 3 3 1 4 4 2 7 3 3 0 3 2 3 2 3 2 2 2 5 0 2 4 5 5 2 2 2 2 5 1 3 2 4 2 3 5 3 4 1 2 4 1 3 3 4 4 4 4 6 6 1 2 3 4 2 2 5 3 2 2 3 3 5 4 2 3 4 2 4 4 3 3 2 3 3 3 4 2 5 3 4 1 2 2 2 3 4 3 2 5 6 2 3 2 2 3 5 3 4 3 1 3 1 2 5 3 5 2 2 4 1 4 2 3 5 3 5 7 3 4 3 4 4 4 3 4 3 4 4 6 3 0 4 2 1 3 3 4 3 2 4 3 3 2 1 1 1 4 2 3 4 2 3 2 1 4 3 3 2 1 3 2 4 3 3 3 2 2 2 3 5 4 4 3 3 3 2 2 3 3 3 1 3 3 2 4 3 3 1 4 3 4 3 2 3 1 4 2 2 3 2 3 3 3 2 2 4 4 2 4 5 4 3 4 3 4 2 2 4 5 4 3 3 2 2 2 3 2 3 4 3 1 3 2 1 3 2 4 2 1 3 2 2 4 4 2 3 4 3 2 2 4 3 3 3 6 1 2 4 4 3 5 5 2 4 1 4 2 3 3 3 2 2 6 4 2 2 2 3 5 3 4 3 4 4 1 1 3 4 3 4 3 2 3 4 4 2 4 3 2 4 3 2 6 3 3 4 3 4 2 5 4 2 2 4 7 3 4 5 1 6 2 2 3 6 5 3 3 3 4 3 1 2 2 5 2 4 4 3 3 4 5 2 6 3 2 1 3 3 3 4 3 1 2 2 4 2 2 1 5 2 2 6 2 4 4 2 4 3 3 7 1 2 2 3 4 4 3 5 3 4 3 4 2 4 1 0 2 3 4 3 2 2 2 3 2 4 2 4 2 3 2 4 4 2 5 2 3 4 2 4 4 3 2 0 4 2 3 2 3 4 3 2 3 5 3 2 2 3 2 4 5 3 3 2 3 3 3 3 3 6 2 3 2 5 1 3 3 2 3 2 4 1 3 3 5 3 3 1 3 2 2 4 1 6 1 1 2 3 4 1 3 2 2 3 1 2 3 4 1 3 4 5 5 4 3 2 4 2 3 3 3 4 2 3 3 3 4 1 1 6 5 2 1 4 8 4 2 2 5 4 2 2 2 3 5 3 2 4 2 3 1 5 4 4 5 4 2 7 3 4 4 2 2 2 2 4 5 3 1 8 2 1 3 4 1 3 7 2 4 2 2 4 2 3 2 3 4 4 2 3 2 3 3 4 2 2 4 3 2 2 4 1 3 4 4 4 2 4 3 4 4 2 5 2 5 2 4 3 2 2 3 3 4 2 3 3 5 5 2 3 6 4 3 1 4 4 2 3 3 5 3 3 3 3 5 3 5 4 2 3 5 2 4 1 3 4 3 1 5 6 3 2 2 3 6 2 3 1 4 4 4 5 3 2 4 2 5 3 5 2 3 3 4 5 3 3 4 3 3 2 2 2 6 2 6 3 5 4 4 4 2 5 3 4 4 4 10 3 3 2 6 2 1 2 5 2 1 4 2 2 5 4 5 4 4 3 3 3 4 3 5 2 1 6 3 4 2 2 2 3 2 4 3 4 6 2 2 3 3 2 4 3 1 3 5 2 3 2 2 3 4 2 2 4 1 5 3 3 2 2 4 5 4 5 2 3 4 1 5 2 3 2 4 1 1 6 3 1 3 5 2 2 6 3 3 2 0 2 3 3 4 4 1 2 2 1 3 7 1 3 1 4 1 3 2 2 4 1 5 3 2 4 3 4 1 3 4 4 4 2 2 3 3 5 2 4 2 3 3 2 2 4 2 3 3 6 3 3 2 4 3 1 5 3 4 4 3 2 3 1 2 3 4 3 2 3 3 2 3 3 3 2 5 3 2 3 2 3 3 2 2 3 3 4 3 6 3 3 3 4 4 4 5 7 2 1 5 3 3 3 5 3 4 2 4 3 6 3 2 3 3 3 4 5 6 5 3 3 2 4 1 2 4 2 6 3 1 3 3 2 4 7 3 2 4 5 2 6 1 2 3 3 4 3 3 2 3 4 6 2 3 6 3 3 2 3 5 3 2 2 2 2 3 4 4 2 4 4 3 1 3 3 4 6 3 1 5 3 4 2 4 2 4 2 2 1 2 4 3 5 6 2 1 2 3 1 4 1 4 4 3 4 4 2 3 5 3 1 2 3 4 3 5 2 2 3 3 6 2 1 2 1 2 4 3 6 6 6 2 3 5 3 5 3 1 3 3 2 3 4 5 5 3 4 2 1 2 3 6 4 3 3 4 3 2 2 2 3 2 2 5 4 3 3 1 3 3 3 4 2 3 2 4 2 2 5 3 3 1 3 3 5 8 3 4 2 4 4 3 4 3 4 2 3 2 2 6 3 5 1 3 2 1 4 3 3 7 4 1 2 1 5 3 2 5 3 3 4 2 4 4 4 8 4 1 3 6 2 2 5 2 3 3 2 4 3 2 3 4 4 2 1 5 6 2 4 2 4 7 2 2 3 1 2 6 3 3 3 3 3 3 4 1 2 4 2 4 1 3 5 4 3 5 4 2 4 1 2 4 4 2 4 3 2 3 3 3 4 2 2 3 3 4 3 3 2 3 3 2 2 2 3 4 4 3 2 2 4 3 5 4 2 2 2 4 5 2 4 4 4 4 1 2 2 3 1 5 4 3 2 2 2 3 3 4 3 3 2 3 3 3 3 7 3 5 4 1 2 7 2 2 4 3 5 3 1 1 4 2 2 2 5 3 3 3 1 4 5 3 2 3 3 1 3 3 3 2 3 4 3 2 4 4 3 3 6 2 1 1 4 4 6 3 2 3 1 1 3 3 2 3 4 3 2 4 3 0 3 3 3 1 3 3 1 1 4 6 1 2 4 2 3 1 2 3 2 4 3 3 2 1 3 1 2 4 1 3 4 2 3 5 4 2 5 2 2 5 3 2 4 5 3 3 4 4 4 4 4 2 1 1 2 3 2 4 3 4 2 2 4 3 2 1 2 4 5 7 2 5 4 6 4 6 2 6 1 5 6 3 2 3 1 2 3 2 3 1 2 4 3 3 5 6 2 3 2 5 1 2 3 1 3 1 4 2 6 2 4 1 3 3 1 3 1 3 3 3 5 4 2 2 4 1 3 4 2 1 2 4 3 1 3 2 3 3 3 2 3 3 2 4 3 2 2 3 4 5 7 3 3 3 4 4 2 3 5 4 2 2 2 3 3 1 1 2 2 3 3 4 3 4 2 2 2 4 3 2 4 4 3 3 2 1 2 2 2 2 3 5 2 3 2 5 3 1 0 2 1 2 3 0 4 6 0 3 3 3 3 3 4 2 3 2 5 4 4 2 2 3 2 1 4 3 1 2 2 8 2 4 3 3 2 5 3 2 2 2 3 4 3 0 3 1 3 6 5 4 4 6 2 3 1 4 2 9 3 5 3 3 4 3 3 3 4 4 6 2 4 3 5 3 3 7 3 6 3 4 4 2 4 5 1 3 4 2 2 2 5 4 6 2 2 4 1 3 3 5 4 3 1 1 3 4 1 1 3 6 2 2 3 3 4 2 6 3 3 4 3 3 3 2 5 5 2 4 4 3 4 3 4 2 4 4 3 3 1 1 3 3 5 4 
BTB PER SET COUNT: 1 3407 2925 2845 21 617 625 4572 530 3 61 124 1 749 2 1856 1 3 1668 2 796 5 38 28 517 3495 2 2 6 1461 3 6 2 11 22 4 3 2 172 3 1933 3397 4609 1 2156 3226 733 972 1133 2 2 3 1404 3 3 40 3 988 1 3 5 1937 3 2 4322 1 824 255 2633 3 2 3 5 1406 336 4198 1936 1717 4281 6 3516 1214 5 3057 421 3 2 3 40 987 2 209 8 452 1701 1 6 2 32 4 3 604 3 1442 12 29 2 968 3 1730 1625 390 2 1353 0 3 4 5 564 2128 33 28 3459 1867 3233 87 2417 2 3 1 4066 3 1705 494 5055 3 1702 242 3 988 31 990 2 1995 1470 9 552 704 7 15 3 1 1957 367 522 3 3 988 1890 392 1 262 1466 3 2437 1 1 1870 3016 2349 1618 395 4 2 610 521 4 3009 494 2 3 2 3 1475 2 1817 519 4 634 309 3 4 3 1007 981 411 494 1142 4 422 4 2 3 2 0 4 3 332 3601 1957 46 1557 1130 372 3 4 5 1034 2 2372 1021 4989 35 2118 1483 3 1551 589 7 205 1805 2919 532 1943 2552 2189 772 453 3 2859 719 4233 1620 618 1461 1 10724 2 1926 4 2 93 1 498 1456 11 1953 2 6 465 2521 1 2145 2 4 8 704 1461 6 1441 1 5 10 3 3 3 1932 1 0 2041 917 2 1 283 2 1 4 137 578 1 127 1942 4 287 4177 4307 1461 495 2 1462 4507 1 986 4877 3 241 495 2829 4361 978 988 2 5 3 7160 4 2 2 496 4 5076 4 5 2 4517 3 35 12 1 2592 730 1347 494 4 1459 4 2 1864 1460 3 1214 7 660 68 2919 14 2585 3 527 3 3 1542 2760 24 250 529 974 21 2 14 6 506 2 1866 2 4 359 682 17 494 6824 1651 1 3 1464 22 1 2 1 1 1644 1842 3 12 1003 970 1 6938 1464 261 3 1497 543 5 2 3 5592 1 2 2 556 401 3 551 2 5 2 2 1498 1459 18 92 1 1491 790 2 963 4 3 2115 2 2 2472 3938 480 319 3 361 2924 6 4 2 1679 3 3 0 485 5 3522 488 3 3 494 676 2042 0 2 91 300 2264 3 267 1448 2 1276 1 3 2 1233 44 2192 680 742 566 6 2 1487 2962 3 495 5410 1988 1454 1473 4099 1474 1 3 8 2036 2 1462 4506 1462 1888 2 1541 1203 4125 420 969 1463 2879 3 1395 9 3 2286 248 495 1460 3 1218 1462 940 3 1167 1 2 216 2 3 2431 1974 1700 5 1238 1952 31 1441 2 1595 1492 1711 4 3 1 777 1 2 4338 3 648 496 2 500 1 1550 1359 486 2270 1192 10 490 235 6371 495 1258 4 503 3 4 990 779 397 1521 150 0 4935 3 986 34 3 5 1488 36 2427 1321 3 3 1 754 1 508 947 3257 2915 2 3 4 5 4 395 6 2 1 3 1458 495 1463 3 4 2 2 4 3852 6113 4 696 1108 3 766 2 2 1431 1901 3 1 3 3 2 4 4 1460 1 882 3 4246 3 29 489 1 504 2 447 5 2 1450 3 1935 2 2 26 1521 2 2867 16 5 3 3301 6 1463 1030 2 1923 366 11 3842 492 3402 3 19 3 1950 3 435 2937 482 3 1645 1 2442 491 1003 241 1 5790 2427 2 676 45 2 4 5 15 2 2 970 3 3 600 918 1 2 5 2263 3 6 8 4 4082 1 1408 3 1461 466 3 2 2 6 4 2 2 2426 1507 25 3 58 3 284 1370 4 1 5 2198 514 3376 567 494 6 647 2836 2 1318 2423 2 4 2424 2641 2993 3 252 1465 3 1462 2 6462 7 2 1475 1950 5961 1170 995 1754 1 2405 2 2 3 1242 643 3 3 1953 26 819 1 536 2 1977 2 235 5785 513 8 36 3748 2 5097 7 2 8 1460 1503 32 6 3 1 245 3 588 1010 2 1 1514 1383 2 242 3 7 27 2756 515 470 3 601 1453 2 3 1952 3008 2928 1219 3244 3 5097 235 3895 613 4245 1926 0 1011 3 350 8 817 11 2 3 3 31 2 4 587 3 1885 4 1523 5837 2058 2 1166 557 4 2298 3902 454 2 0 3473 4 6 2 3 2182 9 2 3 4049 3 2 4 4 2 4 7210 1464 12 1022 10 3 4 1453 5 4204 3 3 975 552 23 1902 3 1456 146 2 1851 1 899 1227 6 3 855 2 3 99 2 255 1 5474 1 1454 369 3 6 1 6 2873 115 3 1 3625 3 6 1953 3397 779 3454 4422 912 3250 3 4 1849 3 1470 3 2757 3 2713 2505 3 1526 1 358 6539 37 2 678 4370 2755 4 2 939 1480 4 1323 2 6 7 3150 462 2 4 2 758 911 2562 142 17 3730 496 4 3967 3 907 4 2141 2 1986 2 91 7 1067 2 4295 2 1 3 4457 1 3 2034 3 1436 2 2 4190 272 1953 255 1224 2929 995 2481 514 1980 2173 3 16 4 2 1689 38 14 2 3465 54 819 4 8 205 2 332 1772 4 4 2 2121 2 6 601 495 3 530 132 996 194 997 3 3 2487 44 6 2 495 535 4 3 1 1463 495 2 5 390 973 3 3 2076 3 5 2516 5 2205 1939 1462 1107 116 268 241 3 248 689 16 2697 3381 3 3 24 16 2935 230 3 1 8 977 43 1459 1702 2 2248 2 2440 972 1464 1652 4 3 7 1137 1101 7 1939 3 2380 1099 2 2 5960 2 1019 1897 1474 4 1466 555 343 2066 1946 9 11 9 6144 848 125 3 1948 4 493 2 7 56 1 1008 34 1443 39 2806 50 1222 4 736 5 1195 2011 482 18 2 1 1955 3 2573 480 2 2 1996 4 4 190 478 6 2 2 3 1424 2 989 6 709 114 2649 1244 242 415 2428 3 7 1992 2 3225 2 1913 3 5 415 820 264 5 4 3670 3 3 4 1 4080 498 35 4 207 1 1 1228 1922 2 4 3685 40 1015 812 2818 3 9 0 2614 3 888 4 1043 1 2 2 1462 10 343 1 3 1 3753 1 1702 874 2 4 1299 1062 3 494 108 310 627 1 736 1449 1755 4 2 2 3 3 1802 157 2955 2 15 4 1414 607 40 1910 1467 5 1429 601 506 2 221 3 1 515 244 2139 4 3 1461 3 4 494 952 236 17 1934 1487 3 2 1188 3 3 2707 1438 3 2 1953 2 149 2549 49 238 3 4 2245 73 1084 78 3 3 448 2338 2884 5 2675 2 1 1080 243 3 3 1755 3 5 3 545 7 1728 1462 4 62 3 3 1461 2319 2886 6 3 3 6 1466 1 2 7 2 121 3 1 3 1462 491 2195 3004 3 2 299 1724 2 1133 1 2 3 4 3733 1463 3 2 149 494 3512 2 8 2729 496 3 244 1958 4407 1083 7 2195 2 3 244 2333 1416 2 338 1457 3 1 4 6 1824 230 3 1 613 5 3433 2 323 2 1961 238 2 238 967 4 18 4447 3536 2 1 2 1476 1 4 240 549 581 604 2121 2616 2 3 972 51 1 2 3 2272 6 1899 2 3 5 5 4434 2 1 2 1 5 5 1461 1920 1727 1682 2 981 5 3 2431 3 1 3 2903 2 980 6 2145 529 3 498 396 2 2238 3 7194 9 3 436 4 3 2 2 2 1460 2 35 1995 4 4 73 240 7 3 741 3701 494 3 2 4 5 2 1194 3 3 1 5 1965 596 4509 3 4 2 800 907 158 1938 3 499 6 956 2 2 841 200 1105 2 1671 485 2 2137 3 2077 3231 4 502 2 1 999 3 913 2390 3 8 993 2 1418 11 4429 4452 8 1 1540 3943 2 2 1169 953 2412 4235 2 1233 30 1452 3 5 223 123 1 8 2516 2437 4 495 6557 4040 2 2 1220 1 3 168 3 3 967 3239 1639 3 520 1 6 1687 3 2410 1 561 10054 5 999 1699 4 1446 971 1 581 843 3282 2 4 393 41 3 1279 3321 4 2 2 968 2043 1967 253 1155 1301 3 777 2 1460 4 968 996 4 5 3 1459 6 17 1052 4 2 2 495 2969 550 2 35 1463 126 7 1 2 2 47 1 2896 501 1488 2 477 2745 478 3 4 765 1488 2 3 13 7 3 3859 3282 1501 4 1 2 4359 234 2 1806 3 4680 2389 995 1 13 2 996 2 4206 7 3 2179 1 2491 2834 3 2 3 4 1 37 1279 138 2 48 533 3 81 1425 4 3 1510 67 1454 156 1 4 4 5587 250 2 29 1 69 3 1429 1085 3 4116 289 4 3236 3 0 1877 3 148 1 2431 969 1 1 4 1550 1 1463 243 437 17 1 1934 294 4 4227 252 4 1444 982 626 2 2604 2115 1646 315 755 2 733 3367 49 2 5 722 4 1462 3 2 1862 2832 27 13 6 574 4 975 2085 518 1 1460 527 725 2 2654 798 512 495 2 1686 295 720 1 5 2140 2394 2001 2 1487 4 3880 5 3532 243 4846 1 988 4275 3 10 953 1971 2 931 1650 1886 1 1377 976 575 12 4407 23 1885 3 2 2331 1 2 1234 1945 4 494 977 560 7820 3 3205 1 222 6 1 7 1 975 3 3 2493 41 494 2 1660 8 729 2718 3 1 1255 954 18 1 3 2 989 7 54 2 3 495 47 4681 25 269 2 3 241 12 6400 5 80 5 121 7 1944 3 1438 7 2 3 2 709 20449 1 1 4 856 359 3 4 3 1946 92 3 495 854 630 2 552 11 12 360 2 1 2 2 2 1072 7 158 116 4 2 2214 14602 1 0 495 409 2449 143 0 2624 972 0 1464 2217 20 3 3 3241 966 4138 3 6 2588 478 2 37 5 3 268 240 243 1 2 2 4278 158 1466 3 1210 2 87 4 4 1461 2 38 3234 1464 0 1079 493 1841 2418 6765 407 7 5560 596 488 1 4 4 4174 1382 3369 3 486 2907 988 1228 6869 14 924 344 2 2337 40 3267 110 1037 1516 6863 1414 4 7 506 31 2693 256 1 3 2532 2 2 2 507 3484 2914 2441 968 3346 1 3 886 6 949 3 1338 1 3 36 985 492 425 5860 2 3 277 3 2922 1461 44 565 3 4 3 3537 3122 33 2797 5 4 471 7 739 4 3 268 2 1004 952 38 1457 1 2 493 3 74 2717 
To predecode: 1184838
Predecoding something: 735403
Predecode request dropped: 0
sizeofblock_0 0
sizeofblock_1 577737
sizeofblock_2 512577
sizeofblock_3 513115
sizeofblock_4 103294
sizeofblock_5 0
sizeofblock_6 0
sizeofblock_7 0
sizeofblock_8 0
