
*** ChampSim Multicore Out-of-Order Simulator ***

Warmup Instructions: 50000000
Simulation Instructions: 50000000
Number of CPUs: 1
LLC sets: 2048
LLC ways: 16
Off-chip DRAM Size: 4096 MB Channels: 1 Width: 64-bit Data Rate: 6400 MT/s
CPU 0 runs ./micro_traces/srv633.trace.gz
.gz
ITLB has LRU replacement policy
DTLB has LRU replacement policy
STLB has LRU replacement policy
FDIP Prefetcher at L1I
L1I has LRU replacement policy
L1D has LRU replacement policy
Initialize SRRIP state for L2C
Initialize DRRIP state for LLC
Heartbeat_Variant_0 : 1120 0.273438 per_variant_size: 0 1120 0 0 0 0 0 0 0 
Heartbeat_Variant_1 : 2593 0.633057 per_variant_size: 0 1065 1528 0 0 0 0 0 0 
Heartbeat_Variant_2 : 0 0 per_variant_size: 0 0 0 0 0 0 0 0 0 
Heartbeat_Variant_3 : 0 0 per_variant_size: 0 0 0 0 0 0 0 0 0 
Heartbeat_Variant_0_evicts 0 : 12299 1 : 15395 2 : 0 3 : 0 
Heartbeat_Variant_1_evicts 0 : 15265 1 : 0 2 : 0 3 : 0 
Heartbeat_Variant_2_evicts 0 : 0 1 : 0 2 : 0 3 : 0 
Heartbeat_Variant_3_evicts 0 : 0 1 : 0 2 : 0 3 : 0 
Heartbeat CPU 0 instructions: 10000003 cycles: 2797053 heartbeat IPC: 3.57519 cumulative IPC: 3.57519 (Simulation time: 0 hr 1 min 48 sec) 
Heartbeat_Variant_0 : 1158 0.282715 per_variant_size: 0 1158 0 0 0 0 0 0 0 
Heartbeat_Variant_1 : 2702 0.659668 per_variant_size: 0 930 1772 0 0 0 0 0 0 
Heartbeat_Variant_2 : 0 0 per_variant_size: 0 0 0 0 0 0 0 0 0 
Heartbeat_Variant_3 : 0 0 per_variant_size: 0 0 0 0 0 0 0 0 0 
Heartbeat_Variant_0_evicts 0 : 12542 1 : 15445 2 : 0 3 : 0 
Heartbeat_Variant_1_evicts 0 : 15431 1 : 0 2 : 0 3 : 0 
Heartbeat_Variant_2_evicts 0 : 0 1 : 0 2 : 0 3 : 0 
Heartbeat_Variant_3_evicts 0 : 0 1 : 0 2 : 0 3 : 0 
Heartbeat CPU 0 instructions: 20000000 cycles: 5594598 heartbeat IPC: 3.57456 cumulative IPC: 3.57488 (Simulation time: 0 hr 3 min 29 sec) 
Heartbeat_Variant_0 : 1132 0.276367 per_variant_size: 0 1132 0 0 0 0 0 0 0 
Heartbeat_Variant_1 : 2728 0.666016 per_variant_size: 0 964 1764 0 0 0 0 0 0 
Heartbeat_Variant_2 : 0 0 per_variant_size: 0 0 0 0 0 0 0 0 0 
Heartbeat_Variant_3 : 0 0 per_variant_size: 0 0 0 0 0 0 0 0 0 
Heartbeat_Variant_0_evicts 0 : 12364 1 : 15861 2 : 0 3 : 0 
Heartbeat_Variant_1_evicts 0 : 15887 1 : 0 2 : 0 3 : 0 
Heartbeat_Variant_2_evicts 0 : 0 1 : 0 2 : 0 3 : 0 
Heartbeat_Variant_3_evicts 0 : 0 1 : 0 2 : 0 3 : 0 
Heartbeat CPU 0 instructions: 30000001 cycles: 8392385 heartbeat IPC: 3.57425 cumulative IPC: 3.57467 (Simulation time: 0 hr 5 min 11 sec) 
Heartbeat_Variant_0 : 1145 0.279541 per_variant_size: 0 1145 0 0 0 0 0 0 0 
Heartbeat_Variant_1 : 2728 0.666016 per_variant_size: 0 948 1780 0 0 0 0 0 0 
Heartbeat_Variant_2 : 0 0 per_variant_size: 0 0 0 0 0 0 0 0 0 
Heartbeat_Variant_3 : 0 0 per_variant_size: 0 0 0 0 0 0 0 0 0 
Heartbeat_Variant_0_evicts 0 : 12491 1 : 15784 2 : 0 3 : 0 
Heartbeat_Variant_1_evicts 0 : 15772 1 : 0 2 : 0 3 : 0 
Heartbeat_Variant_2_evicts 0 : 0 1 : 0 2 : 0 3 : 0 
Heartbeat_Variant_3_evicts 0 : 0 1 : 0 2 : 0 3 : 0 
Heartbeat CPU 0 instructions: 40000000 cycles: 11187742 heartbeat IPC: 3.57736 cumulative IPC: 3.57534 (Simulation time: 0 hr 6 min 52 sec) 
Heartbeat_Variant_0 : 1123 0.27417 per_variant_size: 0 1123 0 0 0 0 0 0 0 
Heartbeat_Variant_1 : 2751 0.671631 per_variant_size: 0 968 1783 0 0 0 0 0 0 
Heartbeat_Variant_2 : 0 0 per_variant_size: 0 0 0 0 0 0 0 0 0 
Heartbeat_Variant_3 : 0 0 per_variant_size: 0 0 0 0 0 0 0 0 0 
Heartbeat_Variant_0_evicts 0 : 12360 1 : 15881 2 : 0 3 : 0 
Heartbeat_Variant_1_evicts 0 : 15904 1 : 0 2 : 0 3 : 0 
Heartbeat_Variant_2_evicts 0 : 0 1 : 0 2 : 0 3 : 0 
Heartbeat_Variant_3_evicts 0 : 0 1 : 0 2 : 0 3 : 0 
Heartbeat CPU 0 instructions: 50000003 cycles: 13983657 heartbeat IPC: 3.57665 cumulative IPC: 3.5756 (Simulation time: 0 hr 8 min 31 sec) 

Warmup complete CPU 0 instructions: 50000003 cycles: 13983657 (Simulation time: 0 hr 8 min 31 sec) 

Cycle: 20000000 FTQ IN: 57386972 FTQ occupancy: 18.6479 DECODE IN: 57386972 DECODE occupancy: 47.8291 ROB IN: 57386912 ROB occupancy: 288.816 ROB OUT: 57386560
Heartbeat_Variant_0 : 1142 0.278809 per_variant_size: 0 1142 0 0 0 0 0 0 0 
Heartbeat_Variant_1 : 2732 0.666992 per_variant_size: 0 945 1787 0 0 0 0 0 0 
Heartbeat_Variant_2 : 0 0 per_variant_size: 0 0 0 0 0 0 0 0 0 
Heartbeat_Variant_3 : 0 0 per_variant_size: 0 0 0 0 0 0 0 0 0 
Heartbeat_Variant_0_evicts 0 : 12263 1 : 16043 2 : 0 3 : 0 
Heartbeat_Variant_1_evicts 0 : 16024 1 : 0 2 : 0 3 : 0 
Heartbeat_Variant_2_evicts 0 : 0 1 : 0 2 : 0 3 : 0 
Heartbeat_Variant_3_evicts 0 : 0 1 : 0 2 : 0 3 : 0 
Heartbeat CPU 0 instructions: 60000002 cycles: 22258183 heartbeat IPC: 1.20853 cumulative IPC: 1.20853 (Simulation time: 0 hr 10 min 8 sec) 
Cycle: 30000000 FTQ IN: 12040053 FTQ occupancy: 8.48236 DECODE IN: 12039936 DECODE occupancy: 18.9717 ROB IN: 12039936 ROB occupancy: 145.679 ROB OUT: 12040127
Heartbeat_Variant_0 : 1154 0.281738 per_variant_size: 0 1154 0 0 0 0 0 0 0 
Heartbeat_Variant_1 : 2721 0.664307 per_variant_size: 0 937 1784 0 0 0 0 0 0 
Heartbeat_Variant_2 : 0 0 per_variant_size: 0 0 0 0 0 0 0 0 0 
Heartbeat_Variant_3 : 0 0 per_variant_size: 0 0 0 0 0 0 0 0 0 
Heartbeat_Variant_0_evicts 0 : 12440 1 : 16473 2 : 0 3 : 0 
Heartbeat_Variant_1_evicts 0 : 16461 1 : 0 2 : 0 3 : 0 
Heartbeat_Variant_2_evicts 0 : 0 1 : 0 2 : 0 3 : 0 
Heartbeat_Variant_3_evicts 0 : 0 1 : 0 2 : 0 3 : 0 
Heartbeat CPU 0 instructions: 70000001 cycles: 30481907 heartbeat IPC: 1.21599 cumulative IPC: 1.21225 (Simulation time: 0 hr 11 min 40 sec) 
Heartbeat_Variant_0 : 1138 0.277832 per_variant_size: 0 1138 0 0 0 0 0 0 0 
Heartbeat_Variant_1 : 2738 0.668457 per_variant_size: 0 939 1799 0 0 0 0 0 0 
Heartbeat_Variant_2 : 0 0 per_variant_size: 0 0 0 0 0 0 0 0 0 
Heartbeat_Variant_3 : 0 0 per_variant_size: 0 0 0 0 0 0 0 0 0 
Heartbeat_Variant_0_evicts 0 : 12224 1 : 15890 2 : 0 3 : 0 
Heartbeat_Variant_1_evicts 0 : 15906 1 : 0 2 : 0 3 : 0 
Heartbeat_Variant_2_evicts 0 : 0 1 : 0 2 : 0 3 : 0 
Heartbeat_Variant_3_evicts 0 : 0 1 : 0 2 : 0 3 : 0 
Heartbeat CPU 0 instructions: 80000001 cycles: 38636083 heartbeat IPC: 1.22637 cumulative IPC: 1.21692 (Simulation time: 0 hr 13 min 13 sec) 
Cycle: 40000000 FTQ IN: 12082624 FTQ occupancy: 8.50177 DECODE IN: 12082705 DECODE occupancy: 19.1792 ROB IN: 12082739 ROB occupancy: 148.935 ROB OUT: 12082766
Heartbeat_Variant_0 : 1137 0.277588 per_variant_size: 0 1137 0 0 0 0 0 0 0 
Heartbeat_Variant_1 : 2741 0.669189 per_variant_size: 0 960 1781 0 0 0 0 0 0 
Heartbeat_Variant_2 : 0 0 per_variant_size: 0 0 0 0 0 0 0 0 0 
Heartbeat_Variant_3 : 0 0 per_variant_size: 0 0 0 0 0 0 0 0 0 
Heartbeat_Variant_0_evicts 0 : 12516 1 : 16523 2 : 0 3 : 0 
Heartbeat_Variant_1_evicts 0 : 16524 1 : 0 2 : 0 3 : 0 
Heartbeat_Variant_2_evicts 0 : 0 1 : 0 2 : 0 3 : 0 
Heartbeat_Variant_3_evicts 0 : 0 1 : 0 2 : 0 3 : 0 
Heartbeat CPU 0 instructions: 90000003 cycles: 46986211 heartbeat IPC: 1.19759 cumulative IPC: 1.21203 (Simulation time: 0 hr 14 min 46 sec) 
Cycle: 50000000 FTQ IN: 12183838 FTQ occupancy: 8.3631 DECODE IN: 12183761 DECODE occupancy: 18.8861 ROB IN: 12183727 ROB occupancy: 146.821 ROB OUT: 12183782
Heartbeat_Variant_0 : 1120 0.273438 per_variant_size: 0 1120 0 0 0 0 0 0 0 
Heartbeat_Variant_1 : 2762 0.674316 per_variant_size: 0 944 1818 0 0 0 0 0 0 
Heartbeat_Variant_2 : 0 0 per_variant_size: 0 0 0 0 0 0 0 0 0 
Heartbeat_Variant_3 : 0 0 per_variant_size: 0 0 0 0 0 0 0 0 0 
Heartbeat_Variant_0_evicts 0 : 12620 1 : 16492 2 : 0 3 : 0 
Heartbeat_Variant_1_evicts 0 : 16509 1 : 0 2 : 0 3 : 0 
Heartbeat_Variant_2_evicts 0 : 0 1 : 0 2 : 0 3 : 0 
Heartbeat_Variant_3_evicts 0 : 0 1 : 0 2 : 0 3 : 0 
Heartbeat CPU 0 instructions: 100000001 cycles: 55305274 heartbeat IPC: 1.20206 cumulative IPC: 1.21002 (Simulation time: 0 hr 16 min 23 sec) 
Finished CPU 0 instructions: 50000002 cycles: 41321618 cumulative IPC: 1.21002 (Simulation time: 0 hr 16 min 23 sec) 

ChampSim completed all CPUs

Region of Interest Statistics

CPU 0 cumulative IPC: 1.21002 instructions: 50000002 cycles: 41321618
 Fetch stage stalled: 66.3594  Sim cycles: 41321618 fetch stall cycle: 27420785
 Empty decode stage: 53.1677  Sim cycles: 41321618 fetch stall cycle: 21969754
ITLB TOTAL     ACCESS:    5665667  HIT:    5167700  MISS:     497967  HIT %:    91.2108  MISS %:     8.7892   MPKI: 9.95934
ITLB LOAD TRANSLATION INSTRUCTION	ACCESS:    5550191  HIT:    5052224  MISS:     497967  HIT %:    91.0279  MISS %:    8.97207  MPKI: 9.95934
ITLB TRANSLATION FROM L1D PREFETCHER INSTRUCTION	ACCESS:     115476  HIT:     115476  MISS:          0  HIT %:        100  MISS %:          0  MPKI: 0

ITLB AVERAGE MISS LATENCY: 9.05845 cycles
ITLB RQ	ACCESS:    7589039	FORWARD:          0	MERGED:    1425455	TO_CACHE:    6163584

DTLB TOTAL     ACCESS:    9206213  HIT:    8729459  MISS:     476754  HIT %:    94.8214  MISS %:    5.17861   MPKI: 9.53508
DTLB LOAD TRANSLATION DATA	ACCESS:    9206213  HIT:    8729459  MISS:     476754  HIT %:    94.8214  MISS %:    5.17861  MPKI: 9.53508

DTLB AVERAGE MISS LATENCY: 9.31896 cycles
DTLB RQ	ACCESS:   13534067	FORWARD:          0	MERGED:    4293014	TO_CACHE:    9241053

STLB TOTAL     ACCESS:    1220479  HIT:    1218262  MISS:       2217  HIT %:    99.8184  MISS %:    0.18165   MPKI: 0.04434
STLB LOAD TRANSLATION INSTRUCTION	ACCESS:     497967  HIT:     497550  MISS:        417  HIT %:    99.9163  MISS %:  0.0837405  MPKI: 0.00834
STLB LOAD TRANSLATION DATA	ACCESS:     476519  HIT:     474744  MISS:       1775  HIT %:    99.6275  MISS %:   0.372493  MPKI: 0.0355
STLB TRANSLATION FROM L1D PREFETCHER DATA	ACCESS:     245993  HIT:     245968  MISS:         25  HIT %:    99.9898  MISS %:  0.0101629  MPKI: 0.0005

STLB AVERAGE MISS LATENCY: 70.276 cycles
STLB RQ	ACCESS:    1335627	FORWARD:          0	MERGED:     115092	TO_CACHE:    1220535

STLB Hit, L1D data hit: 0
STLB Hit, L2C data hit: 0
STLB Hit, LLC data hit: 0
STLB Hit, LLC data miss: 0
STLB STLB hints to L2: 0
L1D TOTAL     ACCESS:   13282411  HIT:   12162383  MISS:    1120028  HIT %:    91.5676  MISS %:    8.43241   MPKI: 22.4006
L1D LOAD DATA	ACCESS:    6719035  HIT:    5980354  MISS:     738681  HIT %:    89.0061  MISS %:    10.9939  MPKI: 14.7736
L1D RFO DATA	ACCESS:    6241609  HIT:    5953695  MISS:     287914  HIT %:    95.3872  MISS %:    4.61282  MPKI: 5.75828
L1D PREFETCH DATA	ACCESS:     321767  HIT:     228334  MISS:      93433  HIT %:    70.9625  MISS %:    29.0375  MPKI: 1.86866

L1D PREFETCH  REQUESTED:     722128  ISSUED:     722128  USEFUL:      34005  USELESS:      67623
L1D USEFUL LOAD PREFETCHES:      34005 PREFETCH ISSUED TO LOWER LEVEL:     101672  ACCURACY: 33.4458
 TIMELY PREFETCHES:      34005 LATE PREFETCHES: 8198 DROPPED PREFETCHES: 16
L1D AVERAGE MISS LATENCY: 257034 cycles
L1D RQ	ACCESS:   10816561	FORWARD:          0	MERGED:    3893399	TO_CACHE:    6753902
L1D WQ	ACCESS:    6962760	FORWARD:     169576	MERGED:     182595	TO_CACHE:    6780165
L1D PQ	ACCESS:     361222	FORWARD:          0	MERGED:          0	TO_CACHE:     360906

L1D UNIQUE REGIONS ACCESSED: 0
L1D REGIONS CONFLICTS: 0
L1D Cross Page Prefetch Requests: 5877
L1D Same Page Prefetch Requests: 734715
L1D ROI Sum of L1D PQ occupancy: 4584815
L1D PREFETCHES PUSHED FROM L2C: 0
L1I TOTAL     ACCESS:    6982691  HIT:    4204031  MISS:    2778660  HIT %:    60.2065  MISS %:    39.7935   MPKI: 55.5732
L1I LOAD INSTRUCTION	ACCESS:    6450160  HIT:    3671500  MISS:    2778660  HIT %:    56.9211  MISS %:    43.0789  MPKI: 55.5732
L1I PREFETCH INSTRUCTION	ACCESS:     532531  HIT:     532531  MISS:          0  HIT %:        100  MISS %:          0  MPKI: 0

L1I PREFETCH  REQUESTED:    1240380  ISSUED:    1240380  USEFUL:          0  USELESS:          0
L1I USEFUL LOAD PREFETCHES:          0 PREFETCH ISSUED TO LOWER LEVEL:          0  ACCURACY: -nan
 TIMELY PREFETCHES:          0 LATE PREFETCHES: 0 DROPPED PREFETCHES: 0
L1I AVERAGE MISS LATENCY: 17.5437 cycles
L1I RQ	ACCESS:    9472784	FORWARD:          0	MERGED:    2775504	TO_CACHE:    6697280
L1I PQ	ACCESS:    1240380	FORWARD:          0	MERGED:     348621	TO_CACHE:     891759

L1BTB TOTAL     ACCESS:    5667916  HIT:    2022248  MISS:    3645668  HIT %:    35.6789  MISS %:    64.3211   MPKI: 72.9134
L1BTB BRANCH_DIRECT_JUMP	ACCESS:     547872 HIT:     143867 MISS:     404005 AVERAGE STALL: 41.3182 AVERAGE FETCH STALL: 18.7451 AVERAGE FETCH QUEUE STALL: 12.2901 AVERAGE DECODE STALL: 9.45844 AVERAGE EXECUTE STALL: 5.48178e+14
L1BTB BRANCH_INDIRECT	ACCESS:     182500 HIT:      65485 MISS:     117015 AVERAGE STALL: 96.0571 AVERAGE FETCH STALL: 13.6692 AVERAGE FETCH QUEUE STALL: 10.0959 AVERAGE DECODE STALL: 8.79244 AVERAGE EXECUTE STALL: 62.5503
L1BTB BRANCH_CONDITIONAL	ACCESS:    2694415 HIT:    1397387 MISS:    1297028 AVERAGE STALL: 41.6242 AVERAGE FETCH STALL: 22.4716 AVERAGE FETCH QUEUE STALL: 10.2934 AVERAGE DECODE STALL: 8.11278 AVERAGE EXECUTE STALL: 2.084e+14
L1BTB BRANCH_DIRECT_CALL	ACCESS:     949383 HIT:     104699 MISS:     844684 AVERAGE STALL: 42.4203 AVERAGE FETCH STALL: 22.2268 AVERAGE FETCH QUEUE STALL: 10.8216 AVERAGE DECODE STALL: 8.61703 AVERAGE EXECUTE STALL: 1.65516e+14
L1BTB BRANCH_INDIRECT_CALL	ACCESS:     172183 HIT:      21016 MISS:     151167 AVERAGE STALL: 124.753 AVERAGE FETCH STALL: 16.1927 AVERAGE FETCH QUEUE STALL: 8.84137 AVERAGE DECODE STALL: 7.85214 AVERAGE EXECUTE STALL: 91.3356
L1BTB BRANCH_RETURN	ACCESS:    1121563 HIT:     289794 MISS:     831769 AVERAGE STALL: 41.1843 AVERAGE FETCH STALL: 17.9037 AVERAGE FETCH QUEUE STALL: 7.3706 AVERAGE DECODE STALL: 6.90899 AVERAGE EXECUTE STALL: 2.39905e+14
L1BTB BRANCH_OTHER ACCESS:          0 HIT:          0 MISS:          0 AVERAGE STALL: -nan AVERAGE FETCH STALL: -nan AVERAGE FETCH QUEUE STALL: -nan AVERAGE DECODE STALL: -nan AVERAGE EXECUTE STALL: -nan
L1BTB TOTAL ROB OCCUPANCY AT BTB MISS: 11.5868

L2BTB TOTAL     ACCESS:    3620349  HIT:    3281331  MISS:     339018  HIT %:    90.6358  MISS %:    9.36424   MPKI: 6.78036
L2BTB BRANCH_DIRECT_JUMP	ACCESS:     399922 HIT:     370347 MISS:      29575 AVERAGE STALL: 41.3182 AVERAGE FETCH STALL: 18.7451 AVERAGE FETCH QUEUE STALL: 12.2901 AVERAGE DECODE STALL: 9.45844 AVERAGE EXECUTE STALL: 5.48178e+14
L2BTB BRANCH_INDIRECT	ACCESS:     106665 HIT:      99837 MISS:       6828 AVERAGE STALL: 96.0571 AVERAGE FETCH STALL: 13.6692 AVERAGE FETCH QUEUE STALL: 10.0959 AVERAGE DECODE STALL: 8.79244 AVERAGE EXECUTE STALL: 62.5503
L2BTB BRANCH_CONDITIONAL	ACCESS:    1297028 HIT:    1207990 MISS:      89038 AVERAGE STALL: 41.6242 AVERAGE FETCH STALL: 22.4716 AVERAGE FETCH QUEUE STALL: 10.2934 AVERAGE DECODE STALL: 8.11278 AVERAGE EXECUTE STALL: 2.084e+14
L2BTB BRANCH_DIRECT_CALL	ACCESS:     844684 HIT:     733178 MISS:     111506 AVERAGE STALL: 42.4203 AVERAGE FETCH STALL: 22.2268 AVERAGE FETCH QUEUE STALL: 10.8216 AVERAGE DECODE STALL: 8.61703 AVERAGE EXECUTE STALL: 1.65516e+14
L2BTB BRANCH_INDIRECT_CALL	ACCESS:     141700 HIT:     115130 MISS:      26570 AVERAGE STALL: 124.753 AVERAGE FETCH STALL: 16.1927 AVERAGE FETCH QUEUE STALL: 8.84137 AVERAGE DECODE STALL: 7.85214 AVERAGE EXECUTE STALL: 91.3356
L2BTB BRANCH_RETURN	ACCESS:     830350 HIT:     754849 MISS:      75501 AVERAGE STALL: 41.1843 AVERAGE FETCH STALL: 17.9037 AVERAGE FETCH QUEUE STALL: 7.3706 AVERAGE DECODE STALL: 6.90899 AVERAGE EXECUTE STALL: 2.39905e+14
L2BTB BRANCH_OTHER ACCESS:          0 HIT:          0 MISS:          0 AVERAGE STALL: -nan AVERAGE FETCH STALL: -nan AVERAGE FETCH QUEUE STALL: -nan AVERAGE DECODE STALL: -nan AVERAGE EXECUTE STALL: -nan
L2BTB TOTAL ROB OCCUPANCY AT BTB MISS: 124.6

L2C TOTAL     ACCESS:    4513666  HIT:    3989464  MISS:     524202  HIT %:    88.3863  MISS %:    11.6137   MPKI: 10.484
L2C LOAD INSTRUCTION	ACCESS:    2778660  HIT:    2491268  MISS:     287392  HIT %:    89.6572  MISS %:    10.3428  MPKI: 5.74784
L2C LOAD TRANSLATION INSTRUCTION	ACCESS:        467  HIT:        142  MISS:        325  HIT %:    30.4069  MISS %:    69.5931  MPKI: 0.0065
L2C LOAD DATA	ACCESS:     730463  HIT:     646893  MISS:      83570  HIT %:    88.5593  MISS %:    11.4407  MPKI: 1.6714
L2C RFO DATA	ACCESS:     287840  HIT:     230584  MISS:      57256  HIT %:    80.1084  MISS %:    19.8916  MPKI: 1.14512
L2C PREFETCH DATA	ACCESS:     187949  HIT:     112488  MISS:      75461  HIT %:    59.8503  MISS %:    40.1497  MPKI: 1.50922
L2C WRITEBACK DATA	ACCESS:     526357  HIT:     507553  MISS:      18804  HIT %:    96.4275  MISS %:    3.57248  MPKI: 0.37608
L2C LOAD TRANSLATION DATA	ACCESS:       1869  HIT:        497  MISS:       1372  HIT %:    26.5918  MISS %:    73.4082  MPKI: 0.02744
L2C TRANSLATION FROM L1D PREFETCHER DATA	ACCESS:         61  HIT:         39  MISS:         22  HIT %:    63.9344  MISS %:    36.0656  MPKI: 0.00044

L2C PREFETCH  REQUESTED:      95450  ISSUED:      95450  USEFUL:       8684  USELESS:      67289
L2C USEFUL LOAD PREFETCHES:       8684 PREFETCH ISSUED TO LOWER LEVEL:      75897  ACCURACY: 11.4418
 TIMELY PREFETCHES:       8684 LATE PREFETCHES: 436 DROPPED PREFETCHES: 0
L2C AVERAGE MISS LATENCY: 37.7501 cycles
L2C RQ	ACCESS:    3799413	FORWARD:          0	MERGED:          0	TO_CACHE:    3799360
L2C WQ	ACCESS:     526357	FORWARD:         53	MERGED:          0	TO_CACHE:     526357
L2C PQ	ACCESS:     197122	FORWARD:          0	MERGED:       4136	TO_CACHE:     192986

L2C Dense regions hint from L2: 0
PSCL5 TOTAL     ACCESS:       4470  HIT:       2235  MISS:       2235  HIT %:         50  MISS %:         50   MPKI: 0.0447
PSCL5 LOAD TRANSLATION INSTRUCTION	ACCESS:       4348  HIT:       2174  MISS:       2174  HIT %:         50  MISS %:         50  MPKI: 0.04348
PSCL5 TRANSLATION FROM L1D PREFETCHER INSTRUCTION	ACCESS:        122  HIT:         61  MISS:         61  HIT %:         50  MISS %:         50  MPKI: 0.00122


PSCL4 TOTAL     ACCESS:       3006  HIT:       1500  MISS:       1506  HIT %:    49.9002  MISS %:    50.0998   MPKI: 0.03012
PSCL4 LOAD TRANSLATION INSTRUCTION	ACCESS:       2534  HIT:       1464  MISS:       1070  HIT %:    57.7743  MISS %:    42.2257  MPKI: 0.0214
PSCL4 TRANSLATION FROM L1D PREFETCHER INSTRUCTION	ACCESS:         72  HIT:         36  MISS:         36  HIT %:         50  MISS %:         50  MPKI: 0.00072
PSCL4 LOAD TRANSLATION DATA	ACCESS:        400  HIT:          0  MISS:        400  HIT %:          0  MISS %:        100  MPKI: 0.008


PSCL3 TOTAL     ACCESS:       4293  HIT:       2138  MISS:       2155  HIT %:     49.802  MISS %:     50.198   MPKI: 0.0431
PSCL3 LOAD TRANSLATION INSTRUCTION	ACCESS:       3786  HIT:       2092  MISS:       1694  HIT %:    55.2562  MISS %:    44.7438  MPKI: 0.03388
PSCL3 TRANSLATION FROM L1D PREFETCHER INSTRUCTION	ACCESS:         92  HIT:         46  MISS:         46  HIT %:         50  MISS %:         50  MPKI: 0.00092
PSCL3 LOAD TRANSLATION DATA	ACCESS:        415  HIT:          0  MISS:        415  HIT %:          0  MISS %:        100  MPKI: 0.0083


PSCL2 TOTAL     ACCESS:       4329  HIT:       2094  MISS:       2235  HIT %:    48.3714  MISS %:    51.6286   MPKI: 0.0447
PSCL2 LOAD TRANSLATION INSTRUCTION	ACCESS:       2450  HIT:       2033  MISS:        417  HIT %:    82.9796  MISS %:    17.0204  MPKI: 0.00834
PSCL2 TRANSLATION FROM L1D PREFETCHER INSTRUCTION	ACCESS:         61  HIT:         61  MISS:          0  HIT %:        100  MISS %:          0  MPKI: 0
PSCL2 LOAD TRANSLATION DATA	ACCESS:       1757  HIT:          0  MISS:       1757  HIT %:          0  MISS %:        100  MPKI: 0.03514
PSCL2 TRANSLATION FROM L1D PREFETCHER DATA	ACCESS:         61  HIT:          0  MISS:         61  HIT %:          0  MISS %:        100  MPKI: 0.00122


LLC TOTAL     ACCESS:     586085  HIT:     557219  MISS:      28866  HIT %:    95.0748  MISS %:    4.92522   MPKI: 0.57732
LLC LOAD INSTRUCTION	ACCESS:     287392  HIT:     286502  MISS:        890  HIT %:    99.6903  MISS %:   0.309682  MPKI: 0.0178
LLC LOAD TRANSLATION INSTRUCTION	ACCESS:        325  HIT:        295  MISS:         30  HIT %:    90.7692  MISS %:    9.23077  MPKI: 0.0006
LLC LOAD DATA	ACCESS:      83170  HIT:      79653  MISS:       3517  HIT %:    95.7713  MISS %:    4.22869  MPKI: 0.07034
LLC RFO DATA	ACCESS:      57210  HIT:      43229  MISS:      13981  HIT %:     75.562  MISS %:     24.438  MPKI: 0.27962
LLC PREFETCH DATA	ACCESS:      75897  HIT:      65875  MISS:      10022  HIT %:    86.7953  MISS %:    13.2047  MPKI: 0.20044
LLC WRITEBACK DATA	ACCESS:      80697  HIT:      80357  MISS:        340  HIT %:    99.5787  MISS %:   0.421329  MPKI: 0.0068
LLC LOAD TRANSLATION DATA	ACCESS:       1372  HIT:       1288  MISS:         84  HIT %:    93.8776  MISS %:    6.12245  MPKI: 0.00168
LLC TRANSLATION FROM L1D PREFETCHER DATA	ACCESS:         22  HIT:         20  MISS:          2  HIT %:    90.9091  MISS %:    9.09091  MPKI: 4e-05

LLC AVERAGE MISS LATENCY: 158.961 cycles
LLC RQ	ACCESS:     429501	FORWARD:          0	MERGED:          0	TO_CACHE:     429491
LLC WQ	ACCESS:      80697	FORWARD:         10	MERGED:          0	TO_CACHE:      80697
LLC PQ	ACCESS:      75897	FORWARD:          0	MERGED:          0	TO_CACHE:      75897

LLC Dense regions hint to LLC: 0

RAW hits: 1825325
Loads Generated: 12641886
Loads sent to L1D: 10816561
Stores Generated: 6962748
Stores sent to L1D: 6962760
Major fault: 0 Minor fault: 2609
Allocated PAGES: 2609

stream: 
stream:times selected: 1170097
stream:pref_filled: 120021
stream:pref_useful: 23815
stream:pref_late: 6662
stream:misses: 6712
stream:misses_by_poll: 0

CS: 
CS:times selected: 176493
CS:pref_filled: 58779
CS:pref_useful: 35194
CS:pref_late: 7097
CS:misses: 16007
CS:misses_by_poll: 2

CPLX: 
CPLX:times selected: 992484
CPLX:pref_filled: 19235
CPLX:pref_useful: 4273
CPLX:pref_late: 3049
CPLX:misses: 90764
CPLX:misses_by_poll: 2

NL_L1: 
NL:times selected: 19136
NL:pref_filled: 535
NL:pref_useful: 232
NL:pref_late: 210
NL:misses: 1051
NL:misses_by_poll: 0

total selections: 2358210
total_filled: 93433
total_useful: 34005
total_late: 18267
total_polluted: 4
total_misses_after_warmup: 773549
conflicts: 5610816

test: 112627

DRAM Statistics
 CHANNEL 0
 RQ ROW_BUFFER_HIT:      10464  ROW_BUFFER_MISS:      18048
 DBUS_CONGESTED:         13
 WQ ROW_BUFFER_HIT:       1325  ROW_BUFFER_MISS:      12567  FULL:          0

 AVG_CONGESTED_CYCLE: 6

CPU 0 Branch Prediction Accuracy: 99.821% MPKI: 0.3275 Average ROB Occupancy at Mispredict: 143.656
Branch types
NOT_BRANCH: 40852372 81.7047%
BRANCH_DIRECT_JUMP: 547872 1.09574%
BRANCH_INDIRECT: 182500 0.365%
BRANCH_CONDITIONAL: 6173856 12.3477%
BRANCH_DIRECT_CALL: 949383 1.89877%
BRANCH_INDIRECT_CALL: 172183 0.344366%
BRANCH_RETURN: 1121563 2.24313%
BRANCH_OTHER: 0 0%

DRAM PAGES: 1048576
Allocated PAGES: 2609
Average_ROB_Occupancy: 148.263
Average_Decode_Occupancy: 19.0067
Average_FTQ_Occupancy: 8.44991
Indirect max targets: 14 Average targets: 1.1746
Branch_type:  BRANCH_DIRECT_JUMP:  Count Percentage: 3.28652 5.30835 4.9489 9.76606 2.76392 6.5168 1.58569 65.8238 
Branch_type:  BRANCH_INDIRECT:  Count Percentage: 19.7444 3.41835 5.30976 3.77518 3.34993 10.8765 3.22707 50.2988 
Branch_type:  BRANCH_CONDITIONAL:  Count Percentage: 22.046 5.61533 2.57121 4.25941 2.76101 8.56215 0.953546 53.2314 
Branch_type:  BRANCH_DIRECT_CALL:  Count Percentage: 0.777439 1.31549 1.00463 4.69668 3.38467 2.73809 0.696992 85.386 
Branch_type:  BRANCH_INDIRECT_CALL:  Count Percentage: 9.57961 0 3.00416 4.30284 0.861033 2.99659 0.997215 78.2586 
Branch_type:  BRANCH_RETURN:  Count Percentage: 5.12398 4.33964 2.59448 3.98773 6.17649 9.66519 1.18359 66.9289 
Branch_type:  BRANCH_DIRECT_JUMP:  Total Count: 35997 58142 54205 106967 30273 71378 17368 720963 
Branch_type:  BRANCH_INDIRECT:  Total Count: 72154 12492 19404 13796 12242 39747 11793 183812 
Branch_type:  BRANCH_CONDITIONAL:  Total Count: 2721477 693187 317405 525805 340835 1056960 117711 6571176 
Branch_type:  BRANCH_DIRECT_CALL:  Total Count: 14728 24921 19032 88975 64120 51871 13204 1617574 
Branch_type:  BRANCH_INDIRECT_CALL:  Total Count: 32921 0 10324 14787 2959 10298 3427 268941 
Branch_type:  BRANCH_RETURN:  Total Count: 114723 97162 58089 89283 138288 216398 26500 1498500 
Number of unique branch instructions: 10676
Upper 32 bits: 
aaaa
ffff
ffff0000
Unique upper 32 bits: 3
Unique upper 36 bits: 3
Unique upper 40 bits: 5
Unique upper 44 bits: 32
Unique upper 48 bits: 158
Variant_0 : 1120 0.273438
Variant_1 : 2762 0.674316
Variant_2 : 0 0
Variant_3 : 0 0
Offset_3 4428
Offset_4 258
Offset_5 477
Offset_6 535
Offset_7 634
Offset_8 572
Offset_9 511
Offset_10 415
Offset_11 340
Offset_12 307
Offset_13 240
Offset_14 245
Offset_15 194
Offset_16 227
Offset_17 165
Offset_18 148
Offset_19 261
Offset_20 141
Offset_21 235
Offset_22 411
Offset_23 241
Offset_24 349
Offset_25 117
Offset_47 94
Offset_64 1
decode_dispatch_called: 20775120 50.2766
Dispatch_width: 0 10683227 51.4232 25.8538
Dispatch_width: 1 557330 2.68268 1.34876
Dispatch_width: 2 603190 2.90342 1.45974
Dispatch_width: 3 398818 1.91969 0.965156
Dispatch_width: 4 1947354 9.37349 4.71268
Dispatch_width: 5 260908 1.25587 0.631408
Dispatch_width: 6 6324293 30.4417 15.305
Empty_decode_cycles: 20546498 49.7234
ROB_full_cycles: 3048833 7.3783
Starvation_cycles_per_kilo_instr: 319.485
Starvation_cycles_per_kilo_instr_3: 297.402
Starvation_cycles_per_kilo_instr_0: 281.809
Branch_type_1  (3,1)  (4,9)  (5,39)  (6,72)  (7,124)  (8,148)  (9,133)  (10,109)  (11,76)  (12,47)  (13,11)  (14,2)  (15,3)  (16,4)  (18,1)  (19,5)  (20,2)  (21,1)  (22,3)  (23,2)  (24,10)  (25,12) 
Branch_type_2  (3,1)  (4,1)  (5,1)  (8,4)  (9,4)  (10,1)  (12,1)  (13,1)  (14,1)  (16,3)  (17,2)  (20,2)  (21,2)  (23,5)  (24,1)  (47,43) 
Branch_type_3  (3,4426)  (4,248)  (5,433)  (6,447)  (7,481)  (8,354)  (9,280)  (10,167)  (11,129)  (12,54)  (13,10)  (64,1) 
Branch_type_4  (6,3)  (7,8)  (8,25)  (9,56)  (10,66)  (11,69)  (12,114)  (13,102)  (14,110)  (15,92)  (16,99)  (17,76)  (18,63)  (19,128)  (20,72)  (21,124)  (22,217)  (23,136)  (24,204)  (25,101) 
Branch_type_5  (8,3)  (9,1)  (10,4)  (11,5)  (12,3)  (13,14)  (14,16)  (15,11)  (16,22)  (17,11)  (18,23)  (19,14)  (20,11)  (21,13)  (22,43)  (23,26)  (24,38) 
Branch_type_6  (5,4)  (6,13)  (7,21)  (8,38)  (9,37)  (10,68)  (11,61)  (12,88)  (13,102)  (14,116)  (15,88)  (16,99)  (17,76)  (18,61)  (19,114)  (20,54)  (21,95)  (22,148)  (23,72)  (24,96)  (25,4)  (47,51) 
Unique trigger count: 
Variant_0_evicts_0 : 0
Variant_0_evicts_1 : 0
Variant_0_evicts_2 : 0
Variant_0_evicts_3 : 0
Variant_1_evicts_0 : 0
Variant_1_evicts_1 : 0
Variant_1_evicts_2 : 0
Variant_1_evicts_3 : 0
Variant_2_evicts_0 : 0
Variant_2_evicts_1 : 0
Variant_2_evicts_2 : 0
Variant_2_evicts_3 : 0
Variant_3_evicts_0 : 0
Variant_3_evicts_1 : 0
Variant_3_evicts_2 : 0
Variant_3_evicts_3 : 0
BTB PER SET UNIQUE ADDR: 2 7 3 5 5 4 7 4 1 6 5 5 3 5 10 9 3 4 3 2 4 6 6 9 5 6 4 4 6 8 6 5 4 8 5 7 8 4 5 9 5 7 5 4 6 6 5 4 6 7 9 4 5 4 2 7 5 3 7 5 6 7 4 6 6 2 5 4 4 7 8 4 5 7 7 9 3 6 5 7 9 6 6 9 6 3 6 2 5 8 6 5 6 7 3 1 5 4 4 7 6 4 4 6 4 5 5 4 5 7 5 3 4 10 2 5 5 5 5 10 6 6 5 4 9 7 4 6 6 2 3 6 3 6 10 5 5 2 5 5 3 4 8 7 3 9 4 5 5 7 3 2 4 11 2 5 6 3 6 5 2 7 4 4 9 3 1 5 8 9 7 6 6 4 6 6 4 6 5 6 4 4 5 7 5 5 4 5 5 6 5 3 6 6 1 5 6 5 5 5 6 6 3 5 1 8 4 5 6 8 2 3 7 6 6 4 8 4 4 5 5 9 8 8 5 10 7 4 7 9 3 5 6 10 3 7 5 7 5 6 5 5 5 4 5 4 3 4 4 7 3 7 4 3 5 5 6 4 7 1 8 7 5 4 4 4 5 6 9 5 7 7 6 6 8 4 6 2 6 9 10 3 4 7 4 5 11 5 10 6 5 3 9 7 7 5 3 3 6 4 14 3 5 7 3 3 6 6 8 4 7 4 8 5 5 4 5 7 7 3 6 8 4 4 11 6 3 5 2 7 4 10 3 6 4 6 7 7 6 8 2 6 6 4 5 4 4 7 3 4 7 5 4 2 8 4 4 6 5 4 10 5 3 7 6 10 5 8 4 3 8 7 10 5 5 5 6 6 5 2 5 5 4 5 8 4 4 6 4 5 3 3 4 7 5 5 6 3 5 4 7 6 7 4 4 10 11 4 9 2 6 3 1 6 6 2 6 4 5 6 6 0 5 4 6 4 6 7 5 9 10 3 3 4 6 1 4 2 2 3 8 6 4 1 6 0 3 5 5 4 7 2 6 4 5 3 7 3 11 5 4 6 4 12 2 8 4 7 3 6 4 7 3 6 4 8 4 2 3 7 6 3 6 5 3 4 6 5 7 6 7 5 6 6 7 4 7 6 2 9 3 3 4 4 6 6 5 6 3 4 6 3 4 3 4 6 10 6 8 4 7 5 9 5 6 11 1 5 5 3 9 7 4 3 4 6 6 8 3 6 3 9 10 11 5 4 7 10 5 4 3 7 4 5 6 7 7 0 4 5 4 2 5 8 6 3 4 4 11 4 4 4 1 7 2 7 8 2 6 6 1 9 3 7 4 4 3 1 5 7 7 5 6 5 4 7 13 8 3 4 10 3 4 2 5 10 7 0 4 4 5 3 4 6 1 3 10 5 9 7 4 4 5 2 9 6 3 6 5 3 6 9 5 6 7 5 3 8 6 11 3 5 3 2 3 7 6 5 4 6 5 5 5 9 5 8 5 5 3 5 4 5 6 9 6 5 4 10 6 6 9 6 7 4 7 4 4 6 5 8 7 7 4 6 6 8 4 6 8 3 6 2 4 6 5 10 4 9 5 10 5 5 4 4 9 4 3 6 8 8 3 2 2 5 5 5 7 8 2 3 6 6 3 7 6 8 9 8 4 8 4 5 7 5 5 4 6 6 2 11 4 10 5 6 5 3 7 3 4 5 6 4 9 5 9 9 10 2 4 7 7 7 6 7 10 5 7 10 7 7 7 5 1 7 8 7 4 8 3 5 7 4 4 4 11 4 5 8 6 7 5 5 6 5 9 6 6 3 6 6 6 6 7 5 4 3 5 3 6 5 7 3 1 5 9 6 11 4 7 6 9 6 4 5 6 6 5 6 11 5 6 5 2 6 5 4 7 5 2 5 2 8 5 4 4 4 5 6 4 5 3 8 5 4 5 5 9 8 5 3 2 5 5 9 6 6 9 8 5 6 3 4 6 4 3 3 5 7 1 6 6 6 6 5 5 6 8 11 0 0 8 3 3 2 4 6 4 9 6 2 7 3 6 5 4 1 4 6 7 8 8 5 5 8 10 9 6 4 8 5 8 1 7 7 4 6 5 7 6 5 2 8 8 6 5 7 4 5 2 6 6 5 4 4 6 5 4 4 5 5 9 6 3 2 11 5 9 4 3 3 4 4 8 6 7 3 5 5 3 3 4 3 4 5 2 4 3 12 6 7 4 5 7 6 9 4 3 6 9 3 4 6 6 12 8 3 4 4 3 4 7 5 7 5 2 6 5 11 5 4 3 8 8 5 5 5 7 6 3 4 5 3 5 7 8 4 7 8 4 6 6 2 5 6 5 8 8 6 2 4 5 5 4 5 7 5 4 7 3 4 6 6 4 5 4 7 10 8 6 2 5 8 3 5 3 8 8 6 9 6 2 5 2 8 9 4 5 8 5 4 8 2 4 5 7 5 4 3 3 6 7 7 7 6 6 3 4 5 4 3 5 11 7 9 4 6 2 6 3 3 6 7 5 4 9 4 7 6 5 6 5 6 4 9 3 7 6 7 4 2 6 5 8 2 6 4 3 6 3 5 8 9 7 3 5 6 2 5 5 6 5 5 1 5 5 4 6 9 7 6 4 2 6 6 2 3 6 6 5 7 7 5 5 5 4 8 4 8 3 7 7 2 9 4 3 3 6 4 7 7 9 7 4 1 7 4 8 5 4 5 6 4 4 3 7 6 5 3 9 4 5 5 7 7 1 6 7 3 8 5 8 2 6 5 4 6 9 5 5 5 4 3 5 3 7 6 4 6 3 3 5 7 4 4 5 5 8 5 2 6 3 7 4 4 4 2 3 5 2 7 2 5 5 4 5 2 7 8 4 10 5 5 10 3 6 7 6 9 7 4 7 6 5 7 4 6 4 6 12 9 7 5 5 9 6 5 8 3 5 6 3 6 5 6 8 5 8 8 8 9 10 6 3 5 10 6 4 4 5 4 3 6 6 5 6 3 5 4 9 10 6 5 3 6 6 4 5 6 4 6 5 7 6 6 9 10 4 6 8 7 5 3 6 7 4 2 6 1 4 6 3 9 7 8 5 2 5 4 6 7 3 5 4 12 9 7 4 5 3 4 2 5 3 4 4 4 5 6 4 2 1 4 8 6 2 6 6 5 5 4 7 5 9 3 2 6 10 7 4 4 2 6 11 7 10 7 3 2 2 5 6 5 4 6 7 10 6 4 4 8 8 2 5 5 9 6 6 9 6 3 7 7 7 4 5 4 7 6 5 4 3 4 3 6 6 5 5 4 12 7 6 4 5 7 9 8 5 5 5 8 5 4 6 1 5 2 7 6 5 10 6 7 4 9 7 4 5 4 4 6 5 7 6 8 5 10 6 4 6 2 7 5 11 7 7 6 8 4 7 3 6 5 10 4 3 7 5 9 8 11 9 2 5 7 9 4 12 6 6 2 5 4 5 4 6 9 4 4 2 5 4 3 7 6 6 6 5 8 3 2 5 5 6 4 3 5 4 6 5 4 3 8 7 4 3 5 5 7 6 6 8 4 8 5 3 6 5 8 5 3 6 4 5 7 3 8 8 5 4 8 8 5 3 6 5 3 3 6 5 6 5 5 5 7 5 5 11 5 8 7 3 6 7 4 4 7 4 6 9 4 4 9 8 8 4 6 3 3 3 4 5 6 8 5 6 5 8 5 7 4 4 6 10 4 5 6 7 4 4 9 10 5 3 4 4 4 4 5 8 3 4 7 4 6 6 5 4 5 2 2 7 4 3 3 6 5 1 5 4 5 6 4 6 1 1 4 6 6 12 2 3 8 3 3 5 4 2 6 4 6 2 5 3 2 4 8 9 3 4 4 2 1 7 4 3 4 4 6 4 6 2 4 3 8 8 5 8 5 4 4 3 3 5 7 3 8 3 6 9 7 3 3 8 3 2 6 6 7 5 5 7 3 4 3 5 6 1 1 4 4 7 8 3 8 5 6 6 5 8 4 4 4 7 9 0 7 5 7 6 10 5 8 4 5 10 6 6 6 3 7 3 8 4 4 4 4 5 4 4 5 4 4 3 4 1 2 4 2 7 2 6 5 6 2 5 4 3 9 2 6 3 3 8 6 8 7 6 4 5 3 4 7 5 2 5 5 6 4 5 8 5 4 2 3 5 6 5 4 4 6 4 6 5 6 6 2 5 6 5 6 2 3 6 4 5 5 2 5 4 3 3 8 4 6 4 4 4 7 5 8 2 6 3 5 6 8 4 6 3 2 3 3 3 5 3 11 1 6 2 7 3 3 3 5 3 5 3 1 3 7 2 4 6 4 3 7 5 2 4 6 6 6 9 2 5 8 2 5 11 5 1 1 8 9 1 5 6 8 6 5 5 5 10 8 9 8 4 1 5 3 4 5 6 7 9 9 5 5 3 7 3 8 6 7 6 8 6 7 6 8 6 4 5 7 6 7 5 6 3 9 3 6 6 12 8 3 5 9 3 6 5 5 3 3 9 8 4 8 4 6 3 5 7 6 6 4 4 3 7 4 3 5 6 10 5 4 4 8 8 8 3 9 7 4 4 9 6 5 8 2 3 12 4 3 5 5 4 16 5 5 4 7 3 5 2 5 8 7 
BTB PER SET COUNT: 2 1818 426 732 197 80 351 191 1 1075 867 374 3 1437 1143 143 219 216 3 2 249 669 562 256 382 1020 155 200 480 457 385 183 231 1297 151 214 965 325 145 1194 10 1762 7 14 814 810 10 144 214 762 807 4 781 5 2 492 472 1147 620 235 1167 723 8 14 118 3 245 229 4 781 1224 103 89 852 19 887 5 186 855 273 709 352 159 516 254 6 679 2 562 1629 417 530 1446 510 5 1 109 4 117 325 276 121 136 8 58 6 140 194 667 685 28 3 241 1239 4 282 297 8 283 2033 368 232 1582 4 410 816 8 367 1080 2 3 144 3 189 333 334 142 2 396 642 6 679 1020 341 3 347 4 8 113 406 229 502 8 858 2 1665 275 921 315 225 2 123 5 430 792 125 1 11 260 361 290 395 401 133 298 237 5 278 5 570 85 196 188 251 244 282 49 12 7 54 80 3 602 397 1 578 21 699 1297 6 232 311 95 348 1 486 6 420 307 10 4 4 540 509 295 188 802 340 4 246 10 456 270 710 445 1071 131 8 235 1113 166 278 6 3407 5 310 10 330 316 612 497 224 303 163 309 141 7790 13 4 224 3 750 9 137 345 20 1759 194 257 1 459 57 311 363 20 456 10 625 404 42 196 369 17 164 799 274 286 223 249 612 696 4 329 539 4 161 1302 291 498 21 18 3 1242 328 480 154 3 3 298 11 856 200 1477 343 4 4 266 53 258 12 163 6 157 184 8 393 39 474 320 3 419 466 207 158 1413 152 307 219 2 355 12 800 207 595 176 150 911 236 250 447 2 348 271 5 600 219 476 510 4 154 338 10 69 3 437 5 349 471 498 144 1330 394 8 773 115 2553 464 1102 4 277 1010 590 1255 8 277 163 773 222 132 2 44 1058 14 804 986 9 5 266 4 102 3 3 9 113 184 6 1734 4 289 162 1054 425 273 4 337 883 2486 415 80 3 11 71 1 304 635 9 409 427 415 139 384 0 6 221 200 496 453 504 872 114 764 50 7 197 80 1 4 3 2 3 1098 172 5 1 191 0 2473 40 362 187 913 828 257 218 142 4 352 4 775 230 877 12 40 1152 2 720 178 617 4 683 169 1121 199 146 981 232 139 2 3 472 64 356 412 400 17 4 167 364 586 511 765 493 285 293 365 993 418 189 66 622 3 110 5 285 219 578 153 142 3 4 1029 4 804 964 13 182 712 1013 433 255 382 136 946 7 143 1033 1 5 223 3 1401 556 5 6 6 124 790 520 3 159 131 506 906 1231 411 1447 939 1003 230 156 5 1594 965 5 282 243 1023 0 5 121 630 2 543 305 193 3 1548 84 1886 244 217 285 1 1017 2 546 700 3 169 23 1 537 3 421 4 151 228 1 5 1999 170 344 671 915 216 760 722 375 3 64 538 10 262 2 38 1095 958 0 96 123 6 3 1005 525 1 302 696 433 12550 608 193 83 141 2 478 339 201 60 150 7 557 1181 105 450 585 573 3 589 185 1531 3 234 425 2 5 412 229 201 5 326 364 10 287 1166 9 304 270 248 3 6 228 8 9 30 531 802 4 1188 163 995 631 435 266 4 730 44 156 980 136 770 619 346 83 1174 328 393 256 1467 20 3 443 2 190 490 5 1191 190 839 7 872 116 712 12 5 683 6 5 171 706 577 3 3 277 303 75 889 286 451 2 85 325 421 897 554 665 550 472 432 412 529 303 279 329 153 14 8 198 218 2 2009 159 988 296 312 113 4 149 145 7 598 511 81 333 223 63 398 611 2 4 650 173 21 112 74 262 7 430 3280 506 291 62 234 2 88 695 699 7 756 188 183 544 6 4 157 844 310 548 565 240 753 340 402 6 251 606 521 143 147 387 77 140 8 645 379 61 4 14 3 7 309 422 3 1 254 169 240 1203 282 341 10 589 268 5 105 174 1062 204 899 1557 439 542 214 111 718 6 107 1010 7 2 112 8 676 365 4 205 5 198 748 135 751 3 259 12 251 5 73 455 321 194 3 2 319 205 395 713 12 249 265 594 118 552 150 120 10 3 3 1113 764 1 267 347 882 321 8 10 473 205 1223 0 0 1525 3 144 2 17 367 374 743 957 231 267 91 520 857 97 1 4 88 242 897 361 219 317 345 615 525 16 5 971 571 1371 1 254 165 4 8 1483 276 167 206 2 398 1398 178 72 166 5 1001 232 615 652 226 6 5 735 57 5 8 546 8 793 1044 3 2 2147 362 1065 5 1923 227 245 169 245 179 202 3 566 222 4 118 6 4 4 486 2 4 100 1041 136 85 339 7 622 31 615 6 3 838 455 3 8 528 334 956 251 6 221 73 3 18 222 61 248 1562 2 13 342 1688 895 484 3 293 380 266 110 43 205 1086 3 86 390 372 346 139 432 229 573 769 4 168 269 2 465 277 159 1362 317 141 1474 4 63 8 9 10 466 363 648 51 4 6 348 371 167 126 160 149 753 514 1558 2 6 456 270 476 317 224 467 645 364 267 2 383 2 634 639 4 132 137 107 5 920 2 153 284 516 409 19 100 3 298 801 856 352 197 314 501 5 7 101 3 183 841 447 1528 324 442 2 46 3 5 117 478 496 472 424 5 284 243 9 128 143 28 446 120 3 515 267 204 7 3 114 287 190 5 230 213 3 552 3 433 490 14397 392 284 156 77 2 459 88 13 5 132 1 207 188 377 7 578 1060 40 4 2 122 340 2 3 344 176 7 341 433 7 447 5 221 524 13 9 14 282 430 2 1050 184 4 3 159 282 497 425 601 310 194 1 1505 480 840 364 474 146 195 6 7 7 567 286 764 3 283 373 854 8 576 1977 1 270 652 3 333 174 483 9 305 83 236 97 346 113 204 68 326 3 86 3 705 155 11 405 88 3 69 816 4 8 10 283 847 7 19 266 309 429 8 174 183 2 3 5 2 137 2 190 248 4 577 2 289 151 10 805 139 7 447 3 210 526 96 290 573 268 395 163 11 372 4 1024 4 667 2104 947 138 398 6 1001 231 252 650 3 285 570 7 119 7 445 631 434 450 626 750 554 366 305 4 131 440 8 8 6 288 124 3 362 8 380 175 3 132 1482 319 1658 220 159 5 635 303 5 9 476 172 400 6 12 94 256 583 551 100 331 1122 439 515 3 170 293 18 2 409 2 4 100 360 558 712 259 20 2 242 4 134 683 3 160 207 1325 676 146 246 72 3 486 2 555 3 157 156 16 103 257 8 185 1 9 444 7 2 222 522 12 15 105 638 229 262 4 2 196 860 551 9 511 2 202 956 50 755 1024 3 2 2 601 438 227 36 476 56 539 310 4 248 2524 1289 2 229 3211 686 706 228 216 549 68 137 662 152 102 93 37 364 195 221 11 3 271 5 626 257 11 7 417 595 22 249 5 106 150 731 99 127 10 12 1011 125 397 564 1 7 2 432 281 604 1225 214 669 998 528 370 368 79 129 4 547 156 185 147 407 181 840 473 201 201 2 579 994 618 368 430 7 1154 653 372 3 282 360 1286 4 3 1195 5 407 695 1342 1143 3 12 1087 519 505 1094 337 1009 2 213 6 667 6 144 472 4 175 2 635 84 3 185 21 11 291 140 616 211 2 699 151 175 15 98 8 85 586 190 659 460 749 536 313 4 178 2955 776 556 113 767 9 177 160 3 335 7 1097 10 1476 549 8 91 290 3 705 935 5 183 570 207 226 3 595 474 4 3 654 59 227 306 349 278 460 259 428 920 64 1025 255 209 411 797 123 281 15 6 496 630 4 5 447 466 676 202 203 172 3 3 4 79 115 566 44 389 226 870 7 414 189 102 493 386 276 490 631 474 230 4 757 208 255 213 225 5 169 285 93 859 670 144 387 9 45 415 6 640 371 2 141 178 103 3 12 384 154 1 39 6 363 136 4 169 1 1 140 10 204 1644 3 4 1258 3 4 390 5 2 200 655 308 184 147 3 2 5 927 312 5 4 5 2 1 714 96 138 223 4 324 141 225 7 4 8 745 447 187 489 499 17 245 4 3 46 154 3 678 300 172 609 227 200 3 473 3 2 502 162 663 138 400 503 4 5 102 10 434 1 1 9 277 335 908 3 1274 151 383 365 269 1067 446 4 4 313 857 0 247 233 70 343 1542 316 394 5 488 1756 273 119 204 5 1113 3 524 4 152 210 12 312 5 166 293 4 345 856 4 1 2 4 2 532 6 374 447 366 3 156 4 4 357 2 316 95 307 291 707 694 488 269 12 314 3 156 719 5 3 88 6 202 702 275 808 473 443 2 277 70 1266 760 211 11 804 4 172 45 304 586 2 316 13 1072 376 2 60 487 279 95 245 2 407 7030 303 102 865 97 847 315 4 268 1014 255 886 414 299 241 8 213 289 4 17 3 2 10 5 4 1673 10 514 1 256 382 185 3 94 345 132 4 236 3 1 3 536 2 59 963 719 3 265 358 7 207 929 13 207 1013 2 380 899 2 896 516 79 1 1 305 794 2 162 304 156 67 205 419 310 517 346 692 838 4 1 57 159 204 698 187 439 1018 453 216 123 3 663 90 324 202 495 266 1289 365 660 622 626 805 987 119 561 2478 720 14 250 106 675 113 838 347 1303 77 196 429 936 406 481 529 125 137 7 888 891 6 1080 58 313 3 143 791 493 112 173 1367 374 122 94 3 5 287 438 143 249 212 766 685 634 220 843 355 1470 5 474 1771 12 120 2 5 1824 1294 14 258 441 139 1928 261 399 5 645 245 13 4 222 590 53 
To predecode: 0
Predecoding something: 0
Predecode request dropped: 0
sizeofblock_0 0
sizeofblock_1 210854
sizeofblock_2 234022
sizeofblock_3 0
sizeofblock_4 0
sizeofblock_5 0
sizeofblock_6 0
sizeofblock_7 0
sizeofblock_8 0
Variant_0 Correct: 1388956 Incorrect: 0 Accuracy: 1
Variant_1 Correct: 5437069 Incorrect: 0 Accuracy: 1
Variant_2 Correct: 0 Incorrect: 0 Accuracy: -nan
Variant_3 Correct: 0 Incorrect: 0 Accuracy: -nan
