
*** ChampSim Multicore Out-of-Order Simulator ***

Warmup Instructions: 50000000
Simulation Instructions: 50000000
Number of CPUs: 1
LLC sets: 2048
LLC ways: 16
Off-chip DRAM Size: 4096 MB Channels: 1 Width: 64-bit Data Rate: 6400 MT/s
CPU 0 runs ./micro_traces/srv684.trace.gz
.gz
ITLB has LRU replacement policy
DTLB has LRU replacement policy
STLB has LRU replacement policy
FDIP Prefetcher at L1I
L1I has LRU replacement policy
L1D has LRU replacement policy
Initialize SRRIP state for L2C
Initialize DRRIP state for LLC
Heartbeat_Variant_0 : 1055 0.257568 per_variant_size: 0 1055 0 0 0 0 0 0 0 
Heartbeat_Variant_1 : 1205 0.294189 per_variant_size: 0 862 343 0 0 0 0 0 0 
Heartbeat_Variant_2 : 1514 0.369629 per_variant_size: 0 921 406 139 48 0 0 0 0 
Heartbeat_Variant_3 : 0 0 per_variant_size: 0 0 0 0 0 0 0 0 0 
Heartbeat_Variant_0_evicts 0 : 13439 1 : 9515 2 : 11409 3 : 0 
Heartbeat_Variant_1_evicts 0 : 9519 1 : 0 2 : 11006 3 : 0 
Heartbeat_Variant_2_evicts 0 : 11346 1 : 10981 2 : 0 3 : 0 
Heartbeat_Variant_3_evicts 0 : 0 1 : 0 2 : 0 3 : 0 
Heartbeat CPU 0 instructions: 10000002 cycles: 2798339 heartbeat IPC: 3.57355 cumulative IPC: 3.57355 (Simulation time: 0 hr 2 min 13 sec) 
Heartbeat_Variant_0 : 1066 0.260254 per_variant_size: 0 1066 0 0 0 0 0 0 0 
Heartbeat_Variant_1 : 1216 0.296875 per_variant_size: 0 842 374 0 0 0 0 0 0 
Heartbeat_Variant_2 : 1547 0.377686 per_variant_size: 0 928 417 142 60 0 0 0 0 
Heartbeat_Variant_3 : 0 0 per_variant_size: 0 0 0 0 0 0 0 0 0 
Heartbeat_Variant_0_evicts 0 : 13931 1 : 9589 2 : 11956 3 : 0 
Heartbeat_Variant_1_evicts 0 : 9595 1 : 0 2 : 11371 3 : 0 
Heartbeat_Variant_2_evicts 0 : 11951 1 : 11386 2 : 0 3 : 0 
Heartbeat_Variant_3_evicts 0 : 0 1 : 0 2 : 0 3 : 0 
Heartbeat CPU 0 instructions: 20000002 cycles: 5595776 heartbeat IPC: 3.5747 cumulative IPC: 3.57412 (Simulation time: 0 hr 4 min 17 sec) 
Heartbeat_Variant_0 : 1038 0.253418 per_variant_size: 0 1038 0 0 0 0 0 0 0 
Heartbeat_Variant_1 : 1223 0.298584 per_variant_size: 0 864 359 0 0 0 0 0 0 
Heartbeat_Variant_2 : 1570 0.383301 per_variant_size: 0 960 423 130 57 0 0 0 0 
Heartbeat_Variant_3 : 0 0 per_variant_size: 0 0 0 0 0 0 0 0 0 
Heartbeat_Variant_0_evicts 0 : 13199 1 : 9195 2 : 11216 3 : 0 
Heartbeat_Variant_1_evicts 0 : 9197 1 : 0 2 : 10703 3 : 0 
Heartbeat_Variant_2_evicts 0 : 11242 1 : 10698 2 : 0 3 : 0 
Heartbeat_Variant_3_evicts 0 : 0 1 : 0 2 : 0 3 : 0 
Heartbeat CPU 0 instructions: 30000003 cycles: 8391520 heartbeat IPC: 3.57687 cumulative IPC: 3.57504 (Simulation time: 0 hr 6 min 14 sec) 
Heartbeat_Variant_0 : 1069 0.260986 per_variant_size: 0 1069 0 0 0 0 0 0 0 
Heartbeat_Variant_1 : 1254 0.306152 per_variant_size: 0 881 373 0 0 0 0 0 0 
Heartbeat_Variant_2 : 1520 0.371094 per_variant_size: 0 888 439 128 65 0 0 0 0 
Heartbeat_Variant_3 : 0 0 per_variant_size: 0 0 0 0 0 0 0 0 0 
Heartbeat_Variant_0_evicts 0 : 13741 1 : 9690 2 : 11980 3 : 0 
Heartbeat_Variant_1_evicts 0 : 9694 1 : 0 2 : 11122 3 : 0 
Heartbeat_Variant_2_evicts 0 : 11945 1 : 11102 2 : 0 3 : 0 
Heartbeat_Variant_3_evicts 0 : 0 1 : 0 2 : 0 3 : 0 
Heartbeat CPU 0 instructions: 40000003 cycles: 11187595 heartbeat IPC: 3.57644 cumulative IPC: 3.57539 (Simulation time: 0 hr 8 min 13 sec) 
Heartbeat_Variant_0 : 1058 0.258301 per_variant_size: 0 1058 0 0 0 0 0 0 0 
Heartbeat_Variant_1 : 1219 0.297607 per_variant_size: 0 853 366 0 0 0 0 0 0 
Heartbeat_Variant_2 : 1566 0.382324 per_variant_size: 0 933 438 134 61 0 0 0 0 
Heartbeat_Variant_3 : 0 0 per_variant_size: 0 0 0 0 0 0 0 0 0 
Heartbeat_Variant_0_evicts 0 : 13635 1 : 10050 2 : 11706 3 : 0 
Heartbeat_Variant_1_evicts 0 : 10029 1 : 0 2 : 11284 3 : 0 
Heartbeat_Variant_2_evicts 0 : 11738 1 : 11298 2 : 0 3 : 0 
Heartbeat_Variant_3_evicts 0 : 0 1 : 0 2 : 0 3 : 0 
Heartbeat CPU 0 instructions: 50000001 cycles: 13984421 heartbeat IPC: 3.57548 cumulative IPC: 3.57541 (Simulation time: 0 hr 10 min 10 sec) 

Warmup complete CPU 0 instructions: 50000001 cycles: 13984421 (Simulation time: 0 hr 10 min 10 sec) 

Cycle: 20000000 FTQ IN: 56599874 FTQ occupancy: 17.8907 DECODE IN: 56599836 DECODE occupancy: 45.7759 ROB IN: 56599820 ROB occupancy: 276.93 ROB OUT: 56599820
Heartbeat_Variant_0 : 1072 0.261719 per_variant_size: 0 1072 0 0 0 0 0 0 0 
Heartbeat_Variant_1 : 1227 0.299561 per_variant_size: 0 850 377 0 0 0 0 0 0 
Heartbeat_Variant_2 : 1558 0.380371 per_variant_size: 0 896 451 151 60 0 0 0 0 
Heartbeat_Variant_3 : 0 0 per_variant_size: 0 0 0 0 0 0 0 0 0 
Heartbeat_Variant_0_evicts 0 : 13983 1 : 9986 2 : 12017 3 : 0 
Heartbeat_Variant_1_evicts 0 : 9985 1 : 0 2 : 11696 3 : 0 
Heartbeat_Variant_2_evicts 0 : 12006 1 : 11691 2 : 0 3 : 0 
Heartbeat_Variant_3_evicts 0 : 0 1 : 0 2 : 0 3 : 0 
Heartbeat CPU 0 instructions: 60000000 cycles: 23281685 heartbeat IPC: 1.07559 cumulative IPC: 1.07559 (Simulation time: 0 hr 12 min 1 sec) 
Cycle: 30000000 FTQ IN: 10790853 FTQ occupancy: 6.27576 DECODE IN: 10790891 DECODE occupancy: 13.1961 ROB IN: 10790889 ROB occupancy: 111.2 ROB OUT: 10790541
Heartbeat_Variant_0 : 1043 0.254639 per_variant_size: 0 1043 0 0 0 0 0 0 0 
Heartbeat_Variant_1 : 1255 0.306396 per_variant_size: 0 891 364 0 0 0 0 0 0 
Heartbeat_Variant_2 : 1560 0.380859 per_variant_size: 0 926 424 148 62 0 0 0 0 
Heartbeat_Variant_3 : 0 0 per_variant_size: 0 0 0 0 0 0 0 0 0 
Heartbeat_Variant_0_evicts 0 : 13788 1 : 9734 2 : 11808 3 : 0 
Heartbeat_Variant_1_evicts 0 : 9730 1 : 0 2 : 11529 3 : 0 
Heartbeat_Variant_2_evicts 0 : 11841 1 : 11498 2 : 0 3 : 0 
Heartbeat_Variant_3_evicts 0 : 0 1 : 0 2 : 0 3 : 0 
Heartbeat CPU 0 instructions: 70000000 cycles: 32375334 heartbeat IPC: 1.09967 cumulative IPC: 1.08749 (Simulation time: 0 hr 13 min 43 sec) 
Cycle: 40000000 FTQ IN: 10819247 FTQ occupancy: 6.28852 DECODE IN: 10819157 DECODE occupancy: 13.2651 ROB IN: 10819115 ROB occupancy: 111.761 ROB OUT: 10819111
Heartbeat_Variant_0 : 1067 0.260498 per_variant_size: 0 1067 0 0 0 0 0 0 0 
Heartbeat_Variant_1 : 1237 0.302002 per_variant_size: 0 869 368 0 0 0 0 0 0 
Heartbeat_Variant_2 : 1555 0.379639 per_variant_size: 0 907 437 144 67 0 0 0 0 
Heartbeat_Variant_3 : 0 0 per_variant_size: 0 0 0 0 0 0 0 0 0 
Heartbeat_Variant_0_evicts 0 : 13930 1 : 9992 2 : 12191 3 : 0 
Heartbeat_Variant_1_evicts 0 : 9929 1 : 0 2 : 11855 3 : 0 
Heartbeat_Variant_2_evicts 0 : 12231 1 : 11810 2 : 0 3 : 0 
Heartbeat_Variant_3_evicts 0 : 0 1 : 0 2 : 0 3 : 0 
Heartbeat CPU 0 instructions: 80000003 cycles: 41662795 heartbeat IPC: 1.07672 cumulative IPC: 1.08388 (Simulation time: 0 hr 15 min 26 sec) 
Cycle: 50000000 FTQ IN: 10856800 FTQ occupancy: 6.12751 DECODE IN: 10856890 DECODE occupancy: 12.8668 ROB IN: 10856944 ROB occupancy: 109.127 ROB OUT: 10857094
Heartbeat_Variant_0 : 1095 0.267334 per_variant_size: 0 1095 0 0 0 0 0 0 0 
Heartbeat_Variant_1 : 1210 0.29541 per_variant_size: 0 830 380 0 0 0 0 0 0 
Heartbeat_Variant_2 : 1556 0.379883 per_variant_size: 0 920 431 148 57 0 0 0 0 
Heartbeat_Variant_3 : 0 0 per_variant_size: 0 0 0 0 0 0 0 0 0 
Heartbeat_Variant_0_evicts 0 : 14201 1 : 10129 2 : 12033 3 : 0 
Heartbeat_Variant_1_evicts 0 : 10074 1 : 0 2 : 11790 3 : 0 
Heartbeat_Variant_2_evicts 0 : 12060 1 : 11762 2 : 0 3 : 0 
Heartbeat_Variant_3_evicts 0 : 0 1 : 0 2 : 0 3 : 0 
Heartbeat CPU 0 instructions: 90000001 cycles: 50847333 heartbeat IPC: 1.08879 cumulative IPC: 1.0851 (Simulation time: 0 hr 17 min 7 sec) 
Cycle: 60000000 FTQ IN: 10825605 FTQ occupancy: 6.2946 DECODE IN: 10825605 DECODE occupancy: 13.2045 ROB IN: 10825611 ROB occupancy: 110.486 ROB OUT: 10825624
Heartbeat_Variant_0 : 1082 0.26416 per_variant_size: 0 1082 0 0 0 0 0 0 0 
Heartbeat_Variant_1 : 1228 0.299805 per_variant_size: 0 851 377 0 0 0 0 0 0 
Heartbeat_Variant_2 : 1553 0.37915 per_variant_size: 0 913 441 141 58 0 0 0 0 
Heartbeat_Variant_3 : 0 0 per_variant_size: 0 0 0 0 0 0 0 0 0 
Heartbeat_Variant_0_evicts 0 : 14208 1 : 10007 2 : 12096 3 : 0 
Heartbeat_Variant_1_evicts 0 : 9977 1 : 0 2 : 11815 3 : 0 
Heartbeat_Variant_2_evicts 0 : 12139 1 : 11768 2 : 0 3 : 0 
Heartbeat_Variant_3_evicts 0 : 0 1 : 0 2 : 0 3 : 0 
Heartbeat CPU 0 instructions: 100000001 cycles: 60095214 heartbeat IPC: 1.08133 cumulative IPC: 1.08434 (Simulation time: 0 hr 18 min 45 sec) 
Finished CPU 0 instructions: 50000000 cycles: 46110793 cumulative IPC: 1.08434 (Simulation time: 0 hr 18 min 45 sec) 

ChampSim completed all CPUs

Region of Interest Statistics

CPU 0 cumulative IPC: 1.08434 instructions: 50000000 cycles: 46110793
 Fetch stage stalled: 72.7149  Sim cycles: 46110793 fetch stall cycle: 33529433
 Empty decode stage: 63.9682  Sim cycles: 46110793 fetch stall cycle: 29496245
ITLB TOTAL     ACCESS:    5732112  HIT:    5239090  MISS:     493022  HIT %:    91.3989  MISS %:    8.60105   MPKI: 9.86044
ITLB LOAD TRANSLATION INSTRUCTION	ACCESS:    5629556  HIT:    5136534  MISS:     493022  HIT %:    91.2423  MISS %:    8.75774  MPKI: 9.86044
ITLB TRANSLATION FROM L1D PREFETCHER INSTRUCTION	ACCESS:     102556  HIT:     102556  MISS:          0  HIT %:        100  MISS %:          0  MPKI: 0

ITLB AVERAGE MISS LATENCY: 9.04286 cycles
ITLB RQ	ACCESS:    7526797	FORWARD:          0	MERGED:    1355665	TO_CACHE:    6171132

DTLB TOTAL     ACCESS:    9401851  HIT:    8930788  MISS:     471063  HIT %:    94.9897  MISS %:    5.01032   MPKI: 9.42126
DTLB LOAD TRANSLATION DATA	ACCESS:    9401851  HIT:    8930788  MISS:     471063  HIT %:    94.9897  MISS %:    5.01032  MPKI: 9.42126

DTLB AVERAGE MISS LATENCY: 9.31067 cycles
DTLB RQ	ACCESS:   13672204	FORWARD:          0	MERGED:    4236818	TO_CACHE:    9435386

STLB TOTAL     ACCESS:    1214664  HIT:    1212560  MISS:       2104  HIT %:    99.8268  MISS %:   0.173217   MPKI: 0.04208
STLB LOAD TRANSLATION INSTRUCTION	ACCESS:     493022  HIT:     492733  MISS:        289  HIT %:    99.9414  MISS %:  0.0586181  MPKI: 0.00578
STLB LOAD TRANSLATION DATA	ACCESS:     470807  HIT:     469021  MISS:       1786  HIT %:    99.6207  MISS %:   0.379349  MPKI: 0.03572
STLB TRANSLATION FROM L1D PREFETCHER DATA	ACCESS:     250835  HIT:     250806  MISS:         29  HIT %:    99.9884  MISS %:  0.0115614  MPKI: 0.00058

STLB AVERAGE MISS LATENCY: 68.173 cycles
STLB RQ	ACCESS:    1335139	FORWARD:          0	MERGED:     120437	TO_CACHE:    1214702

STLB Hit, L1D data hit: 0
STLB Hit, L2C data hit: 0
STLB Hit, LLC data hit: 0
STLB Hit, LLC data miss: 0
STLB STLB hints to L2: 0
L1D TOTAL     ACCESS:   13432506  HIT:   12315147  MISS:    1117359  HIT %:    91.6817  MISS %:    8.31832   MPKI: 22.3472
L1D LOAD DATA	ACCESS:    6858420  HIT:    6123697  MISS:     734723  HIT %:    89.2873  MISS %:    10.7127  MPKI: 14.6945
L1D RFO DATA	ACCESS:    6244829  HIT:    5957090  MISS:     287739  HIT %:    95.3924  MISS %:    4.60764  MPKI: 5.75478
L1D PREFETCH DATA	ACCESS:     329257  HIT:     234360  MISS:      94897  HIT %:    71.1784  MISS %:    28.8216  MPKI: 1.89794

L1D PREFETCH  REQUESTED:     742441  ISSUED:     742441  USEFUL:      35421  USELESS:      68295
L1D USEFUL LOAD PREFETCHES:      35421 PREFETCH ISSUED TO LOWER LEVEL:     103752  ACCURACY: 34.1401
 TIMELY PREFETCHES:      35421 LATE PREFETCHES: 8796 DROPPED PREFETCHES: 7
L1D AVERAGE MISS LATENCY: 294437 cycles
L1D RQ	ACCESS:   10936427	FORWARD:          0	MERGED:    3878907	TO_CACHE:    6892029
L1D WQ	ACCESS:    6948049	FORWARD:     165822	MERGED:     167874	TO_CACHE:    6780175
L1D PQ	ACCESS:     371386	FORWARD:          0	MERGED:          0	TO_CACHE:     371055

L1D UNIQUE REGIONS ACCESSED: 0
L1D REGIONS CONFLICTS: 0
L1D Cross Page Prefetch Requests: 6905
L1D Same Page Prefetch Requests: 742316
L1D ROI Sum of L1D PQ occupancy: 4710018
L1D PREFETCHES PUSHED FROM L2C: 0
L1I TOTAL     ACCESS:    7019727  HIT:    4261169  MISS:    2758558  HIT %:    60.7028  MISS %:    39.2972   MPKI: 55.1712
L1I LOAD INSTRUCTION	ACCESS:    6538255  HIT:    3779697  MISS:    2758558  HIT %:     57.809  MISS %:     42.191  MPKI: 55.1712
L1I PREFETCH INSTRUCTION	ACCESS:     481472  HIT:     481472  MISS:          0  HIT %:        100  MISS %:          0  MPKI: 0

L1I PREFETCH  REQUESTED:    1058883  ISSUED:    1058883  USEFUL:          0  USELESS:          0
L1I USEFUL LOAD PREFETCHES:          0 PREFETCH ISSUED TO LOWER LEVEL:          0  ACCURACY: -nan
 TIMELY PREFETCHES:          0 LATE PREFETCHES: 0 DROPPED PREFETCHES: 0
L1I AVERAGE MISS LATENCY: 17.3257 cycles
L1I RQ	ACCESS:    9436698	FORWARD:          0	MERGED:    2663831	TO_CACHE:    6772867
L1I PQ	ACCESS:    1058883	FORWARD:          0	MERGED:     304953	TO_CACHE:     753930

L1BTB TOTAL     ACCESS:    5669312  HIT:    2046295  MISS:    3623017  HIT %:    36.0942  MISS %:    63.9058   MPKI: 72.4603
L1BTB BRANCH_DIRECT_JUMP	ACCESS:     548084  HIT:     144939  MISS:     403145	AVERAGE STALL: 35.7115
L1BTB BRANCH_INDIRECT	ACCESS:     182935  HIT:      65988  MISS:     116947	AVERAGE STALL: 84.4913
L1BTB BRANCH_CONDITIONAL	ACCESS:    2709676  HIT:    1419103  MISS:    1290573	AVERAGE STALL: 36.4683
L1BTB BRANCH_DIRECT_CALL	ACCESS:     943088  HIT:     105166  MISS:     837922	AVERAGE STALL: 36.6985
L1BTB BRANCH_INDIRECT_CALL	ACCESS:     171217  HIT:      21009  MISS:     150208	AVERAGE STALL: 109.821
L1BTB BRANCH_RETURN	ACCESS:    1114312  HIT:     290090  MISS:     824222	AVERAGE STALL: 36.5186
L1BTB BRANCH_OTHER ACCESS:          0  HIT:          0  MISS:          0	AVERAGE STALL: -nan
L1BTB TOTAL ROB OCCUPANCY AT BTB MISS: 12.8721

L2BTB TOTAL     ACCESS:    3597604  HIT:    3101735  MISS:     495869  HIT %:    86.2167  MISS %:    13.7833   MPKI: 9.91738
L2BTB BRANCH_DIRECT_JUMP	ACCESS:     398968  HIT:     348314  MISS:      50654	AVERAGE STALL: 35.7115
L2BTB BRANCH_INDIRECT	ACCESS:     106684  HIT:      97832  MISS:       8852	AVERAGE STALL: 84.4913
L2BTB BRANCH_CONDITIONAL	ACCESS:    1290573  HIT:    1147223  MISS:     143350	AVERAGE STALL: 36.4683
L2BTB BRANCH_DIRECT_CALL	ACCESS:     837922  HIT:     677525  MISS:     160397	AVERAGE STALL: 36.6985
L2BTB BRANCH_INDIRECT_CALL	ACCESS:     140643  HIT:     106496  MISS:      34147	AVERAGE STALL: 109.821
L2BTB BRANCH_RETURN	ACCESS:     822814  HIT:     724345  MISS:      98469	AVERAGE STALL: 36.5186
L2BTB BRANCH_OTHER ACCESS:          0  HIT:          0  MISS:          0	AVERAGE STALL: -nan
L2BTB TOTAL ROB OCCUPANCY AT BTB MISS: 94.0484

L2C TOTAL     ACCESS:    4490947  HIT:    3959137  MISS:     531810  HIT %:    88.1582  MISS %:    11.8418   MPKI: 10.6362
L2C LOAD INSTRUCTION	ACCESS:    2758557  HIT:    2486138  MISS:     272419  HIT %:    90.1246  MISS %:    9.87542  MPKI: 5.44838
L2C LOAD TRANSLATION INSTRUCTION	ACCESS:        326  HIT:        100  MISS:        226  HIT %:    30.6748  MISS %:    69.3252  MPKI: 0.00452
L2C LOAD DATA	ACCESS:     725877  HIT:     639535  MISS:      86342  HIT %:    88.1051  MISS %:    11.8949  MPKI: 1.72684
L2C RFO DATA	ACCESS:     287641  HIT:     219853  MISS:      67788  HIT %:    76.4331  MISS %:    23.5669  MPKI: 1.35576
L2C PREFETCH DATA	ACCESS:     194430  HIT:     114309  MISS:      80121  HIT %:    58.7919  MISS %:    41.2081  MPKI: 1.60242
L2C WRITEBACK DATA	ACCESS:     522203  HIT:     498580  MISS:      23623  HIT %:    95.4763  MISS %:    4.52372  MPKI: 0.47246
L2C LOAD TRANSLATION DATA	ACCESS:       1859  HIT:        584  MISS:       1275  HIT %:    31.4147  MISS %:    68.5853  MPKI: 0.0255
L2C TRANSLATION FROM L1D PREFETCHER DATA	ACCESS:         54  HIT:         38  MISS:         16  HIT %:    70.3704  MISS %:    29.6296  MPKI: 0.00032

L2C PREFETCH  REQUESTED:      98772  ISSUED:      98772  USEFUL:       8914  USELESS:      71813
L2C USEFUL LOAD PREFETCHES:       8914 PREFETCH ISSUED TO LOWER LEVEL:      80535  ACCURACY: 11.0685
 TIMELY PREFETCHES:       8914 LATE PREFETCHES: 414 DROPPED PREFETCHES: 0
L2C AVERAGE MISS LATENCY: 37.4639 cycles
L2C RQ	ACCESS:    3774405	FORWARD:          0	MERGED:          0	TO_CACHE:    3774317
L2C WQ	ACCESS:     522203	FORWARD:         88	MERGED:          0	TO_CACHE:     522203
L2C PQ	ACCESS:     202524	FORWARD:          0	MERGED:       3145	TO_CACHE:     199379

L2C Dense regions hint from L2: 0
PSCL5 TOTAL     ACCESS:       4232  HIT:       2116  MISS:       2116  HIT %:         50  MISS %:         50   MPKI: 0.04232
PSCL5 LOAD TRANSLATION INSTRUCTION	ACCESS:       4128  HIT:       2064  MISS:       2064  HIT %:         50  MISS %:         50  MPKI: 0.04128
PSCL5 TRANSLATION FROM L1D PREFETCHER INSTRUCTION	ACCESS:        104  HIT:         52  MISS:         52  HIT %:         50  MISS %:         50  MPKI: 0.00104


PSCL4 TOTAL     ACCESS:       3888  HIT:       1939  MISS:       1949  HIT %:    49.8714  MISS %:    50.1286   MPKI: 0.03898
PSCL4 LOAD TRANSLATION INSTRUCTION	ACCESS:       2402  HIT:       1891  MISS:        511  HIT %:    78.7261  MISS %:    21.2739  MPKI: 0.01022
PSCL4 TRANSLATION FROM L1D PREFETCHER INSTRUCTION	ACCESS:         65  HIT:         48  MISS:         17  HIT %:    73.8462  MISS %:    26.1538  MPKI: 0.00034
PSCL4 LOAD TRANSLATION DATA	ACCESS:       1390  HIT:          0  MISS:       1390  HIT %:          0  MISS %:        100  MPKI: 0.0278
PSCL4 TRANSLATION FROM L1D PREFETCHER DATA	ACCESS:         31  HIT:          0  MISS:         31  HIT %:          0  MISS %:        100  MPKI: 0.00062


PSCL3 TOTAL     ACCESS:       3922  HIT:       1956  MISS:       1966  HIT %:    49.8725  MISS %:    50.1275   MPKI: 0.03932
PSCL3 LOAD TRANSLATION INSTRUCTION	ACCESS:       2419  HIT:       1908  MISS:        511  HIT %:    78.8756  MISS %:    21.1244  MPKI: 0.01022
PSCL3 TRANSLATION FROM L1D PREFETCHER INSTRUCTION	ACCESS:         65  HIT:         48  MISS:         17  HIT %:    73.8462  MISS %:    26.1538  MPKI: 0.00034
PSCL3 LOAD TRANSLATION DATA	ACCESS:       1407  HIT:          0  MISS:       1407  HIT %:          0  MISS %:        100  MPKI: 0.02814
PSCL3 TRANSLATION FROM L1D PREFETCHER DATA	ACCESS:         31  HIT:          0  MISS:         31  HIT %:          0  MISS %:        100  MPKI: 0.00062


PSCL2 TOTAL     ACCESS:       4128  HIT:       2012  MISS:       2116  HIT %:    48.7403  MISS %:    51.2597   MPKI: 0.04232
PSCL2 LOAD TRANSLATION INSTRUCTION	ACCESS:       2249  HIT:       1962  MISS:        287  HIT %:    87.2388  MISS %:    12.7612  MPKI: 0.00574
PSCL2 TRANSLATION FROM L1D PREFETCHER INSTRUCTION	ACCESS:         50  HIT:         50  MISS:          0  HIT %:        100  MISS %:          0  MPKI: 0
PSCL2 LOAD TRANSLATION DATA	ACCESS:       1779  HIT:          0  MISS:       1779  HIT %:          0  MISS %:        100  MPKI: 0.03558
PSCL2 TRANSLATION FROM L1D PREFETCHER DATA	ACCESS:         50  HIT:          0  MISS:         50  HIT %:          0  MISS %:        100  MPKI: 0.001


LLC TOTAL     ACCESS:     601297  HIT:     571840  MISS:      29457  HIT %:    95.1011  MISS %:    4.89891   MPKI: 0.58914
LLC LOAD INSTRUCTION	ACCESS:     272419  HIT:     271493  MISS:        926  HIT %:    99.6601  MISS %:   0.339918  MPKI: 0.01852
LLC LOAD TRANSLATION INSTRUCTION	ACCESS:        226  HIT:        196  MISS:         30  HIT %:    86.7257  MISS %:    13.2743  MPKI: 0.0006
LLC LOAD DATA	ACCESS:      85953  HIT:      82639  MISS:       3314  HIT %:    96.1444  MISS %:     3.8556  MPKI: 0.06628
LLC RFO DATA	ACCESS:      67749  HIT:      52459  MISS:      15290  HIT %:    77.4314  MISS %:    22.5686  MPKI: 0.3058
LLC PREFETCH DATA	ACCESS:      80535  HIT:      71076  MISS:       9459  HIT %:    88.2548  MISS %:    11.7452  MPKI: 0.18918
LLC WRITEBACK DATA	ACCESS:      93124  HIT:      92754  MISS:        370  HIT %:    99.6027  MISS %:    0.39732  MPKI: 0.0074
LLC LOAD TRANSLATION DATA	ACCESS:       1275  HIT:       1207  MISS:         68  HIT %:    94.6667  MISS %:    5.33333  MPKI: 0.00136
LLC TRANSLATION FROM L1D PREFETCHER DATA	ACCESS:         16  HIT:         16  MISS:          0  HIT %:        100  MISS %:          0  MPKI: 0

LLC AVERAGE MISS LATENCY: 157.301 cycles
LLC RQ	ACCESS:     427652	FORWARD:          0	MERGED:          0	TO_CACHE:     427638
LLC WQ	ACCESS:      93124	FORWARD:         14	MERGED:          0	TO_CACHE:      93124
LLC PQ	ACCESS:      80535	FORWARD:          0	MERGED:          0	TO_CACHE:      80535

LLC Dense regions hint to LLC: 0

RAW hits: 1704498
Loads Generated: 12640928
Loads sent to L1D: 10936427
Stores Generated: 6948049
Stores sent to L1D: 6948049
Major fault: 0 Minor fault: 2534
Allocated PAGES: 2534

stream: 
stream:times selected: 1177166
stream:pref_filled: 122029
stream:pref_useful: 23985
stream:pref_late: 7232
stream:misses: 8014
stream:misses_by_poll: 0

CS: 
CS:times selected: 177639
CS:pref_filled: 59472
CS:pref_useful: 36265
CS:pref_late: 7931
CS:misses: 17533
CS:misses_by_poll: 3

CPLX: 
CPLX:times selected: 998453
CPLX:pref_filled: 20159
CPLX:pref_useful: 4621
CPLX:pref_late: 3201
CPLX:misses: 93345
CPLX:misses_by_poll: 2

NL_L1: 
NL:times selected: 21052
NL:pref_filled: 740
NL:pref_useful: 331
NL:pref_late: 310
NL:misses: 1836
NL:misses_by_poll: 0

total selections: 2374310
total_filled: 94897
total_useful: 35421
total_late: 19950
total_polluted: 5
total_misses_after_warmup: 768344
conflicts: 5672442

test: 116375

DRAM Statistics
 CHANNEL 0
 RQ ROW_BUFFER_HIT:      11179  ROW_BUFFER_MISS:      17894
 DBUS_CONGESTED:          9
 WQ ROW_BUFFER_HIT:       1363  ROW_BUFFER_MISS:      12777  FULL:          0

 AVG_CONGESTED_CYCLE: 4

CPU 0 Branch Prediction Accuracy: 99.8221% MPKI: 0.32524 Average ROB Occupancy at Mispredict: 123.454
Branch types
NOT_BRANCH: 40858303 81.7166%
BRANCH_DIRECT_JUMP: 548084 1.09617%
BRANCH_INDIRECT: 182935 0.36587%
BRANCH_CONDITIONAL: 6181706 12.3634%
BRANCH_DIRECT_CALL: 943088 1.88618%
BRANCH_INDIRECT_CALL: 171217 0.342434%
BRANCH_RETURN: 1114312 2.22862%
BRANCH_OTHER: 0 0%

DRAM PAGES: 1048576
Allocated PAGES: 2534
Average_ROB_Occupancy: 111.628
Average_Decode_Occupancy: 13.0645
Average_FTQ_Occupancy: 6.2182
Indirect max targets: 14 Average targets: 1.14576
Branch_type:  BRANCH_DIRECT_JUMP:  Count Percentage: 4.13226 5.71712 3.64592 3.3248 10.5588 2.55252 2.64107 67.4275 
Branch_type:  BRANCH_INDIRECT:  Count Percentage: 11.7662 3.38803 2.50537 0 13.0306 2.81714 2.95616 63.5365 
Branch_type:  BRANCH_CONDITIONAL:  Count Percentage: 24.9567 3.10411 5.33893 2.69918 5.26439 2.43865 3.81637 52.3817 
Branch_type:  BRANCH_DIRECT_CALL:  Count Percentage: 0.386912 1.792 1.13216 2.5196 4.89495 2.33901 4.4314 82.504 
Branch_type:  BRANCH_INDIRECT_CALL:  Count Percentage: 9.54083 0 2.99136 6.37671 0 2.80816 3.84641 74.4365 
Branch_type:  BRANCH_RETURN:  Count Percentage: 7.6525 1.90037 5.80011 2.84993 5.1865 3.63428 4.27393 68.7024 
Branch_type:  BRANCH_DIRECT_JUMP:  Total Count: 45219 62562 39897 36383 115544 27932 28901 737854 
Branch_type:  BRANCH_INDIRECT:  Total Count: 42911 12356 9137 0 47522 10274 10781 231715 
Branch_type:  BRANCH_CONDITIONAL:  Total Count: 3082260 383371 659380 333360 650175 301184 471338 6469356 
Branch_type:  BRANCH_DIRECT_CALL:  Total Count: 7325 33926 21434 47701 92671 44282 83895 1561961 
Branch_type:  BRANCH_INDIRECT_CALL:  Total Count: 32861 0 10303 21963 0 9672 13248 256378 
Branch_type:  BRANCH_RETURN:  Total Count: 171294 42538 129830 63793 116095 81350 95668 1537839 
Number of unique branch instructions: 9822
Upper 32 bits: 
aaaa
ffff
ffff0000
Unique upper 32 bits: 3
Unique upper 36 bits: 3
Unique upper 40 bits: 5
Unique upper 44 bits: 32
Unique upper 48 bits: 154
Variant_0 : 1082 0.26416
Variant_1 : 1228 0.299805
Variant_2 : 1553 0.37915
Variant_3 : 0 0
Offset_3 4037
Offset_4 250
Offset_5 448
Offset_6 501
Offset_7 577
Offset_8 502
Offset_9 469
Offset_10 378
Offset_11 303
Offset_12 272
Offset_13 199
Offset_14 228
Offset_15 184
Offset_16 223
Offset_17 143
Offset_18 118
Offset_19 238
Offset_20 137
Offset_21 235
Offset_22 392
Offset_23 243
Offset_24 325
Offset_25 88
Offset_47 80
decode_dispatch_called: 20247371 43.9103
Dispatch_width: 0 10209153 50.4221 22.1405
Dispatch_width: 1 543245 2.68304 1.17813
Dispatch_width: 2 684057 3.3785 1.48351
Dispatch_width: 3 466498 2.30399 1.01169
Dispatch_width: 4 1510594 7.46069 3.27601
Dispatch_width: 5 356380 1.76013 0.772878
Dispatch_width: 6 6477444 31.9915 14.0476
Empty_decode_cycles: 25863422 56.0897
ROB_full_cycles: 1883154 4.08398
Starvation_cycles_per_kilo_instr: 377.502
Starvation_cycles_per_kilo_instr_3: 358.832
Starvation_cycles_per_kilo_instr_0: 341.894
Branch_type_1  (3,1)  (4,9)  (5,37)  (6,69)  (7,112)  (8,129)  (9,122)  (10,97)  (11,67)  (12,43)  (13,5)  (14,2)  (15,3)  (16,4)  (18,1)  (19,4)  (20,2)  (21,1)  (22,3)  (23,2)  (24,10)  (25,12) 
Branch_type_2  (3,1)  (5,1)  (8,3)  (9,3)  (12,1)  (13,1)  (14,1)  (16,3)  (17,2)  (20,2)  (21,2)  (23,5)  (24,1)  (47,36) 
Branch_type_3  (3,4035)  (4,241)  (5,406)  (6,417)  (7,435)  (8,309)  (9,258)  (10,152)  (11,122)  (12,50)  (13,4) 
Branch_type_4  (6,3)  (7,8)  (8,25)  (9,53)  (10,62)  (11,58)  (12,98)  (13,86)  (14,100)  (15,86)  (16,100)  (17,64)  (18,53)  (19,116)  (20,72)  (21,124)  (22,208)  (23,137)  (24,185)  (25,72) 
Branch_type_5  (8,2)  (9,1)  (10,3)  (11,5)  (12,3)  (13,14)  (14,16)  (15,11)  (16,20)  (17,11)  (18,16)  (19,12)  (20,10)  (21,13)  (22,42)  (23,26)  (24,38) 
Branch_type_6  (5,4)  (6,12)  (7,22)  (8,34)  (9,32)  (10,64)  (11,51)  (12,77)  (13,89)  (14,109)  (15,84)  (16,96)  (17,66)  (18,48)  (19,106)  (20,51)  (21,95)  (22,139)  (23,73)  (24,91)  (25,4)  (47,44) 
Unique trigger count: 
Variant_0_evicts_0 : 0
Variant_0_evicts_1 : 0
Variant_0_evicts_2 : 0
Variant_0_evicts_3 : 0
Variant_1_evicts_0 : 0
Variant_1_evicts_1 : 0
Variant_1_evicts_2 : 0
Variant_1_evicts_3 : 0
Variant_2_evicts_0 : 0
Variant_2_evicts_1 : 0
Variant_2_evicts_2 : 0
Variant_2_evicts_3 : 0
Variant_3_evicts_0 : 0
Variant_3_evicts_1 : 0
Variant_3_evicts_2 : 0
Variant_3_evicts_3 : 0
BTB PER SET UNIQUE ADDR: 2 7 3 7 5 6 7 5 2 6 5 4 2 5 11 8 5 4 4 2 5 9 7 9 4 6 4 3 6 8 6 5 3 6 5 8 6 3 5 9 5 8 4 4 7 6 2 4 7 7 9 5 6 2 3 8 5 3 7 5 4 7 4 8 7 2 5 4 4 8 6 6 5 7 7 9 3 5 6 7 9 7 5 10 6 3 6 3 6 7 6 8 7 7 3 2 4 3 4 7 5 2 4 7 5 4 4 6 6 8 8 1 3 8 2 5 4 6 6 10 5 4 5 4 9 6 3 5 5 2 4 6 3 5 8 6 5 2 7 5 3 4 9 7 4 9 5 5 6 7 3 2 3 10 2 3 6 3 6 5 2 6 4 7 8 2 1 3 9 10 6 6 5 4 4 5 3 6 6 5 5 5 4 9 6 5 4 4 5 6 5 3 5 7 3 6 5 6 6 3 6 7 3 5 1 9 3 4 7 3 2 2 8 6 5 5 7 4 5 5 4 8 6 8 6 10 7 3 7 9 3 5 5 11 4 6 3 7 5 6 5 6 5 6 6 4 4 5 6 6 3 7 4 3 5 6 3 5 7 1 9 6 6 4 4 4 5 5 7 4 7 8 5 5 6 5 6 2 6 9 9 2 4 7 4 5 11 4 8 4 4 2 10 7 8 5 5 3 7 4 13 2 5 9 4 3 6 7 7 3 7 3 9 6 5 5 5 7 6 2 9 8 3 5 9 6 3 5 2 8 4 10 3 5 6 4 6 8 6 7 2 5 5 3 5 6 4 7 2 3 6 8 5 2 7 4 3 6 5 4 11 6 5 7 6 9 6 7 3 3 8 7 9 4 5 4 6 5 5 1 4 5 4 4 8 3 3 7 3 5 5 2 4 6 3 3 5 1 5 3 7 7 6 4 3 9 11 5 8 2 5 4 1 5 6 2 4 4 4 6 6 2 4 4 7 4 5 9 6 6 8 3 3 4 7 1 4 2 2 4 9 5 3 2 3 1 3 5 6 5 9 2 5 4 5 2 6 2 13 5 5 6 4 12 2 10 4 7 2 6 5 7 2 6 4 7 3 2 4 8 5 2 6 4 3 5 5 6 5 7 7 4 6 5 6 4 6 5 3 8 3 3 3 4 5 6 6 4 2 4 6 3 4 3 6 6 9 6 7 5 6 7 9 3 6 11 3 3 5 3 9 7 4 3 3 6 8 9 4 6 3 8 11 12 6 4 7 10 6 3 3 8 2 5 5 7 7 2 6 4 3 2 5 8 5 2 4 4 10 4 4 4 1 7 2 7 9 2 7 5 2 7 2 9 3 3 2 2 5 9 7 7 7 7 3 7 13 8 5 5 9 3 4 2 5 10 8 1 4 4 4 5 6 6 1 5 10 3 9 8 4 5 6 1 6 6 3 5 5 4 4 10 4 5 5 6 3 9 5 11 2 5 4 3 3 6 6 4 4 6 4 4 5 8 5 6 6 4 3 4 3 5 7 8 4 5 3 9 8 5 8 5 7 5 8 4 4 7 4 6 7 9 3 7 7 8 4 8 7 3 6 2 4 7 5 9 4 7 3 9 6 6 4 3 11 4 3 6 7 8 5 2 2 7 5 4 7 7 5 3 5 7 3 8 5 8 9 8 4 8 4 5 9 5 5 2 8 6 3 9 4 11 5 6 5 2 6 4 5 5 7 4 6 5 9 8 8 1 2 7 7 6 6 7 7 6 8 12 5 5 8 5 1 6 6 6 5 6 4 7 7 4 5 5 9 6 4 6 5 8 7 4 4 6 8 6 8 3 5 5 6 6 7 4 4 2 5 3 6 5 7 2 1 5 8 6 10 3 7 5 8 5 4 4 5 6 6 5 10 4 7 5 3 6 5 5 6 4 2 5 1 9 5 4 5 4 4 6 4 4 3 7 4 3 6 3 9 7 4 4 1 6 3 9 5 6 7 5 5 5 4 3 5 3 1 4 4 7 1 6 6 5 6 4 4 5 7 10 3 0 9 3 3 1 4 6 4 8 6 2 7 2 7 5 5 2 5 5 6 10 7 3 5 8 7 9 5 7 10 6 8 1 7 8 2 2 6 8 6 4 4 8 7 4 5 7 3 4 2 8 7 4 4 2 5 4 4 3 8 4 8 8 6 2 11 5 8 3 4 2 5 3 8 4 5 3 8 4 2 4 5 1 3 6 2 4 2 10 5 6 4 5 7 5 9 3 3 5 6 3 3 5 7 10 6 4 5 5 3 4 9 5 9 3 4 4 5 8 4 5 4 8 9 5 6 3 5 7 3 4 5 3 5 7 8 5 7 7 4 4 6 3 6 5 5 7 8 5 2 4 6 5 5 7 7 5 6 6 3 2 6 5 6 4 3 7 11 7 4 3 3 7 4 5 4 8 10 6 10 6 1 5 2 8 8 4 5 6 7 3 8 2 4 5 4 6 4 3 3 9 7 9 6 6 6 3 4 4 5 3 5 12 7 9 3 6 3 6 3 2 7 6 4 6 9 3 6 7 5 6 6 5 4 8 3 8 6 7 2 3 5 5 8 3 5 3 4 5 3 6 7 10 7 3 5 5 3 7 5 4 6 7 1 5 3 3 5 8 7 5 4 2 8 4 2 3 6 8 6 7 9 4 6 4 4 10 4 6 4 6 10 2 10 4 4 3 6 3 6 8 10 10 4 2 7 4 8 5 4 2 6 3 4 3 5 6 5 2 8 4 4 4 6 7 1 6 6 3 8 6 9 2 5 4 5 7 8 5 5 5 3 3 5 3 8 6 3 6 3 3 5 6 6 4 6 5 7 6 2 7 5 6 2 3 5 2 3 3 2 5 3 4 5 3 5 3 7 6 4 10 6 4 9 3 4 7 6 8 7 3 8 5 9 7 5 5 5 6 11 9 7 5 7 9 4 5 6 5 5 6 2 5 5 8 7 6 7 8 7 8 13 7 4 5 11 5 4 4 4 4 3 6 3 6 6 3 5 4 9 11 5 6 4 7 8 4 7 7 5 6 5 5 7 7 8 11 4 5 10 5 5 3 7 7 4 2 8 1 4 6 4 8 8 7 7 2 4 4 5 7 3 5 5 13 9 7 4 4 1 4 2 5 3 7 4 4 6 6 6 2 2 5 8 8 1 5 6 5 5 4 7 4 10 2 2 4 9 7 5 6 2 6 8 3 8 7 3 3 2 6 9 7 6 11 7 10 6 4 3 7 8 3 6 8 9 6 7 9 6 3 7 7 5 4 5 5 7 3 7 4 3 5 2 6 6 3 5 6 10 5 6 3 4 6 10 5 6 4 3 9 4 4 7 1 4 3 7 5 5 11 4 7 5 6 7 4 4 4 5 5 6 5 5 9 5 10 6 4 7 1 6 4 10 8 8 7 10 4 8 4 5 6 10 3 4 6 6 9 6 11 9 1 5 6 6 4 12 6 6 3 4 4 4 2 5 7 6 6 2 6 4 3 5 6 5 7 4 7 3 2 5 6 4 5 2 5 4 8 5 4 2 8 7 5 4 4 3 7 6 6 6 4 4 4 1 6 5 7 6 2 4 5 3 6 4 7 7 5 4 8 6 5 3 5 6 3 4 6 4 6 7 5 6 6 4 5 10 6 8 7 3 6 8 4 3 5 4 4 9 4 3 10 8 8 5 8 3 2 3 3 4 7 8 4 8 6 7 4 5 6 5 6 9 3 7 7 7 5 4 9 10 5 3 4 5 4 3 4 5 5 3 6 3 6 6 4 5 4 2 2 6 4 3 2 5 5 1 5 5 4 6 5 5 2 1 5 6 8 13 3 3 7 2 3 4 3 2 5 4 4 2 5 5 2 4 7 9 4 4 4 1 2 6 6 5 3 4 5 4 6 2 4 3 9 7 5 7 4 4 3 5 3 4 5 4 6 3 4 7 10 7 4 7 4 3 6 4 7 4 5 5 3 3 4 4 5 1 1 4 5 7 9 3 7 5 7 6 5 7 4 2 4 7 10 0 7 4 9 5 9 5 10 1 7 11 7 6 6 2 6 4 7 3 6 4 6 7 5 4 7 4 5 3 4 2 1 4 2 6 2 6 4 7 2 5 3 3 8 2 6 3 4 7 7 6 7 6 3 6 4 5 8 2 3 6 5 4 4 5 8 5 4 3 3 7 6 5 6 5 7 3 5 5 8 5 3 4 8 5 6 2 3 7 4 5 7 3 7 4 3 3 8 3 7 5 4 4 9 4 10 4 5 3 5 6 10 5 6 3 3 3 3 2 5 2 11 1 6 2 5 3 4 3 6 4 5 2 1 3 8 2 6 5 4 3 7 5 3 4 6 6 7 7 3 4 9 1 5 11 4 1 1 9 9 2 7 7 8 4 6 6 6 8 7 7 7 4 1 5 3 5 8 5 9 8 9 4 4 2 7 3 8 6 6 8 8 6 4 7 9 7 5 4 6 6 5 5 6 3 11 3 7 5 10 6 3 5 9 3 4 5 5 3 2 8 7 3 6 3 6 3 5 6 7 3 4 1 3 6 5 0 3 7 10 3 3 5 8 8 7 4 10 7 5 4 9 5 5 8 4 3 11 3 3 6 5 5 15 4 8 3 7 4 5 3 5 7 6 
BTB PER SET COUNT: 2 1981 846 997 992 331 509 929 2 821 1001 389 2 699 1057 191 655 198 1239 3 507 1512 936 580 547 554 282 332 694 1052 807 93 247 1143 689 799 722 122 515 1683 10 1647 4 8 1565 902 177 248 203 1121 1585 448 1034 3 136 840 988 1138 658 76 1210 1007 190 334 175 5 238 257 4 1248 802 326 272 818 385 1481 3 895 1223 194 716 411 238 1562 642 162 966 3 681 1709 753 1060 1016 1262 3 67 277 6 222 657 666 2 379 141 96 191 47 607 717 970 339 1 200 1217 6 211 389 21 504 2715 407 625 1819 309 13 1150 4 466 843 2 37 502 4 318 599 561 230 108 971 977 4 691 1510 514 4 415 7 438 376 864 241 506 4 868 2 702 203 721 544 310 2 422 5 486 776 73 1 3 294 772 156 794 357 199 343 436 114 253 71 790 75 681 281 657 562 475 4 12 13 185 86 3 986 714 3 484 174 698 1464 3 394 425 125 162 1 980 4 538 683 3 5 4 1010 751 290 479 1053 272 372 233 163 948 288 1276 1975 1458 168 139 154 1573 212 164 240 5151 284 684 3 397 555 938 745 105 830 213 410 343 284 678 258 431 55 692 7 217 502 129 192 349 352 1 405 520 491 342 177 498 10 559 730 192 424 608 143 533 630 1017 168 303 496 722 563 2 325 1000 7 520 1926 396 573 5 6 2 1376 658 831 220 8 77 499 160 1054 209 1466 757 229 6 733 19 494 9 184 3 907 304 6 380 10 759 377 2 682 501 240 347 1475 446 415 211 2 448 4 1765 147 894 151 194 886 327 303 583 2 330 367 4 710 261 4 748 2 288 351 164 420 2 679 6 364 560 755 208 1779 331 439 1194 376 3107 917 1345 3 4 588 515 3043 9 446 279 620 527 384 1 157 1277 92 543 1023 251 3 497 97 251 313 2 771 346 124 5 1729 1 503 42 628 989 326 276 426 1352 2617 770 879 2 123 309 1 511 949 238 374 393 273 628 465 2 4 611 802 813 505 704 1209 447 1643 40 3 497 881 1 368 2 3 121 1909 401 3 2 432 1 1474 39 759 493 1656 229 307 288 551 2 630 2 1675 170 1079 331 30 1034 5 1110 336 207 2 531 449 651 2 410 986 216 146 2 257 756 239 2 153 379 3 442 154 355 207 941 432 458 94 535 735 993 924 528 82 800 3 214 3 294 7 532 236 134 2 67 1015 346 1112 1061 8 508 999 1391 1016 664 336 411 1533 3 519 1908 59 3 284 6 2203 709 102 38 8 151 487 668 508 278 294 544 1304 1772 392 1086 1074 1709 740 79 3 1385 965 726 443 698 1144 2 235 116 821 7603 455 845 467 2 1179 173 2100 573 251 356 1 1327 2 1146 1294 2 401 186 3 723 2 928 3 260 232 2 11 2413 886 693 760 1346 251 1705 1037 826 332 336 944 3 517 53 199 867 1367 1 132 223 474 122 1170 319 1 275 1144 297 11355 834 355 299 442 2 781 299 570 216 478 484 510 1030 62 827 501 734 3 1096 549 2420 2 303 443 5 6 1103 247 190 232 807 712 368 242 900 162 379 432 272 3 40 420 536 340 142 259 854 5 1739 728 911 437 348 686 3318 1055 423 387 1417 314 945 1164 685 116 1477 546 1100 391 1209 177 76 591 2 360 962 212 1400 121 1792 366 1741 638 1287 6 3 1333 126 3 467 1481 633 327 2 259 837 85 966 488 466 384 161 385 560 677 806 421 1168 917 783 1055 715 344 316 740 432 9 2 16 480 166 2424 4 2019 238 380 260 3 344 172 6 764 1476 234 257 295 217 866 739 1 2 736 550 294 324 150 186 278 677 2368 591 5 151 368 2 338 745 1057 330 745 374 586 799 106 208 264 776 9 667 565 318 1080 520 476 841 15 119 1024 221 225 334 165 206 35 615 705 322 2 161 3 279 141 414 2 1 219 1035 553 2045 402 964 90 779 363 129 207 366 1136 452 521 1848 393 665 562 145 826 24 155 1275 225 2 483 6 1795 423 631 305 9 168 829 12 978 3 479 37 250 620 39 854 186 239 13 1 447 3 379 485 262 1493 253 816 109 734 241 388 4 1 19 1294 1069 1 965 401 1099 561 156 9 714 245 1656 68 0 1811 40 133 1 6 669 627 1007 898 236 832 175 801 934 202 150 45 146 366 1011 754 268 674 636 673 1104 216 634 1458 879 1781 1 88 547 175 3 1440 448 295 361 6 962 1409 426 269 417 231 281 91 1024 916 64 7 2 974 279 4 24 239 4 1344 1103 510 2 2458 345 1476 3 1766 290 644 112 658 338 295 43 591 501 2 335 6 1 259 1210 3 116 91 1357 359 436 355 290 896 14 778 87 3 1043 11 230 4 420 997 948 433 7 280 1704 3 5 520 324 604 1373 261 12 312 1399 1101 502 6 761 1214 351 579 97 245 1181 5 31 412 324 499 157 622 180 912 1282 9 183 767 3 891 585 652 845 582 400 1460 94 426 658 12 516 473 865 956 67 115 2 391 221 298 131 449 12 994 1851 337 3 3 627 424 699 498 586 982 765 526 536 1 454 2 1185 962 208 168 764 198 8 1241 7 178 360 286 311 15 97 43 684 1003 1029 626 8 423 532 223 17 276 3 262 1937 687 1597 362 927 7 214 4 175 188 724 307 1143 745 4 11 681 9 347 344 5 458 143 3 887 428 420 2 4 156 527 614 4 526 158 202 747 4 371 910 11694 1251 267 684 10 7 572 62 400 90 471 1 210 3 951 20 1226 1392 110 58 2 722 272 364 7 240 453 175 681 953 7 385 423 70 1202 10 122 469 616 911 77 1358 404 289 297 260 258 1121 633 1246 661 243 2 1935 143 1043 470 568 198 561 33 7 4 730 741 1230 2 979 361 680 6 329 1638 1 186 955 102 721 231 711 5 537 80 437 750 659 210 445 158 3 70 478 3 1242 258 14 488 147 3 428 480 50 259 296 266 34 142 93 377 287 555 2 250 621 2 3 123 2 10 3 243 5 3 666 3 440 233 236 682 362 231 1090 3 149 467 283 1214 684 333 1367 50 143 592 230 511 152 1248 1854 1233 60 869 244 1435 275 651 752 321 330 771 2 351 320 462 1048 505 510 1022 852 959 963 168 31 434 938 860 64 150 551 193 3 374 5 409 55 6 118 1496 364 1808 393 337 5 767 493 124 234 1054 502 368 611 716 216 453 976 1090 160 441 1217 585 2188 3 309 228 4 2 823 1 262 336 421 563 853 633 65 2 363 236 209 759 3 169 294 1948 1378 503 427 138 1 691 2 674 264 297 183 267 9 244 312 216 2 183 416 422 1 252 543 38 14 4 1008 258 303 76 3 366 997 182 115 502 2 427 926 71 1225 1045 270 258 115 1006 1305 548 478 696 344 1025 370 70 245 2023 1569 8 473 2014 1138 995 1026 569 939 79 493 1265 97 116 338 6 775 4 437 7 3 329 2 793 397 6 5 605 1025 289 398 3 5 272 1300 387 243 9 5 1607 176 220 1021 1 4 5 386 350 633 1398 150 900 377 602 606 581 13 140 8 214 415 226 400 526 392 2030 755 150 298 2 900 552 773 263 1520 832 1075 106 1019 105 392 497 2053 299 8 938 65 833 868 1981 1424 1 46 909 507 711 1288 482 1264 3 446 15 805 196 150 1072 199 644 2 973 4 4 183 169 5 414 426 746 207 2 958 442 215 23 2 303 4 450 112 1073 761 837 265 381 424 192 3 888 404 466 915 9 54 317 1 595 358 1308 112 1459 460 282 98 636 5 455 1005 42 189 445 145 275 3 540 481 100 132 613 105 470 276 364 351 612 645 454 896 126 1403 419 3 671 1234 237 202 199 4 670 761 4 237 774 624 1111 173 870 172 2 3 176 340 551 1495 135 814 677 1271 33 319 13 5 696 638 141 758 890 347 484 4 885 567 316 526 252 61 182 470 705 648 737 460 401 6 138 426 4 862 419 2 296 204 220 3 4 394 352 1 628 5 389 268 7 225 2 1 150 188 417 3122 104 498 852 2 269 375 3 2 329 494 205 41 342 132 2 29 1162 994 139 4 37 1 178 580 462 382 270 4 306 353 383 3 326 16 1925 293 467 430 414 239 341 154 97 65 214 216 692 373 4 593 512 170 44 916 4 155 776 554 1222 251 430 793 3 3 12 168 529 1 1 10 654 532 1197 3 1066 280 378 783 676 1451 399 2 4 347 1354 0 351 51 796 188 2062 444 745 1 707 2830 561 221 322 2 971 6 843 3 416 387 478 544 59 4 548 376 317 5 4 5 1 319 2 804 2 740 558 371 2 176 3 12 407 138 962 91 353 536 1032 202 741 1082 83 481 115 241 1278 2 698 174 5 320 737 552 1303 326 486 254 299 397 1119 796 693 6 1325 7 260 334 732 15 6 228 846 1847 415 2 74 892 251 388 694 3 837 10716 277 146 1312 211 1323 634 5 361 1286 591 1646 568 403 395 13 658 1391 479 557 54 207 6 5 2 970 7 1101 1 468 688 215 3 283 282 181 176 368 2 1 3 1206 2 82 530 683 73 1303 445 38 146 1272 161 310 847 3 369 1222 1 584 1235 88 2 1 622 721 2 435 629 1220 40 273 596 312 551 93 1313 456 173 1 544 282 359 1173 257 587 1246 307 308 107 2 838 153 606 845 375 315 1659 606 1293 1245 1260 904 204 184 533 3232 762 362 670 525 1627 3 660 484 1665 7 216 509 1362 199 555 558 164 51 2 1089 1672 505 582 46 491 4 295 87 525 3 292 1350 455 652 253 0 92 440 1172 188 181 5 1185 457 680 296 1614 421 781 4 1203 1529 102 523 9 6 1822 87 141 417 454 111 2618 234 1212 111 567 504 5 35 345 773 1003 
To predecode: 0
Predecoding something: 0
Predecode request dropped: 0
sizeofblock_0 0
sizeofblock_1 499867
sizeofblock_2 144082
sizeofblock_3 29543
sizeofblock_4 7328
sizeofblock_5 0
sizeofblock_6 0
sizeofblock_7 0
sizeofblock_8 0
Variant_0 Correct: 1314504 Incorrect: 0 Accuracy: 1
Variant_1 Correct: 1827876 Incorrect: 0 Accuracy: 1
Variant_2 Correct: 3356879 Incorrect: 0 Accuracy: 1
Variant_3 Correct: 0 Incorrect: 0 Accuracy: -nan
