
*** ChampSim Multicore Out-of-Order Simulator ***

Warmup Instructions: 50000000
Simulation Instructions: 50000000
Number of CPUs: 1
LLC sets: 2048
LLC ways: 16
Off-chip DRAM Size: 4096 MB Channels: 1 Width: 64-bit Data Rate: 6400 MT/s
CPU 0 runs ./micro_traces/srv633.trace.gz
.gz
ITLB has LRU replacement policy
DTLB has LRU replacement policy
STLB has LRU replacement policy
FDIP Prefetcher at L1I
L1I has LRU replacement policy
L1D has LRU replacement policy
Initialize SRRIP state for L2C
Initialize DRRIP state for LLC
Heartbeat_Variant_0 : 1008 0.328125 per_variant_size: 0 1008 0 0 0 0 0 0 0 
Heartbeat_Variant_1 : 2051 0.667643 per_variant_size: 0 373 1678 0 0 0 0 0 0 
Heartbeat_Variant_2 : 0 0 per_variant_size: 0 0 0 0 0 0 0 0 0 
Heartbeat_Variant_3 : 0 0 per_variant_size: 0 0 0 0 0 0 0 0 0 
Heartbeat_Variant_0_evicts 0 : 17970 1 : 25559 2 : 0 3 : 0 
Heartbeat_Variant_1_evicts 0 : 25473 1 : 0 2 : 0 3 : 0 
Heartbeat_Variant_2_evicts 0 : 0 1 : 0 2 : 0 3 : 0 
Heartbeat_Variant_3_evicts 0 : 0 1 : 0 2 : 0 3 : 0 
Heartbeat CPU 0 instructions: 10000003 cycles: 2796998 heartbeat IPC: 3.57526 cumulative IPC: 3.57526 (Simulation time: 0 hr 1 min 51 sec) 
Heartbeat_Variant_0 : 983 0.319987 per_variant_size: 0 983 0 0 0 0 0 0 0 
Heartbeat_Variant_1 : 2085 0.678711 per_variant_size: 0 345 1740 0 0 0 0 0 0 
Heartbeat_Variant_2 : 0 0 per_variant_size: 0 0 0 0 0 0 0 0 0 
Heartbeat_Variant_3 : 0 0 per_variant_size: 0 0 0 0 0 0 0 0 0 
Heartbeat_Variant_0_evicts 0 : 17778 1 : 26394 2 : 0 3 : 0 
Heartbeat_Variant_1_evicts 0 : 26421 1 : 0 2 : 0 3 : 0 
Heartbeat_Variant_2_evicts 0 : 0 1 : 0 2 : 0 3 : 0 
Heartbeat_Variant_3_evicts 0 : 0 1 : 0 2 : 0 3 : 0 
Heartbeat CPU 0 instructions: 20000000 cycles: 5594400 heartbeat IPC: 3.57474 cumulative IPC: 3.575 (Simulation time: 0 hr 3 min 37 sec) 
Heartbeat_Variant_0 : 979 0.318685 per_variant_size: 0 979 0 0 0 0 0 0 0 
Heartbeat_Variant_1 : 2089 0.680013 per_variant_size: 0 353 1736 0 0 0 0 0 0 
Heartbeat_Variant_2 : 0 0 per_variant_size: 0 0 0 0 0 0 0 0 0 
Heartbeat_Variant_3 : 0 0 per_variant_size: 0 0 0 0 0 0 0 0 0 
Heartbeat_Variant_0_evicts 0 : 17966 1 : 26787 2 : 0 3 : 0 
Heartbeat_Variant_1_evicts 0 : 26791 1 : 0 2 : 0 3 : 0 
Heartbeat_Variant_2_evicts 0 : 0 1 : 0 2 : 0 3 : 0 
Heartbeat_Variant_3_evicts 0 : 0 1 : 0 2 : 0 3 : 0 
Heartbeat CPU 0 instructions: 30000001 cycles: 8392176 heartbeat IPC: 3.57427 cumulative IPC: 3.57476 (Simulation time: 0 hr 5 min 19 sec) 
Heartbeat_Variant_0 : 976 0.317708 per_variant_size: 0 976 0 0 0 0 0 0 0 
Heartbeat_Variant_1 : 2093 0.681315 per_variant_size: 0 355 1738 0 0 0 0 0 0 
Heartbeat_Variant_2 : 0 0 per_variant_size: 0 0 0 0 0 0 0 0 0 
Heartbeat_Variant_3 : 0 0 per_variant_size: 0 0 0 0 0 0 0 0 0 
Heartbeat_Variant_0_evicts 0 : 17839 1 : 26484 2 : 0 3 : 0 
Heartbeat_Variant_1_evicts 0 : 26487 1 : 0 2 : 0 3 : 0 
Heartbeat_Variant_2_evicts 0 : 0 1 : 0 2 : 0 3 : 0 
Heartbeat_Variant_3_evicts 0 : 0 1 : 0 2 : 0 3 : 0 
Heartbeat CPU 0 instructions: 40000000 cycles: 11187415 heartbeat IPC: 3.57751 cumulative IPC: 3.57545 (Simulation time: 0 hr 6 min 53 sec) 
Heartbeat_Variant_0 : 948 0.308594 per_variant_size: 0 948 0 0 0 0 0 0 0 
Heartbeat_Variant_1 : 2121 0.69043 per_variant_size: 0 388 1733 0 0 0 0 0 0 
Heartbeat_Variant_2 : 0 0 per_variant_size: 0 0 0 0 0 0 0 0 0 
Heartbeat_Variant_3 : 0 0 per_variant_size: 0 0 0 0 0 0 0 0 0 
Heartbeat_Variant_0_evicts 0 : 18092 1 : 26733 2 : 0 3 : 0 
Heartbeat_Variant_1_evicts 0 : 26761 1 : 0 2 : 0 3 : 0 
Heartbeat_Variant_2_evicts 0 : 0 1 : 0 2 : 0 3 : 0 
Heartbeat_Variant_3_evicts 0 : 0 1 : 0 2 : 0 3 : 0 
Heartbeat CPU 0 instructions: 50000003 cycles: 13983249 heartbeat IPC: 3.57675 cumulative IPC: 3.57571 (Simulation time: 0 hr 8 min 35 sec) 

Warmup complete CPU 0 instructions: 50000003 cycles: 13983249 (Simulation time: 0 hr 8 min 35 sec) 

Cycle: 20000000 FTQ IN: 56575638 FTQ occupancy: 18.1181 DECODE IN: 56575632 DECODE occupancy: 46.3297 ROB IN: 56575632 ROB occupancy: 279.469 ROB OUT: 56575458
Heartbeat_Variant_0 : 980 0.31901 per_variant_size: 0 980 0 0 0 0 0 0 0 
Heartbeat_Variant_1 : 2089 0.680013 per_variant_size: 0 348 1741 0 0 0 0 0 0 
Heartbeat_Variant_2 : 0 0 per_variant_size: 0 0 0 0 0 0 0 0 0 
Heartbeat_Variant_3 : 0 0 per_variant_size: 0 0 0 0 0 0 0 0 0 
Heartbeat_Variant_0_evicts 0 : 17709 1 : 25800 2 : 0 3 : 0 
Heartbeat_Variant_1_evicts 0 : 25768 1 : 0 2 : 0 3 : 0 
Heartbeat_Variant_2_evicts 0 : 0 1 : 0 2 : 0 3 : 0 
Heartbeat_Variant_3_evicts 0 : 0 1 : 0 2 : 0 3 : 0 
Heartbeat CPU 0 instructions: 60000000 cycles: 23311899 heartbeat IPC: 1.07197 cumulative IPC: 1.07197 (Simulation time: 0 hr 10 min 7 sec) 
Cycle: 30000000 FTQ IN: 10543646 FTQ occupancy: 6.69263 DECODE IN: 10543638 DECODE occupancy: 14.0074 ROB IN: 10543603 ROB occupancy: 112.707 ROB OUT: 10543481
Heartbeat_Variant_0 : 994 0.323568 per_variant_size: 0 994 0 0 0 0 0 0 0 
Heartbeat_Variant_1 : 2075 0.675456 per_variant_size: 0 366 1709 0 0 0 0 0 0 
Heartbeat_Variant_2 : 0 0 per_variant_size: 0 0 0 0 0 0 0 0 0 
Heartbeat_Variant_3 : 0 0 per_variant_size: 0 0 0 0 0 0 0 0 0 
Heartbeat_Variant_0_evicts 0 : 18057 1 : 26489 2 : 0 3 : 0 
Heartbeat_Variant_1_evicts 0 : 26475 1 : 0 2 : 0 3 : 0 
Heartbeat_Variant_2_evicts 0 : 0 1 : 0 2 : 0 3 : 0 
Heartbeat_Variant_3_evicts 0 : 0 1 : 0 2 : 0 3 : 0 
Heartbeat CPU 0 instructions: 70000001 cycles: 32661927 heartbeat IPC: 1.06952 cumulative IPC: 1.07074 (Simulation time: 0 hr 11 min 36 sec) 
Cycle: 40000000 FTQ IN: 10857385 FTQ occupancy: 6.75698 DECODE IN: 10857399 DECODE occupancy: 14.3419 ROB IN: 10857434 ROB occupancy: 117.639 ROB OUT: 10857716
Heartbeat_Variant_0 : 1008 0.328125 per_variant_size: 0 1008 0 0 0 0 0 0 0 
Heartbeat_Variant_1 : 2061 0.670898 per_variant_size: 0 321 1740 0 0 0 0 0 0 
Heartbeat_Variant_2 : 0 0 per_variant_size: 0 0 0 0 0 0 0 0 0 
Heartbeat_Variant_3 : 0 0 per_variant_size: 0 0 0 0 0 0 0 0 0 
Heartbeat_Variant_0_evicts 0 : 17697 1 : 25482 2 : 0 3 : 0 
Heartbeat_Variant_1_evicts 0 : 25468 1 : 0 2 : 0 3 : 0 
Heartbeat_Variant_2_evicts 0 : 0 1 : 0 2 : 0 3 : 0 
Heartbeat_Variant_3_evicts 0 : 0 1 : 0 2 : 0 3 : 0 
Heartbeat CPU 0 instructions: 80000001 cycles: 41894328 heartbeat IPC: 1.08314 cumulative IPC: 1.07484 (Simulation time: 0 hr 13 min 10 sec) 
Cycle: 50000000 FTQ IN: 10540511 FTQ occupancy: 6.694 DECODE IN: 10540511 DECODE occupancy: 14.0238 ROB IN: 10540505 ROB occupancy: 113.55 ROB OUT: 10540417
Heartbeat_Variant_0 : 957 0.311523 per_variant_size: 0 957 0 0 0 0 0 0 0 
Heartbeat_Variant_1 : 2112 0.6875 per_variant_size: 0 360 1752 0 0 0 0 0 0 
Heartbeat_Variant_2 : 0 0 per_variant_size: 0 0 0 0 0 0 0 0 0 
Heartbeat_Variant_3 : 0 0 per_variant_size: 0 0 0 0 0 0 0 0 0 
Heartbeat_Variant_0_evicts 0 : 17811 1 : 26543 2 : 0 3 : 0 
Heartbeat_Variant_1_evicts 0 : 26594 1 : 0 2 : 0 3 : 0 
Heartbeat_Variant_2_evicts 0 : 0 1 : 0 2 : 0 3 : 0 
Heartbeat_Variant_3_evicts 0 : 0 1 : 0 2 : 0 3 : 0 
Heartbeat CPU 0 instructions: 90000003 cycles: 51365903 heartbeat IPC: 1.05579 cumulative IPC: 1.07001 (Simulation time: 0 hr 14 min 42 sec) 
Cycle: 60000000 FTQ IN: 10650194 FTQ occupancy: 6.68587 DECODE IN: 10650160 DECODE occupancy: 13.9862 ROB IN: 10650162 ROB occupancy: 114.333 ROB OUT: 10650148
Heartbeat_Variant_0 : 973 0.316732 per_variant_size: 0 973 0 0 0 0 0 0 0 
Heartbeat_Variant_1 : 2096 0.682292 per_variant_size: 0 336 1760 0 0 0 0 0 0 
Heartbeat_Variant_2 : 0 0 per_variant_size: 0 0 0 0 0 0 0 0 0 
Heartbeat_Variant_3 : 0 0 per_variant_size: 0 0 0 0 0 0 0 0 0 
Heartbeat_Variant_0_evicts 0 : 17926 1 : 26406 2 : 0 3 : 0 
Heartbeat_Variant_1_evicts 0 : 26390 1 : 0 2 : 0 3 : 0 
Heartbeat_Variant_2_evicts 0 : 0 1 : 0 2 : 0 3 : 0 
Heartbeat_Variant_3_evicts 0 : 0 1 : 0 2 : 0 3 : 0 
Heartbeat CPU 0 instructions: 100000001 cycles: 60776704 heartbeat IPC: 1.06261 cumulative IPC: 1.06853 (Simulation time: 0 hr 16 min 7 sec) 
Finished CPU 0 instructions: 50000002 cycles: 46793456 cumulative IPC: 1.06853 (Simulation time: 0 hr 16 min 7 sec) 

ChampSim completed all CPUs

Region of Interest Statistics

CPU 0 cumulative IPC: 1.06853 instructions: 50000002 cycles: 46793456
 Fetch stage stalled: 71.4237  Sim cycles: 46793456 fetch stall cycle: 33421631
 Empty decode stage: 58.004  Sim cycles: 46793456 fetch stall cycle: 27142070
ITLB TOTAL     ACCESS:    5537451  HIT:    5039967  MISS:     497484  HIT %:     91.016  MISS %:    8.98399   MPKI: 9.94968
ITLB LOAD TRANSLATION INSTRUCTION	ACCESS:    5430670  HIT:    4933186  MISS:     497484  HIT %:    90.8394  MISS %:    9.16064  MPKI: 9.94968
ITLB TRANSLATION FROM L1D PREFETCHER INSTRUCTION	ACCESS:     106781  HIT:     106781  MISS:          0  HIT %:        100  MISS %:          0  MPKI: 0

ITLB AVERAGE MISS LATENCY: 9.05136 cycles
ITLB RQ	ACCESS:    7313132	FORWARD:          0	MERGED:    1247907	TO_CACHE:    6065225

DTLB TOTAL     ACCESS:    9399571  HIT:    8922703  MISS:     476868  HIT %:    94.9267  MISS %:     5.0733   MPKI: 9.53736
DTLB LOAD TRANSLATION DATA	ACCESS:    9399571  HIT:    8922703  MISS:     476868  HIT %:    94.9267  MISS %:     5.0733  MPKI: 9.53736

DTLB AVERAGE MISS LATENCY: 9.31433 cycles
DTLB RQ	ACCESS:   13675380	FORWARD:          0	MERGED:    4242076	TO_CACHE:    9433304

STLB TOTAL     ACCESS:    1220432  HIT:    1218216  MISS:       2216  HIT %:    99.8184  MISS %:   0.181575   MPKI: 0.04432
STLB LOAD TRANSLATION INSTRUCTION	ACCESS:     497484  HIT:     497067  MISS:        417  HIT %:    99.9162  MISS %:  0.0838218  MPKI: 0.00834
STLB LOAD TRANSLATION DATA	ACCESS:     476666  HIT:     474893  MISS:       1773  HIT %:     99.628  MISS %:   0.371959  MPKI: 0.03546
STLB TRANSLATION FROM L1D PREFETCHER DATA	ACCESS:     246282  HIT:     246256  MISS:         26  HIT %:    99.9894  MISS %:   0.010557  MPKI: 0.00052

STLB AVERAGE MISS LATENCY: 68.5104 cycles
STLB RQ	ACCESS:    1338039	FORWARD:          0	MERGED:     117551	TO_CACHE:    1220488

STLB Hit, L1D data hit: 0
STLB Hit, L2C data hit: 0
STLB Hit, LLC data hit: 0
STLB Hit, LLC data miss: 0
STLB STLB hints to L2: 0
L1D TOTAL     ACCESS:   13436867  HIT:   12316321  MISS:    1120546  HIT %:    91.6607  MISS %:    8.33934   MPKI: 22.4109
L1D LOAD DATA	ACCESS:    6851844  HIT:    6113691  MISS:     738153  HIT %:    89.2269  MISS %:    10.7731  MPKI: 14.7631
L1D RFO DATA	ACCESS:    6260272  HIT:    5971873  MISS:     288399  HIT %:    95.3932  MISS %:    4.60681  MPKI: 5.76798
L1D PREFETCH DATA	ACCESS:     324751  HIT:     230757  MISS:      93994  HIT %:    71.0566  MISS %:    28.9434  MPKI: 1.87988

L1D PREFETCH  REQUESTED:     727662  ISSUED:     727662  USEFUL:      34010  USELESS:      68175
L1D USEFUL LOAD PREFETCHES:      34010 PREFETCH ISSUED TO LOWER LEVEL:     102301  ACCURACY: 33.245
 TIMELY PREFETCHES:      34010 LATE PREFETCHES: 8199 DROPPED PREFETCHES: 17
L1D AVERAGE MISS LATENCY: 277590 cycles
L1D RQ	ACCESS:   10924357	FORWARD:          0	MERGED:    3874290	TO_CACHE:    6882865
L1D WQ	ACCESS:    6962760	FORWARD:     167490	MERGED:     170245	TO_CACHE:    6792515
L1D PQ	ACCESS:     363975	FORWARD:          0	MERGED:          0	TO_CACHE:     363687

L1D UNIQUE REGIONS ACCESSED: 0
L1D REGIONS CONFLICTS: 0
L1D Cross Page Prefetch Requests: 5922
L1D Same Page Prefetch Requests: 737530
L1D ROI Sum of L1D PQ occupancy: 4634039
L1D PREFETCHES PUSHED FROM L2C: 0
L1I TOTAL     ACCESS:    6880867  HIT:    4102377  MISS:    2778490  HIT %:    59.6201  MISS %:    40.3799   MPKI: 55.5698
L1I LOAD INSTRUCTION	ACCESS:    6433641  HIT:    3655151  MISS:    2778490  HIT %:    56.8131  MISS %:    43.1869  MPKI: 55.5698
L1I PREFETCH INSTRUCTION	ACCESS:     447226  HIT:     447226  MISS:          0  HIT %:        100  MISS %:          0  MPKI: 0

L1I PREFETCH  REQUESTED:     980799  ISSUED:     980799  USEFUL:          0  USELESS:          0
L1I USEFUL LOAD PREFETCHES:          0 PREFETCH ISSUED TO LOWER LEVEL:          0  ACCURACY: -nan
 TIMELY PREFETCHES:          0 LATE PREFETCHES: 0 DROPPED PREFETCHES: 0
L1I AVERAGE MISS LATENCY: 17.5215 cycles
L1I RQ	ACCESS:    9464614	FORWARD:          0	MERGED:    2847373	TO_CACHE:    6617241
L1I PQ	ACCESS:     980799	FORWARD:          0	MERGED:     284908	TO_CACHE:     695891

L1BTB TOTAL     ACCESS:    5667905  HIT:    2022223  MISS:    3645682  HIT %:    35.6785  MISS %:    64.3215   MPKI: 72.9136
L1BTB BRANCH_DIRECT_JUMP	ACCESS:     547870 HIT:     143861 MISS:     404009 AVERAGE STALL: 34.872 AVERAGE FETCH STALL: 19.4229 AVERAGE FETCH QUEUE STALL: 7.65978 AVERAGE DECODE STALL: 6.94051 AVERAGE EXECUTE STALL: 2.83417e+14
L1BTB BRANCH_INDIRECT	ACCESS:     182500 HIT:      65495 MISS:     117005 AVERAGE STALL: 89.1784 AVERAGE FETCH STALL: 15.0404 AVERAGE FETCH QUEUE STALL: 9.46471 AVERAGE DECODE STALL: 7.17757 AVERAGE EXECUTE STALL: 56.5563
L1BTB BRANCH_CONDITIONAL	ACCESS:    2694412 HIT:    1397365 MISS:    1297047 AVERAGE STALL: 35.9195 AVERAGE FETCH STALL: 21.883 AVERAGE FETCH QUEUE STALL: 6.66752 AVERAGE DECODE STALL: 6.62977 AVERAGE EXECUTE STALL: 9.92496e+13
L1BTB BRANCH_DIRECT_CALL	ACCESS:     949379 HIT:     104696 MISS:     844683 AVERAGE STALL: 37.3409 AVERAGE FETCH STALL: 22.0435 AVERAGE FETCH QUEUE STALL: 7.49961 AVERAGE DECODE STALL: 7.04121 AVERAGE EXECUTE STALL: 9.15707e+13
L1BTB BRANCH_INDIRECT_CALL	ACCESS:     172183 HIT:      21015 MISS:     151168 AVERAGE STALL: 115.762 AVERAGE FETCH STALL: 18.4983 AVERAGE FETCH QUEUE STALL: 6.91172 AVERAGE DECODE STALL: 6.77657 AVERAGE EXECUTE STALL: 83.0238
L1BTB BRANCH_RETURN	ACCESS:    1121561 HIT:     289791 MISS:     831770 AVERAGE STALL: 36.8894 AVERAGE FETCH STALL: 18.5682 AVERAGE FETCH QUEUE STALL: 6.60569 AVERAGE DECODE STALL: 6.46649 AVERAGE EXECUTE STALL: 1.43822e+14
L1BTB BRANCH_OTHER ACCESS:          0 HIT:          0 MISS:          0 AVERAGE STALL: -nan AVERAGE FETCH STALL: -nan AVERAGE FETCH QUEUE STALL: -nan AVERAGE DECODE STALL: -nan AVERAGE EXECUTE STALL: -nan
L1BTB TOTAL ROB OCCUPANCY AT BTB MISS: 15.9982

L2BTB TOTAL     ACCESS:    3620375  HIT:    2993757  MISS:     626618  HIT %:    82.6919  MISS %:    17.3081   MPKI: 12.5324
L2BTB BRANCH_DIRECT_JUMP	ACCESS:     399927 HIT:     338905 MISS:      61022 AVERAGE STALL: 34.872 AVERAGE FETCH STALL: 19.4229 AVERAGE FETCH QUEUE STALL: 7.65978 AVERAGE DECODE STALL: 6.94051 AVERAGE EXECUTE STALL: 2.83417e+14
L2BTB BRANCH_INDIRECT	ACCESS:     106667 HIT:      96065 MISS:      10602 AVERAGE STALL: 89.1784 AVERAGE FETCH STALL: 15.0404 AVERAGE FETCH QUEUE STALL: 9.46471 AVERAGE DECODE STALL: 7.17757 AVERAGE EXECUTE STALL: 56.5563
L2BTB BRANCH_CONDITIONAL	ACCESS:    1297047 HIT:    1110090 MISS:     186957 AVERAGE STALL: 35.9195 AVERAGE FETCH STALL: 21.883 AVERAGE FETCH QUEUE STALL: 6.66752 AVERAGE DECODE STALL: 6.62977 AVERAGE EXECUTE STALL: 9.92496e+13
L2BTB BRANCH_DIRECT_CALL	ACCESS:     844683 HIT:     643155 MISS:     201528 AVERAGE STALL: 37.3409 AVERAGE FETCH STALL: 22.0435 AVERAGE FETCH QUEUE STALL: 7.49961 AVERAGE DECODE STALL: 7.04121 AVERAGE EXECUTE STALL: 9.15707e+13
L2BTB BRANCH_INDIRECT_CALL	ACCESS:     141700 HIT:     102085 MISS:      39615 AVERAGE STALL: 115.762 AVERAGE FETCH STALL: 18.4983 AVERAGE FETCH QUEUE STALL: 6.91172 AVERAGE DECODE STALL: 6.77657 AVERAGE EXECUTE STALL: 83.0238
L2BTB BRANCH_RETURN	ACCESS:     830351 HIT:     703457 MISS:     126894 AVERAGE STALL: 36.8894 AVERAGE FETCH STALL: 18.5682 AVERAGE FETCH QUEUE STALL: 6.60569 AVERAGE DECODE STALL: 6.46649 AVERAGE EXECUTE STALL: 1.43822e+14
L2BTB BRANCH_OTHER ACCESS:          0 HIT:          0 MISS:          0 AVERAGE STALL: -nan AVERAGE FETCH STALL: -nan AVERAGE FETCH QUEUE STALL: -nan AVERAGE DECODE STALL: -nan AVERAGE EXECUTE STALL: -nan
L2BTB TOTAL ROB OCCUPANCY AT BTB MISS: 93.0783

L2C TOTAL     ACCESS:    4513789  HIT:    3998496  MISS:     515293  HIT %:     88.584  MISS %:     11.416   MPKI: 10.3059
L2C LOAD INSTRUCTION	ACCESS:    2778490  HIT:    2495746  MISS:     282744  HIT %:    89.8238  MISS %:    10.1762  MPKI: 5.65488
L2C LOAD TRANSLATION INSTRUCTION	ACCESS:        467  HIT:        144  MISS:        323  HIT %:    30.8351  MISS %:    69.1649  MPKI: 0.00646
L2C LOAD DATA	ACCESS:     729940  HIT:     651425  MISS:      78515  HIT %:    89.2436  MISS %:    10.7564  MPKI: 1.5703
L2C RFO DATA	ACCESS:     288267  HIT:     228873  MISS:      59394  HIT %:    79.3962  MISS %:    20.6038  MPKI: 1.18788
L2C PREFETCH DATA	ACCESS:     188320  HIT:     113001  MISS:      75319  HIT %:    60.0048  MISS %:    39.9952  MPKI: 1.50638
L2C WRITEBACK DATA	ACCESS:     526374  HIT:     508700  MISS:      17674  HIT %:    96.6423  MISS %:    3.35769  MPKI: 0.35348
L2C LOAD TRANSLATION DATA	ACCESS:       1870  HIT:        566  MISS:       1304  HIT %:    30.2674  MISS %:    69.7326  MPKI: 0.02608
L2C TRANSLATION FROM L1D PREFETCHER DATA	ACCESS:         61  HIT:         41  MISS:         20  HIT %:    67.2131  MISS %:    32.7869  MPKI: 0.0004

L2C PREFETCH  REQUESTED:      93783  ISSUED:      93783  USEFUL:       8489  USELESS:      67399
L2C USEFUL LOAD PREFETCHES:       8489 PREFETCH ISSUED TO LOWER LEVEL:      75736  ACCURACY: 11.2087
 TIMELY PREFETCHES:       8489 LATE PREFETCHES: 417 DROPPED PREFETCHES: 0
L2C AVERAGE MISS LATENCY: 37.9913 cycles
L2C RQ	ACCESS:    3799136	FORWARD:          0	MERGED:          0	TO_CACHE:    3799098
L2C WQ	ACCESS:     526374	FORWARD:         38	MERGED:          0	TO_CACHE:     526374
L2C PQ	ACCESS:     196084	FORWARD:          0	MERGED:       3864	TO_CACHE:     192220

L2C Dense regions hint from L2: 0
PSCL5 TOTAL     ACCESS:       4472  HIT:       2236  MISS:       2236  HIT %:         50  MISS %:         50   MPKI: 0.04472
PSCL5 LOAD TRANSLATION INSTRUCTION	ACCESS:       4350  HIT:       2175  MISS:       2175  HIT %:         50  MISS %:         50  MPKI: 0.0435
PSCL5 TRANSLATION FROM L1D PREFETCHER INSTRUCTION	ACCESS:        122  HIT:         61  MISS:         61  HIT %:         50  MISS %:         50  MPKI: 0.00122


PSCL4 TOTAL     ACCESS:       3008  HIT:       1501  MISS:       1507  HIT %:    49.9003  MISS %:    50.0997   MPKI: 0.03014
PSCL4 LOAD TRANSLATION INSTRUCTION	ACCESS:       2534  HIT:       1464  MISS:       1070  HIT %:    57.7743  MISS %:    42.2257  MPKI: 0.0214
PSCL4 TRANSLATION FROM L1D PREFETCHER INSTRUCTION	ACCESS:         74  HIT:         37  MISS:         37  HIT %:         50  MISS %:         50  MPKI: 0.00074
PSCL4 LOAD TRANSLATION DATA	ACCESS:        400  HIT:          0  MISS:        400  HIT %:          0  MISS %:        100  MPKI: 0.008


PSCL3 TOTAL     ACCESS:       4295  HIT:       2139  MISS:       2156  HIT %:    49.8021  MISS %:    50.1979   MPKI: 0.04312
PSCL3 LOAD TRANSLATION INSTRUCTION	ACCESS:       3784  HIT:       2091  MISS:       1693  HIT %:     55.259  MISS %:     44.741  MPKI: 0.03386
PSCL3 TRANSLATION FROM L1D PREFETCHER INSTRUCTION	ACCESS:         96  HIT:         48  MISS:         48  HIT %:         50  MISS %:         50  MPKI: 0.00096
PSCL3 LOAD TRANSLATION DATA	ACCESS:        415  HIT:          0  MISS:        415  HIT %:          0  MISS %:        100  MPKI: 0.0083


PSCL2 TOTAL     ACCESS:       4331  HIT:       2095  MISS:       2236  HIT %:    48.3722  MISS %:    51.6278   MPKI: 0.04472
PSCL2 LOAD TRANSLATION INSTRUCTION	ACCESS:       2451  HIT:       2034  MISS:        417  HIT %:    82.9865  MISS %:    17.0135  MPKI: 0.00834
PSCL2 TRANSLATION FROM L1D PREFETCHER INSTRUCTION	ACCESS:         61  HIT:         61  MISS:          0  HIT %:        100  MISS %:          0  MPKI: 0
PSCL2 LOAD TRANSLATION DATA	ACCESS:       1758  HIT:          0  MISS:       1758  HIT %:          0  MISS %:        100  MPKI: 0.03516
PSCL2 TRANSLATION FROM L1D PREFETCHER DATA	ACCESS:         61  HIT:          0  MISS:         61  HIT %:          0  MISS %:        100  MPKI: 0.00122


LLC TOTAL     ACCESS:     580560  HIT:     551730  MISS:      28830  HIT %:    95.0341  MISS %:    4.96589   MPKI: 0.5766
LLC LOAD INSTRUCTION	ACCESS:     282744  HIT:     281879  MISS:        865  HIT %:    99.6941  MISS %:    0.30593  MPKI: 0.0173
LLC LOAD TRANSLATION INSTRUCTION	ACCESS:        323  HIT:        299  MISS:         24  HIT %:    92.5697  MISS %:    7.43034  MPKI: 0.00048
LLC LOAD DATA	ACCESS:      78105  HIT:      74597  MISS:       3508  HIT %:    95.5086  MISS %:    4.49139  MPKI: 0.07016
LLC RFO DATA	ACCESS:      59381  HIT:      45416  MISS:      13965  HIT %:    76.4824  MISS %:    23.5176  MPKI: 0.2793
LLC PREFETCH DATA	ACCESS:      75736  HIT:      65650  MISS:      10086  HIT %:    86.6827  MISS %:    13.3173  MPKI: 0.20172
LLC WRITEBACK DATA	ACCESS:      82947  HIT:      82660  MISS:        287  HIT %:     99.654  MISS %:   0.346004  MPKI: 0.00574
LLC LOAD TRANSLATION DATA	ACCESS:       1304  HIT:       1209  MISS:         95  HIT %:    92.7147  MISS %:    7.28528  MPKI: 0.0019
LLC TRANSLATION FROM L1D PREFETCHER DATA	ACCESS:         20  HIT:         20  MISS:          0  HIT %:        100  MISS %:          0  MPKI: 0

LLC AVERAGE MISS LATENCY: 159.861 cycles
LLC RQ	ACCESS:     421883	FORWARD:          0	MERGED:          0	TO_CACHE:     421877
LLC WQ	ACCESS:      82947	FORWARD:          6	MERGED:          0	TO_CACHE:      82947
LLC PQ	ACCESS:      75736	FORWARD:          0	MERGED:          0	TO_CACHE:      75736

LLC Dense regions hint to LLC: 0

RAW hits: 1717529
Loads Generated: 12641886
Loads sent to L1D: 10924357
Stores Generated: 6962748
Stores sent to L1D: 6962760
Major fault: 0 Minor fault: 2609
Allocated PAGES: 2609

stream: 
stream:times selected: 1169077
stream:pref_filled: 120566
stream:pref_useful: 24021
stream:pref_late: 6654
stream:misses: 6618
stream:misses_by_poll: 0

CS: 
CS:times selected: 175682
CS:pref_filled: 59282
CS:pref_useful: 35318
CS:pref_late: 7010
CS:misses: 16023
CS:misses_by_poll: 7

CPLX: 
CPLX:times selected: 992298
CPLX:pref_filled: 19342
CPLX:pref_useful: 4359
CPLX:pref_late: 3033
CPLX:misses: 90208
CPLX:misses_by_poll: 2

NL_L1: 
NL:times selected: 19340
NL:pref_filled: 582
NL:pref_useful: 249
NL:pref_late: 202
NL:misses: 1096
NL:misses_by_poll: 0

total selections: 2356397
total_filled: 93994
total_useful: 34010
total_late: 18124
total_polluted: 9
total_misses_after_warmup: 769175
conflicts: 5676246

test: 112404

DRAM Statistics
 CHANNEL 0
 RQ ROW_BUFFER_HIT:      10473  ROW_BUFFER_MISS:      18069
 DBUS_CONGESTED:         12
 WQ ROW_BUFFER_HIT:       1421  ROW_BUFFER_MISS:      12416  FULL:          0

 AVG_CONGESTED_CYCLE: 5

CPU 0 Branch Prediction Accuracy: 99.821% MPKI: 0.3275 Average ROB Occupancy at Mispredict: 131.781
Branch types
NOT_BRANCH: 40852262 81.7045%
BRANCH_DIRECT_JUMP: 547870 1.09574%
BRANCH_INDIRECT: 182500 0.365%
BRANCH_CONDITIONAL: 6173841 12.3477%
BRANCH_DIRECT_CALL: 949379 1.89876%
BRANCH_INDIRECT_CALL: 172183 0.344366%
BRANCH_RETURN: 1121561 2.24312%
BRANCH_OTHER: 0 0%

DRAM PAGES: 1048576
Allocated PAGES: 2609
Average_ROB_Occupancy: 116.123
Average_Decode_Occupancy: 14.1247
Average_FTQ_Occupancy: 6.71262
Indirect max targets: 14 Average targets: 1.1746
Branch_type:  BRANCH_DIRECT_JUMP:  Count Percentage: 3.28652 5.30836 4.94891 9.76608 2.76392 6.51681 1.5857 65.8237 
Branch_type:  BRANCH_INDIRECT:  Count Percentage: 19.7444 3.41835 5.30976 3.77518 3.34993 10.8765 3.22707 50.2988 
Branch_type:  BRANCH_CONDITIONAL:  Count Percentage: 22.046 5.61533 2.57122 5.01515 3.01664 8.56217 0.953547 52.22 
Branch_type:  BRANCH_DIRECT_CALL:  Count Percentage: 0.777441 1.31549 1.00463 4.69669 3.38468 2.73809 0.696994 85.386 
Branch_type:  BRANCH_INDIRECT_CALL:  Count Percentage: 9.57961 0 3.00416 4.30284 0.861033 2.99659 0.997215 78.2586 
Branch_type:  BRANCH_RETURN:  Count Percentage: 5.12398 4.33964 2.59449 3.98773 6.17649 9.66519 1.1836 66.9289 
Branch_type:  BRANCH_DIRECT_JUMP:  Total Count: 35997 58142 54205 106967 30273 71378 17368 720961 
Branch_type:  BRANCH_INDIRECT:  Total Count: 72154 12492 19404 13796 12242 39747 11793 183812 
Branch_type:  BRANCH_CONDITIONAL:  Total Count: 2721477 693187 317405 619097 372390 1056960 117711 6446314 
Branch_type:  BRANCH_DIRECT_CALL:  Total Count: 14728 24921 19032 88975 64120 51871 13204 1617570 
Branch_type:  BRANCH_INDIRECT_CALL:  Total Count: 32921 0 10324 14787 2959 10298 3427 268941 
Branch_type:  BRANCH_RETURN:  Total Count: 114723 97162 58089 89283 138288 216398 26500 1498498 
Number of unique branch instructions: 10676
Upper 32 bits: 
aaaa
ffff
ffff0000
Unique upper 32 bits: 3
Unique upper 36 bits: 3
Unique upper 40 bits: 5
Unique upper 44 bits: 32
Unique upper 48 bits: 158
Variant_0 : 973 0.316732
Variant_1 : 2096 0.682292
Variant_2 : 0 0
Variant_3 : 0 0
Offset_3 4428
Offset_4 258
Offset_5 477
Offset_6 535
Offset_7 634
Offset_8 572
Offset_9 511
Offset_10 415
Offset_11 340
Offset_12 307
Offset_13 240
Offset_14 245
Offset_15 194
Offset_16 227
Offset_17 165
Offset_18 148
Offset_19 261
Offset_20 141
Offset_21 235
Offset_22 411
Offset_23 241
Offset_24 349
Offset_25 117
Offset_47 94
Offset_64 1
decode_dispatch_called: 19582374 41.8485
Dispatch_width: 0 9501868 48.5226 20.306
Dispatch_width: 1 539777 2.75644 1.15353
Dispatch_width: 2 672092 3.43213 1.43629
Dispatch_width: 3 446928 2.2823 0.955108
Dispatch_width: 4 1718387 8.77517 3.67228
Dispatch_width: 5 318484 1.62638 0.680617
Dispatch_width: 6 6384838 32.605 13.6447
Empty_decode_cycles: 27211082 58.1515
ROB_full_cycles: 2418618 5.16871
Starvation_cycles_per_kilo_instr: 379.9
Starvation_cycles_per_kilo_instr_3: 359.531
Starvation_cycles_per_kilo_instr_0: 342.943
Branch_type_1  (3,1)  (4,9)  (5,39)  (6,72)  (7,124)  (8,148)  (9,133)  (10,109)  (11,76)  (12,47)  (13,11)  (14,2)  (15,3)  (16,4)  (18,1)  (19,5)  (20,2)  (21,1)  (22,3)  (23,2)  (24,10)  (25,12) 
Branch_type_2  (3,1)  (4,1)  (5,1)  (8,4)  (9,4)  (10,1)  (12,1)  (13,1)  (14,1)  (16,3)  (17,2)  (20,2)  (21,2)  (23,5)  (24,1)  (47,43) 
Branch_type_3  (3,4426)  (4,248)  (5,433)  (6,447)  (7,481)  (8,354)  (9,280)  (10,167)  (11,129)  (12,54)  (13,10)  (64,1) 
Branch_type_4  (6,3)  (7,8)  (8,25)  (9,56)  (10,66)  (11,69)  (12,114)  (13,102)  (14,110)  (15,92)  (16,99)  (17,76)  (18,63)  (19,128)  (20,72)  (21,124)  (22,217)  (23,136)  (24,204)  (25,101) 
Branch_type_5  (8,3)  (9,1)  (10,4)  (11,5)  (12,3)  (13,14)  (14,16)  (15,11)  (16,22)  (17,11)  (18,23)  (19,14)  (20,11)  (21,13)  (22,43)  (23,26)  (24,38) 
Branch_type_6  (5,4)  (6,13)  (7,21)  (8,38)  (9,37)  (10,68)  (11,61)  (12,88)  (13,102)  (14,116)  (15,88)  (16,99)  (17,76)  (18,61)  (19,114)  (20,54)  (21,95)  (22,148)  (23,72)  (24,96)  (25,4)  (47,51) 
Unique trigger count: 
Variant_0_evicts_0 : 0
Variant_0_evicts_1 : 0
Variant_0_evicts_2 : 0
Variant_0_evicts_3 : 0
Variant_1_evicts_0 : 0
Variant_1_evicts_1 : 0
Variant_1_evicts_2 : 0
Variant_1_evicts_3 : 0
Variant_2_evicts_0 : 0
Variant_2_evicts_1 : 0
Variant_2_evicts_2 : 0
Variant_2_evicts_3 : 0
Variant_3_evicts_0 : 0
Variant_3_evicts_1 : 0
Variant_3_evicts_2 : 0
Variant_3_evicts_3 : 0
BTB PER SET UNIQUE ADDR: 15 20 10 19 19 20 15 17 11 20 10 21 24 17 18 18 15 13 19 16 20 19 16 18 15 21 15 19 18 17 13 17 20 8 16 17 15 18 11 17 13 17 17 21 15 14 21 12 23 17 22 14 17 16 15 10 13 13 16 18 16 24 22 16 19 20 17 15 24 19 14 15 25 16 12 8 12 19 11 22 22 9 20 22 18 18 13 19 15 29 14 10 17 13 10 22 15 13 23 19 27 26 19 16 18 16 17 19 11 15 14 24 22 14 14 11 17 19 16 20 21 15 16 10 17 16 8 19 25 11 13 21 18 18 13 20 12 18 16 24 15 25 17 18 20 17 18 14 11 16 16 18 15 15 15 27 19 18 20 17 14 18 15 19 15 16 17 13 21 12 14 20 16 21 17 14 14 15 16 22 13 15 13 19 22 22 10 20 15 15 19 15 11 18 13 15 15 21 12 16 25 18 14 18 12 18 19 15 14 17 14 20 21 22 16 19 15 19 12 23 14 17 11 16 19 15 17 22 12 23 14 11 16 23 18 22 17 16 19 13 18 18 20 20 13 14 16 21 18 16 21 16 17 12 22 16 13 14 11 13 16 14 8 16 17 13 12 14 15 15 13 19 10 15 10 14 20 17 16 18 12 19 11 16 20 13 14 27 22 21 15 11 17 22 11 19 17 18 17 18 14 15 12 27 18 25 17 20 21 17 16 21 15 28 14 11 21 15 18 22 17 16 12 17 15 24 13 9 18 13 12 22 16 16 16 22 17 17 13 31 15 18 12 22 23 19 15 14 13 16 15 15 12 22 12 22 17 19 12 13 15 22 10 29 15 19 11 21 13 18 18 15 21 21 12 24 19 23 15 17 19 16 11 13 12 15 18 23 16 17 24 12 21 25 11 15 15 14 17 20 16 18 18 20 16 17 18 19 17 20 17 13 13 19 14 16 17 19 23 21 16 18 16 20 19 17 20 17 16 17 21 15 15 17 25 20 20 13 17 19 18 17 17 24 28 12 15 19 24 21 20 27 21 14 21 30 20 20 15 25 13 17 11 21 24 12 18 19 22 19 17 16 17 14 18 23 16 23 12 17 23 21 15 16 12 25 22 27 20 19 14 22 15 14 12 14 22 23 15 20 14 26 17 24 17 14 16 28 21 20 16 28 17 16 15 21 17 24 12 13 16 17 18 16 19 23 24 12 14 21 22 18 22 15 17 21 15 18 20 19 15 13 19 18 21 22 9 19 13 19 16 25 19 15 16 18 18 16 16 22 19 24 21 13 22 20 12 25 19 22 19 22 22 24 19 23 21 21 17 15 15 22 10 16 18 23 14 19 28 19 11 18 15 13 22 15 13 20 20 15 18 14 16 11 24 18 27 13 14 20 24 21 15 14 7 27 13 22 17 18 23 19 12 16 14 24 17 24 15 22 10 21 20 19 18 19 18 23 10 19 20 13 21 27 19 18 16 18 28 18 14 18 13 13 18 13 15 21 18 18 14 8 21 22 13 20 13 15 10 16 19 16 15 17 30 15 20 17 21 23 17 16 16 19 18 13 17 17 22 22 16 22 19 11 11 17 12 20 16 23 12 17 25 21 10 14 13 15 14 10 16 20 14 16 15 14 20 14 15 22 15 17 18 18 15 13 16 15 17 15 21 15 18 13 13 16 17 20 27 15 16 13 14 16 24 20 16 19 18 13 17 17 18 13 16 17 23 16 13 9 15 12 10 19 18 23 14 18 17 24 18 23 16 16 17 9 21 19 18 22 15 19 20 14 21 21 15 23 13 12 14 9 18 22 17 26 18 11 25 17 26 20 28 23 26 18 19 14 17 15 17 26 25 23 17 22 22 23 11 23 17 18 11 19 19 14 13 14 18 20 19 20 20 19 11 23 17 18 21 16 22 17 15 15 17 19 14 22 18 18 16 15 12 16 17 23 22 20 21 19 16 17 13 15 21 11 21 15 23 12 16 17 21 17 17 7 19 15 17 19 23 7 18 21 18 18 22 16 18 19 21 14 17 16 16 18 23 18 13 15 17 18 15 18 12 19 15 19 13 23 17 17 16 19 13 16 28 18 17 17 20 19 11 17 16 14 10 19 16 15 22 24 21 17 16 22 18 14 21 16 12 22 19 22 16 18 18 20 17 15 15 20 17 22 16 16 19 23 20 14 23 17 17 22 23 18 20 21 10 16 19 21 18 15 21 16 23 23 25 28 19 24 19 16 20 22 31 19 20 19 20 22 23 16 16 17 16 15 21 16 23 24 14 19 16 21 9 24 17 18 18 20 18 14 13 13 11 14 11 12 19 26 12 13 
BTB PER SET COUNT: 1717 1309 2287 1180 2171 1377 833 808 1292 1368 530 1167 1739 1364 965 542 1204 2721 1531 895 1433 1261 820 1155 893 1762 688 1457 1582 1614 480 1058 1366 261 982 1012 985 876 641 1576 628 1109 1022 1826 2263 663 1212 881 1953 697 1824 1074 964 1298 1341 368 440 931 901 1281 617 2547 1590 1131 1615 2014 788 2199 2074 1470 1388 1243 2061 1012 363 613 590 1811 848 1599 1923 191 1600 1255 1031 717 468 1681 1873 2823 622 659 1327 923 238 1441 743 773 1422 2996 2694 1968 1237 930 2725 407 1351 1158 2230 928 992 1941 2345 1115 1152 945 1291 1404 1440 1781 1973 958 1489 411 599 487 453 1689 2302 1328 989 2185 1202 1028 1303 1563 911 1118 615 1604 1051 2129 1393 845 1162 974 1327 716 545 1354 1109 1027 1488 955 609 2481 2433 1447 1214 1650 739 1249 1237 1102 738 1838 906 617 1426 1950 578 979 1318 980 1603 723 464 662 1492 2196 1046 532 926 1295 1612 1856 393 1141 1284 1093 1404 741 441 1602 742 609 857 2046 750 700 1508 1105 1810 1034 756 1559 1126 1040 1063 1696 1371 1332 649 3570 1240 1573 1064 1749 847 1658 641 1070 699 978 975 1197 903 1660 1014 1753 835 406 822 1406 1589 11025 1092 1211 1401 586 2167 1376 2015 1682 1052 816 1017 1633 980 1257 1361 613 621 459 1684 1450 757 1045 836 640 1076 725 307 1452 1043 434 647 877 913 982 631 1125 362 553 688 889 1179 910 1206 1719 127 1560 949 1471 1228 1021 489 1487 1487 1258 1045 374 517 1693 485 1087 1650 878 955 1471 500 942 357 2097 1033 1891 983 1838 1763 1158 1341 1129 574 2095 2439 1362 1464 958 1517 1889 1086 2902 452 903 535 1894 756 510 1341 506 703 1952 1292 550 984 1717 767 1642 743 2587 745 1900 1055 1434 1708 1222 604 884 678 1487 762 856 596 1536 552 1102 946 1473 416 756 889 1619 679 2107 686 2000 414 1222 717 1239 1322 890 1218 2027 228 1503 892 1581 715 1842 1618 1074 391 477 702 673 1578 1735 649 663 1972 376 1613 1713 470 679 1002 935 1282 2143 1332 1024 1656 1026 989 1392 949 1457 868 2168 609 242 583 1258 774 833 996 4613 1935 1361 803 1011 1540 1307 1092 1124 1745 1154 969 693 2154 763 432 1452 1877 1704 1333 776 1106 1248 1580 1370 1018 1861 2461 1198 1677 1260 1877 1416 1303 2951 1665 962 1702 2455 1395 911 602 2273 746 1123 590 1285 1537 619 10219 1047 1680 1359 1295 993 780 825 1126 1797 1046 2291 795 889 1884 1797 1011 1031 1490 1460 1476 1981 2077 1183 1225 1457 4558 655 415 1111 2312 1635 1126 1012 774 1452 961 2019 1485 587 794 2358 1917 1142 1214 3082 1798 1442 650 1991 591 1695 486 527 547 1185 980 535 1214 1844 1935 979 932 3621 2511 1561 1406 919 1282 1901 830 2075 1569 1383 1028 672 1016 1171 978 1666 92 1343 871 1605 938 1510 1325 724 993 448 1146 576 1010 1516 734 2033 943 897 1959 930 560 1933 1635 1876 1905 1868 1382 1590 1154 1667 1646 1663 901 961 695 1728 530 2933 961 1535 517 962 2442 868 735 1388 965 622 1150 918 350 1510 1414 574 764 1210 1289 820 1307 1254 2219 2073 493 1105 1874 2076 922 502 316 1964 435 1515 1883 1217 1981 920 537 842 719 1664 811 2272 844 1695 196 1825 1854 1002 794 1398 1574 1116 618 1055 1600 855 1488 1813 2049 1588 905 1600 2946 764 628 1062 454 931 2273 620 1009 1536 830 1089 1359 296 1512 1521 8412 1122 948 1401 1125 1233 1048 921 1404 1485 2497 1819 1486 862 1523 2292 1111 1293 1378 1136 2198 833 1301 1183 1832 2239 661 2098 1201 610 912 996 1001 2222 1190 1547 758 1297 2416 1657 587 1152 596 1030 591 780 912 1592 1306 1005 1161 969 2204 896 872 1814 1502 1298 747 1128 692 795 870 1111 939 1732 1722 1270 1195 1035 712 1375 1598 1446 2663 608 1188 274 945 683 1992 1476 1422 802 1512 687 1654 995 1855 1114 2519 958 1517 1617 825 343 1327 528 291 1341 1619 1727 577 1626 382 1645 936 1894 803 1163 1256 653 1416 1781 669 1826 2225 1386 1849 712 1172 1250 776 1194 542 406 797 1047 1624 1456 1136 2317 953 521 1238 1473 2181 904 2334 2072 1691 970 1643 792 1421 942 859 3807 1789 1850 982 2233 1405 2792 649 3259 1231 849 942 1079 2237 717 813 939 1023 2092 1155 1566 1377 1359 368 2658 1090 1010 1258 779 1647 1302 942 846 736 1046 1142 1537 1047 4638 1676 1212 549 903 1372 1908 1682 1572 1937 1204 1402 738 772 654 2115 395 1192 656 1552 798 1352 1156 1363 1006 1116 13 1007 1081 2295 1398 1699 149 1140 1188 1054 1537 777 1115 1301 1785 1982 1167 2664 466 765 1153 2068 907 1057 827 1359 1085 798 1931 737 1486 981 2050 861 1602 1381 1701 1109 1642 1016 1399 3383 1796 1081 996 1271 1530 341 1441 1008 1073 154 1348 772 816 1760 1597 994 706 905 2462 1413 837 1561 1320 533 2231 1417 1183 864 1430 1115 1512 861 951 750 2123 1639 2263 1041 922 1474 1431 1597 726 1507 1299 1406 1105 1962 933 1970 1802 448 1100 1178 1988 1186 688 1291 1251 1456 1505 1656 2589 1251 2046 1690 1329 1068 1760 2900 1084 1426 1751 1101 3099 1797 885 1201 961 1075 2281 928 1519 1632 2072 1212 1625 854 1161 313 1934 1615 942 1796 1388 1112 952 769 732 805 1065 267 421 1430 2841 538 801 
To predecode: 0
Predecoding something: 0
Predecode request dropped: 0
sizeofblock_0 0
sizeofblock_1 300970
sizeofblock_2 572880
sizeofblock_3 0
sizeofblock_4 0
sizeofblock_5 0
sizeofblock_6 0
sizeofblock_7 0
sizeofblock_8 0
Variant_0 Correct: 1228954 Incorrect: 0 Accuracy: 1
Variant_1 Correct: 4988640 Incorrect: 0 Accuracy: 1
Variant_2 Correct: 0 Incorrect: 0 Accuracy: -nan
Variant_3 Correct: 0 Incorrect: 0 Accuracy: -nan
