
*** ChampSim Multicore Out-of-Order Simulator ***

Warmup Instructions: 50000000
Simulation Instructions: 50000000
Number of CPUs: 1
LLC sets: 2048
LLC ways: 16
Off-chip DRAM Size: 4096 MB Channels: 1 Width: 64-bit Data Rate: 6400 MT/s
CPU 0 runs ./micro_traces/srv625.trace.gz
.gz
ITLB has LRU replacement policy
DTLB has LRU replacement policy
STLB has LRU replacement policy
FDIP Prefetcher at L1I
L1I has LRU replacement policy
L1D has LRU replacement policy
Initialize SRRIP state for L2C
Initialize DRRIP state for LLC
Heartbeat_Variant_0 : 1344 0.164062 per_variant_size: 0 1344 0 0 0 0 0 0 0 
Heartbeat_Variant_1 : 2898 0.35376 per_variant_size: 0 1259 1639 0 0 0 0 0 0 
Heartbeat_Variant_2 : 0 0 per_variant_size: 0 0 0 0 0 0 0 0 0 
Heartbeat_Variant_3 : 0 0 per_variant_size: 0 0 0 0 0 0 0 0 0 
Heartbeat_Variant_0_evicts 0 : 5537 1 : 1 2 : 0 3 : 0 
Heartbeat_Variant_1_evicts 0 : 0 1 : 0 2 : 0 3 : 0 
Heartbeat_Variant_2_evicts 0 : 0 1 : 0 2 : 0 3 : 0 
Heartbeat_Variant_3_evicts 0 : 0 1 : 0 2 : 0 3 : 0 
Heartbeat CPU 0 instructions: 10000002 cycles: 2796528 heartbeat IPC: 3.57586 cumulative IPC: 3.57586 (Simulation time: 0 hr 2 min 18 sec) 
Heartbeat_Variant_0 : 1382 0.168701 per_variant_size: 0 1382 0 0 0 0 0 0 0 
Heartbeat_Variant_1 : 2984 0.364258 per_variant_size: 0 1249 1735 0 0 0 0 0 0 
Heartbeat_Variant_2 : 0 0 per_variant_size: 0 0 0 0 0 0 0 0 0 
Heartbeat_Variant_3 : 0 0 per_variant_size: 0 0 0 0 0 0 0 0 0 
Heartbeat_Variant_0_evicts 0 : 5613 1 : 2 2 : 0 3 : 0 
Heartbeat_Variant_1_evicts 0 : 0 1 : 0 2 : 0 3 : 0 
Heartbeat_Variant_2_evicts 0 : 0 1 : 0 2 : 0 3 : 0 
Heartbeat_Variant_3_evicts 0 : 0 1 : 0 2 : 0 3 : 0 
Heartbeat CPU 0 instructions: 20000002 cycles: 5592606 heartbeat IPC: 3.57644 cumulative IPC: 3.57615 (Simulation time: 0 hr 4 min 24 sec) 
Heartbeat_Variant_0 : 1383 0.168823 per_variant_size: 0 1383 0 0 0 0 0 0 0 
Heartbeat_Variant_1 : 2995 0.365601 per_variant_size: 0 1248 1747 0 0 0 0 0 0 
Heartbeat_Variant_2 : 0 0 per_variant_size: 0 0 0 0 0 0 0 0 0 
Heartbeat_Variant_3 : 0 0 per_variant_size: 0 0 0 0 0 0 0 0 0 
Heartbeat_Variant_0_evicts 0 : 5692 1 : 0 2 : 0 3 : 0 
Heartbeat_Variant_1_evicts 0 : 0 1 : 0 2 : 0 3 : 0 
Heartbeat_Variant_2_evicts 0 : 0 1 : 0 2 : 0 3 : 0 
Heartbeat_Variant_3_evicts 0 : 0 1 : 0 2 : 0 3 : 0 
Heartbeat CPU 0 instructions: 30000003 cycles: 8388894 heartbeat IPC: 3.57617 cumulative IPC: 3.57616 (Simulation time: 0 hr 6 min 33 sec) 
Heartbeat_Variant_0 : 1383 0.168823 per_variant_size: 0 1383 0 0 0 0 0 0 0 
Heartbeat_Variant_1 : 2996 0.365723 per_variant_size: 0 1248 1748 0 0 0 0 0 0 
Heartbeat_Variant_2 : 0 0 per_variant_size: 0 0 0 0 0 0 0 0 0 
Heartbeat_Variant_3 : 0 0 per_variant_size: 0 0 0 0 0 0 0 0 0 
Heartbeat_Variant_0_evicts 0 : 5557 1 : 0 2 : 0 3 : 0 
Heartbeat_Variant_1_evicts 0 : 0 1 : 0 2 : 0 3 : 0 
Heartbeat_Variant_2_evicts 0 : 0 1 : 0 2 : 0 3 : 0 
Heartbeat_Variant_3_evicts 0 : 0 1 : 0 2 : 0 3 : 0 
Heartbeat CPU 0 instructions: 40000000 cycles: 11185907 heartbeat IPC: 3.57524 cumulative IPC: 3.57593 (Simulation time: 0 hr 8 min 41 sec) 
Heartbeat_Variant_0 : 1383 0.168823 per_variant_size: 0 1383 0 0 0 0 0 0 0 
Heartbeat_Variant_1 : 2997 0.365845 per_variant_size: 0 1244 1753 0 0 0 0 0 0 
Heartbeat_Variant_2 : 0 0 per_variant_size: 0 0 0 0 0 0 0 0 0 
Heartbeat_Variant_3 : 0 0 per_variant_size: 0 0 0 0 0 0 0 0 0 
Heartbeat_Variant_0_evicts 0 : 5570 1 : 0 2 : 0 3 : 0 
Heartbeat_Variant_1_evicts 0 : 0 1 : 0 2 : 0 3 : 0 
Heartbeat_Variant_2_evicts 0 : 0 1 : 0 2 : 0 3 : 0 
Heartbeat_Variant_3_evicts 0 : 0 1 : 0 2 : 0 3 : 0 
Heartbeat CPU 0 instructions: 50000003 cycles: 13981873 heartbeat IPC: 3.57658 cumulative IPC: 3.57606 (Simulation time: 0 hr 10 min 54 sec) 

Warmup complete CPU 0 instructions: 50000003 cycles: 13981873 (Simulation time: 0 hr 10 min 54 sec) 

Cycle: 20000000 FTQ IN: 58259317 FTQ occupancy: 20.0081 DECODE IN: 58259317 DECODE occupancy: 52.248 ROB IN: 58259317 ROB occupancy: 315.241 ROB OUT: 58259185
Heartbeat_Variant_0 : 1397 0.170532 per_variant_size: 0 1397 0 0 0 0 0 0 0 
Heartbeat_Variant_1 : 3034 0.370361 per_variant_size: 0 1237 1797 0 0 0 0 0 0 
Heartbeat_Variant_2 : 0 0 per_variant_size: 0 0 0 0 0 0 0 0 0 
Heartbeat_Variant_3 : 0 0 per_variant_size: 0 0 0 0 0 0 0 0 0 
Heartbeat_Variant_0_evicts 0 : 5568 1 : 0 2 : 0 3 : 0 
Heartbeat_Variant_1_evicts 0 : 0 1 : 0 2 : 0 3 : 0 
Heartbeat_Variant_2_evicts 0 : 0 1 : 0 2 : 0 3 : 0 
Heartbeat_Variant_3_evicts 0 : 0 1 : 0 2 : 0 3 : 0 
Heartbeat CPU 0 instructions: 60000002 cycles: 21248897 heartbeat IPC: 1.37608 cumulative IPC: 1.37608 (Simulation time: 0 hr 13 min 23 sec) 
Heartbeat_Variant_0 : 1397 0.170532 per_variant_size: 0 1397 0 0 0 0 0 0 0 
Heartbeat_Variant_1 : 3035 0.370483 per_variant_size: 0 1241 1794 0 0 0 0 0 0 
Heartbeat_Variant_2 : 0 0 per_variant_size: 0 0 0 0 0 0 0 0 0 
Heartbeat_Variant_3 : 0 0 per_variant_size: 0 0 0 0 0 0 0 0 0 
Heartbeat_Variant_0_evicts 0 : 5611 1 : 0 2 : 0 3 : 0 
Heartbeat_Variant_1_evicts 0 : 0 1 : 0 2 : 0 3 : 0 
Heartbeat_Variant_2_evicts 0 : 0 1 : 0 2 : 0 3 : 0 
Heartbeat_Variant_3_evicts 0 : 0 1 : 0 2 : 0 3 : 0 
Heartbeat CPU 0 instructions: 70000002 cycles: 28405545 heartbeat IPC: 1.3973 cumulative IPC: 1.38661 (Simulation time: 0 hr 15 min 57 sec) 
Cycle: 30000000 FTQ IN: 13955044 FTQ occupancy: 13.0222 DECODE IN: 13954899 DECODE occupancy: 34.5405 ROB IN: 13954839 ROB occupancy: 241.121 ROB OUT: 13954709
Heartbeat_Variant_0 : 1397 0.170532 per_variant_size: 0 1397 0 0 0 0 0 0 0 
Heartbeat_Variant_1 : 3038 0.37085 per_variant_size: 0 1236 1802 0 0 0 0 0 0 
Heartbeat_Variant_2 : 0 0 per_variant_size: 0 0 0 0 0 0 0 0 0 
Heartbeat_Variant_3 : 0 0 per_variant_size: 0 0 0 0 0 0 0 0 0 
Heartbeat_Variant_0_evicts 0 : 5586 1 : 0 2 : 0 3 : 0 
Heartbeat_Variant_1_evicts 0 : 0 1 : 0 2 : 0 3 : 0 
Heartbeat_Variant_2_evicts 0 : 0 1 : 0 2 : 0 3 : 0 
Heartbeat_Variant_3_evicts 0 : 0 1 : 0 2 : 0 3 : 0 
Heartbeat CPU 0 instructions: 80000003 cycles: 35689556 heartbeat IPC: 1.37287 cumulative IPC: 1.382 (Simulation time: 0 hr 18 min 23 sec) 
Cycle: 40000000 FTQ IN: 13808224 FTQ occupancy: 13.0989 DECODE IN: 13808266 DECODE occupancy: 34.4114 ROB IN: 13808266 ROB occupancy: 241.07 ROB OUT: 13808176
Heartbeat_Variant_0 : 1397 0.170532 per_variant_size: 0 1397 0 0 0 0 0 0 0 
Heartbeat_Variant_1 : 3038 0.37085 per_variant_size: 0 1238 1800 0 0 0 0 0 0 
Heartbeat_Variant_2 : 0 0 per_variant_size: 0 0 0 0 0 0 0 0 0 
Heartbeat_Variant_3 : 0 0 per_variant_size: 0 0 0 0 0 0 0 0 0 
Heartbeat_Variant_0_evicts 0 : 5594 1 : 0 2 : 0 3 : 0 
Heartbeat_Variant_1_evicts 0 : 0 1 : 0 2 : 0 3 : 0 
Heartbeat_Variant_2_evicts 0 : 0 1 : 0 2 : 0 3 : 0 
Heartbeat_Variant_3_evicts 0 : 0 1 : 0 2 : 0 3 : 0 
Heartbeat CPU 0 instructions: 90000003 cycles: 42839019 heartbeat IPC: 1.39871 cumulative IPC: 1.38614 (Simulation time: 0 hr 20 min 54 sec) 
Cycle: 50000000 FTQ IN: 13831256 FTQ occupancy: 13.1298 DECODE IN: 13831318 DECODE occupancy: 34.5571 ROB IN: 13831378 ROB occupancy: 241.965 ROB OUT: 13831656
Heartbeat_Variant_0 : 1397 0.170532 per_variant_size: 0 1397 0 0 0 0 0 0 0 
Heartbeat_Variant_1 : 3038 0.37085 per_variant_size: 0 1237 1801 0 0 0 0 0 0 
Heartbeat_Variant_2 : 0 0 per_variant_size: 0 0 0 0 0 0 0 0 0 
Heartbeat_Variant_3 : 0 0 per_variant_size: 0 0 0 0 0 0 0 0 0 
Heartbeat_Variant_0_evicts 0 : 5519 1 : 0 2 : 0 3 : 0 
Heartbeat_Variant_1_evicts 0 : 0 1 : 0 2 : 0 3 : 0 
Heartbeat_Variant_2_evicts 0 : 0 1 : 0 2 : 0 3 : 0 
Heartbeat_Variant_3_evicts 0 : 0 1 : 0 2 : 0 3 : 0 
Heartbeat CPU 0 instructions: 100000001 cycles: 50103350 heartbeat IPC: 1.37659 cumulative IPC: 1.38422 (Simulation time: 0 hr 23 min 11 sec) 
Finished CPU 0 instructions: 50000002 cycles: 36121478 cumulative IPC: 1.38422 (Simulation time: 0 hr 23 min 11 sec) 

ChampSim completed all CPUs

Region of Interest Statistics

CPU 0 cumulative IPC: 1.38422 instructions: 50000002 cycles: 36121478
 Fetch stage stalled: 53.2918  Sim cycles: 36121478 fetch stall cycle: 19249770
 Empty decode stage: 34.0484  Sim cycles: 36121478 fetch stall cycle: 12298776
ITLB TOTAL     ACCESS:    5858101  HIT:    5362281  MISS:     495820  HIT %:    91.5362  MISS %:    8.46383   MPKI: 9.9164
ITLB LOAD TRANSLATION INSTRUCTION	ACCESS:    5735717  HIT:    5239897  MISS:     495820  HIT %:    91.3556  MISS %:    8.64443  MPKI: 9.9164
ITLB TRANSLATION FROM L1D PREFETCHER INSTRUCTION	ACCESS:     122384  HIT:     122384  MISS:          0  HIT %:        100  MISS %:          0  MPKI: 0

ITLB AVERAGE MISS LATENCY: 9.05696 cycles
ITLB RQ	ACCESS:    8013484	FORWARD:          0	MERGED:    1707458	TO_CACHE:    6306026

DTLB TOTAL     ACCESS:    8976464  HIT:    8502595  MISS:     473869  HIT %:     94.721  MISS %:    5.27902   MPKI: 9.47738
DTLB LOAD TRANSLATION DATA	ACCESS:    8976464  HIT:    8502595  MISS:     473869  HIT %:     94.721  MISS %:    5.27902  MPKI: 9.47738

DTLB AVERAGE MISS LATENCY: 9.33121 cycles
DTLB RQ	ACCESS:   13347414	FORWARD:          0	MERGED:    4334253	TO_CACHE:    9013161

STLB TOTAL     ACCESS:    1218631  HIT:    1216640  MISS:       1991  HIT %:    99.8366  MISS %:    0.16338   MPKI: 0.03982
STLB LOAD TRANSLATION INSTRUCTION	ACCESS:     495820  HIT:     495578  MISS:        242  HIT %:    99.9512  MISS %:   0.048808  MPKI: 0.00484
STLB LOAD TRANSLATION DATA	ACCESS:     473868  HIT:     472146  MISS:       1722  HIT %:    99.6366  MISS %:   0.363392  MPKI: 0.03444
STLB TRANSLATION FROM L1D PREFETCHER DATA	ACCESS:     248943  HIT:     248916  MISS:         27  HIT %:    99.9892  MISS %:  0.0108459  MPKI: 0.00054

STLB AVERAGE MISS LATENCY: 76.7499 cycles
STLB RQ	ACCESS:    1339103	FORWARD:          0	MERGED:     120434	TO_CACHE:    1218669

STLB Hit, L1D data hit: 0
STLB Hit, L2C data hit: 0
STLB Hit, LLC data hit: 0
STLB Hit, LLC data miss: 0
STLB STLB hints to L2: 0
L1D TOTAL     ACCESS:   13092286  HIT:   11971242  MISS:    1121044  HIT %:    91.4374  MISS %:    8.56263   MPKI: 22.4209
L1D LOAD DATA	ACCESS:    6552681  HIT:    5815436  MISS:     737245  HIT %:     88.749  MISS %:     11.251  MPKI: 14.7449
L1D RFO DATA	ACCESS:    6211464  HIT:    5924057  MISS:     287407  HIT %:     95.373  MISS %:    4.62704  MPKI: 5.74814
L1D PREFETCH DATA	ACCESS:     328141  HIT:     231749  MISS:      96392  HIT %:    70.6248  MISS %:    29.3752  MPKI: 1.92784

L1D PREFETCH  REQUESTED:     739203  ISSUED:     739203  USEFUL:      35495  USELESS:      68934
L1D USEFUL LOAD PREFETCHES:      35495 PREFETCH ISSUED TO LOWER LEVEL:     104482  ACCURACY: 33.9724
 TIMELY PREFETCHES:      35495 LATE PREFETCHES: 8043 DROPPED PREFETCHES: 7
L1D AVERAGE MISS LATENCY: 229635 cycles
L1D RQ	ACCESS:   10695815	FORWARD:          0	MERGED:    3943751	TO_CACHE:    6587266
L1D WQ	ACCESS:    6957200	FORWARD:     165173	MERGED:     197052	TO_CACHE:    6760148
L1D PQ	ACCESS:     369789	FORWARD:          0	MERGED:          0	TO_CACHE:     369414

L1D UNIQUE REGIONS ACCESSED: 0
L1D REGIONS CONFLICTS: 0
L1D Cross Page Prefetch Requests: 6989
L1D Same Page Prefetch Requests: 748063
L1D ROI Sum of L1D PQ occupancy: 4698459
L1D PREFETCHES PUSHED FROM L2C: 0
L1I TOTAL     ACCESS:    7172662  HIT:    4400531  MISS:    2772131  HIT %:    61.3514  MISS %:    38.6486   MPKI: 55.4426
L1I LOAD INSTRUCTION	ACCESS:    6507271  HIT:    3735140  MISS:    2772131  HIT %:    57.3995  MISS %:    42.6005  MPKI: 55.4426
L1I PREFETCH INSTRUCTION	ACCESS:     665391  HIT:     665391  MISS:          0  HIT %:        100  MISS %:          0  MPKI: 0

L1I PREFETCH  REQUESTED:    1614007  ISSUED:    1614007  USEFUL:          0  USELESS:          0
L1I USEFUL LOAD PREFETCHES:          0 PREFETCH ISSUED TO LOWER LEVEL:          0  ACCURACY: -nan
 TIMELY PREFETCHES:          0 LATE PREFETCHES: 0 DROPPED PREFETCHES: 0
L1I AVERAGE MISS LATENCY: 16.9603 cycles
L1I RQ	ACCESS:    9508776	FORWARD:          0	MERGED:    2679807	TO_CACHE:    6828969
L1I PQ	ACCESS:    1614007	FORWARD:          0	MERGED:     429492	TO_CACHE:    1184515

L1BTB TOTAL     ACCESS:    5669974  HIT:    2032456  MISS:    3637518  HIT %:    35.8459  MISS %:    64.1541   MPKI: 72.7504
L1BTB BRANCH_DIRECT_JUMP	ACCESS:     547797 HIT:     143500 MISS:     404297 AVERAGE STALL: 49.8508 AVERAGE FETCH STALL: 13.7305 AVERAGE FETCH QUEUE STALL: 15.1756 AVERAGE DECODE STALL: 20.0091 AVERAGE EXECUTE STALL: 2.44619e+15
L1BTB BRANCH_INDIRECT	ACCESS:     182398 HIT:      65452 MISS:     116946 AVERAGE STALL: 101.789 AVERAGE FETCH STALL: 11.2705 AVERAGE FETCH QUEUE STALL: 13.6918 AVERAGE DECODE STALL: 11.9053 AVERAGE EXECUTE STALL: 63.9589
L1BTB BRANCH_CONDITIONAL	ACCESS:    2703361 HIT:    1408590 MISS:    1294771 AVERAGE STALL: 81.4166 AVERAGE FETCH STALL: 19.7861 AVERAGE FETCH QUEUE STALL: 38.2576 AVERAGE DECODE STALL: 22.705 AVERAGE EXECUTE STALL: 4.20199e+15
L1BTB BRANCH_DIRECT_CALL	ACCESS:     946488 HIT:     104418 MISS:     842070 AVERAGE STALL: 73.2877 AVERAGE FETCH STALL: 25.2397 AVERAGE FETCH QUEUE STALL: 37.411 AVERAGE DECODE STALL: 9.68493 AVERAGE EXECUTE STALL: 1.26348e+17
L1BTB BRANCH_INDIRECT_CALL	ACCESS:     171721 HIT:      20935 MISS:     150786 AVERAGE STALL: 132.207 AVERAGE FETCH STALL: 13.1563 AVERAGE FETCH QUEUE STALL: 13.3714 AVERAGE DECODE STALL: 10.1378 AVERAGE EXECUTE STALL: 95.0515
L1BTB BRANCH_RETURN	ACCESS:    1118209 HIT:     289561 MISS:     828648 AVERAGE STALL: 45.836 AVERAGE FETCH STALL: 16.1204 AVERAGE FETCH QUEUE STALL: 3.69005 AVERAGE DECODE STALL: 5.57817 AVERAGE EXECUTE STALL: 4.42952e+14
L1BTB BRANCH_OTHER ACCESS:          0 HIT:          0 MISS:          0 AVERAGE STALL: -nan AVERAGE FETCH STALL: -nan AVERAGE FETCH QUEUE STALL: -nan AVERAGE DECODE STALL: -nan AVERAGE EXECUTE STALL: -nan
L1BTB TOTAL ROB OCCUPANCY AT BTB MISS: 2.3789

L2BTB TOTAL     ACCESS:    3612179  HIT:    3551300  MISS:      60879  HIT %:    98.3146  MISS %:    1.68538   MPKI: 1.21758
L2BTB BRANCH_DIRECT_JUMP	ACCESS:     400174 HIT:     396752 MISS:       3422 AVERAGE STALL: 49.8508 AVERAGE FETCH STALL: 13.7305 AVERAGE FETCH QUEUE STALL: 15.1756 AVERAGE DECODE STALL: 20.0091 AVERAGE EXECUTE STALL: 2.44619e+15
L2BTB BRANCH_INDIRECT	ACCESS:     106641 HIT:     104014 MISS:       2627 AVERAGE STALL: 101.789 AVERAGE FETCH STALL: 11.2705 AVERAGE FETCH QUEUE STALL: 13.6918 AVERAGE DECODE STALL: 11.9053 AVERAGE EXECUTE STALL: 63.9589
L2BTB BRANCH_CONDITIONAL	ACCESS:    1294771 HIT:    1290344 MISS:       4427 AVERAGE STALL: 81.4166 AVERAGE FETCH STALL: 19.7861 AVERAGE FETCH QUEUE STALL: 38.2576 AVERAGE DECODE STALL: 22.705 AVERAGE EXECUTE STALL: 4.20199e+15
L2BTB BRANCH_DIRECT_CALL	ACCESS:     842070 HIT:     841912 MISS:        158 AVERAGE STALL: 73.2877 AVERAGE FETCH STALL: 25.2397 AVERAGE FETCH QUEUE STALL: 37.411 AVERAGE DECODE STALL: 9.68493 AVERAGE EXECUTE STALL: 1.26348e+17
L2BTB BRANCH_INDIRECT_CALL	ACCESS:     141286 HIT:     131288 MISS:       9998 AVERAGE STALL: 132.207 AVERAGE FETCH STALL: 13.1563 AVERAGE FETCH QUEUE STALL: 13.3714 AVERAGE DECODE STALL: 10.1378 AVERAGE EXECUTE STALL: 95.0515
L2BTB BRANCH_RETURN	ACCESS:     827237 HIT:     786990 MISS:      40247 AVERAGE STALL: 45.836 AVERAGE FETCH STALL: 16.1204 AVERAGE FETCH QUEUE STALL: 3.69005 AVERAGE DECODE STALL: 5.57817 AVERAGE EXECUTE STALL: 4.42952e+14
L2BTB BRANCH_OTHER ACCESS:          0 HIT:          0 MISS:          0 AVERAGE STALL: -nan AVERAGE FETCH STALL: -nan AVERAGE FETCH QUEUE STALL: -nan AVERAGE DECODE STALL: -nan AVERAGE EXECUTE STALL: -nan
L2BTB TOTAL ROB OCCUPANCY AT BTB MISS: 142.139

L2C TOTAL     ACCESS:    4502805  HIT:    4053784  MISS:     449021  HIT %:     90.028  MISS %:    9.97203   MPKI: 8.98042
L2C LOAD INSTRUCTION	ACCESS:    2772131  HIT:    2534371  MISS:     237760  HIT %:    91.4232  MISS %:     8.5768  MPKI: 4.7552
L2C LOAD TRANSLATION INSTRUCTION	ACCESS:        270  HIT:         72  MISS:        198  HIT %:    26.6667  MISS %:    73.3333  MPKI: 0.00396
L2C LOAD DATA	ACCESS:     729172  HIT:     656181  MISS:      72991  HIT %:    89.9899  MISS %:    10.0101  MPKI: 1.45982
L2C RFO DATA	ACCESS:     287345  HIT:     234568  MISS:      52777  HIT %:    81.6329  MISS %:    18.3671  MPKI: 1.05554
L2C PREFETCH DATA	ACCESS:     188349  HIT:     118394  MISS:      69955  HIT %:    62.8588  MISS %:    37.1412  MPKI: 1.3991
L2C WRITEBACK DATA	ACCESS:     523691  HIT:     509661  MISS:      14030  HIT %:    97.3209  MISS %:    2.67906  MPKI: 0.2806
L2C LOAD TRANSLATION DATA	ACCESS:       1791  HIT:        501  MISS:       1290  HIT %:    27.9732  MISS %:    72.0268  MPKI: 0.0258
L2C TRANSLATION FROM L1D PREFETCHER DATA	ACCESS:         56  HIT:         36  MISS:         20  HIT %:    64.2857  MISS %:    35.7143  MPKI: 0.0004

L2C PREFETCH  REQUESTED:      90680  ISSUED:      90680  USEFUL:       7442  USELESS:      63010
L2C USEFUL LOAD PREFETCHES:       7442 PREFETCH ISSUED TO LOWER LEVEL:      70258  ACCURACY: 10.5924
 TIMELY PREFETCHES:       7442 LATE PREFETCHES: 303 DROPPED PREFETCHES: 0
L2C AVERAGE MISS LATENCY: 39.8111 cycles
L2C RQ	ACCESS:    3790812	FORWARD:          0	MERGED:          0	TO_CACHE:    3790767
L2C WQ	ACCESS:     523691	FORWARD:         45	MERGED:          0	TO_CACHE:     523691
L2C PQ	ACCESS:     195162	FORWARD:          0	MERGED:       3469	TO_CACHE:     191693

L2C Dense regions hint from L2: 0
PSCL5 TOTAL     ACCESS:       4004  HIT:       2002  MISS:       2002  HIT %:         50  MISS %:         50   MPKI: 0.04004
PSCL5 LOAD TRANSLATION INSTRUCTION	ACCESS:       3900  HIT:       1950  MISS:       1950  HIT %:         50  MISS %:         50  MPKI: 0.039
PSCL5 TRANSLATION FROM L1D PREFETCHER INSTRUCTION	ACCESS:        104  HIT:         52  MISS:         52  HIT %:         50  MISS %:         50  MPKI: 0.00104


PSCL4 TOTAL     ACCESS:       3911  HIT:       1951  MISS:       1960  HIT %:    49.8849  MISS %:    50.1151   MPKI: 0.0392
PSCL4 LOAD TRANSLATION INSTRUCTION	ACCESS:       2065  HIT:       1905  MISS:        160  HIT %:    92.2518  MISS %:    7.74818  MPKI: 0.0032
PSCL4 TRANSLATION FROM L1D PREFETCHER INSTRUCTION	ACCESS:         46  HIT:         46  MISS:          0  HIT %:        100  MISS %:          0  MPKI: 0
PSCL4 LOAD TRANSLATION DATA	ACCESS:       1754  HIT:          0  MISS:       1754  HIT %:          0  MISS %:        100  MPKI: 0.03508
PSCL4 TRANSLATION FROM L1D PREFETCHER DATA	ACCESS:         46  HIT:          0  MISS:         46  HIT %:          0  MISS %:        100  MPKI: 0.00092


PSCL3 TOTAL     ACCESS:       3921  HIT:       1956  MISS:       1965  HIT %:    49.8852  MISS %:    50.1148   MPKI: 0.0393
PSCL3 LOAD TRANSLATION INSTRUCTION	ACCESS:       2070  HIT:       1910  MISS:        160  HIT %:    92.2705  MISS %:    7.72947  MPKI: 0.0032
PSCL3 TRANSLATION FROM L1D PREFETCHER INSTRUCTION	ACCESS:         46  HIT:         46  MISS:          0  HIT %:        100  MISS %:          0  MPKI: 0
PSCL3 LOAD TRANSLATION DATA	ACCESS:       1759  HIT:          0  MISS:       1759  HIT %:          0  MISS %:        100  MPKI: 0.03518
PSCL3 TRANSLATION FROM L1D PREFETCHER DATA	ACCESS:         46  HIT:          0  MISS:         46  HIT %:          0  MISS %:        100  MPKI: 0.00092


PSCL2 TOTAL     ACCESS:       3905  HIT:       1903  MISS:       2002  HIT %:    48.7324  MISS %:    51.2676   MPKI: 0.04004
PSCL2 LOAD TRANSLATION INSTRUCTION	ACCESS:       2094  HIT:       1853  MISS:        241  HIT %:    88.4909  MISS %:    11.5091  MPKI: 0.00482
PSCL2 TRANSLATION FROM L1D PREFETCHER INSTRUCTION	ACCESS:         50  HIT:         50  MISS:          0  HIT %:        100  MISS %:          0  MPKI: 0
PSCL2 LOAD TRANSLATION DATA	ACCESS:       1711  HIT:          0  MISS:       1711  HIT %:          0  MISS %:        100  MPKI: 0.03422
PSCL2 TRANSLATION FROM L1D PREFETCHER DATA	ACCESS:         50  HIT:          0  MISS:         50  HIT %:          0  MISS %:        100  MPKI: 0.001


LLC TOTAL     ACCESS:     507197  HIT:     477051  MISS:      30146  HIT %:    94.0564  MISS %:    5.94365   MPKI: 0.60292
LLC LOAD INSTRUCTION	ACCESS:     237760  HIT:     236810  MISS:        950  HIT %:    99.6004  MISS %:   0.399563  MPKI: 0.019
LLC LOAD TRANSLATION INSTRUCTION	ACCESS:        198  HIT:        161  MISS:         37  HIT %:    81.3131  MISS %:    18.6869  MPKI: 0.00074
LLC LOAD DATA	ACCESS:      72703  HIT:      69203  MISS:       3500  HIT %:    95.1859  MISS %:    4.81411  MPKI: 0.07
LLC RFO DATA	ACCESS:      52758  HIT:      37595  MISS:      15163  HIT %:    71.2593  MISS %:    28.7407  MPKI: 0.30326
LLC PREFETCH DATA	ACCESS:      70258  HIT:      60176  MISS:      10082  HIT %:      85.65  MISS %:      14.35  MPKI: 0.20164
LLC WRITEBACK DATA	ACCESS:      72210  HIT:      71877  MISS:        333  HIT %:    99.5388  MISS %:   0.461155  MPKI: 0.00666
LLC LOAD TRANSLATION DATA	ACCESS:       1290  HIT:       1209  MISS:         81  HIT %:    93.7209  MISS %:    6.27907  MPKI: 0.00162
LLC TRANSLATION FROM L1D PREFETCHER DATA	ACCESS:         20  HIT:         20  MISS:          0  HIT %:        100  MISS %:          0  MPKI: 0

LLC AVERAGE MISS LATENCY: 158.649 cycles
LLC RQ	ACCESS:     364733	FORWARD:          0	MERGED:          0	TO_CACHE:     364729
LLC WQ	ACCESS:      72210	FORWARD:          4	MERGED:          0	TO_CACHE:      72210
LLC PQ	ACCESS:      70258	FORWARD:          0	MERGED:          0	TO_CACHE:      70258

LLC Dense regions hint to LLC: 0

RAW hits: 1945702
Loads Generated: 12641517
Loads sent to L1D: 10695815
Stores Generated: 6957183
Stores sent to L1D: 6957200
Major fault: 0 Minor fault: 2547
Allocated PAGES: 2547

stream: 
stream:times selected: 1186525
stream:pref_filled: 121731
stream:pref_useful: 23979
stream:pref_late: 6582
stream:misses: 7931
stream:misses_by_poll: 0

CS: 
CS:times selected: 180041
CS:pref_filled: 59997
CS:pref_useful: 36629
CS:pref_late: 7110
CS:misses: 16732
CS:misses_by_poll: 2

CPLX: 
CPLX:times selected: 1005357
CPLX:pref_filled: 19566
CPLX:pref_useful: 4594
CPLX:pref_late: 3042
CPLX:misses: 92846
CPLX:misses_by_poll: 0

NL_L1: 
NL:times selected: 20688
NL:pref_filled: 789
NL:pref_useful: 358
NL:pref_late: 268
NL:misses: 1807
NL:misses_by_poll: 0

total selections: 2392611
total_filled: 96392
total_useful: 35495
total_late: 18377
total_polluted: 2
total_misses_after_warmup: 771830
conflicts: 5519197

test: 117573

DRAM Statistics
 CHANNEL 0
 RQ ROW_BUFFER_HIT:      11239  ROW_BUFFER_MISS:      18566
 DBUS_CONGESTED:          9
 WQ ROW_BUFFER_HIT:       1528  ROW_BUFFER_MISS:      12978  FULL:          0

 AVG_CONGESTED_CYCLE: 6

CPU 0 Branch Prediction Accuracy: 99.823% MPKI: 0.32376 Average ROB Occupancy at Mispredict: 189.86
Branch types
NOT_BRANCH: 40854909 81.7098%
BRANCH_DIRECT_JUMP: 547797 1.09559%
BRANCH_INDIRECT: 182398 0.364796%
BRANCH_CONDITIONAL: 6178467 12.3569%
BRANCH_DIRECT_CALL: 946488 1.89298%
BRANCH_INDIRECT_CALL: 171721 0.343442%
BRANCH_RETURN: 1118209 2.23642%
BRANCH_OTHER: 0 0%

DRAM PAGES: 1048576
Allocated PAGES: 2547
Average_ROB_Occupancy: 241.966
Average_Decode_Occupancy: 34.4159
Average_FTQ_Occupancy: 13.0727
Indirect max targets: 14 Average targets: 1.14626
Branch_type:  BRANCH_DIRECT_JUMP:  Count Percentage: 4.15246 4.8751 4.88449 7.41359 3.48757 6.01156 1.882 67.2932 
Branch_type:  BRANCH_INDIRECT:  Count Percentage: 11.722 3.44891 15.8873 9.68741 3.34554 2.81037 1.73895 51.3595 
Branch_type:  BRANCH_CONDITIONAL:  Count Percentage: 21.7604 2.17145 2.85345 4.9155 2.28078 4.27312 5.81553 55.9297 
Branch_type:  BRANCH_DIRECT_CALL:  Count Percentage: 0.882826 1.2902 0.739317 3.9265 3.07196 2.87225 4.34664 82.8703 
Branch_type:  BRANCH_INDIRECT_CALL:  Count Percentage: 9.54458 0 2.99047 5.26973 0 2.40915 3.84702 75.939 
Branch_type:  BRANCH_RETURN:  Count Percentage: 4.7224 1.39943 1.79754 4.461 3.75239 4.47104 6.55274 72.8435 
Branch_type:  BRANCH_DIRECT_JUMP:  Total Count: 45516 53437 53540 81262 38228 65894 20629 737616 
Branch_type:  BRANCH_INDIRECT:  Total Count: 42865 12612 58097 35425 12234 10277 6359 187812 
Branch_type:  BRANCH_CONDITIONAL:  Total Count: 2688910 268323 352598 607403 281834 528024 718619 6911175 
Branch_type:  BRANCH_DIRECT_CALL:  Total Count: 16665 24355 13956 74120 57989 54219 82051 1564332 
Branch_type:  BRANCH_INDIRECT_CALL:  Total Count: 32772 0 10268 18094 0 8272 13209 260742 
Branch_type:  BRANCH_RETURN:  Total Count: 105396 31233 40118 99562 83747 99786 146246 1625743 
Number of unique branch instructions: 9775
Upper 32 bits: 
aaaa
ffff
ffff0000
Unique upper 32 bits: 3
Unique upper 36 bits: 3
Unique upper 40 bits: 5
Unique upper 44 bits: 32
Unique upper 48 bits: 154
Variant_0 : 1397 0.170532
Variant_1 : 3038 0.37085
Variant_2 : 0 0
Variant_3 : 0 0
Offset_3 4020
Offset_4 246
Offset_5 448
Offset_6 501
Offset_7 572
Offset_8 502
Offset_9 461
Offset_10 374
Offset_11 301
Offset_12 269
Offset_13 199
Offset_14 227
Offset_15 184
Offset_16 222
Offset_17 143
Offset_18 118
Offset_19 234
Offset_20 136
Offset_21 235
Offset_22 393
Offset_23 241
Offset_24 324
Offset_25 88
Offset_47 80
decode_dispatch_called: 25627450 70.948
Dispatch_width: 0 13721851 53.5436 37.9881
Dispatch_width: 1 981432 3.82961 2.71703
Dispatch_width: 2 838544 3.27205 2.32146
Dispatch_width: 3 503195 1.9635 1.39306
Dispatch_width: 4 5754873 22.4559 15.932
Dispatch_width: 5 152925 0.596723 0.423363
Dispatch_width: 6 3674630 14.3386 10.173
Empty_decode_cycles: 10494028 29.052
ROB_full_cycles: 9124286 25.26
Starvation_cycles_per_kilo_instr: 233.226
Starvation_cycles_per_kilo_instr_3: 174.148
Starvation_cycles_per_kilo_instr_0: 150.916
Branch_type_1  (3,1)  (4,9)  (5,37)  (6,70)  (7,112)  (8,128)  (9,122)  (10,97)  (11,67)  (12,43)  (13,5)  (14,2)  (15,3)  (16,4)  (18,1)  (19,4)  (20,2)  (21,1)  (22,3)  (23,2)  (24,10)  (25,12) 
Branch_type_2  (3,1)  (5,1)  (8,3)  (9,3)  (12,1)  (13,1)  (14,1)  (16,3)  (17,2)  (20,2)  (21,2)  (23,5)  (24,1)  (47,36) 
Branch_type_3  (3,4018)  (4,237)  (5,406)  (6,416)  (7,431)  (8,311)  (9,253)  (10,151)  (11,120)  (12,50)  (13,4) 
Branch_type_4  (6,3)  (7,8)  (8,25)  (9,51)  (10,60)  (11,58)  (12,96)  (13,86)  (14,100)  (15,86)  (16,99)  (17,63)  (18,53)  (19,115)  (20,71)  (21,124)  (22,209)  (23,136)  (24,185)  (25,72) 
Branch_type_5  (8,2)  (9,1)  (10,3)  (11,5)  (12,3)  (13,14)  (14,16)  (15,11)  (16,20)  (17,11)  (18,16)  (19,12)  (20,10)  (21,13)  (22,42)  (23,26)  (24,37) 
Branch_type_6  (5,4)  (6,12)  (7,21)  (8,33)  (9,31)  (10,63)  (11,51)  (12,76)  (13,89)  (14,108)  (15,84)  (16,96)  (17,67)  (18,48)  (19,103)  (20,51)  (21,95)  (22,139)  (23,72)  (24,91)  (25,4)  (47,44) 
Unique trigger count: 
Variant_0_evicts_0 : 0
Variant_0_evicts_1 : 0
Variant_0_evicts_2 : 0
Variant_0_evicts_3 : 0
Variant_1_evicts_0 : 0
Variant_1_evicts_1 : 0
Variant_1_evicts_2 : 0
Variant_1_evicts_3 : 0
Variant_2_evicts_0 : 0
Variant_2_evicts_1 : 0
Variant_2_evicts_2 : 0
Variant_2_evicts_3 : 0
Variant_3_evicts_0 : 0
Variant_3_evicts_1 : 0
Variant_3_evicts_2 : 0
Variant_3_evicts_3 : 0
BTB PER SET UNIQUE ADDR: 1 4 2 4 3 3 3 2 2 3 4 3 4 3 2 5 2 3 2 0 1 4 3 3 3 3 2 2 3 3 4 3 2 3 2 3 2 3 3 3 3 4 3 3 3 3 3 3 5 3 2 4 5 1 1 4 2 2 1 3 5 3 1 3 5 1 3 2 3 1 4 3 3 4 4 3 3 3 3 4 3 5 5 4 3 4 2 3 3 2 2 2 3 4 3 1 6 3 3 3 3 4 4 5 2 4 2 2 3 5 5 4 1 4 0 0 4 5 2 5 3 3 3 3 5 4 4 5 2 1 3 4 3 3 3 3 5 2 4 3 2 3 2 5 2 5 3 3 3 6 3 1 3 4 2 2 3 2 5 3 1 3 2 4 2 1 1 4 3 4 6 2 4 1 4 5 2 5 3 2 3 3 4 4 2 3 2 6 5 3 3 2 3 3 1 2 3 3 3 3 5 2 3 3 0 5 3 3 4 3 3 5 5 4 4 3 3 3 3 4 2 5 2 3 5 2 3 3 3 3 2 5 4 3 3 5 4 5 2 2 2 3 3 3 4 2 3 2 5 4 2 2 1 2 3 5 3 2 3 2 5 3 4 3 2 2 4 4 4 4 3 3 4 3 6 3 4 1 2 5 5 3 1 4 3 2 5 3 4 2 3 4 3 3 3 3 2 4 3 2 4 1 3 3 4 1 2 3 4 4 4 3 5 3 3 5 2 2 4 5 5 4 3 2 4 4 2 3 1 5 2 4 2 2 3 4 3 5 4 2 2 4 3 2 2 3 2 1 2 3 3 4 4 1 4 5 4 2 1 4 4 4 2 5 2 4 2 2 2 2 3 4 3 3 2 4 4 3 1 2 3 3 3 3 3 3 1 5 4 4 4 4 1 5 2 4 4 3 3 2 5 5 3 3 3 3 3 2 5 3 3 2 1 5 5 2 3 2 3 3 2 1 3 5 3 2 1 4 3 3 4 1 4 3 1 1 3 2 2 2 3 2 4 2 3 1 2 4 4 3 3 1 3 4 3 1 4 4 3 1 3 4 2 5 3 3 4 2 4 4 4 3 4 4 4 4 1 2 2 5 3 2 4 3 2 1 3 3 4 2 3 3 3 2 4 5 3 2 1 3 3 4 3 3 2 4 3 0 2 3 3 3 2 4 1 4 4 2 4 3 4 5 3 3 4 3 1 2 1 4 4 3 5 2 3 4 1 3 3 4 3 4 3 4 4 4 5 3 2 1 1 5 2 4 4 4 4 2 2 3 2 3 4 3 4 1 4 3 4 2 3 2 0 1 3 4 3 2 4 4 1 5 4 4 4 3 2 2 4 3 3 3 2 2 1 3 3 4 3 3 4 3 2 3 3 3 4 1 4 3 4 3 3 4 1 3 3 5 3 3 4 1 4 3 3 6 2 4 3 2 2 2 5 3 2 3 3 4 4 3 2 5 1 2 2 5 3 3 4 2 2 1 3 3 3 4 3 1 3 2 1 3 3 2 4 1 3 3 4 5 3 2 3 4 4 4 2 4 4 3 3 4 2 3 4 3 2 6 5 2 4 3 2 3 2 4 4 1 4 6 4 2 2 2 4 4 1 2 3 4 4 2 2 2 2 2 3 4 3 3 4 4 3 3 3 4 5 4 2 4 2 2 4 3 2 2 3 4 2 3 2 5 5 4 3 2 5 2 4 3 4 3 2 3 3 5 2 0 2 4 5 3 5 3 3 5 3 3 2 4 4 2 1 3 5 2 4 3 1 2 3 3 3 2 3 3 3 2 4 4 4 2 4 4 3 3 5 1 2 4 3 4 4 3 2 4 2 3 4 4 3 2 0 2 3 3 4 2 3 3 5 2 5 5 3 2 4 3 3 3 4 5 2 5 4 4 4 4 4 4 0 5 3 4 3 3 3 3 3 2 3 5 3 2 5 3 3 3 2 3 3 6 2 5 5 3 3 1 4 3 5 2 3 4 4 4 3 3 3 5 5 5 2 3 2 3 4 2 3 1 5 2 1 1 2 5 3 4 4 1 3 2 4 2 2 1 4 4 4 3 4 3 1 4 4 4 2 4 4 2 3 1 3 3 3 4 5 3 3 2 1 5 4 2 3 2 3 2 2 3 4 4 6 4 3 1 3 2 5 3 4 5 4 3 4 3 3 3 1 2 3 3 4 4 3 2 4 2 2 5 3 1 2 5 3 5 2 3 4 2 3 3 3 5 5 1 3 3 4 3 2 1 2 5 4 3 2 3 2 5 4 3 3 2 4 4 3 4 2 3 3 5 4 5 4 3 4 4 3 3 2 2 3 4 4 2 4 5 4 3 2 2 3 3 3 3 5 2 0 3 3 3 2 4 5 2 1 4 3 3 3 3 4 2 2 4 5 3 2 3 3 3 4 3 2 3 3 2 5 3 2 5 3 4 4 5 3 2 3 2 4 2 2 2 3 2 3 2 1 2 4 5 2 4 4 4 4 3 3 3 4 4 5 4 3 3 2 3 3 2 2 5 5 1 3 3 6 4 4 3 3 2 3 4 5 2 3 3 3 1 5 4 6 2 3 2 3 2 4 4 4 6 3 2 2 2 2 4 4 2 4 4 1 3 1 2 5 3 3 1 4 2 5 4 4 3 4 3 4 3 6 3 4 5 1 3 3 3 1 3 3 1 3 3 3 4 3 2 2 4 4 3 2 0 4 3 4 2 3 1 3 2 2 3 3 4 3 2 6 3 3 4 3 3 0 4 4 3 4 5 5 1 3 4 3 4 2 5 5 1 4 2 4 4 4 4 2 3 3 3 3 3 5 3 4 2 4 5 0 4 3 4 5 2 2 3 2 4 3 5 3 4 3 4 4 4 5 3 3 4 4 4 6 2 2 3 2 1 3 4 4 6 3 5 4 2 5 1 4 4 3 3 3 3 2 4 4 5 4 3 2 4 5 5 4 3 3 2 4 3 4 4 5 3 4 3 3 2 3 2 4 4 2 1 3 2 3 4 5 3 2 3 5 2 3 3 4 3 4 2 4 5 2 3 4 5 3 3 5 3 3 2 3 3 2 2 4 0 4 3 4 3 2 3 2 1 1 3 3 6 4 4 1 4 3 5 2 4 2 4 2 1 4 2 4 4 3 4 2 1 2 2 1 4 1 4 3 3 2 3 3 3 4 3 4 3 3 3 3 2 2 3 4 4 4 2 1 2 2 3 4 3 3 4 4 2 2 5 3 5 2 2 2 4 2 2 4 4 5 3 5 5 3 2 1 4 3 3 4 4 3 1 2 2 2 3 2 3 4 5 4 4 2 3 4 3 2 4 3 4 1 2 4 1 5 1 2 4 5 4 4 4 4 4 5 2 3 4 4 3 1 3 2 3 3 4 1 3 3 1 3 2 4 5 4 2 2 2 4 3 5 3 2 4 3 4 4 4 2 5 4 2 2 5 4 2 3 3 4 1 2 4 4 1 3 4 4 2 1 2 5 2 4 2 2 2 2 2 2 2 2 4 2 3 2 3 4 3 3 2 2 3 4 3 3 3 3 5 4 6 4 1 4 2 2 3 4 2 5 5 2 2 3 2 4 3 2 4 3 4 5 3 3 3 5 1 2 2 3 4 4 3 2 3 4 3 3 5 2 2 3 3 4 1 3 3 3 3 3 3 5 2 1 3 2 3 1 1 2 3 2 2 4 4 3 4 3 4 2 3 3 4 3 2 4 5 2 2 4 3 4 3 3 1 5 2 3 2 5 3 3 4 2 4 2 2 2 3 2 2 5 3 3 2 3 2 3 2 4 4 3 2 3 1 1 2 6 5 4 2 2 4 1 2 2 3 2 3 3 4 2 4 4 0 3 2 3 1 1 3 4 0 6 2 1 3 4 3 4 5 1 4 2 4 4 5 5 2 3 1 4 4 3 3 3 2 4 6 5 4 5 3 4 5 1 4 4 5 3 3 3 4 4 3 2 3 1 1 2 3 3 3 2 6 3 2 5 3 2 1 4 5 4 4 2 5 4 3 3 5 3 4 2 5 4 3 5 2 2 2 3 2 3 2 3 4 3 4 2 3 4 3 1 4 1 1 4 2 3 1 3 4 3 2 5 1 3 5 1 3 1 2 2 4 3 4 4 3 3 2 3 6 5 1 3 2 2 2 3 2 5 1 2 2 3 4 1 4 3 2 4 3 6 4 4 2 3 5 3 4 3 3 6 4 2 3 2 4 2 0 2 4 3 3 3 2 2 3 3 2 1 4 2 3 4 5 4 3 2 2 3 3 1 3 3 4 1 4 2 3 3 1 0 4 0 3 2 2 3 6 1 2 3 2 2 3 4 2 2 2 2 2 3 2 2 4 3 2 4 3 1 2 2 3 1 4 3 4 2 3 4 3 2 3 3 3 4 0 5 1 4 3 2 4 3 4 4 3 2 4 3 5 3 2 4 5 3 4 2 2 3 2 4 2 3 2 4 3 2 4 1 3 3 6 5 2 3 3 1 2 4 2 2 2 4 5 4 3 2 3 1 3 3 5 4 2 1 2 4 4 1 2 3 4 3 2 3 3 4 3 3 2 3 5 4 3 5 3 4 0 2 4 5 2 3 3 4 2 5 4 4 3 1 2 2 1 4 3 
BTB PER SET COUNT: 1 4 3 4 4 3 3 2 2 3 54 3 4 3 2 5 2 3 2 0 1 4 3 3 493 3 2 2 6 484 6 3 2 3 2 3 2 3 3 3 3 980 3 5 1470 592 493 3 5 3 2 4 495 1 1 4 2 982 1 3 982 3 1 3 5 1 5 2 3 1 4 3 3 4 4 245 3 3 3 4 3 6 6 4 3 4 2 3 4 981 2 2 3 4 3 1 8 3 3 3 5 5 4 5 2 7 2 2 3 5 5 4 2 4 0 0 4 7 2 5 3 3 1729 3 5 5 5 5 2 1 3 4 4 3 3 4 5 2 4 983 2 981 2 5 2 5 3 3 3 26 3 1 3 4 3 978 3 981 5 3 1 3 3 4 2 1 1 4 4 4 7 2 102 1 5 6 2 6 3 2 3 3 4 4 2 3 2 7 7 3 4 2 3 3 1 2 3 981 3 3 5 2 5 4 0 5 4 3 26 3 3 8 6 379 4 3 4 492 3 5 2 6 2 487 5 2 3 3 3 3 447 5 4 3 3 5 5 5 2 2 3 3 3 3 4 2 7836 2 5 4 2 2 1 3 3 13 1469 2 5 4 6 3 4 3 2 2 4 4 4 4 3 3 8 3 6 3 983 1 3 5 5 3 1 4 3 2 5 3 4 2 5 4 4 3 15 3 2 6 3 2 4 1 1476 3 4 1 2 3 4 8 986 3 7 3 3 7 3 2 4 6 5 5 3 2 4 5 22 3 1 5 2 6 2 3 6 4 3 5 4 2 2 8 4 2 2 3 2 1 2 4 3 4 4 1 4 5 5 2 1 17 4 15 2 9 2 4 2 2 2 2 3 14 3 3 2 7 4 4 1 2 4 447 3 3 3 3 1 5 4 4 4 4 1 5 2 4 1356 3 3 3 6 416 3 3 3 3 3 2 6 4 4 4 1 6 5 2 3 2 3 3 2 1 3 495 3 343 1 6 741 3 4 1 4 3 1 1 3 3 4 2 3 3 4 2 3 2 2 30 5 6 3 1 3 4 3 1 4 4 3 1 3 5 2 5 13 1469 5 2939 4 4 4 3 4 4 980 4 1 4 2 5 3 2 4 3 96 1 3 3 5 2 979 3 7 2 4 6 3 6 1 3 4 4 3 3 2 5 3 0 2 3 3 3 2 1965 1 5 4 492 4 3 4 5 3 3 4 3 1 4 1 4 4 3 5 6 3 4 1 90 5 4 3 6 3 5 4 1471 5 3 2 1 1 1472 981 4 4 4 4 2 2 4 984 6 5 4 4 1 1959 3 4 2 3 2 0 1 4 4 3 2 4 5 2 5 4 6 9 3 2 2 4 967 3 3 2 2 1 1469 3 4 3 3 4 3 2 4 4 3 4 1 4 3 4 3 985 4 1 3 1469 6 3 3 4 1 4 3 3 8 2 4 3 2 2 2 5 3 2 3 3 5 4 3 2 6 1 2 2 5 3 3 4 980 3 1 3 3 4 4 3 1 3 2 1 3 4 2 4 1 4 3 4 7 3 2 3 4 4 1470 2 4 4 3 3 4 2 3 4 3 2 8 5 2 4 3 2 4 2 4 4 1 4 6 4 2 2 2 4 4 1 2 3 4 4 3 2 2 2 491 3 4 3 4 4 4 8 5 3 5 7 4 2 5 2 2 4 3 2 3 4 5 2 1478 2 5 5 4 3 3 6 2 5 3 1462 3 3 3 982 5 2 0 134 4 7 4 5 5 3 6 3 2937 2 4 7 2 1 3 5 2 6 3 1 2 3 3 3 2 3 3 3 2 254 4 10 2 4 4 5 3 5 1 2 4 3 4 4 3 2 4 2 3 5 6 3 4 0 2 3 3 4 2 6 3 9 2 5 5 3 2 4 3 3 496 4 5 2 981 4 4 4 4 4 4 0 989 3 4 3 3 979 3 3 2 3 5 3 5 6 3 3 3 2 3 5 6 2 6 495 3 3 1 5 3 5 2 3 6 4 4 3 3 3 5 5 6 2 3 2 3 983 2 3 1 5 2 1 2 6 5 378 4 4 1 5 2 4 2 2 1 5 5 4 983 4 3 1 4 5 4 2 5 5 2 3 977 3 3 3 4 1475 3 4 2 1 5 4 2 4 2 3 978 2 3 4 4 6 6 3 1 3 2 11 3 4 5 5 3 983 3 3 3 1960 2 3 3 4 4 3 2 493 2 2 7 4 1 2 12 3 5 2 3 4 2 3 3 3 5 5 1 3 40 4 3 2 1 2 5 4 6 2 3 2 5 4 3 3 2 4 4 3 1472 3 3 3 5 6 5 4 3 5 4 5 3 2 2 3 4 4 2 4 494 4 3 2 2 3 3 3 354 7 2 0 3 3 492 5 4 5 2 1 4 3 3 3 3 7 3 2 4 5 3 1468 3 3 3 4 3 2 3 4 2 6 3 2 462 3 4 5 5 7 3 9 5 4 2 2 978 3 2 3 2 1 2 4 6 2 5 4 4 9 3 3 3 7 7 7 2448 378 4 4 3 3 2 2 5 5 1 3 3 6 21 7 4 3 2 3 4 5 2 3 3 3 2 5 4 6 2 3 2 3 2 5 4 4 11 4 2 2 2 2 983 4 2 4 4 1 3 1 2 5 3 3 1 4 2 5 5 6 3 4 3 4 3 500 3 4 6 1 3 3 3 2 3 1469 1 3 3 3 5 3 2 2 5 4 4 5 0 1970 3 4 2 167 1 3 2 2 5 3 4 3 2 6 378 1469 4 3 1469 0 5 4 4 4 5 585 1 3 4 3 4 2 7 1957 1 4 2 4 4 9 4 2 3 3 3 5 3 5 9 5 2 4 5 0 4 3 495 5 2 2 3 2 4 3 5 3 44 3 4 980 4 5 3 3 188 4 4 6 2 2 4 3 2 4 7 4 6 3 5 4 2 5 1 1470 4 4 3 3 3 2 4 4 5 4 3 4 4 9 15 4 3 3 2 4 3 4 4 5 3 4 3 3 2 5 2 4 4 2 1 3 2 3 1475 5 3 2 3 5 2 3 3 4 3 4 2 4 5 2 3 4 5 3 3 51 3 3 2 3 379 2 2 4 0 4 3 8 3 2 3 2 1 1 3 3 6 4 4 1 4 4 5 2 4 2 495 3 1 4 2 4 4 4 4 2 1 2 2 1 5 1 4 4 3 2 3 3 3 4 3 5 3 3 3 3 26 2 3 4 1470 6 2 1 2 2 3 5 3 3 4 4 2 3 5 3 2448 2 2 2 2934 2 2 4 4 5 4 7 6 3 2 1 6 3 492 4 4 3 1 2 2 2 3 4 3 4 5 4 4 2 3 4 3 2 7 3 4 1 2 4 1 5 1 2 4 9 496 4 4 980 7 6 2 3 4 4 3 1 3 2 3 3 4 1 3 4 3 244 978 4 6 4 2 2 2 4 4 8 3 2 4 4 4 4 4 2 7 4 2 2 2448 4 2 3 3 980 1 2 4 5 1 3 4 4 2 1 2 5 2 4 2 2 2 2 2 2 2 2 4 2 5 2 3 4 4 3 2 2 3 4 3 3 3 3427 5 4 7 4 1 4 2 2 4 7 2 5 1471 2 2 55 3 4 3 2 4 3 4 5 3 3 3 5 1 2 3 3 5 4 3 2 3 8 3 3 6 2 2 3 3 7 1 3 4 3 3 3 3 5 2 1 3 2 3 1 1 4 3 2 2 173 4 3 4 3 4 2 3 3 5 3 2 4 5 2 2 4 3 4 423 3 1 13 2 3 2 5 3 3 4 2 4 2 2 2 3 2 2 5 3 3 2 3 2 3 2 4 4 3 2 3 1 1 2 7 5 4 2 2 4 1 2 2 4 2 3 3 4 2 4 5 0 3 2 71 1 1 4 4 0 6 2 1 3 4 3 4 48 1 4 2 4 4 5 487 2 4 2 6 4 3 3 3 2 4 6 5 4 6 4 5 5 1 4 4 5 11 4 3 5 4 3 378 3 1 1 2 3 3 3 2 498 3 2 5 4 2 1 4 5 5 4 2 5 4 3 4 495 3 4 2 336 4 3 158 2 2 2 3 2 3 2 5 6 4 4 2 3 4 3 1 4 1 1 4 2 3 1 3 4 13 3 6 1 4 7 1 4 1 2 2 980 3 4 4 3 4 2 3 6 5 1 3 2 2 2 3 2 13 1 3 2 3 4 1 4 3 4 4 979 6 4 5 3 3 6 149 5 3 3 6 6 2 3 2 4 20546 0 2 4 3 3 3 2 2 3 6 2 1 4 2 3 77 9 4 3 2 2 3 3 1 1471 5 4 1 4 2 3 14672 1 0 4 0 4 2 2 3 6 1 2 1470 2 2 3 5 2 2 2 2 2 3 2 2 4 3 2 4 3 3 2 2 515 1 4 3 4 2 4 4 3 2 3 3 3 7 0 7 1 4 3 2 29 3 4 4 3 2 4 4 5 3 2 4 5 3 4 2 981 11 22 4 2 4 2 4 136 491 4 1 3 3 7 5 2 3 3 1 2 118 2 2 2 4 1055 4 493 2 3 1 3 3 5 4 2 1353 2 4 4 1 2 3 1470 3 2 3 3 5 1469 3 11 6 1471 6 3 1474 3 4 0 4 4 1235 2 3 3 144 2 6 4 5 3 1 2 2 1 4 767 
To predecode: 0
Predecoding something: 0
Predecode request dropped: 0
sizeofblock_0 0
sizeofblock_1 65523
sizeofblock_2 61371
sizeofblock_3 0
sizeofblock_4 0
sizeofblock_5 0
sizeofblock_6 0
sizeofblock_7 0
sizeofblock_8 0
Variant_0 Correct: 1615742 Incorrect: 0 Accuracy: 1
Variant_1 Correct: 5743371 Incorrect: 0 Accuracy: 1
Variant_2 Correct: 0 Incorrect: 0 Accuracy: -nan
Variant_3 Correct: 0 Incorrect: 0 Accuracy: -nan
