
*** ChampSim Multicore Out-of-Order Simulator ***

Warmup Instructions: 50000000
Simulation Instructions: 50000000
Number of CPUs: 1
LLC sets: 2048
LLC ways: 16
Off-chip DRAM Size: 4096 MB Channels: 1 Width: 64-bit Data Rate: 6400 MT/s
CPU 0 runs ./micro_traces/srv631.trace.gz
.gz
ITLB has LRU replacement policy
DTLB has LRU replacement policy
STLB has LRU replacement policy
L1I has LRU replacement policy
L1D has LRU replacement policy
Initialize SRRIP state for L2C
Initialize DRRIP state for LLC
Heartbeat_Variant_0 : 1324 0.323242 per_variant_size: 0 1324 0 0 0 0 0 0 0 
Heartbeat_Variant_1 : 1219 0.297607 per_variant_size: 0 608 611 0 0 0 0 0 0 
Heartbeat_Variant_2 : 1297 0.31665 per_variant_size: 0 527 353 228 189 0 0 0 0 
Heartbeat_Variant_3 : 0 0 per_variant_size: 0 0 0 0 0 0 0 0 0 
Heartbeat_Variant_0_evicts 0 : 5802 1 : 231 2 : 238 3 : 0 
Heartbeat_Variant_1_evicts 0 : 241 1 : 0 2 : 393 3 : 0 
Heartbeat_Variant_2_evicts 0 : 194 1 : 398 2 : 0 3 : 0 
Heartbeat_Variant_3_evicts 0 : 0 1 : 0 2 : 0 3 : 0 
Heartbeat CPU 0 instructions: 10000000 cycles: 2798650 heartbeat IPC: 3.57315 cumulative IPC: 3.57315 (Simulation time: 0 hr 1 min 14 sec) 
Heartbeat_Variant_0 : 1351 0.329834 per_variant_size: 0 1351 0 0 0 0 0 0 0 
Heartbeat_Variant_1 : 1259 0.307373 per_variant_size: 0 633 626 0 0 0 0 0 0 
Heartbeat_Variant_2 : 1337 0.326416 per_variant_size: 0 530 373 230 204 0 0 0 0 
Heartbeat_Variant_3 : 0 0 per_variant_size: 0 0 0 0 0 0 0 0 0 
Heartbeat_Variant_0_evicts 0 : 5702 1 : 212 2 : 188 3 : 0 
Heartbeat_Variant_1_evicts 0 : 208 1 : 0 2 : 365 3 : 0 
Heartbeat_Variant_2_evicts 0 : 192 1 : 354 2 : 0 3 : 0 
Heartbeat_Variant_3_evicts 0 : 0 1 : 0 2 : 0 3 : 0 
Heartbeat CPU 0 instructions: 20000002 cycles: 5596701 heartbeat IPC: 3.57392 cumulative IPC: 3.57353 (Simulation time: 0 hr 2 min 31 sec) 
Heartbeat_Variant_0 : 1348 0.329102 per_variant_size: 0 1348 0 0 0 0 0 0 0 
Heartbeat_Variant_1 : 1261 0.307861 per_variant_size: 0 640 621 0 0 0 0 0 0 
Heartbeat_Variant_2 : 1346 0.328613 per_variant_size: 0 528 384 234 200 0 0 0 0 
Heartbeat_Variant_3 : 0 0 per_variant_size: 0 0 0 0 0 0 0 0 0 
Heartbeat_Variant_0_evicts 0 : 5614 1 : 25 2 : 24 3 : 0 
Heartbeat_Variant_1_evicts 0 : 32 1 : 0 2 : 218 3 : 0 
Heartbeat_Variant_2_evicts 0 : 24 1 : 224 2 : 0 3 : 0 
Heartbeat_Variant_3_evicts 0 : 0 1 : 0 2 : 0 3 : 0 
Heartbeat CPU 0 instructions: 30000002 cycles: 8392935 heartbeat IPC: 3.57624 cumulative IPC: 3.57444 (Simulation time: 0 hr 3 min 46 sec) 
Heartbeat_Variant_0 : 1354 0.330566 per_variant_size: 0 1354 0 0 0 0 0 0 0 
Heartbeat_Variant_1 : 1274 0.311035 per_variant_size: 0 625 649 0 0 0 0 0 0 
Heartbeat_Variant_2 : 1362 0.33252 per_variant_size: 0 542 391 236 193 0 0 0 0 
Heartbeat_Variant_3 : 0 0 per_variant_size: 0 0 0 0 0 0 0 0 0 
Heartbeat_Variant_0_evicts 0 : 5775 1 : 125 2 : 134 3 : 0 
Heartbeat_Variant_1_evicts 0 : 129 1 : 0 2 : 320 3 : 0 
Heartbeat_Variant_2_evicts 0 : 130 1 : 322 2 : 0 3 : 0 
Heartbeat_Variant_3_evicts 0 : 0 1 : 0 2 : 0 3 : 0 
Heartbeat CPU 0 instructions: 40000001 cycles: 11189939 heartbeat IPC: 3.57525 cumulative IPC: 3.57464 (Simulation time: 0 hr 5 min 2 sec) 
Heartbeat_Variant_0 : 1354 0.330566 per_variant_size: 0 1354 0 0 0 0 0 0 0 
Heartbeat_Variant_1 : 1271 0.310303 per_variant_size: 0 617 654 0 0 0 0 0 0 
Heartbeat_Variant_2 : 1368 0.333984 per_variant_size: 0 543 395 237 193 0 0 0 0 
Heartbeat_Variant_3 : 0 0 per_variant_size: 0 0 0 0 0 0 0 0 0 
Heartbeat_Variant_0_evicts 0 : 5589 1 : 18 2 : 25 3 : 0 
Heartbeat_Variant_1_evicts 0 : 19 1 : 0 2 : 216 3 : 0 
Heartbeat_Variant_2_evicts 0 : 24 1 : 222 2 : 0 3 : 0 
Heartbeat_Variant_3_evicts 0 : 0 1 : 0 2 : 0 3 : 0 
Heartbeat CPU 0 instructions: 50000002 cycles: 13987710 heartbeat IPC: 3.57427 cumulative IPC: 3.57457 (Simulation time: 0 hr 6 min 15 sec) 

Warmup complete CPU 0 instructions: 50000002 cycles: 13987710 (Simulation time: 0 hr 6 min 15 sec) 

Cycle: 20000000 FTQ IN: 55439637 FTQ occupancy: 16.0301 DECODE IN: 55439619 DECODE occupancy: 9.51096 ROB IN: 55439619 ROB occupancy: 261.404 ROB OUT: 55439561
Heartbeat_Variant_0 : 1364 0.333008 per_variant_size: 0 1364 0 0 0 0 0 0 0 
Heartbeat_Variant_1 : 1279 0.312256 per_variant_size: 0 629 650 0 0 0 0 0 0 
Heartbeat_Variant_2 : 1357 0.331299 per_variant_size: 0 521 404 239 193 0 0 0 0 
Heartbeat_Variant_3 : 0 0 per_variant_size: 0 0 0 0 0 0 0 0 0 
Heartbeat_Variant_0_evicts 0 : 5751 1 : 72 2 : 61 3 : 0 
Heartbeat_Variant_1_evicts 0 : 66 1 : 0 2 : 249 3 : 0 
Heartbeat_Variant_2_evicts 0 : 59 1 : 237 2 : 0 3 : 0 
Heartbeat_Variant_3_evicts 0 : 0 1 : 0 2 : 0 3 : 0 
Heartbeat CPU 0 instructions: 60000002 cycles: 24924940 heartbeat IPC: 0.914308 cumulative IPC: 0.914308 (Simulation time: 0 hr 7 min 26 sec) 
Cycle: 30000000 FTQ IN: 9250050 FTQ occupancy: 15.373 DECODE IN: 9250050 DECODE occupancy: 4.97894 ROB IN: 9250050 ROB occupancy: 56.9577 ROB OUT: 9249921
Heartbeat_Variant_0 : 1366 0.333496 per_variant_size: 0 1366 0 0 0 0 0 0 0 
Heartbeat_Variant_1 : 1281 0.312744 per_variant_size: 0 627 654 0 0 0 0 0 0 
Heartbeat_Variant_2 : 1360 0.332031 per_variant_size: 0 527 402 230 201 0 0 0 0 
Heartbeat_Variant_3 : 0 0 per_variant_size: 0 0 0 0 0 0 0 0 0 
Heartbeat_Variant_0_evicts 0 : 5734 1 : 43 2 : 45 3 : 0 
Heartbeat_Variant_1_evicts 0 : 43 1 : 0 2 : 242 3 : 0 
Heartbeat_Variant_2_evicts 0 : 44 1 : 243 2 : 0 3 : 0 
Heartbeat_Variant_3_evicts 0 : 0 1 : 0 2 : 0 3 : 0 
Heartbeat CPU 0 instructions: 70000001 cycles: 35741074 heartbeat IPC: 0.924545 cumulative IPC: 0.919398 (Simulation time: 0 hr 8 min 38 sec) 
Cycle: 40000000 FTQ IN: 9136473 FTQ occupancy: 15.4054 DECODE IN: 9136473 DECODE occupancy: 4.99175 ROB IN: 9136461 ROB occupancy: 58.7398 ROB OUT: 9136508
Heartbeat_Variant_0 : 1371 0.334717 per_variant_size: 0 1371 0 0 0 0 0 0 0 
Heartbeat_Variant_1 : 1277 0.311768 per_variant_size: 0 617 660 0 0 0 0 0 0 
Heartbeat_Variant_2 : 1361 0.332275 per_variant_size: 0 513 424 225 199 0 0 0 0 
Heartbeat_Variant_3 : 0 0 per_variant_size: 0 0 0 0 0 0 0 0 0 
Heartbeat_Variant_0_evicts 0 : 5684 1 : 25 2 : 20 3 : 0 
Heartbeat_Variant_1_evicts 0 : 22 1 : 0 2 : 222 3 : 0 
Heartbeat_Variant_2_evicts 0 : 18 1 : 224 2 : 0 3 : 0 
Heartbeat_Variant_3_evicts 0 : 0 1 : 0 2 : 0 3 : 0 
Heartbeat CPU 0 instructions: 80000001 cycles: 46668241 heartbeat IPC: 0.91515 cumulative IPC: 0.917978 (Simulation time: 0 hr 9 min 49 sec) 
Cycle: 50000000 FTQ IN: 9254191 FTQ occupancy: 15.3963 DECODE IN: 9254194 DECODE occupancy: 4.98638 ROB IN: 9254194 ROB occupancy: 56.5731 ROB OUT: 9254331
Heartbeat_Variant_0 : 1383 0.337646 per_variant_size: 0 1383 0 0 0 0 0 0 0 
Heartbeat_Variant_1 : 1273 0.310791 per_variant_size: 0 597 676 0 0 0 0 0 0 
Heartbeat_Variant_2 : 1360 0.332031 per_variant_size: 0 507 419 230 204 0 0 0 0 
Heartbeat_Variant_3 : 0 0 per_variant_size: 0 0 0 0 0 0 0 0 0 
Heartbeat_Variant_0_evicts 0 : 5616 1 : 40 2 : 59 3 : 0 
Heartbeat_Variant_1_evicts 0 : 32 1 : 0 2 : 232 3 : 0 
Heartbeat_Variant_2_evicts 0 : 58 1 : 232 2 : 0 3 : 0 
Heartbeat_Variant_3_evicts 0 : 0 1 : 0 2 : 0 3 : 0 
Heartbeat CPU 0 instructions: 90000002 cycles: 57536106 heartbeat IPC: 0.920144 cumulative IPC: 0.918518 (Simulation time: 0 hr 11 min 1 sec) 
Cycle: 60000000 FTQ IN: 9075416 FTQ occupancy: 15.4114 DECODE IN: 9075413 DECODE occupancy: 4.97248 ROB IN: 9075425 ROB occupancy: 57.8674 ROB OUT: 9075398
Heartbeat_Variant_0 : 1384 0.337891 per_variant_size: 0 1384 0 0 0 0 0 0 0 
Heartbeat_Variant_1 : 1282 0.312988 per_variant_size: 0 608 674 0 0 0 0 0 0 
Heartbeat_Variant_2 : 1352 0.330078 per_variant_size: 0 499 412 233 208 0 0 0 0 
Heartbeat_Variant_3 : 0 0 per_variant_size: 0 0 0 0 0 0 0 0 0 
Heartbeat_Variant_0_evicts 0 : 5594 1 : 28 2 : 25 3 : 0 
Heartbeat_Variant_1_evicts 0 : 28 1 : 0 2 : 229 3 : 0 
Heartbeat_Variant_2_evicts 0 : 24 1 : 220 2 : 0 3 : 0 
Heartbeat_Variant_3_evicts 0 : 0 1 : 0 2 : 0 3 : 0 
Heartbeat CPU 0 instructions: 100000001 cycles: 68491900 heartbeat IPC: 0.912759 cumulative IPC: 0.917361 (Simulation time: 0 hr 12 min 16 sec) 
Finished CPU 0 instructions: 50000003 cycles: 54504191 cumulative IPC: 0.917361 (Simulation time: 0 hr 12 min 16 sec) 

ChampSim completed all CPUs

Region of Interest Statistics

CPU 0 cumulative IPC: 0.917361 instructions: 50000003 cycles: 54504191
 Fetch stage stalled: 21.7642  Sim cycles: 54504191 fetch stall cycle: 11862383
 Empty decode stage: 68.2234  Sim cycles: 54504191 fetch stall cycle: 37184585
ITLB TOTAL     ACCESS:    7275502  HIT:    6782585  MISS:     492917  HIT %:     93.225  MISS %:    6.77502   MPKI: 9.85834
ITLB LOAD TRANSLATION INSTRUCTION	ACCESS:    7275502  HIT:    6782585  MISS:     492917  HIT %:     93.225  MISS %:    6.77502  MPKI: 9.85834

ITLB AVERAGE MISS LATENCY: 9.04783 cycles
ITLB RQ	ACCESS:    8346730	FORWARD:          0	MERGED:     866204	TO_CACHE:    7480526

DTLB TOTAL     ACCESS:   10239204  HIT:    9769143  MISS:     470061  HIT %:    95.4092  MISS %:     4.5908   MPKI: 9.40122
DTLB LOAD TRANSLATION DATA	ACCESS:   10239204  HIT:    9769143  MISS:     470061  HIT %:    95.4092  MISS %:     4.5908  MPKI: 9.40122

DTLB AVERAGE MISS LATENCY: 9.31994 cycles
DTLB RQ	ACCESS:   14400024	FORWARD:          0	MERGED:    4130782	TO_CACHE:   10269242

STLB TOTAL     ACCESS:    1225023  HIT:    1222694  MISS:       2329  HIT %:    99.8099  MISS %:   0.190119   MPKI: 0.04658
STLB LOAD TRANSLATION INSTRUCTION	ACCESS:     492917  HIT:     492596  MISS:        321  HIT %:    99.9349  MISS %:  0.0651225  MPKI: 0.00642
STLB LOAD TRANSLATION DATA	ACCESS:     470038  HIT:     468054  MISS:       1984  HIT %:    99.5779  MISS %:   0.422094  MPKI: 0.03968
STLB TRANSLATION FROM L1D PREFETCHER DATA	ACCESS:     262068  HIT:     262044  MISS:         24  HIT %:    99.9908  MISS %: 0.00915793  MPKI: 0.00048

STLB AVERAGE MISS LATENCY: 67.0386 cycles
STLB RQ	ACCESS:    1341810	FORWARD:          0	MERGED:     116750	TO_CACHE:    1225060

STLB Hit, L1D data hit: 0
STLB Hit, L2C data hit: 0
STLB Hit, LLC data hit: 0
STLB Hit, LLC data miss: 0
STLB STLB hints to L2: 0
L1D TOTAL     ACCESS:   14197865  HIT:   13086736  MISS:    1111129  HIT %:     92.174  MISS %:    7.82603   MPKI: 22.2226
L1D LOAD DATA	ACCESS:    7546759  HIT:    6816774  MISS:     729985  HIT %:    90.3272  MISS %:    9.67283  MPKI: 14.5997
L1D RFO DATA	ACCESS:    6311237  HIT:    6024148  MISS:     287089  HIT %:    95.4511  MISS %:    4.54885  MPKI: 5.74178
L1D PREFETCH DATA	ACCESS:     339869  HIT:     245814  MISS:      94055  HIT %:    72.3261  MISS %:    27.6739  MPKI: 1.8811

L1D PREFETCH  REQUESTED:     757738  ISSUED:     757738  USEFUL:      35380  USELESS:      67480
L1D USEFUL LOAD PREFETCHES:      35380 PREFETCH ISSUED TO LOWER LEVEL:     102949  ACCURACY: 34.3665
 TIMELY PREFETCHES:      35380 LATE PREFETCHES: 8813 DROPPED PREFETCHES: 6
L1D AVERAGE MISS LATENCY: 325084 cycles
L1D RQ	ACCESS:   11379009	FORWARD:          0	MERGED:    3643365	TO_CACHE:    7578288
L1D WQ	ACCESS:    6947999	FORWARD:     157430	MERGED:     126263	TO_CACHE:    6821736
L1D PQ	ACCESS:     378906	FORWARD:          0	MERGED:          0	TO_CACHE:     378832

L1D UNIQUE REGIONS ACCESSED: 0
L1D REGIONS CONFLICTS: 0
L1D Cross Page Prefetch Requests: 5979
L1D Same Page Prefetch Requests: 753735
L1D ROI Sum of L1D PQ occupancy: 4806710
L1D PREFETCHES PUSHED FROM L2C: 0
L1I TOTAL     ACCESS:    7853097  HIT:    5095566  MISS:    2757531  HIT %:    64.8861  MISS %:    35.1139   MPKI: 55.1506
L1I LOAD INSTRUCTION	ACCESS:    7853097  HIT:    5095566  MISS:    2757531  HIT %:    64.8861  MISS %:    35.1139  MPKI: 55.1506

L1I AVERAGE MISS LATENCY: 17.4641 cycles
L1I RQ	ACCESS:   15756563	FORWARD:          0	MERGED:    7409833	TO_CACHE:    8346730

L1BTB TOTAL     ACCESS:    5671792  HIT:    2051281  MISS:    3620511  HIT %:    36.1664  MISS %:    63.8336   MPKI: 72.4102
L1BTB BRANCH_DIRECT_JUMP	ACCESS:     548794  HIT:     144978  MISS:     403816	AVERAGE STALL: 21.3576
L1BTB BRANCH_INDIRECT	ACCESS:     183512  HIT:      66481  MISS:     117031	AVERAGE STALL: 49.6788
L1BTB BRANCH_CONDITIONAL	ACCESS:    2718259  HIT:    1426914  MISS:    1291345	AVERAGE STALL: 31.232
L1BTB BRANCH_DIRECT_CALL	ACCESS:     939618  HIT:     103838  MISS:     835780	AVERAGE STALL: 30.9791
L1BTB BRANCH_INDIRECT_CALL	ACCESS:     170996  HIT:      20802  MISS:     150194	AVERAGE STALL: 68.7435
L1BTB BRANCH_RETURN	ACCESS:    1110613  HIT:     288268  MISS:     822345	AVERAGE STALL: 33.6014
L1BTB BRANCH_OTHER ACCESS:          0  HIT:          0  MISS:          0	AVERAGE STALL: -nan
L1BTB TOTAL ROB OCCUPANCY AT BTB MISS: 0.633456

L2BTB TOTAL     ACCESS:    3594951  HIT:    3530160  MISS:      64791  HIT %:    98.1977  MISS %:    1.80228   MPKI: 1.29582
L2BTB BRANCH_DIRECT_JUMP	ACCESS:     399573  HIT:     395333  MISS:       4240	AVERAGE STALL: 21.3576
L2BTB BRANCH_INDIRECT	ACCESS:     106743  HIT:     104027  MISS:       2716	AVERAGE STALL: 49.6788
L2BTB BRANCH_CONDITIONAL	ACCESS:    1291345  HIT:    1287772  MISS:       3573	AVERAGE STALL: 31.232
L2BTB BRANCH_DIRECT_CALL	ACCESS:     835780  HIT:     834853  MISS:        927	AVERAGE STALL: 30.9791
L2BTB BRANCH_INDIRECT_CALL	ACCESS:     140563  HIT:     129169  MISS:      11394	AVERAGE STALL: 68.7435
L2BTB BRANCH_RETURN	ACCESS:     820947  HIT:     779006  MISS:      41941	AVERAGE STALL: 33.6014
L2BTB BRANCH_OTHER ACCESS:          0  HIT:          0  MISS:          0	AVERAGE STALL: -nan
L2BTB TOTAL ROB OCCUPANCY AT BTB MISS: 35.3974

L2C TOTAL     ACCESS:    4483673  HIT:    3954211  MISS:     529462  HIT %:    88.1913  MISS %:    11.8087   MPKI: 10.5892
L2C LOAD INSTRUCTION	ACCESS:    2757531  HIT:    2457561  MISS:     299970  HIT %:    89.1218  MISS %:    10.8782  MPKI: 5.9994
L2C LOAD TRANSLATION INSTRUCTION	ACCESS:        363  HIT:         98  MISS:        265  HIT %:    26.9972  MISS %:    73.0028  MPKI: 0.0053
L2C LOAD DATA	ACCESS:     721114  HIT:     641760  MISS:      79354  HIT %:    88.9956  MISS %:    11.0044  MPKI: 1.58708
L2C RFO DATA	ACCESS:     286985  HIT:     231874  MISS:      55111  HIT %:    80.7966  MISS %:    19.2034  MPKI: 1.10222
L2C PREFETCH DATA	ACCESS:     193102  HIT:     117692  MISS:      75410  HIT %:    60.9481  MISS %:    39.0519  MPKI: 1.5082
L2C WRITEBACK DATA	ACCESS:     522469  HIT:     504585  MISS:      17884  HIT %:     96.577  MISS %:    3.42298  MPKI: 0.35768
L2C LOAD TRANSLATION DATA	ACCESS:       2070  HIT:        615  MISS:       1455  HIT %:    29.7101  MISS %:    70.2899  MPKI: 0.0291
L2C TRANSLATION FROM L1D PREFETCHER DATA	ACCESS:         39  HIT:         26  MISS:         13  HIT %:    66.6667  MISS %:    33.3333  MPKI: 0.00026

L2C PREFETCH  REQUESTED:      98084  ISSUED:      98084  USEFUL:       9833  USELESS:      66076
L2C USEFUL LOAD PREFETCHES:       9833 PREFETCH ISSUED TO LOWER LEVEL:      75842  ACCURACY: 12.9651
 TIMELY PREFETCHES:       9833 LATE PREFETCHES: 432 DROPPED PREFETCHES: 0
L2C AVERAGE MISS LATENCY: 38.0365 cycles
L2C RQ	ACCESS:    3768183	FORWARD:          0	MERGED:          0	TO_CACHE:    3768102
L2C WQ	ACCESS:     522469	FORWARD:         81	MERGED:          0	TO_CACHE:     522469
L2C PQ	ACCESS:     201033	FORWARD:          0	MERGED:       3757	TO_CACHE:     197276

L2C Dense regions hint from L2: 0
PSCL5 TOTAL     ACCESS:       4672  HIT:       2336  MISS:       2336  HIT %:         50  MISS %:         50   MPKI: 0.04672
PSCL5 LOAD TRANSLATION INSTRUCTION	ACCESS:       4596  HIT:       2298  MISS:       2298  HIT %:         50  MISS %:         50  MPKI: 0.04596
PSCL5 TRANSLATION FROM L1D PREFETCHER INSTRUCTION	ACCESS:         76  HIT:         38  MISS:         38  HIT %:         50  MISS %:         50  MPKI: 0.00076


PSCL4 TOTAL     ACCESS:       4473  HIT:       2230  MISS:       2243  HIT %:    49.8547  MISS %:    50.1453   MPKI: 0.04486
PSCL4 LOAD TRANSLATION INSTRUCTION	ACCESS:       3439  HIT:       2192  MISS:       1247  HIT %:    63.7395  MISS %:    36.2605  MPKI: 0.02494
PSCL4 TRANSLATION FROM L1D PREFETCHER INSTRUCTION	ACCESS:         66  HIT:         38  MISS:         28  HIT %:    57.5758  MISS %:    42.4242  MPKI: 0.00056
PSCL4 LOAD TRANSLATION DATA	ACCESS:        958  HIT:          0  MISS:        958  HIT %:          0  MISS %:        100  MPKI: 0.01916
PSCL4 TRANSLATION FROM L1D PREFETCHER DATA	ACCESS:         10  HIT:          0  MISS:         10  HIT %:          0  MISS %:        100  MPKI: 0.0002


PSCL3 TOTAL     ACCESS:       4597  HIT:       2292  MISS:       2305  HIT %:    49.8586  MISS %:    50.1414   MPKI: 0.0461
PSCL3 LOAD TRANSLATION INSTRUCTION	ACCESS:       3501  HIT:       2254  MISS:       1247  HIT %:    64.3816  MISS %:    35.6184  MPKI: 0.02494
PSCL3 TRANSLATION FROM L1D PREFETCHER INSTRUCTION	ACCESS:         66  HIT:         38  MISS:         28  HIT %:    57.5758  MISS %:    42.4242  MPKI: 0.00056
PSCL3 LOAD TRANSLATION DATA	ACCESS:       1020  HIT:          0  MISS:       1020  HIT %:          0  MISS %:        100  MPKI: 0.0204
PSCL3 TRANSLATION FROM L1D PREFETCHER DATA	ACCESS:         10  HIT:          0  MISS:         10  HIT %:          0  MISS %:        100  MPKI: 0.0002


PSCL2 TOTAL     ACCESS:       4560  HIT:       2224  MISS:       2336  HIT %:    48.7719  MISS %:    51.2281   MPKI: 0.04672
PSCL2 LOAD TRANSLATION INSTRUCTION	ACCESS:       2508  HIT:       2187  MISS:        321  HIT %:     87.201  MISS %:     12.799  MPKI: 0.00642
PSCL2 TRANSLATION FROM L1D PREFETCHER INSTRUCTION	ACCESS:         37  HIT:         37  MISS:          0  HIT %:        100  MISS %:          0  MPKI: 0
PSCL2 LOAD TRANSLATION DATA	ACCESS:       1978  HIT:          0  MISS:       1978  HIT %:          0  MISS %:        100  MPKI: 0.03956
PSCL2 TRANSLATION FROM L1D PREFETCHER DATA	ACCESS:         37  HIT:          0  MISS:         37  HIT %:          0  MISS %:        100  MPKI: 0.00074


LLC TOTAL     ACCESS:     592112  HIT:     561657  MISS:      30455  HIT %:    94.8565  MISS %:    5.14345   MPKI: 0.6091
LLC LOAD INSTRUCTION	ACCESS:     299970  HIT:     299051  MISS:        919  HIT %:    99.6936  MISS %:   0.306364  MPKI: 0.01838
LLC LOAD TRANSLATION INSTRUCTION	ACCESS:        265  HIT:        246  MISS:         19  HIT %:    92.8302  MISS %:    7.16981  MPKI: 0.00038
LLC LOAD DATA	ACCESS:      78931  HIT:      75456  MISS:       3475  HIT %:    95.5974  MISS %:    4.40258  MPKI: 0.0695
LLC RFO DATA	ACCESS:      55100  HIT:      39347  MISS:      15753  HIT %:    71.4102  MISS %:    28.5898  MPKI: 0.31506
LLC PREFETCH DATA	ACCESS:      75842  HIT:      66051  MISS:       9791  HIT %:    87.0903  MISS %:    12.9097  MPKI: 0.19582
LLC WRITEBACK DATA	ACCESS:      80536  HIT:      80115  MISS:        421  HIT %:    99.4773  MISS %:   0.522748  MPKI: 0.00842
LLC LOAD TRANSLATION DATA	ACCESS:       1455  HIT:       1379  MISS:         76  HIT %:    94.7766  MISS %:    5.22337  MPKI: 0.00152
LLC TRANSLATION FROM L1D PREFETCHER DATA	ACCESS:         13  HIT:         12  MISS:          1  HIT %:    92.3077  MISS %:    7.69231  MPKI: 2e-05

LLC AVERAGE MISS LATENCY: 155.896 cycles
LLC RQ	ACCESS:     435736	FORWARD:          0	MERGED:          0	TO_CACHE:     435734
LLC WQ	ACCESS:      80536	FORWARD:          2	MERGED:          0	TO_CACHE:      80536
LLC PQ	ACCESS:      75842	FORWARD:          0	MERGED:          0	TO_CACHE:      75842

LLC Dense regions hint to LLC: 0

RAW hits: 1265580
Loads Generated: 12644589
Loads sent to L1D: 11379009
Stores Generated: 6947977
Stores sent to L1D: 6947999
Major fault: 0 Minor fault: 2543
Allocated PAGES: 2543

stream: 
stream:times selected: 1186985
stream:pref_filled: 120494
stream:pref_useful: 24031
stream:pref_late: 6185
stream:misses: 5885
stream:misses_by_poll: 0

CS: 
CS:times selected: 179800
CS:pref_filled: 57604
CS:pref_useful: 34139
CS:pref_late: 8450
CS:misses: 18346
CS:misses_by_poll: 3

CPLX: 
CPLX:times selected: 1005948
CPLX:pref_filled: 21551
CPLX:pref_useful: 5304
CPLX:pref_late: 3288
CPLX:misses: 89933
CPLX:misses_by_poll: 1

NL_L1: 
NL:times selected: 19861
NL:pref_filled: 591
NL:pref_useful: 265
NL:pref_late: 202
NL:misses: 739
NL:misses_by_poll: 0

total selections: 2392594
total_filled: 94055
total_useful: 35380
total_late: 19390
total_polluted: 4
total_misses_after_warmup: 761513
conflicts: 5983826

test: 116387

DRAM Statistics
 CHANNEL 0
 RQ ROW_BUFFER_HIT:      11462  ROW_BUFFER_MISS:      18551
 DBUS_CONGESTED:         10
 WQ ROW_BUFFER_HIT:       1403  ROW_BUFFER_MISS:      13300  FULL:          0

 AVG_CONGESTED_CYCLE: 6

CPU 0 Branch Prediction Accuracy: 99.8224% MPKI: 0.32442 Average ROB Occupancy at Mispredict: 77.2065
Branch types
NOT_BRANCH: 40865137 81.7303%
BRANCH_DIRECT_JUMP: 548794 1.09759%
BRANCH_INDIRECT: 183512 0.367024%
BRANCH_CONDITIONAL: 6181050 12.3621%
BRANCH_DIRECT_CALL: 939618 1.87924%
BRANCH_INDIRECT_CALL: 170996 0.341992%
BRANCH_RETURN: 1110613 2.22123%
BRANCH_OTHER: 0 0%

DRAM PAGES: 1048576
Allocated PAGES: 2543
Average_ROB_Occupancy: 58.542
Average_Decode_Occupancy: 4.97922
Average_FTQ_Occupancy: 15.3866
Indirect max targets: 14 Average targets: 1.14527
Branch_type:  BRANCH_DIRECT_JUMP:  Count Percentage: 1.95661 7.25669 3.5512 8.77551 8.95351 4.15021 0.997681 64.3586 
Branch_type:  BRANCH_INDIRECT:  Count Percentage: 11.771 3.42829 2.56363 0 16.6688 9.67701 2.27186 53.6194 
Branch_type:  BRANCH_CONDITIONAL:  Count Percentage: 24.3784 3.49503 1.73505 4.9429 4.68181 4.40647 0.461119 55.8992 
Branch_type:  BRANCH_DIRECT_CALL:  Count Percentage: 0.260615 1.29157 1.28738 4.31046 3.1532 1.23706 0.800297 87.6594 
Branch_type:  BRANCH_INDIRECT_CALL:  Count Percentage: 9.53935 0 2.98953 8.70259 1.70876 0.677386 1.28572 75.0967 
Branch_type:  BRANCH_RETURN:  Count Percentage: 7.97363 0.658628 1.16689 5.77751 5.90406 5.25862 1.36058 71.9001 
Branch_type:  BRANCH_DIRECT_JUMP:  Total Count: 21457 79580 38944 96236 98188 45513 10941 705784 
Branch_type:  BRANCH_INDIRECT:  Total Count: 43087 12549 9384 0 61015 35422 8316 196270 
Branch_type:  BRANCH_CONDITIONAL:  Total Count: 3011523 431749 214335 610608 578355 544341 56963 6905348 
Branch_type:  BRANCH_DIRECT_CALL:  Total Count: 4915 24358 24279 81292 59467 23330 15093 1653191 
Branch_type:  BRANCH_INDIRECT_CALL:  Total Count: 32742 0 10261 29870 5865 2325 4413 257755 
Branch_type:  BRANCH_RETURN:  Total Count: 177807 14687 26021 128835 131657 117264 30340 1603328 
Number of unique branch instructions: 9792
Upper 32 bits: 
aaaa
ffff
ffff0000
Unique upper 32 bits: 3
Unique upper 36 bits: 3
Unique upper 40 bits: 5
Unique upper 44 bits: 32
Unique upper 48 bits: 154
Variant_0 : 1384 0.337891
Variant_1 : 1282 0.312988
Variant_2 : 1352 0.330078
Variant_3 : 0 0
Offset_3 4032
Offset_4 247
Offset_5 448
Offset_6 498
Offset_7 579
Offset_8 501
Offset_9 461
Offset_10 378
Offset_11 304
Offset_12 270
Offset_13 198
Offset_14 225
Offset_15 179
Offset_16 220
Offset_17 143
Offset_18 118
Offset_19 234
Offset_20 135
Offset_21 235
Offset_22 393
Offset_23 241
Offset_24 334
Offset_25 88
Offset_47 82
Offset_64 1
decode_dispatch_called: 29304628 53.7658
Dispatch_width: 0 17224125 58.7761 31.6015
Dispatch_width: 1 2173635 7.41738 3.98801
Dispatch_width: 2 1198193 4.08875 2.19835
Dispatch_width: 3 1105453 3.77228 2.0282
Dispatch_width: 4 1133912 3.8694 2.08041
Dispatch_width: 5 1238160 4.22513 2.27168
Dispatch_width: 6 5231150 17.8509 9.5977
Empty_decode_cycles: 25199563 46.2342
ROB_full_cycles: 580539 1.06513
Starvation_cycles_per_kilo_instr: 486.925
Starvation_cycles_per_kilo_instr_3: 463.204
Starvation_cycles_per_kilo_instr_0: 418.431
Branch_type_1  (3,1)  (4,9)  (5,37)  (6,69)  (7,116)  (8,125)  (9,122)  (10,98)  (11,69)  (12,43)  (13,5)  (14,2)  (15,3)  (16,4)  (18,1)  (19,4)  (20,2)  (21,1)  (22,3)  (23,2)  (24,10)  (25,12) 
Branch_type_2  (3,1)  (5,1)  (8,3)  (9,3)  (12,1)  (13,1)  (14,1)  (16,3)  (17,2)  (20,2)  (21,2)  (23,5)  (24,1)  (47,38) 
Branch_type_3  (3,4030)  (4,238)  (5,406)  (6,414)  (7,434)  (8,314)  (9,253)  (10,154)  (11,125)  (12,50)  (13,4)  (24,1)  (64,1) 
Branch_type_4  (6,3)  (7,8)  (8,24)  (9,52)  (10,60)  (11,55)  (12,97)  (13,85)  (14,99)  (15,84)  (16,98)  (17,64)  (18,53)  (19,114)  (20,71)  (21,124)  (22,208)  (23,136)  (24,193)  (25,72) 
Branch_type_5  (8,2)  (9,1)  (10,3)  (11,5)  (12,3)  (13,14)  (14,16)  (15,11)  (16,20)  (17,11)  (18,16)  (19,12)  (20,10)  (21,13)  (22,42)  (23,26)  (24,37) 
Branch_type_6  (5,4)  (6,12)  (7,21)  (8,33)  (9,30)  (10,63)  (11,50)  (12,76)  (13,89)  (14,107)  (15,81)  (16,95)  (17,66)  (18,48)  (19,104)  (20,50)  (21,95)  (22,140)  (23,72)  (24,92)  (25,4)  (47,44) 
Unique trigger count: 
Variant_0_evicts_0 : 0
Variant_0_evicts_1 : 0
Variant_0_evicts_2 : 0
Variant_0_evicts_3 : 0
Variant_1_evicts_0 : 0
Variant_1_evicts_1 : 0
Variant_1_evicts_2 : 0
Variant_1_evicts_3 : 0
Variant_2_evicts_0 : 0
Variant_2_evicts_1 : 0
Variant_2_evicts_2 : 0
Variant_2_evicts_3 : 0
Variant_3_evicts_0 : 0
Variant_3_evicts_1 : 0
Variant_3_evicts_2 : 0
Variant_3_evicts_3 : 0
BTB PER SET UNIQUE ADDR: 13 11 8 10 11 12 6 9 6 9 11 15 16 12 10 8 7 7 9 17 10 9 10 7 10 9 9 10 10 9 14 12 11 8 6 9 14 12 7 12 5 8 10 12 9 7 12 7 11 8 17 11 8 11 11 5 10 8 12 10 9 13 8 12 10 7 11 10 13 12 9 10 13 6 10 8 6 11 10 16 16 7 9 12 11 13 11 7 5 22 7 8 14 8 7 11 9 10 10 11 18 13 14 7 9 7 11 11 10 8 9 15 11 12 11 5 11 12 10 13 10 7 8 11 11 9 9 10 12 11 10 9 10 13 9 13 8 12 8 13 9 10 8 13 12 10 16 9 8 10 13 8 13 12 9 14 17 13 18 10 15 8 12 14 10 11 10 6 11 7 9 10 7 14 6 10 9 7 7 9 6 14 13 9 11 13 5 11 6 9 12 12 11 11 13 13 6 14 7 8 13 11 7 9 5 11 10 13 9 8 11 12 11 9 12 9 11 8 9 19 7 11 8 8 8 10 18 11 8 13 8 5 9 13 5 14 12 13 12 5 12 10 13 11 8 9 13 7 9 9 20 8 14 10 11 12 9 9 10 10 12 9 5 10 10 5 9 8 7 12 7 9 5 7 6 8 9 12 13 10 11 12 7 9 10 5 10 17 15 8 9 8 12 15 6 13 14 11 13 7 9 9 13 17 11 10 8 8 12 10 12 14 7 11 6 6 16 8 16 13 11 15 9 10 13 10 15 8 9 7 11 8 9 9 12 14 10 11 7 19 7 10 5 13 15 9 11 11 10 8 8 6 13 6 10 11 14 13 7 6 7 10 9 11 7 9 8 12 17 10 11 7 11 13 8 11 10 12 11 12 11 8 11 8 9 9 9 13 9 8 9 7 13 18 9 8 8 10 11 6 11 9 12 12 13 14 6 11 10 12 17 6 7 15 10 11 12 9 13 16 9 11 8 15 13 8 9 11 12 13 11 15 11 6 10 13 10 9 10 12 13 8 14 9 15 7 7 11 15 10 14 12 10 11 12 16 16 9 10 19 8 9 12 8 10 9 8 11 6 16 16 10 10 12 12 14 11 8 6 17 15 9 13 13 9 11 14 11 14 13 8 12 9 7 6 11 13 10 5 11 7 12 12 17 10 8 10 17 13 12 8 16 9 10 12 14 10 16 5 8 7 9 10 9 10 12 16 6 9 14 9 8 9 8 11 13 10 13 13 10 14 6 12 15 13 16 7 9 7 13 12 13 10 9 10 11 14 11 11 13 9 18 13 12 11 12 9 16 9 12 12 14 13 14 11 13 11 13 8 10 11 15 7 11 13 13 14 9 16 14 10 16 12 10 15 10 6 8 10 9 12 11 8 8 6 11 16 10 10 11 17 11 10 11 3 12 8 13 12 12 16 13 9 6 8 12 8 14 5 15 7 8 11 14 10 11 12 14 10 12 11 13 9 5 8 17 10 12 14 11 10 10 7 10 14 9 10 12 12 14 8 7 13 13 11 12 8 13 5 6 13 10 13 18 16 8 16 12 10 13 11 15 13 12 13 15 11 8 18 11 12 14 13 10 7 9 12 10 11 11 7 10 15 8 7 10 9 10 9 9 8 12 8 7 9 11 12 10 8 13 13 9 11 12 11 12 13 6 9 11 9 7 13 9 7 11 17 9 15 10 10 11 7 13 9 15 10 9 11 10 10 7 12 14 13 10 12 10 10 6 10 7 7 9 9 13 12 12 10 13 11 17 7 8 7 10 13 10 17 12 6 11 12 10 13 10 9 14 9 6 8 6 10 12 11 15 8 13 14 9 13 15 13 11 20 10 7 11 12 9 11 16 13 12 13 17 15 9 5 15 12 16 8 11 12 13 7 10 16 7 10 10 11 10 10 8 12 14 12 10 13 15 8 13 7 17 8 16 11 7 7 13 10 11 12 14 13 9 10 11 8 10 9 9 17 8 10 9 15 11 8 10 14 12 14 5 13 11 7 11 9 11 14 9 11 14 15 12 10 12 11 7 10 12 9 11 16 10 10 6 14 9 16 11 6 12 10 13 8 11 10 12 12 11 11 8 17 16 12 7 10 18 9 9 13 10 10 13 12 7 11 17 18 12 8 14 9 11 11 12 10 13 13 10 9 10 15 14 12 12 10 11 9 10 10 11 11 11 12 13 14 7 11 17 9 11 13 6 7 12 11 15 14 13 12 9 17 14 11 15 9 8 10 12 8 10 11 12 13 11 11 9 10 11 8 11 7 7 18 13 17 16 9 9 14 10 7 9 7 15 10 13 11 9 10 10 6 9 6 8 8 15 9 8 
BTB PER SET COUNT: 19 13 1987 12 12 16 6 139 1471 10 14 265 20526 1293 10 9 979 11 14 26 12 10 768 8 16 13 11 13 10 11 21 15 24 12 8 94 15 1481 8 20 5 8 16 1471 12 8 17 7 12 9 24 16 9 13 11 5 16 10 18 18 11 20 10 15 10 11 13 1668 17 13 11 995 14 6 11 10 9 631 15 16 18 7 9 13 16 79 20 9 9 100 7 762 195 9 10 18 901 11 15 12 21 1627 20 7 1965 8 13 12 860 67 9 22 721 15 16 5 11 14 1470 943 15 7 11 13 12 13 15 13 18 952 11 10 24 27 15 21 10 14 8 16 12 13 15 23 17 371 771 12 16 14 17 8 1691 15 10 20 55 16 31 13 31 355 927 19 15 142 15 6 15 1843 10 13 7 15 8 13 9 8 8 9 999 165 21 10 12 56 5 19 7 10 18 15 12 22 27 149 6 522 10 750 18 117 7 10 5 14 12 446 17 222 13 18 14 12 20 11 12 8 2043 29 11 17 11 8 11 25 29 13 9 18 12 6 13 23 9 22 13 285 1204 8 743 12 450 364 12 720 1005 7 377 10 24 11 17 12 13 499 9 448 17 19 517 11 5 14 11 7 9 10 1632 15 7 9 5 7 7 9 9 14 17 13 14 14 842 10 11 5 10 21 18 8 10 10 13 512 9 16 18 21 16 13 10 13 16 22 19 13 17 8 59 700 20 18 8 15 8 10 22 11 24 32 15 1395 12 13 13 13 406 8 10 10 21 10 13 12 13 22 12 17 7 23 7 997 5 15 432 9 13 16 10 16 11 1471 22 7 12 11 19 20 500 6 7 14 10 16 7 11 10 14 22 12 15 58 18 20 921 169 11 16 16 14 1081 8 1579 15 12 9 11 17 10 595 10 7 15 23 12 10 8 11 1036 7 14 11 15 23 16 19 7 75 17 16 1234 7 7 244 15 13 12 113 13 29 13 24 15 20 18 8 11 13 18 17 15 22 20 9 314 15 10 14 15 20 1360 9 20 10 2461 10 7 17 17 10 149 2968 10 11 73 18 23 9 12 33 10 13 15 8 19 12 8 14 13 24 26 14 13 16 16 23 13 12 6 20 26 12 18 14 201 709 20 14 18 20 1005 22 2153 7 6 19 1742 11 5 14 9 20 12 303 16 8 13 20 13 13 11 3374 30 965 16 20 15 20 6 13 7 9 14 483 13 17 3573 7 11 19 15 9 12 9 20 522 11 609 15 435 17 6 36 20 18 115 7 13 7 145 15 17 89 295 15 21 41 13 17 22 9 95 14 18 79 25 136 22 9 13 14 16 19 19 2452 22 14 19 9 18 15 21 20 38 17 23 18 10 18 15 15 19 13 11 30 12 6 382 10 9 13 15 115 9 6 14 29 2865 10 14 21 14 1379 12 3 16 445 16 15 887 18 16 15 984 11 17 14 20 5 20 12 9 18 21 12 12 16 92 14 13 13 19 13 7 9 25 561 19 152 12 12 18 7 15 17 508 15 15 307 290 9 7 13 20 34 18 10 992 1470 6 23 10 905 24 26 12 29 16 12 25 16 24 16 12 18 17 13 13 34 15 15 15 15 12 437 10 22 38 14 13 965 20 1054 8 7 17 13 13 11 12 17 256 576 7 12 15 22 16 8 595 22 14 15 799 1540 20 13 8 11 16 10 7 27 11 17 989 1026 15 20 15 1000 16 7 99 791 19 15 13 12 23 1485 8 452 294 1148 10 14 15 15 8 17 14 8 11 9 16 18 14 12 16 59 22 10 12 10 11 14 10 30 15 388 13 1347 13 21 250 13 20 10 8 10 476 11 20 12 24 8 19 22 202 460 21 420 17 31 12 7 16 17 52 13 1210 21 14 35 670 24 1476 5 275 13 765 10 21 14 22 7 10 26 8 14 12 18 14 77 1861 24 22 811 11 13 23 8 16 773 24 11 19 15 14666 446 177 24 12 1476 17 14 9 20 11 12 18 9 11 30 10 13 10 15 12 11 14 17 15 14 5 16 19 7 12 14 13 25 10 12 84 21 16 10 12 17 10 15 6349 11 19 22 11 1537 6 20 10 25 256 9 17 13 15 8 15 12 867 17 13 13 8 376 29 16 11 11 23 10 13 16 15 11 15 14 13 14 35 745 21 8 22 17 18 12 14 13 1088 20 11 11 21 55 16 19 21 14 109 2054 3145 11 13 15 17 17 18 203 7 997 23 11 13 29 6 60 44 53 219 24 18 446 9 18 17 16 43 10 8 10 992 11 12 11 508 16 175 15 15 12 17 8 13 8 1474 18 709 172 1484 10 11 20 11 12 14 8 993 199 17 14 12 15 14 7 333 7 8 9 22 10 11 
To predecode: 0
Predecoding something: 0
Predecode request dropped: 0
sizeofblock_0 0
sizeofblock_1 33312
sizeofblock_2 43631
sizeofblock_3 40100
sizeofblock_4 20519
sizeofblock_5 0
sizeofblock_6 0
sizeofblock_7 0
sizeofblock_8 0
Variant_0 Correct: 1613253 Incorrect: 0 Accuracy: 1
Variant_1 Correct: 2088815 Incorrect: 0 Accuracy: 1
Variant_2 Correct: 3645009 Incorrect: 0 Accuracy: 1
Variant_3 Correct: 0 Incorrect: 0 Accuracy: -nan
