
*** ChampSim Multicore Out-of-Order Simulator ***

Warmup Instructions: 50000000
Simulation Instructions: 50000000
Number of CPUs: 1
LLC sets: 2048
LLC ways: 16
Off-chip DRAM Size: 4096 MB Channels: 1 Width: 64-bit Data Rate: 6400 MT/s
CPU 0 runs ./micro_traces/srv615.trace.gz
.gz
ITLB has LRU replacement policy
DTLB has LRU replacement policy
STLB has LRU replacement policy
FDIP Prefetcher at L1I
L1I has LRU replacement policy
L1D has LRU replacement policy
Initialize SRRIP state for L2C
Initialize DRRIP state for LLC
Heartbeat_Variant_0 : 1116 0.272461 per_variant_size: 0 1116 0 0 0 0 0 0 0 
Heartbeat_Variant_1 : 1101 0.268799 per_variant_size: 0 528 573 0 0 0 0 0 0 
Heartbeat_Variant_2 : 977 0.238525 per_variant_size: 0 289 302 240 146 0 0 0 0 
Heartbeat_Variant_3 : 0 0 per_variant_size: 0 0 0 0 0 0 0 0 0 
Heartbeat_Variant_0_evicts 0 : 18041 1 : 7066 2 : 6833 3 : 0 
Heartbeat_Variant_1_evicts 0 : 7029 1 : 0 2 : 4226 3 : 0 
Heartbeat_Variant_2_evicts 0 : 6825 1 : 4039 2 : 0 3 : 0 
Heartbeat_Variant_3_evicts 0 : 0 1 : 0 2 : 0 3 : 0 
Heartbeat CPU 0 instructions: 10000001 cycles: 2795310 heartbeat IPC: 3.57742 cumulative IPC: 3.57742 (Simulation time: 0 hr 2 min 17 sec) 
Heartbeat_Variant_0 : 1180 0.288086 per_variant_size: 0 1180 0 0 0 0 0 0 0 
Heartbeat_Variant_1 : 1122 0.273926 per_variant_size: 0 479 643 0 0 0 0 0 0 
Heartbeat_Variant_2 : 999 0.243896 per_variant_size: 0 264 293 245 197 0 0 0 0 
Heartbeat_Variant_3 : 0 0 per_variant_size: 0 0 0 0 0 0 0 0 0 
Heartbeat_Variant_0_evicts 0 : 18500 1 : 7242 2 : 6981 3 : 0 
Heartbeat_Variant_1_evicts 0 : 7240 1 : 0 2 : 4143 3 : 0 
Heartbeat_Variant_2_evicts 0 : 6950 1 : 4155 2 : 0 3 : 0 
Heartbeat_Variant_3_evicts 0 : 0 1 : 0 2 : 0 3 : 0 
Heartbeat CPU 0 instructions: 20000001 cycles: 5592226 heartbeat IPC: 3.57537 cumulative IPC: 3.57639 (Simulation time: 0 hr 4 min 22 sec) 
Heartbeat_Variant_0 : 1177 0.287354 per_variant_size: 0 1177 0 0 0 0 0 0 0 
Heartbeat_Variant_1 : 1133 0.276611 per_variant_size: 0 484 649 0 0 0 0 0 0 
Heartbeat_Variant_2 : 993 0.242432 per_variant_size: 0 263 290 256 184 0 0 0 0 
Heartbeat_Variant_3 : 0 0 per_variant_size: 0 0 0 0 0 0 0 0 0 
Heartbeat_Variant_0_evicts 0 : 18801 1 : 7294 2 : 7138 3 : 0 
Heartbeat_Variant_1_evicts 0 : 7295 1 : 0 2 : 4295 3 : 0 
Heartbeat_Variant_2_evicts 0 : 7140 1 : 4287 2 : 0 3 : 0 
Heartbeat_Variant_3_evicts 0 : 0 1 : 0 2 : 0 3 : 0 
Heartbeat CPU 0 instructions: 30000001 cycles: 8388337 heartbeat IPC: 3.5764 cumulative IPC: 3.57639 (Simulation time: 0 hr 6 min 35 sec) 
Heartbeat_Variant_0 : 1174 0.286621 per_variant_size: 0 1174 0 0 0 0 0 0 0 
Heartbeat_Variant_1 : 1132 0.276367 per_variant_size: 0 485 647 0 0 0 0 0 0 
Heartbeat_Variant_2 : 999 0.243896 per_variant_size: 0 260 296 248 195 0 0 0 0 
Heartbeat_Variant_3 : 0 0 per_variant_size: 0 0 0 0 0 0 0 0 0 
Heartbeat_Variant_0_evicts 0 : 18682 1 : 7342 2 : 7088 3 : 0 
Heartbeat_Variant_1_evicts 0 : 7327 1 : 0 2 : 4271 3 : 0 
Heartbeat_Variant_2_evicts 0 : 7106 1 : 4258 2 : 0 3 : 0 
Heartbeat_Variant_3_evicts 0 : 0 1 : 0 2 : 0 3 : 0 
Heartbeat CPU 0 instructions: 40000002 cycles: 11183737 heartbeat IPC: 3.57731 cumulative IPC: 3.57662 (Simulation time: 0 hr 8 min 42 sec) 
Heartbeat_Variant_0 : 1163 0.283936 per_variant_size: 0 1163 0 0 0 0 0 0 0 
Heartbeat_Variant_1 : 1154 0.281738 per_variant_size: 0 498 656 0 0 0 0 0 0 
Heartbeat_Variant_2 : 1004 0.245117 per_variant_size: 0 268 287 249 200 0 0 0 0 
Heartbeat_Variant_3 : 0 0 per_variant_size: 0 0 0 0 0 0 0 0 0 
Heartbeat_Variant_0_evicts 0 : 18717 1 : 7364 2 : 7119 3 : 0 
Heartbeat_Variant_1_evicts 0 : 7357 1 : 0 2 : 4288 3 : 0 
Heartbeat_Variant_2_evicts 0 : 7138 1 : 4269 2 : 0 3 : 0 
Heartbeat_Variant_3_evicts 0 : 0 1 : 0 2 : 0 3 : 0 
Heartbeat CPU 0 instructions: 50000001 cycles: 13979137 heartbeat IPC: 3.57731 cumulative IPC: 3.57676 (Simulation time: 0 hr 10 min 37 sec) 

Warmup complete CPU 0 instructions: 50000001 cycles: 13979137 (Simulation time: 0 hr 10 min 37 sec) 

Cycle: 20000000 FTQ IN: 56799339 FTQ occupancy: 18.014 DECODE IN: 56799329 DECODE occupancy: 46.0707 ROB IN: 56799329 ROB occupancy: 278.853 ROB OUT: 56799205
Heartbeat_Variant_0 : 1168 0.285156 per_variant_size: 0 1168 0 0 0 0 0 0 0 
Heartbeat_Variant_1 : 1151 0.281006 per_variant_size: 0 496 655 0 0 0 0 0 0 
Heartbeat_Variant_2 : 1002 0.244629 per_variant_size: 0 267 288 253 194 0 0 0 0 
Heartbeat_Variant_3 : 0 0 per_variant_size: 0 0 0 0 0 0 0 0 0 
Heartbeat_Variant_0_evicts 0 : 18431 1 : 7256 2 : 6944 3 : 0 
Heartbeat_Variant_1_evicts 0 : 7268 1 : 0 2 : 4103 3 : 0 
Heartbeat_Variant_2_evicts 0 : 6927 1 : 4118 2 : 0 3 : 0 
Heartbeat_Variant_3_evicts 0 : 0 1 : 0 2 : 0 3 : 0 
Heartbeat CPU 0 instructions: 60000000 cycles: 22806841 heartbeat IPC: 1.1328 cumulative IPC: 1.1328 (Simulation time: 0 hr 12 min 13 sec) 
Cycle: 30000000 FTQ IN: 11150479 FTQ occupancy: 6.65635 DECODE IN: 11150485 DECODE occupancy: 14.0364 ROB IN: 11150472 ROB occupancy: 118.409 ROB OUT: 11150594
Heartbeat_Variant_0 : 1174 0.286621 per_variant_size: 0 1174 0 0 0 0 0 0 0 
Heartbeat_Variant_1 : 1149 0.280518 per_variant_size: 0 490 659 0 0 0 0 0 0 
Heartbeat_Variant_2 : 1000 0.244141 per_variant_size: 0 252 299 245 204 0 0 0 0 
Heartbeat_Variant_3 : 0 0 per_variant_size: 0 0 0 0 0 0 0 0 0 
Heartbeat_Variant_0_evicts 0 : 18671 1 : 7307 2 : 6988 3 : 0 
Heartbeat_Variant_1_evicts 0 : 7192 1 : 0 2 : 4350 3 : 0 
Heartbeat_Variant_2_evicts 0 : 7097 1 : 4237 2 : 0 3 : 0 
Heartbeat_Variant_3_evicts 0 : 0 1 : 0 2 : 0 3 : 0 
Heartbeat CPU 0 instructions: 70000001 cycles: 31826160 heartbeat IPC: 1.10873 cumulative IPC: 1.12064 (Simulation time: 0 hr 13 min 58 sec) 
Cycle: 40000000 FTQ IN: 11290540 FTQ occupancy: 6.4862 DECODE IN: 11290544 DECODE occupancy: 13.7029 ROB IN: 11290557 ROB occupancy: 116.323 ROB OUT: 11290394
Heartbeat_Variant_0 : 1166 0.284668 per_variant_size: 0 1166 0 0 0 0 0 0 0 
Heartbeat_Variant_1 : 1154 0.281738 per_variant_size: 0 494 660 0 0 0 0 0 0 
Heartbeat_Variant_2 : 1003 0.244873 per_variant_size: 0 259 296 250 198 0 0 0 0 
Heartbeat_Variant_3 : 0 0 per_variant_size: 0 0 0 0 0 0 0 0 0 
Heartbeat_Variant_0_evicts 0 : 18660 1 : 7486 2 : 7010 3 : 0 
Heartbeat_Variant_1_evicts 0 : 7335 1 : 0 2 : 4317 3 : 0 
Heartbeat_Variant_2_evicts 0 : 7169 1 : 4161 2 : 0 3 : 0 
Heartbeat_Variant_3_evicts 0 : 0 1 : 0 2 : 0 3 : 0 
Heartbeat CPU 0 instructions: 80000001 cycles: 40681952 heartbeat IPC: 1.1292 cumulative IPC: 1.12348 (Simulation time: 0 hr 15 min 40 sec) 
Heartbeat_Variant_0 : 1187 0.289795 per_variant_size: 0 1187 0 0 0 0 0 0 0 
Heartbeat_Variant_1 : 1137 0.277588 per_variant_size: 0 492 645 0 0 0 0 0 0 
Heartbeat_Variant_2 : 999 0.243896 per_variant_size: 0 259 292 255 193 0 0 0 0 
Heartbeat_Variant_3 : 0 0 per_variant_size: 0 0 0 0 0 0 0 0 0 
Heartbeat_Variant_0_evicts 0 : 18481 1 : 7396 2 : 6917 3 : 0 
Heartbeat_Variant_1_evicts 0 : 7261 1 : 0 2 : 4243 3 : 0 
Heartbeat_Variant_2_evicts 0 : 7031 1 : 4125 2 : 0 3 : 0 
Heartbeat_Variant_3_evicts 0 : 0 1 : 0 2 : 0 3 : 0 
Heartbeat CPU 0 instructions: 90000001 cycles: 49692152 heartbeat IPC: 1.10985 cumulative IPC: 1.12004 (Simulation time: 0 hr 17 min 31 sec) 
Cycle: 50000000 FTQ IN: 11104831 FTQ occupancy: 6.64432 DECODE IN: 11104831 DECODE occupancy: 13.9394 ROB IN: 11104790 ROB occupancy: 118.116 ROB OUT: 11104943
Heartbeat_Variant_0 : 1170 0.285645 per_variant_size: 0 1170 0 0 0 0 0 0 0 
Heartbeat_Variant_1 : 1149 0.280518 per_variant_size: 0 498 651 0 0 0 0 0 0 
Heartbeat_Variant_2 : 1004 0.245117 per_variant_size: 0 259 294 252 199 0 0 0 0 
Heartbeat_Variant_3 : 0 0 per_variant_size: 0 0 0 0 0 0 0 0 0 
Heartbeat_Variant_0_evicts 0 : 18418 1 : 7124 2 : 6905 3 : 0 
Heartbeat_Variant_1_evicts 0 : 7102 1 : 0 2 : 4146 3 : 0 
Heartbeat_Variant_2_evicts 0 : 6944 1 : 4112 2 : 0 3 : 0 
Heartbeat_Variant_3_evicts 0 : 0 1 : 0 2 : 0 3 : 0 
Heartbeat CPU 0 instructions: 100000002 cycles: 58485970 heartbeat IPC: 1.13716 cumulative IPC: 1.12342 (Simulation time: 0 hr 19 min 6 sec) 
Finished CPU 0 instructions: 50000001 cycles: 44506833 cumulative IPC: 1.12342 (Simulation time: 0 hr 19 min 6 sec) 

ChampSim completed all CPUs

Region of Interest Statistics

CPU 0 cumulative IPC: 1.12342 instructions: 50000001 cycles: 44506833
 Fetch stage stalled: 71.1474  Sim cycles: 44506833 fetch stall cycle: 31665440
 Empty decode stage: 64.0664  Sim cycles: 44506833 fetch stall cycle: 28513931
ITLB TOTAL     ACCESS:    5772554  HIT:    5274947  MISS:     497607  HIT %:    91.3798  MISS %:    8.62022   MPKI: 9.95214
ITLB LOAD TRANSLATION INSTRUCTION	ACCESS:    5667825  HIT:    5170218  MISS:     497607  HIT %:    91.2205  MISS %:    8.77951  MPKI: 9.95214
ITLB TRANSLATION FROM L1D PREFETCHER INSTRUCTION	ACCESS:     104729  HIT:     104729  MISS:          0  HIT %:        100  MISS %:          0  MPKI: 0

ITLB AVERAGE MISS LATENCY: 9.03183 cycles
ITLB RQ	ACCESS:    7595874	FORWARD:          0	MERGED:    1387637	TO_CACHE:    6208237

DTLB TOTAL     ACCESS:    9351978  HIT:    8877382  MISS:     474596  HIT %:    94.9252  MISS %:    5.07482   MPKI: 9.49192
DTLB LOAD TRANSLATION DATA	ACCESS:    9351978  HIT:    8877382  MISS:     474596  HIT %:    94.9252  MISS %:    5.07482  MPKI: 9.49192

DTLB AVERAGE MISS LATENCY: 9.2881 cycles
DTLB RQ	ACCESS:   13631824	FORWARD:          0	MERGED:    4246842	TO_CACHE:    9384982

STLB TOTAL     ACCESS:    1218669  HIT:    1216851  MISS:       1818  HIT %:    99.8508  MISS %:   0.149179   MPKI: 0.03636
STLB LOAD TRANSLATION INSTRUCTION	ACCESS:     497607  HIT:     497407  MISS:        200  HIT %:    99.9598  MISS %:  0.0401924  MPKI: 0.004
STLB LOAD TRANSLATION DATA	ACCESS:     474308  HIT:     472718  MISS:       1590  HIT %:    99.6648  MISS %:   0.335225  MPKI: 0.0318
STLB TRANSLATION FROM L1D PREFETCHER DATA	ACCESS:     246754  HIT:     246726  MISS:         28  HIT %:    99.9887  MISS %:  0.0113473  MPKI: 0.00056

STLB AVERAGE MISS LATENCY: 70.2651 cycles
STLB RQ	ACCESS:    1337035	FORWARD:          0	MERGED:     118322	TO_CACHE:    1218713

STLB Hit, L1D data hit: 0
STLB Hit, L2C data hit: 0
STLB Hit, LLC data hit: 0
STLB Hit, LLC data miss: 0
STLB STLB hints to L2: 0
L1D TOTAL     ACCESS:   13392586  HIT:   12269041  MISS:    1123545  HIT %:    91.6107  MISS %:    8.38931   MPKI: 22.4709
L1D LOAD DATA	ACCESS:    6817775  HIT:    6074369  MISS:     743406  HIT %:    89.0961  MISS %:    10.9039  MPKI: 14.8681
L1D RFO DATA	ACCESS:    6251579  HIT:    5964893  MISS:     286686  HIT %:    95.4142  MISS %:    4.58582  MPKI: 5.73372
L1D PREFETCH DATA	ACCESS:     323232  HIT:     229779  MISS:      93453  HIT %:    71.0879  MISS %:    28.9121  MPKI: 1.86906

L1D PREFETCH  REQUESTED:     729988  ISSUED:     729988  USEFUL:      33951  USELESS:      67409
L1D USEFUL LOAD PREFETCHES:      33951 PREFETCH ISSUED TO LOWER LEVEL:     101410  ACCURACY: 33.4789
 TIMELY PREFETCHES:      33951 LATE PREFETCHES: 7889 DROPPED PREFETCHES: 9
L1D AVERAGE MISS LATENCY: 254642 cycles
L1D RQ	ACCESS:   10887648	FORWARD:          0	MERGED:    3874776	TO_CACHE:    6849135
L1D WQ	ACCESS:    6956185	FORWARD:     164061	MERGED:     173496	TO_CACHE:    6782689
L1D PQ	ACCESS:     365156	FORWARD:          0	MERGED:          0	TO_CACHE:     364832

L1D UNIQUE REGIONS ACCESSED: 0
L1D REGIONS CONFLICTS: 0
L1D Cross Page Prefetch Requests: 6997
L1D Same Page Prefetch Requests: 742535
L1D ROI Sum of L1D PQ occupancy: 4624565
L1D PREFETCHES PUSHED FROM L2C: 0
L1I TOTAL     ACCESS:    7082161  HIT:    4301976  MISS:    2780185  HIT %:    60.7438  MISS %:    39.2562   MPKI: 55.6037
L1I LOAD INSTRUCTION	ACCESS:    6579678  HIT:    3799493  MISS:    2780185  HIT %:    57.7459  MISS %:    42.2541  MPKI: 55.6037
L1I PREFETCH INSTRUCTION	ACCESS:     502483  HIT:     502483  MISS:          0  HIT %:        100  MISS %:          0  MPKI: 0

L1I PREFETCH  REQUESTED:    1084413  ISSUED:    1084413  USEFUL:          0  USELESS:          0
L1I USEFUL LOAD PREFETCHES:          0 PREFETCH ISSUED TO LOWER LEVEL:          0  ACCURACY: -nan
 TIMELY PREFETCHES:          0 LATE PREFETCHES: 0 DROPPED PREFETCHES: 0
L1I AVERAGE MISS LATENCY: 17.0694 cycles
L1I RQ	ACCESS:    9454158	FORWARD:          0	MERGED:    2633520	TO_CACHE:    6820638
L1I PQ	ACCESS:    1084413	FORWARD:          0	MERGED:     309177	TO_CACHE:     775236

L1BTB TOTAL     ACCESS:    5670732  HIT:    2023651  MISS:    3647081  HIT %:    35.6859  MISS %:    64.3141   MPKI: 72.9416
L1BTB BRANCH_DIRECT_JUMP	ACCESS:     547751  HIT:     142931  MISS:     404820	AVERAGE STALL: 36.1116
L1BTB BRANCH_INDIRECT	ACCESS:     182288  HIT:      65405  MISS:     116883	AVERAGE STALL: 81.8014
L1BTB BRANCH_CONDITIONAL	ACCESS:    2697376  HIT:    1398869  MISS:    1298507	AVERAGE STALL: 36.238
L1BTB BRANCH_DIRECT_CALL	ACCESS:     949111  HIT:     105112  MISS:     843999	AVERAGE STALL: 35.9625
L1BTB BRANCH_INDIRECT_CALL	ACCESS:     172546  HIT:      21330  MISS:     151216	AVERAGE STALL: 105.625
L1BTB BRANCH_RETURN	ACCESS:    1121660  HIT:     290004  MISS:     831656	AVERAGE STALL: 36.4158
L1BTB BRANCH_OTHER ACCESS:          0  HIT:          0  MISS:          0	AVERAGE STALL: -nan
L1BTB TOTAL ROB OCCUPANCY AT BTB MISS: 12.6253

L2BTB TOTAL     ACCESS:    3621806  HIT:    3159506  MISS:     462300  HIT %:    87.2356  MISS %:    12.7644   MPKI: 9.246
L2BTB BRANCH_DIRECT_JUMP	ACCESS:     400747  HIT:     357027  MISS:      43720	AVERAGE STALL: 36.1116
L2BTB BRANCH_INDIRECT	ACCESS:     106560  HIT:      99135  MISS:       7425	AVERAGE STALL: 81.8014
L2BTB BRANCH_CONDITIONAL	ACCESS:    1298507  HIT:    1150157  MISS:     148350	AVERAGE STALL: 36.238
L2BTB BRANCH_DIRECT_CALL	ACCESS:     843999  HIT:     704930  MISS:     139069	AVERAGE STALL: 35.9625
L2BTB BRANCH_INDIRECT_CALL	ACCESS:     141757  HIT:     113441  MISS:      28316	AVERAGE STALL: 105.625
L2BTB BRANCH_RETURN	ACCESS:     830236  HIT:     734816  MISS:      95420	AVERAGE STALL: 36.4158
L2BTB BRANCH_OTHER ACCESS:          0  HIT:          0  MISS:          0	AVERAGE STALL: -nan
L2BTB TOTAL ROB OCCUPANCY AT BTB MISS: 99.6013

L2C TOTAL     ACCESS:    4509476  HIT:    4047347  MISS:     462129  HIT %:     89.752  MISS %:     10.248   MPKI: 9.24258
L2C LOAD INSTRUCTION	ACCESS:    2780185  HIT:    2528157  MISS:     252028  HIT %:    90.9348  MISS %:    9.06515  MPKI: 5.04056
L2C LOAD TRANSLATION INSTRUCTION	ACCESS:        225  HIT:         55  MISS:        170  HIT %:    24.4444  MISS %:    75.5556  MPKI: 0.0034
L2C LOAD DATA	ACCESS:     735489  HIT:     664307  MISS:      71182  HIT %:    90.3218  MISS %:    9.67819  MPKI: 1.42364
L2C RFO DATA	ACCESS:     286592  HIT:     235198  MISS:      51394  HIT %:    82.0672  MISS %:    17.9328  MPKI: 1.02788
L2C PREFETCH DATA	ACCESS:     180627  HIT:     109904  MISS:      70723  HIT %:    60.8458  MISS %:    39.1542  MPKI: 1.41446
L2C WRITEBACK DATA	ACCESS:     524679  HIT:     509235  MISS:      15444  HIT %:    97.0565  MISS %:    2.94351  MPKI: 0.30888
L2C LOAD TRANSLATION DATA	ACCESS:       1626  HIT:        458  MISS:       1168  HIT %:    28.1673  MISS %:    71.8327  MPKI: 0.02336
L2C TRANSLATION FROM L1D PREFETCHER DATA	ACCESS:         53  HIT:         33  MISS:         20  HIT %:    62.2642  MISS %:    37.7358  MPKI: 0.0004

L2C PREFETCH  REQUESTED:      86522  ISSUED:      86522  USEFUL:       8416  USELESS:      62808
L2C USEFUL LOAD PREFETCHES:       8416 PREFETCH ISSUED TO LOWER LEVEL:      71182  ACCURACY: 11.8232
 TIMELY PREFETCHES:       8416 LATE PREFETCHES: 458 DROPPED PREFETCHES: 0
L2C AVERAGE MISS LATENCY: 38.1122 cycles
L2C RQ	ACCESS:    3804226	FORWARD:          0	MERGED:          0	TO_CACHE:    3804172
L2C WQ	ACCESS:     524679	FORWARD:         54	MERGED:          0	TO_CACHE:     524679
L2C PQ	ACCESS:     187932	FORWARD:          0	MERGED:       3707	TO_CACHE:     184225

L2C Dense regions hint from L2: 0
PSCL5 TOTAL     ACCESS:       3660  HIT:       1830  MISS:       1830  HIT %:         50  MISS %:         50   MPKI: 0.0366
PSCL5 LOAD TRANSLATION INSTRUCTION	ACCESS:       3554  HIT:       1777  MISS:       1777  HIT %:         50  MISS %:         50  MPKI: 0.03554
PSCL5 TRANSLATION FROM L1D PREFETCHER INSTRUCTION	ACCESS:        106  HIT:         53  MISS:         53  HIT %:         50  MISS %:         50  MPKI: 0.00106


PSCL4 TOTAL     ACCESS:       3578  HIT:       1787  MISS:       1791  HIT %:    49.9441  MISS %:    50.0559   MPKI: 0.03582
PSCL4 LOAD TRANSLATION INSTRUCTION	ACCESS:       1855  HIT:       1740  MISS:        115  HIT %:    93.8005  MISS %:    6.19946  MPKI: 0.0023
PSCL4 TRANSLATION FROM L1D PREFETCHER INSTRUCTION	ACCESS:         47  HIT:         47  MISS:          0  HIT %:        100  MISS %:          0  MPKI: 0
PSCL4 LOAD TRANSLATION DATA	ACCESS:       1629  HIT:          0  MISS:       1629  HIT %:          0  MISS %:        100  MPKI: 0.03258
PSCL4 TRANSLATION FROM L1D PREFETCHER DATA	ACCESS:         47  HIT:          0  MISS:         47  HIT %:          0  MISS %:        100  MPKI: 0.00094


PSCL3 TOTAL     ACCESS:       3594  HIT:       1795  MISS:       1799  HIT %:    49.9444  MISS %:    50.0556   MPKI: 0.03598
PSCL3 LOAD TRANSLATION INSTRUCTION	ACCESS:       1863  HIT:       1748  MISS:        115  HIT %:    93.8272  MISS %:    6.17284  MPKI: 0.0023
PSCL3 TRANSLATION FROM L1D PREFETCHER INSTRUCTION	ACCESS:         47  HIT:         47  MISS:          0  HIT %:        100  MISS %:          0  MPKI: 0
PSCL3 LOAD TRANSLATION DATA	ACCESS:       1637  HIT:          0  MISS:       1637  HIT %:          0  MISS %:        100  MPKI: 0.03274
PSCL3 TRANSLATION FROM L1D PREFETCHER DATA	ACCESS:         47  HIT:          0  MISS:         47  HIT %:          0  MISS %:        100  MPKI: 0.00094


PSCL2 TOTAL     ACCESS:       3594  HIT:       1764  MISS:       1830  HIT %:    49.0818  MISS %:    50.9182   MPKI: 0.0366
PSCL2 LOAD TRANSLATION INSTRUCTION	ACCESS:       1910  HIT:       1711  MISS:        199  HIT %:    89.5812  MISS %:    10.4188  MPKI: 0.00398
PSCL2 TRANSLATION FROM L1D PREFETCHER INSTRUCTION	ACCESS:         53  HIT:         53  MISS:          0  HIT %:        100  MISS %:          0  MPKI: 0
PSCL2 LOAD TRANSLATION DATA	ACCESS:       1578  HIT:          0  MISS:       1578  HIT %:          0  MISS %:        100  MPKI: 0.03156
PSCL2 TRANSLATION FROM L1D PREFETCHER DATA	ACCESS:         53  HIT:          0  MISS:         53  HIT %:          0  MISS %:        100  MPKI: 0.00106


LLC TOTAL     ACCESS:     518272  HIT:     491339  MISS:      26933  HIT %:    94.8033  MISS %:    5.19669   MPKI: 0.53866
LLC LOAD INSTRUCTION	ACCESS:     252028  HIT:     251318  MISS:        710  HIT %:    99.7183  MISS %:   0.281715  MPKI: 0.0142
LLC LOAD TRANSLATION INSTRUCTION	ACCESS:        170  HIT:        150  MISS:         20  HIT %:    88.2353  MISS %:    11.7647  MPKI: 0.0004
LLC LOAD DATA	ACCESS:      70748  HIT:      67439  MISS:       3309  HIT %:    95.3228  MISS %:    4.67716  MPKI: 0.06618
LLC RFO DATA	ACCESS:      51363  HIT:      38542  MISS:      12821  HIT %:    75.0385  MISS %:    24.9615  MPKI: 0.25642
LLC PREFETCH DATA	ACCESS:      71182  HIT:      61533  MISS:       9649  HIT %:    86.4446  MISS %:    13.5554  MPKI: 0.19298
LLC WRITEBACK DATA	ACCESS:      71593  HIT:      71240  MISS:        353  HIT %:    99.5069  MISS %:   0.493065  MPKI: 0.00706
LLC LOAD TRANSLATION DATA	ACCESS:       1168  HIT:       1098  MISS:         70  HIT %:    94.0068  MISS %:    5.99315  MPKI: 0.0014
LLC TRANSLATION FROM L1D PREFETCHER DATA	ACCESS:         20  HIT:         19  MISS:          1  HIT %:         95  MISS %:          5  MPKI: 2e-05

LLC AVERAGE MISS LATENCY: 154.902 cycles
LLC RQ	ACCESS:     375505	FORWARD:          0	MERGED:          0	TO_CACHE:     375498
LLC WQ	ACCESS:      71593	FORWARD:          7	MERGED:          0	TO_CACHE:      71593
LLC PQ	ACCESS:      71182	FORWARD:          0	MERGED:          0	TO_CACHE:      71182

LLC Dense regions hint to LLC: 0

RAW hits: 1744902
Loads Generated: 12632550
Loads sent to L1D: 10887648
Stores Generated: 6956176
Stores sent to L1D: 6956185
Major fault: 0 Minor fault: 2481
Allocated PAGES: 2481

stream: 
stream:times selected: 1177297
stream:pref_filled: 120808
stream:pref_useful: 24152
stream:pref_late: 6964
stream:misses: 7847
stream:misses_by_poll: 0

CS: 
CS:times selected: 175582
CS:pref_filled: 58609
CS:pref_useful: 35543
CS:pref_late: 6837
CS:misses: 15536
CS:misses_by_poll: 1

CPLX: 
CPLX:times selected: 1000625
CPLX:pref_filled: 19063
CPLX:pref_useful: 4487
CPLX:pref_late: 3128
CPLX:misses: 94448
CPLX:misses_by_poll: 0

NL_L1: 
NL:times selected: 20876
NL:pref_filled: 706
NL:pref_useful: 330
NL:pref_late: 301
NL:misses: 1781
NL:misses_by_poll: 0

total selections: 2374380
total_filled: 93453
total_useful: 33951
total_late: 18568
total_polluted: 1
total_misses_after_warmup: 774768
conflicts: 5652500

test: 115593

DRAM Statistics
 CHANNEL 0
 RQ ROW_BUFFER_HIT:       9719  ROW_BUFFER_MISS:      16860
 DBUS_CONGESTED:         10
 WQ ROW_BUFFER_HIT:       1211  ROW_BUFFER_MISS:      11777  FULL:          0

 AVG_CONGESTED_CYCLE: 6

CPU 0 Branch Prediction Accuracy: 99.8257% MPKI: 0.31912 Average ROB Occupancy at Mispredict: 133.905
Branch types
NOT_BRANCH: 40846873 81.6937%
BRANCH_DIRECT_JUMP: 547751 1.0955%
BRANCH_INDIRECT: 182288 0.364576%
BRANCH_CONDITIONAL: 6179443 12.3589%
BRANCH_DIRECT_CALL: 949111 1.89822%
BRANCH_INDIRECT_CALL: 172546 0.345092%
BRANCH_RETURN: 1121660 2.24332%
BRANCH_OTHER: 0 0%

DRAM PAGES: 1048576
Allocated PAGES: 2481
Average_ROB_Occupancy: 118.814
Average_Decode_Occupancy: 13.8462
Average_FTQ_Occupancy: 6.56539
Indirect max targets: 14 Average targets: 1.14576
Branch_type:  BRANCH_DIRECT_JUMP:  Count Percentage: 3.28165 5.97631 3.65442 7.17978 2.92367 6.32151 1.29156 69.3711 
Branch_type:  BRANCH_INDIRECT:  Count Percentage: 6.12122 0.788748 8.14555 9.6825 3.34841 2.8139 0.937785 68.1619 
Branch_type:  BRANCH_CONDITIONAL:  Count Percentage: 20.8927 3.48023 1.53093 7.18912 3.07247 3.54878 0.573501 59.7123 
Branch_type:  BRANCH_DIRECT_CALL:  Count Percentage: 0.901909 1.28065 0.724844 3.62232 2.78686 2.60827 0.885745 87.1894 
Branch_type:  BRANCH_INDIRECT_CALL:  Count Percentage: 9.54037 0 2.99243 0 0.000290245 1.70984 0.99351 84.7636 
Branch_type:  BRANCH_RETURN:  Count Percentage: 4.74589 4.79182 1.02068 4.82809 4.10445 3.40967 0.580772 76.5186 
Branch_type:  BRANCH_DIRECT_JUMP:  Total Count: 35953 65475 40037 78660 32031 69257 14150 760013 
Branch_type:  BRANCH_INDIRECT:  Total Count: 22343 2879 29732 35342 12222 10271 3423 248797 
Branch_type:  BRANCH_CONDITIONAL:  Total Count: 2581475 430012 189160 888278 379630 438482 70861 7377963 
Branch_type:  BRANCH_DIRECT_CALL:  Total Count: 17074 24244 13722 68574 52758 49377 16768 1650579 
Branch_type:  BRANCH_INDIRECT_CALL:  Total Count: 32870 0 10310 0 1 5891 3423 292041 
Branch_type:  BRANCH_RETURN:  Total Count: 106232 107260 22847 108072 91874 76322 13000 1712792 
Number of unique branch instructions: 9763
Upper 32 bits: 
aaaa
ffff
ffff0000
Unique upper 32 bits: 3
Unique upper 36 bits: 3
Unique upper 40 bits: 5
Unique upper 44 bits: 32
Unique upper 48 bits: 154
Variant_0 : 1170 0.285645
Variant_1 : 1149 0.280518
Variant_2 : 1004 0.245117
Variant_3 : 0 0
Offset_3 4036
Offset_4 241
Offset_5 442
Offset_6 503
Offset_7 572
Offset_8 499
Offset_9 459
Offset_10 377
Offset_11 303
Offset_12 265
Offset_13 201
Offset_14 223
Offset_15 190
Offset_16 218
Offset_17 145
Offset_18 120
Offset_19 235
Offset_20 135
Offset_21 235
Offset_22 391
Offset_23 241
Offset_24 325
Offset_25 88
Offset_47 80
decode_dispatch_called: 20475619 46.0056
Dispatch_width: 0 10423753 50.9081 23.4206
Dispatch_width: 1 560638 2.73808 1.25967
Dispatch_width: 2 668130 3.26305 1.50119
Dispatch_width: 3 466029 2.27602 1.0471
Dispatch_width: 4 1537879 7.51078 3.45538
Dispatch_width: 5 361816 1.76706 0.812945
Dispatch_width: 6 6457374 31.5369 14.5087
Empty_decode_cycles: 24031214 53.9944
ROB_full_cycles: 2091730 4.6998
Starvation_cycles_per_kilo_instr: 359.577
Starvation_cycles_per_kilo_instr_3: 340.58
Starvation_cycles_per_kilo_instr_0: 323.632
Branch_type_1  (3,1)  (4,7)  (5,36)  (6,71)  (7,115)  (8,125)  (9,124)  (10,98)  (11,67)  (12,43)  (13,8)  (14,2)  (15,3)  (16,4)  (18,1)  (19,4)  (20,2)  (21,1)  (22,3)  (23,2)  (24,10)  (25,12) 
Branch_type_2  (3,1)  (5,1)  (8,3)  (9,3)  (12,1)  (13,1)  (14,1)  (16,3)  (17,2)  (20,2)  (21,2)  (23,5)  (24,1)  (47,36) 
Branch_type_3  (3,4034)  (4,234)  (5,401)  (6,417)  (7,428)  (8,312)  (9,251)  (10,154)  (11,122)  (12,50)  (13,7) 
Branch_type_4  (6,3)  (7,8)  (8,24)  (9,50)  (10,59)  (11,58)  (12,93)  (13,84)  (14,98)  (15,90)  (16,98)  (17,63)  (18,54)  (19,115)  (20,71)  (21,124)  (22,207)  (23,136)  (24,186)  (25,72) 
Branch_type_5  (8,2)  (9,1)  (10,3)  (11,5)  (12,3)  (13,14)  (14,16)  (15,11)  (16,20)  (17,13)  (18,16)  (19,12)  (20,10)  (21,13)  (22,42)  (23,26)  (24,36) 
Branch_type_6  (5,4)  (6,12)  (7,21)  (8,33)  (9,30)  (10,63)  (11,51)  (12,75)  (13,87)  (14,106)  (15,86)  (16,93)  (17,67)  (18,49)  (19,104)  (20,50)  (21,95)  (22,139)  (23,72)  (24,92)  (25,4)  (47,44) 
Unique trigger count: 
Variant_0_evicts_0 : 0
Variant_0_evicts_1 : 0
Variant_0_evicts_2 : 0
Variant_0_evicts_3 : 0
Variant_1_evicts_0 : 0
Variant_1_evicts_1 : 0
Variant_1_evicts_2 : 0
Variant_1_evicts_3 : 0
Variant_2_evicts_0 : 0
Variant_2_evicts_1 : 0
Variant_2_evicts_2 : 0
Variant_2_evicts_3 : 0
Variant_3_evicts_0 : 0
Variant_3_evicts_1 : 0
Variant_3_evicts_2 : 0
Variant_3_evicts_3 : 0
BTB PER SET UNIQUE ADDR: 4 7 6 4 3 3 6 9 10 2 5 2 8 5 3 4 6 4 7 8 3 8 6 8 8 11 2 7 6 6 9 9 6 3 6 4 4 6 6 3 7 5 5 9 9 6 5 11 11 6 5 3 12 2 2 7 5 5 8 8 4 10 4 7 5 9 7 7 5 6 6 2 6 4 6 7 6 13 5 4 8 6 7 6 6 8 7 8 8 10 10 8 9 6 6 4 10 7 4 5 7 5 9 9 5 7 7 8 7 5 6 4 4 8 5 11 3 7 6 2 7 8 4 2 6 4 4 6 10 5 10 3 9 4 8 5 5 2 6 8 7 7 6 6 3 10 4 8 9 6 6 11 6 10 4 8 6 8 6 10 9 6 9 5 9 5 3 4 12 4 5 3 7 6 3 2 5 4 9 4 6 5 9 6 6 10 5 6 6 8 5 8 6 6 6 10 9 3 10 5 4 6 8 3 8 4 5 7 6 2 3 6 9 9 6 6 4 9 7 6 6 2 6 6 6 8 12 7 2 9 13 8 4 2 6 8 9 5 3 4 4 3 9 7 14 9 1 5 5 5 8 10 6 6 5 11 4 6 9 5 8 5 7 4 9 14 5 4 7 5 7 6 4 8 8 7 5 3 3 8 7 4 9 5 9 8 6 7 7 4 5 7 4 10 6 3 5 10 5 6 6 6 4 4 6 4 6 4 10 9 5 3 8 3 6 4 8 13 6 2 6 9 5 7 5 5 5 9 3 0 7 2 5 6 9 4 5 6 7 1 5 6 2 8 6 6 3 5 8 4 4 9 8 6 8 6 7 2 7 5 6 10 6 8 10 8 4 3 4 4 8 4 6 5 7 4 11 6 5 8 9 7 6 12 6 4 8 5 5 3 9 5 8 4 7 3 5 5 2 8 5 4 6 5 5 6 7 4 4 3 4 3 9 4 2 5 9 4 2 6 2 5 5 7 9 6 3 2 4 7 3 4 14 5 8 10 6 6 6 3 3 6 8 3 6 8 4 6 5 3 6 3 5 1 9 3 4 6 10 5 5 4 6 10 5 5 11 3 5 6 2 6 8 7 4 3 9 5 2 3 5 2 3 4 3 7 8 3 6 2 10 5 4 8 2 12 4 7 4 4 11 3 3 3 3 5 5 3 3 6 8 4 5 9 3 3 2 10 5 8 6 4 7 4 11 8 4 7 9 7 4 6 4 7 4 6 3 1 6 4 4 8 9 3 8 5 9 12 12 11 5 8 8 6 2 6 8 3 5 3 10 4 8 4 5 5 9 7 9 7 7 3 9 11 6 7 6 10 3 9 12 5 1 6 4 3 3 13 6 5 7 7 2 5 4 5 6 6 5 5 9 6 9 10 8 5 5 8 5 5 8 6 6 5 7 4 7 5 5 7 7 7 9 3 5 10 7 8 4 6 8 7 7 6 6 4 5 4 5 3 10 8 4 6 2 3 6 6 8 7 8 4 11 3 5 2 9 5 6 8 12 3 6 11 7 7 7 6 5 9 7 6 6 7 12 8 7 6 8 5 7 10 8 5 9 8 6 8 7 6 3 7 2 4 4 6 10 7 7 7 3 10 4 6 7 10 3 4 5 5 7 6 6 5 5 7 9 6 1 8 4 3 5 3 4 1 3 9 2 11 7 9 6 2 6 7 7 3 7 5 4 9 5 10 4 3 5 3 5 6 7 3 4 6 2 5 4 10 10 4 4 7 6 7 7 6 14 5 5 4 7 6 0 5 7 4 5 10 3 3 7 5 4 6 10 9 9 6 2 8 3 9 5 6 6 11 11 4 5 4 12 4 9 3 7 6 7 7 5 6 3 4 6 3 4 6 1 5 4 10 6 4 9 4 5 3 5 3 6 6 7 3 7 4 10 5 4 4 6 3 5 3 5 5 4 8 8 5 6 4 8 7 6 8 5 9 7 4 7 6 6 7 4 4 12 5 5 8 9 8 5 6 6 9 7 2 2 6 8 4 3 5 6 5 9 5 7 4 4 7 8 3 4 7 5 3 8 9 3 3 12 7 4 5 8 6 5 10 6 7 9 6 4 3 2 7 4 3 7 6 8 5 8 5 8 8 5 4 5 10 5 4 10 9 5 8 10 10 2 8 7 8 4 4 6 7 9 6 7 3 9 1 13 7 3 5 9 12 6 9 5 6 10 5 3 9 10 8 8 4 2 5 2 8 10 5 7 5 4 7 11 6 5 5 5 7 4 3 8 6 8 7 6 11 4 10 6 11 5 6 3 4 5 4 6 6 7 4 6 5 8 4 8 5 10 4 9 4 3 7 10 6 12 5 
BTB PER SET COUNT: 4 1446 9 4 3 3 6 1936 7398 3 5 1985 1449 8 3 5 1208 5 31 3399 4 8 8 1040 5896 1456 2 9 1478 6 4872 380 2812 4 6 6 2948 6 9 3 22 5 7 2195 5413 6 5 5303 2848 6 5 4 12383 2 2 1446 7 5 8 117 4 2986 4 7 5 619 2050 25 5 6 1197 2 10 4 966 11 487 7276 978 4 1079 1445 1455 736 842 9 10 17 3846 1872 1461 529 1933 7 7 6 971 8 4 5 7 5 13 1643 5 7 1446 3350 2404 5 1925 6 6 9 9 7037 3 9 6 2 7 25 4 2 1748 5 4 21 4448 1926 1467 3 3494 6 3384 5 5 2 6 10 7 20 7 6 3 1931 4 8 14 2404 7 5890 9 9316 4 13 8 1931 965 973 4904 8 1963 1024 27 2981 3 4 5011 963 5 3 12 172 3 2 6 486 1995 4 6 5 973 6 8 8871 5 6 2979 9 7 15 6 1924 1444 25 1998 3 29 5 5 18 11 3 13 4 5 2924 6 2 4 8 282 4903 6 6 4 12 40 6 6 2 6 6 6 13 6431 2032 2 2954 8263 8 4 2 17 3968 3370 5 3 4 4 3 5862 7 4636 9 1 5 5 5 9 3118 10 6 6 4293 4 6 1450 5 2365 5 7 7 2679 8623 998 6 2408 5 1925 14 4 8 9 739 5 3 4 2409 7 962 11 5 3682 1446 6 981 9 4 5 3459 963 3857 2882 965 8 4027 5 6 6 6 4 4 6 4 6 4 4640 12 5 3 980 3 6 8 12 2902 1461 2 7 16 5 7 29 6 5 333 5 0 3639 2 5 6 1993 4 2403 11 7 1 5 8 2 2786 966 1078 3 6 515 5 4 1051 8 1986 10 11 9 3 5205 48 8 989 19 2902 2386 10 4 3 7 6 15 7 8 9 56 4 7790 6 7 847 3369 2884 7 8197 8 4 37 5 6 3 2419 7 3844 6 1449 5 1478 5 2 11 7 4 1445 5 731 7 2951 4 4 2350 4 3 2451 4 993 5 224 4 2 1498 2 964 5 24 21 7 5 2 4 18 143 4 5554 6 1760 24 8 6 1926 3 3 9 11 3 11 982 4 997 5 3 8 3 6 1 243 3 4 6 827 5 966 4 17 25 23 5 3427 3 6 6 2 19 4719 1451 303 3 25240 5 2 3 7 2 3 484 4 11 1466 367 10 2 19 5 4 12 2 7457 4 8 4 4 34 14 3 3 3 5 5 3 3 12 21 4 5 59 4 3 2 9891 5 972 6 1477 10 466 30 1927 4 7 20 10 4 6 4 11 4 968 3 1 12 4 7 1446 59 6 1989 5 15 47 2915 8255 8 996 12 6 2 10 1747 3 5 3 8046 1986 2407 4 5 6 38 11 9 970 1031 5 1450 4829 1445 2412 6 3848 3 4967 9299 364 1 966 1476 3 3 7215 9 7 11 11 2 1986 995 5 6 7 7 6 17 8 7157 749 2956 2885 5 1447 5 5 3844 10 8 5 10 6 1993 9 5 7 7 1889 1828 4 1477 23 8 2414 9 2678 490 1479 7 9 6 11 5 4 5 3 7862 19 4 7 2 3 6 6 905 7 13 4 10309 3 7 2 15 5 1448 3843 7802 3 13 7245 9 1447 2974 966 21 53 1986 6 8 968 6247 3422 490 9 2413 6 2650 7575 8 968 21102 1457 34 4838 1479 6 3 2209 2 4 4 6 8444 11 16 40 3 2888 5 15 156 2650 4 2468 5 1477 124 6 15 964 966 7 1498 798 1 17 4 4 6 3 1986 1 963 1815 2 9528 1989 1952 1990 2 9 7 3130 3 18 8 8 17 5 10021 4 3 488 3 5 966 10 4 5 889 2 5 4 11 6373 1986 4 8 999 740 3980 6 6168 5 6 4 8 21 0 158 15 1476 6 3295 3 3 2404 18 5 3462 1485 94 15 14 444 972 4 1811 8 6 357 4331 1210 4 5 4 2822 4 419 965 1943 2949 7 11 7 17 3 5 6 513 5 9 2 5 6 4765 11 4 3722 386 1446 3 1986 3 2404 68 1651 3 494 4 7918 970 964 4 6 3 457 3 7 1482 4 14 3757 5 8 5 3366 1659 6 13 7 11800 7 4 10 15 16 10 5 4 7219 996 5 1931 2888 10 5 8 6 36 7 3 2 6 15 4 3 5 10 8 19 5 1447 4 4 1772 8 3 4 1555 5 3 22 3130 3 3 5128 2405 126 57 2761 7 5 3339 6 8 1081 9 6 3 2 8 4 964 3296 2215 14 5 3943 5 32 286 6 4 5 2957 8 484 3453 1544 5 8 3499 1860 3 3367 7 915 4 996 7 7 13 243 7 3 3646 1 8365 8 3 8 1471 11239 10 2886 5 489 8355 8 6 1037 35 14 8 7 2 5 2 3318 5752 5 998 6 4 9 1464 10 485 6 5 17 4 5 8 6 1448 970 6 4331 5 1461 6 5548 8 8 3 5 5 4 7 6 1445 4 10 5 6888 4 7319 369 3148 7 2202 6 3 7 3713 6 4242 9 
To predecode: 0
Predecoding something: 0
Predecode request dropped: 0
sizeofblock_0 0
sizeofblock_1 262546
sizeofblock_2 185571
sizeofblock_3 138580
sizeofblock_4 70808
sizeofblock_5 0
sizeofblock_6 0
sizeofblock_7 0
sizeofblock_8 0
Variant_0 Correct: 0 Incorrect: 0 Accuracy: -nan
Variant_1 Correct: 0 Incorrect: 0 Accuracy: -nan
Variant_2 Correct: 0 Incorrect: 0 Accuracy: -nan
Variant_3 Correct: 0 Incorrect: 0 Accuracy: -nan
