
*** ChampSim Multicore Out-of-Order Simulator ***

Warmup Instructions: 50000000
Simulation Instructions: 50000000
Number of CPUs: 1
LLC sets: 2048
LLC ways: 16
Off-chip DRAM Size: 4096 MB Channels: 1 Width: 64-bit Data Rate: 6400 MT/s
CPU 0 runs ./micro_traces/srv640.trace.gz
.gz
ITLB has LRU replacement policy
DTLB has LRU replacement policy
STLB has LRU replacement policy
FDIP Prefetcher at L1I
L1I has LRU replacement policy
L1D has LRU replacement policy
Initialize SRRIP state for L2C
Initialize DRRIP state for LLC
Heartbeat CPU 0 instructions: 10000000 cycles: 2799106 heartbeat IPC: 3.57257 cumulative IPC: 3.57257 (Simulation time: 0 hr 1 min 38 sec) 
Heartbeat CPU 0 instructions: 20000001 cycles: 5597502 heartbeat IPC: 3.57348 cumulative IPC: 3.57302 (Simulation time: 0 hr 3 min 19 sec) 
Heartbeat CPU 0 instructions: 30000003 cycles: 8395787 heartbeat IPC: 3.57362 cumulative IPC: 3.57322 (Simulation time: 0 hr 4 min 55 sec) 
Heartbeat CPU 0 instructions: 40000001 cycles: 11191497 heartbeat IPC: 3.57691 cumulative IPC: 3.57414 (Simulation time: 0 hr 6 min 33 sec) 
Heartbeat CPU 0 instructions: 50000003 cycles: 13987804 heartbeat IPC: 3.57615 cumulative IPC: 3.57454 (Simulation time: 0 hr 8 min 8 sec) 

Warmup complete CPU 0 instructions: 50000003 cycles: 13987804 (Simulation time: 0 hr 8 min 8 sec) 

Cycle: 20000000 FTQ IN: 56125473 FTQ occupancy: 17.6596 DECODE IN: 56125443 DECODE occupancy: 44.9866 ROB IN: 56125443 ROB occupancy: 270.651 ROB OUT: 56125402
Heartbeat CPU 0 instructions: 60000001 cycles: 23692889 heartbeat IPC: 1.03039 cumulative IPC: 1.03039 (Simulation time: 0 hr 9 min 26 sec) 
Cycle: 30000000 FTQ IN: 10449721 FTQ occupancy: 5.20404 DECODE IN: 10449746 DECODE occupancy: 9.99688 ROB IN: 10449732 ROB occupancy: 89.5126 ROB OUT: 10449707
Heartbeat CPU 0 instructions: 70000000 cycles: 33255143 heartbeat IPC: 1.04578 cumulative IPC: 1.03803 (Simulation time: 0 hr 10 min 43 sec) 
Cycle: 40000000 FTQ IN: 10413257 FTQ occupancy: 5.41786 DECODE IN: 10413217 DECODE occupancy: 10.3964 ROB IN: 10413171 ROB occupancy: 92.6018 ROB OUT: 10413199
Heartbeat CPU 0 instructions: 80000000 cycles: 42879490 heartbeat IPC: 1.03903 cumulative IPC: 1.03836 (Simulation time: 0 hr 11 min 59 sec) 
Cycle: 50000000 FTQ IN: 10515079 FTQ occupancy: 5.20028 DECODE IN: 10515116 DECODE occupancy: 10.0177 ROB IN: 10515175 ROB occupancy: 90.5982 ROB OUT: 10515192
Heartbeat CPU 0 instructions: 90000003 cycles: 52370194 heartbeat IPC: 1.05366 cumulative IPC: 1.04214 (Simulation time: 0 hr 13 min 10 sec) 
Cycle: 60000000 FTQ IN: 10433395 FTQ occupancy: 5.42837 DECODE IN: 10433390 DECODE occupancy: 10.4212 ROB IN: 10433391 ROB occupancy: 92.8972 ROB OUT: 10433347
Heartbeat CPU 0 instructions: 100000002 cycles: 61967095 heartbeat IPC: 1.042 cumulative IPC: 1.04212 (Simulation time: 0 hr 14 min 24 sec) 
Finished CPU 0 instructions: 50000003 cycles: 47979292 cumulative IPC: 1.04212 (Simulation time: 0 hr 14 min 24 sec) 

ChampSim completed all CPUs

Region of Interest Statistics

CPU 0 cumulative IPC: 1.04212 instructions: 50000003 cycles: 47979292
 Fetch stage stalled: 74.4371  Sim cycles: 47979292 fetch stall cycle: 35714397
 Empty decode stage: 80.9709  Sim cycles: 47979292 fetch stall cycle: 38849279
ITLB TOTAL     ACCESS:    6035717  HIT:    5541111  MISS:     494606  HIT %:    91.8053  MISS %:    8.19465   MPKI: 9.89212
ITLB LOAD TRANSLATION INSTRUCTION	ACCESS:    5952688  HIT:    5458082  MISS:     494606  HIT %:     91.691  MISS %:    8.30895  MPKI: 9.89212
ITLB TRANSLATION FROM L1D PREFETCHER INSTRUCTION	ACCESS:      83029  HIT:      83029  MISS:          0  HIT %:        100  MISS %:          0  MPKI: 0

ITLB AVERAGE MISS LATENCY: 9.0692 cycles
ITLB RQ	ACCESS:    7664851	FORWARD:          0	MERGED:    1360369	TO_CACHE:    6304482

DTLB TOTAL     ACCESS:    9629671  HIT:    9155322  MISS:     474349  HIT %:    95.0741  MISS %:    4.92591   MPKI: 9.48698
DTLB LOAD TRANSLATION DATA	ACCESS:    9629671  HIT:    9155322  MISS:     474349  HIT %:    95.0741  MISS %:    4.92591  MPKI: 9.48698

DTLB AVERAGE MISS LATENCY: 9.34767 cycles
DTLB RQ	ACCESS:   13867340	FORWARD:          0	MERGED:    4206216	TO_CACHE:    9661124

STLB TOTAL     ACCESS:    1215832  HIT:    1213550  MISS:       2282  HIT %:    99.8123  MISS %:    0.18769   MPKI: 0.04564
STLB LOAD TRANSLATION INSTRUCTION	ACCESS:     494606  HIT:     494255  MISS:        351  HIT %:     99.929  MISS %:  0.0709656  MPKI: 0.00702
STLB LOAD TRANSLATION DATA	ACCESS:     474138  HIT:     472235  MISS:       1903  HIT %:    99.5986  MISS %:    0.40136  MPKI: 0.03806
STLB TRANSLATION FROM L1D PREFETCHER DATA	ACCESS:     247088  HIT:     247060  MISS:         28  HIT %:    99.9887  MISS %:   0.011332  MPKI: 0.00056

STLB AVERAGE MISS LATENCY: 75.39 cycles
STLB RQ	ACCESS:    1339804	FORWARD:          0	MERGED:     123940	TO_CACHE:    1215864

STLB Hit, L1D data hit: 0
STLB Hit, L2C data hit: 0
STLB Hit, LLC data hit: 0
STLB Hit, LLC data miss: 0
STLB STLB hints to L2: 0
L1D TOTAL     ACCESS:   13627416  HIT:   12511167  MISS:    1116249  HIT %:    91.8088  MISS %:     8.1912   MPKI: 22.325
L1D LOAD DATA	ACCESS:    7043686  HIT:    6309311  MISS:     734375  HIT %:     89.574  MISS %:     10.426  MPKI: 14.6875
L1D RFO DATA	ACCESS:    6252584  HIT:    5965830  MISS:     286754  HIT %:    95.4138  MISS %:    4.58617  MPKI: 5.73508
L1D PREFETCH DATA	ACCESS:     331146  HIT:     236026  MISS:      95120  HIT %:    71.2755  MISS %:    28.7245  MPKI: 1.9024

L1D PREFETCH  REQUESTED:     741849  ISSUED:     741849  USEFUL:      34846  USELESS:      67733
L1D USEFUL LOAD PREFETCHES:      34846 PREFETCH ISSUED TO LOWER LEVEL:     102580  ACCURACY: 33.9696
 TIMELY PREFETCHES:      34846 LATE PREFETCHES: 7437 DROPPED PREFETCHES: 4
L1D AVERAGE MISS LATENCY: 254219 cycles
L1D RQ	ACCESS:   11066987	FORWARD:          0	MERGED:    3820262	TO_CACHE:    7079820
L1D WQ	ACCESS:    6946346	FORWARD:     167056	MERGED:     158826	TO_CACHE:    6787520
L1D PQ	ACCESS:     371000	FORWARD:          0	MERGED:          0	TO_CACHE:     370849

L1D UNIQUE REGIONS ACCESSED: 0
L1D REGIONS CONFLICTS: 0
L1D Cross Page Prefetch Requests: 7127
L1D Same Page Prefetch Requests: 758286
L1D ROI Sum of L1D PQ occupancy: 4721322
L1D PREFETCHES PUSHED FROM L2C: 0
L1I TOTAL     ACCESS:    7128277  HIT:    4361964  MISS:    2766313  HIT %:    61.1924  MISS %:    38.8076   MPKI: 55.3263
L1I LOAD INSTRUCTION	ACCESS:    6761028  HIT:    3994715  MISS:    2766313  HIT %:    59.0844  MISS %:    40.9156  MPKI: 55.3263
L1I PREFETCH INSTRUCTION	ACCESS:     367249  HIT:     367249  MISS:          0  HIT %:        100  MISS %:          0  MPKI: 0

L1I PREFETCH  REQUESTED:     895193  ISSUED:     895193  USEFUL:          0  USELESS:          0
L1I USEFUL LOAD PREFETCHES:          0 PREFETCH ISSUED TO LOWER LEVEL:          0  ACCURACY: -nan
 TIMELY PREFETCHES:          0 LATE PREFETCHES: 0 DROPPED PREFETCHES: 0
L1I AVERAGE MISS LATENCY: 17.4851 cycles
L1I RQ	ACCESS:    9421709	FORWARD:          0	MERGED:    2396458	TO_CACHE:    7025251
L1I PQ	ACCESS:     895193	FORWARD:          0	MERGED:     255593	TO_CACHE:     639600

L1BTB TOTAL     ACCESS:    5671014  HIT:    2044137  MISS:    3626877  HIT %:    36.0454  MISS %:    63.9546   MPKI: 72.5375
L1BTB BRANCH_DIRECT_JUMP	ACCESS:     549174 HIT:     144568 MISS:     404606 AVERAGE STALL: 30.1717 AVERAGE FETCH STALL: 18.1516 AVERAGE FETCH QUEUE STALL: 4.53353 AVERAGE DECODE STALL: 6.61498 AVERAGE EXECUTE STALL: 1.0626e+15
L1BTB BRANCH_INDIRECT	ACCESS:     183034 HIT:      66080 MISS:     116954 AVERAGE STALL: 58.0127 AVERAGE FETCH STALL: 11.4606 AVERAGE FETCH QUEUE STALL: 4.22081 AVERAGE DECODE STALL: 6.23854 AVERAGE EXECUTE STALL: 35.1297
L1BTB BRANCH_CONDITIONAL	ACCESS:    2712016 HIT:    1419565 MISS:    1292451 AVERAGE STALL: 34.1849 AVERAGE FETCH STALL: 21.5936 AVERAGE FETCH QUEUE STALL: 5.82713 AVERAGE DECODE STALL: 5.99899 AVERAGE EXECUTE STALL: 6.19684e+14
L1BTB BRANCH_DIRECT_CALL	ACCESS:     942391 HIT:     104587 MISS:     837804 AVERAGE STALL: 32.5001 AVERAGE FETCH STALL: 21.3335 AVERAGE FETCH QUEUE STALL: 4.78486 AVERAGE DECODE STALL: 5.6093 AVERAGE EXECUTE STALL: 8.50198e+14
L1BTB BRANCH_INDIRECT_CALL	ACCESS:     171000 HIT:      20774 MISS:     150226 AVERAGE STALL: 74.1275 AVERAGE FETCH STALL: 13.6779 AVERAGE FETCH QUEUE STALL: 2.07508 AVERAGE DECODE STALL: 5.42649 AVERAGE EXECUTE STALL: 52.4496
L1BTB BRANCH_RETURN	ACCESS:    1113399 HIT:     288563 MISS:     824836 AVERAGE STALL: 34.8379 AVERAGE FETCH STALL: 17.1642 AVERAGE FETCH QUEUE STALL: 2.45575 AVERAGE DECODE STALL: 4.87428 AVERAGE EXECUTE STALL: 3.57398e+14
L1BTB BRANCH_OTHER ACCESS:          0 HIT:          0 MISS:          0 AVERAGE STALL: -nan AVERAGE FETCH STALL: -nan AVERAGE FETCH QUEUE STALL: -nan AVERAGE DECODE STALL: -nan AVERAGE EXECUTE STALL: -nan
L1BTB TOTAL ROB OCCUPANCY AT BTB MISS: 2.20211

L2BTB TOTAL     ACCESS:    3601391  HIT:    3471506  MISS:     129885  HIT %:    96.3935  MISS %:    3.60652   MPKI: 2.5977
L2BTB BRANCH_DIRECT_JUMP	ACCESS:     400413 HIT:     387199 MISS:      13214 AVERAGE STALL: 30.1717 AVERAGE FETCH STALL: 18.1516 AVERAGE FETCH QUEUE STALL: 4.53353 AVERAGE DECODE STALL: 6.61498 AVERAGE EXECUTE STALL: 1.0626e+15
L2BTB BRANCH_INDIRECT	ACCESS:     106647 HIT:     103469 MISS:       3178 AVERAGE STALL: 58.0127 AVERAGE FETCH STALL: 11.4606 AVERAGE FETCH QUEUE STALL: 4.22081 AVERAGE DECODE STALL: 6.23854 AVERAGE EXECUTE STALL: 35.1297
L2BTB BRANCH_CONDITIONAL	ACCESS:    1292450 HIT:    1262193 MISS:      30257 AVERAGE STALL: 34.1849 AVERAGE FETCH STALL: 21.5936 AVERAGE FETCH QUEUE STALL: 5.82713 AVERAGE DECODE STALL: 5.99899 AVERAGE EXECUTE STALL: 6.19684e+14
L2BTB BRANCH_DIRECT_CALL	ACCESS:     837804 HIT:     816039 MISS:      21765 AVERAGE STALL: 32.5001 AVERAGE FETCH STALL: 21.3335 AVERAGE FETCH QUEUE STALL: 4.78486 AVERAGE DECODE STALL: 5.6093 AVERAGE EXECUTE STALL: 8.50198e+14
L2BTB BRANCH_INDIRECT_CALL	ACCESS:     140652 HIT:     129439 MISS:      11213 AVERAGE STALL: 74.1275 AVERAGE FETCH STALL: 13.6779 AVERAGE FETCH QUEUE STALL: 2.07508 AVERAGE DECODE STALL: 5.42649 AVERAGE EXECUTE STALL: 52.4496
L2BTB BRANCH_RETURN	ACCESS:     823425 HIT:     773167 MISS:      50258 AVERAGE STALL: 34.8379 AVERAGE FETCH STALL: 17.1642 AVERAGE FETCH QUEUE STALL: 2.45575 AVERAGE DECODE STALL: 4.87428 AVERAGE EXECUTE STALL: 3.57398e+14
L2BTB BRANCH_OTHER ACCESS:          0 HIT:          0 MISS:          0 AVERAGE STALL: -nan AVERAGE FETCH STALL: -nan AVERAGE FETCH QUEUE STALL: -nan AVERAGE DECODE STALL: -nan AVERAGE EXECUTE STALL: -nan
L2BTB TOTAL ROB OCCUPANCY AT BTB MISS: 61.4911

L2C TOTAL     ACCESS:    4495407  HIT:    3968434  MISS:     526973  HIT %:    88.2775  MISS %:    11.7225   MPKI: 10.5395
L2C LOAD INSTRUCTION	ACCESS:    2766312  HIT:    2468981  MISS:     297331  HIT %:    89.2517  MISS %:    10.7483  MPKI: 5.94662
L2C LOAD TRANSLATION INSTRUCTION	ACCESS:        410  HIT:        123  MISS:        287  HIT %:         30  MISS %:         70  MPKI: 0.00574
L2C LOAD DATA	ACCESS:     726912  HIT:     651145  MISS:      75767  HIT %:    89.5769  MISS %:    10.4231  MPKI: 1.51534
L2C RFO DATA	ACCESS:     286721  HIT:     225833  MISS:      60888  HIT %:     78.764  MISS %:     21.236  MPKI: 1.21776
L2C PREFETCH DATA	ACCESS:     189929  HIT:     117306  MISS:      72623  HIT %:    61.7631  MISS %:    38.2369  MPKI: 1.45246
L2C WRITEBACK DATA	ACCESS:     523065  HIT:     504355  MISS:      18710  HIT %:     96.423  MISS %:    3.57699  MPKI: 0.3742
L2C LOAD TRANSLATION DATA	ACCESS:       2013  HIT:        662  MISS:       1351  HIT %:    32.8862  MISS %:    67.1138  MPKI: 0.02702
L2C TRANSLATION FROM L1D PREFETCHER DATA	ACCESS:         45  HIT:         29  MISS:         16  HIT %:    64.4444  MISS %:    35.5556  MPKI: 0.00032

L2C PREFETCH  REQUESTED:      94839  ISSUED:      94839  USEFUL:       7675  USELESS:      65259
L2C USEFUL LOAD PREFETCHES:       7675 PREFETCH ISSUED TO LOWER LEVEL:      72901  ACCURACY: 10.528
 TIMELY PREFETCHES:       7675 LATE PREFETCHES: 278 DROPPED PREFETCHES: 0
L2C AVERAGE MISS LATENCY: 38.2308 cycles
L2C RQ	ACCESS:    3782449	FORWARD:          0	MERGED:          0	TO_CACHE:    3782413
L2C WQ	ACCESS:     523065	FORWARD:         36	MERGED:          0	TO_CACHE:     523065
L2C PQ	ACCESS:     197419	FORWARD:          0	MERGED:       3381	TO_CACHE:     194038

L2C Dense regions hint from L2: 0
PSCL5 TOTAL     ACCESS:       4580  HIT:       2290  MISS:       2290  HIT %:         50  MISS %:         50   MPKI: 0.0458
PSCL5 LOAD TRANSLATION INSTRUCTION	ACCESS:       4490  HIT:       2245  MISS:       2245  HIT %:         50  MISS %:         50  MPKI: 0.0449
PSCL5 TRANSLATION FROM L1D PREFETCHER INSTRUCTION	ACCESS:         90  HIT:         45  MISS:         45  HIT %:         50  MISS %:         50  MPKI: 0.0009


PSCL4 TOTAL     ACCESS:       4249  HIT:       2117  MISS:       2132  HIT %:    49.8235  MISS %:    50.1765   MPKI: 0.04264
PSCL4 LOAD TRANSLATION INSTRUCTION	ACCESS:       2913  HIT:       2074  MISS:        839  HIT %:    71.1981  MISS %:    28.8019  MPKI: 0.01678
PSCL4 TRANSLATION FROM L1D PREFETCHER INSTRUCTION	ACCESS:         59  HIT:         43  MISS:         16  HIT %:    72.8814  MISS %:    27.1186  MPKI: 0.00032
PSCL4 LOAD TRANSLATION DATA	ACCESS:       1250  HIT:          0  MISS:       1250  HIT %:          0  MISS %:        100  MPKI: 0.025
PSCL4 TRANSLATION FROM L1D PREFETCHER DATA	ACCESS:         27  HIT:          0  MISS:         27  HIT %:          0  MISS %:        100  MPKI: 0.00054


PSCL3 TOTAL     ACCESS:       4357  HIT:       2171  MISS:       2186  HIT %:    49.8279  MISS %:    50.1721   MPKI: 0.04372
PSCL3 LOAD TRANSLATION INSTRUCTION	ACCESS:       2967  HIT:       2128  MISS:        839  HIT %:    71.7223  MISS %:    28.2777  MPKI: 0.01678
PSCL3 TRANSLATION FROM L1D PREFETCHER INSTRUCTION	ACCESS:         59  HIT:         43  MISS:         16  HIT %:    72.8814  MISS %:    27.1186  MPKI: 0.00032
PSCL3 LOAD TRANSLATION DATA	ACCESS:       1304  HIT:          0  MISS:       1304  HIT %:          0  MISS %:        100  MPKI: 0.02608
PSCL3 TRANSLATION FROM L1D PREFETCHER DATA	ACCESS:         27  HIT:          0  MISS:         27  HIT %:          0  MISS %:        100  MPKI: 0.00054


PSCL2 TOTAL     ACCESS:       4427  HIT:       2137  MISS:       2290  HIT %:     48.272  MISS %:     51.728   MPKI: 0.0458
PSCL2 LOAD TRANSLATION INSTRUCTION	ACCESS:       2462  HIT:       2092  MISS:        370  HIT %:    84.9716  MISS %:    15.0284  MPKI: 0.0074
PSCL2 TRANSLATION FROM L1D PREFETCHER INSTRUCTION	ACCESS:         45  HIT:         45  MISS:          0  HIT %:        100  MISS %:          0  MPKI: 0
PSCL2 LOAD TRANSLATION DATA	ACCESS:       1875  HIT:          0  MISS:       1875  HIT %:          0  MISS %:        100  MPKI: 0.0375
PSCL2 TRANSLATION FROM L1D PREFETCHER DATA	ACCESS:         45  HIT:          0  MISS:         45  HIT %:          0  MISS %:        100  MPKI: 0.0009


LLC TOTAL     ACCESS:     591631  HIT:     561210  MISS:      30421  HIT %:    94.8581  MISS %:    5.14189   MPKI: 0.60842
LLC LOAD INSTRUCTION	ACCESS:     297331  HIT:     296046  MISS:       1285  HIT %:    99.5678  MISS %:   0.432178  MPKI: 0.0257
LLC LOAD TRANSLATION INSTRUCTION	ACCESS:        287  HIT:        243  MISS:         44  HIT %:     84.669  MISS %:     15.331  MPKI: 0.00088
LLC LOAD DATA	ACCESS:      75495  HIT:      71659  MISS:       3836  HIT %:    94.9189  MISS %:    5.08113  MPKI: 0.07672
LLC RFO DATA	ACCESS:      60879  HIT:      46338  MISS:      14541  HIT %:    76.1149  MISS %:    23.8851  MPKI: 0.29082
LLC PREFETCH DATA	ACCESS:      72901  HIT:      62649  MISS:      10252  HIT %:    85.9371  MISS %:    14.0629  MPKI: 0.20504
LLC WRITEBACK DATA	ACCESS:      83371  HIT:      83015  MISS:        356  HIT %:     99.573  MISS %:   0.427007  MPKI: 0.00712
LLC LOAD TRANSLATION DATA	ACCESS:       1351  HIT:       1244  MISS:        107  HIT %:    92.0799  MISS %:    7.92006  MPKI: 0.00214
LLC TRANSLATION FROM L1D PREFETCHER DATA	ACCESS:         16  HIT:         16  MISS:          0  HIT %:        100  MISS %:          0  MPKI: 0

LLC AVERAGE MISS LATENCY: 159.47 cycles
LLC RQ	ACCESS:     435362	FORWARD:          0	MERGED:          0	TO_CACHE:     435359
LLC WQ	ACCESS:      83371	FORWARD:          3	MERGED:          0	TO_CACHE:      83371
LLC PQ	ACCESS:      72901	FORWARD:          0	MERGED:          0	TO_CACHE:      72901

LLC Dense regions hint to LLC: 0

RAW hits: 1569208
Loads Generated: 12636195
Loads sent to L1D: 11066987
Stores Generated: 6946326
Stores sent to L1D: 6946346
Major fault: 0 Minor fault: 2667
Allocated PAGES: 2667

stream: 
stream:times selected: 1202442
stream:pref_filled: 120934
stream:pref_useful: 24805
stream:pref_late: 6570
stream:misses: 8240
stream:misses_by_poll: 0

CS: 
CS:times selected: 181667
CS:pref_filled: 62184
CS:pref_useful: 38235
CS:pref_late: 6494
CS:misses: 15545
CS:misses_by_poll: 1

CPLX: 
CPLX:times selected: 1019620
CPLX:pref_filled: 19792
CPLX:pref_useful: 4564
CPLX:pref_late: 2934
CPLX:misses: 92325
CPLX:misses_by_poll: 4

NL_L1: 
NL:times selected: 21318
NL:pref_filled: 628
NL:pref_useful: 307
NL:pref_late: 286
NL:misses: 1649
NL:misses_by_poll: 0

total selections: 2425047
total_filled: 95120
total_useful: 34846
total_late: 17651
total_polluted: 5
total_misses_after_warmup: 770509
conflicts: 5737815

test: 119033

DRAM Statistics
 CHANNEL 0
 RQ ROW_BUFFER_HIT:      10793  ROW_BUFFER_MISS:      19262
 DBUS_CONGESTED:          4
 WQ ROW_BUFFER_HIT:       1576  ROW_BUFFER_MISS:      13665  FULL:          0

 AVG_CONGESTED_CYCLE: 5

CPU 0 Branch Prediction Accuracy: 99.805% MPKI: 0.35662 Average ROB Occupancy at Mispredict: 96.1864
Branch types
NOT_BRANCH: 40855502 81.711%
BRANCH_DIRECT_JUMP: 549174 1.09835%
BRANCH_INDIRECT: 183034 0.366068%
BRANCH_CONDITIONAL: 6185110 12.3702%
BRANCH_DIRECT_CALL: 942391 1.88478%
BRANCH_INDIRECT_CALL: 171000 0.342%
BRANCH_RETURN: 1113399 2.2268%
BRANCH_OTHER: 0 0%

DRAM PAGES: 1048576
Allocated PAGES: 2667
Average_ROB_Occupancy: 92.0969
Average_Decode_Occupancy: 10.1635
Average_FTQ_Occupancy: 5.29591
Indirect max targets: 14 Average targets: 1.17516
Branch_type:  BRANCH_DIRECT_JUMP:  Count Percentage: 3.35057 5.84879 5.02867 2.13299 8.64463 6.0087 1.68047 67.3052 
Branch_type:  BRANCH_INDIRECT:  Count Percentage: 11.7222 3.48802 2.64166 13.42 3.32718 2.79107 2.1167 60.4932 
Branch_type:  BRANCH_CONDITIONAL:  Count Percentage: 25.9648 2.44914 2.20223 3.66506 2.87948 4.62202 0.982262 57.2351 
Branch_type:  BRANCH_DIRECT_CALL:  Count Percentage: 0.857937 1.24836 0.787887 2.12694 4.44648 2.63484 1.49473 86.4028 
Branch_type:  BRANCH_INDIRECT_CALL:  Count Percentage: 9.54918 0 2.99068 0.000881598 0 1.71177 1.00443 84.7431 
Branch_type:  BRANCH_RETURN:  Count Percentage: 8.28348 1.25487 2.19604 2.99829 2.83688 5.08966 1.08642 76.2544 
Branch_type:  BRANCH_DIRECT_JUMP:  Total Count: 36814 64263 55252 23436 94982 66020 18464 739509 
Branch_type:  BRANCH_INDIRECT:  Total Count: 43074 12817 9707 49313 12226 10256 7778 222287 
Branch_type:  BRANCH_CONDITIONAL:  Total Count: 3211793 302954 272412 453361 356186 571735 121504 7079873 
Branch_type:  BRANCH_DIRECT_CALL:  Total Count: 16081 23399 14768 39867 83344 49387 28017 1619518 
Branch_type:  BRANCH_INDIRECT_CALL:  Total Count: 32495 0 10177 3 0 5825 3418 288373 
Branch_type:  BRANCH_RETURN:  Total Count: 183523 27802 48654 66428 62852 112763 24070 1689439 
Number of unique branch instructions: 10706
Upper 32 bits: 
aaaa
ffff
ffff0000
Unique upper 32 bits: 3
Unique upper 36 bits: 3
Unique upper 40 bits: 5
Unique upper 44 bits: 32
Unique upper 48 bits: 158
Offset_3 4437
Offset_4 263
Offset_5 481
Offset_6 539
Offset_7 634
Offset_8 582
Offset_9 509
Offset_10 419
Offset_11 347
Offset_12 310
Offset_13 238
Offset_14 246
Offset_15 194
Offset_16 226
Offset_17 166
Offset_18 144
Offset_19 260
Offset_20 141
Offset_21 235
Offset_22 409
Offset_23 245
Offset_24 344
Offset_25 117
Offset_47 94
Offset_64 5
decode_dispatch_called: 20547719 42.8262
Dispatch_width: 0 10248812 49.8781 21.3609
Dispatch_width: 1 618491 3.01002 1.28908
Dispatch_width: 2 805412 3.91971 1.67867
Dispatch_width: 3 578464 2.81522 1.20565
Dispatch_width: 4 1652072 8.04017 3.4433
Dispatch_width: 5 440059 2.14164 0.917185
Dispatch_width: 6 6204409 30.1951 12.9314
Empty_decode_cycles: 27431573 57.1738
ROB_full_cycles: 1643739 3.42593
Starvation_cycles_per_kilo_instr: 401.311
Starvation_cycles_per_kilo_instr_3: 380.39
Starvation_cycles_per_kilo_instr_0: 360.366
Branch_type_1  (3,1)  (4,9)  (5,39)  (6,71)  (7,123)  (8,154)  (9,136)  (10,110)  (11,78)  (12,47)  (13,11)  (14,2)  (15,3)  (16,4)  (18,1)  (19,5)  (20,2)  (21,1)  (22,3)  (23,2)  (24,10)  (25,12)  (64,1) 
Branch_type_2  (3,1)  (4,1)  (5,1)  (8,4)  (9,4)  (10,1)  (12,1)  (13,1)  (14,1)  (16,3)  (17,2)  (20,2)  (21,2)  (23,5)  (24,1)  (47,42) 
Branch_type_3  (3,4435)  (4,253)  (5,437)  (6,451)  (7,480)  (8,355)  (9,275)  (10,170)  (11,133)  (12,54)  (13,10)  (64,2) 
Branch_type_4  (6,3)  (7,8)  (8,29)  (9,55)  (10,66)  (11,70)  (12,116)  (13,101)  (14,110)  (15,92)  (16,99)  (17,77)  (18,61)  (19,127)  (20,72)  (21,124)  (22,215)  (23,138)  (24,199)  (25,101)  (64,1) 
Branch_type_5  (8,3)  (9,1)  (10,4)  (11,5)  (12,3)  (13,14)  (14,16)  (15,11)  (16,22)  (17,11)  (18,23)  (19,14)  (20,11)  (21,13)  (22,43)  (23,26)  (24,38) 
Branch_type_6  (5,4)  (6,14)  (7,23)  (8,37)  (9,38)  (10,68)  (11,61)  (12,89)  (13,101)  (14,117)  (15,88)  (16,98)  (17,76)  (18,59)  (19,114)  (20,54)  (21,95)  (22,148)  (23,74)  (24,96)  (25,4)  (47,52)  (64,1) 
aaaaab1fc620: 2ac9e77e 2aca717c 2aca8eff 2acaf6bc 2acaf9aa 2acaf9f1 2acb1abc 2acb1b7f 2acd4e22 2acdb712 2acf5f9e 2ad0ef44 2ad3f15c 2ad414e6 2ad60e42 2ad8609c 2ad99830 2ada35cc 2ada4676 2ada6612 2adf183e 2adf30e5 2adf5602 2adf785c 2ae11572 2aeb2dcf 2aee101b 2aee1ae1 2b156a8c 2b156b61 2b156bea 2b167f35 2b177656 2b17feec 2b1a3e5a 
aaaaab1fc640: 2ac9ec07 2aca656e 2aca801d 2acaea11 2acaee73 2acb13ee 2acb1470 2acd462b 2ad0ef5d 2ad3f3fe 2ad86e9b 2ada1641 2ada4115 2ada6638 2adf30d4 2ae12e57 2aee1033 2b1693ab 2b16948c 2b169491 2b17d915 2b17fa85 2b17fccd 
aaaaab1fcb00: 2acf2d72 2acf3734 2acf604c 2acfa5b7 2ad397b5 2ad3b800 2ae8af7d 2ae8aff0 2ae9aaba 2aea9fc6 2aeaa358 2aee910b 2aee91cf 2aee928e 2aee92e4 2af6fe87 2af70dfe 2b16850c 2b16c4a2 2b1765f4 2b178094 2b17d925 2b17db06 2b17ec8f 
aaaaab1fcb10: 2acf2d95 2acf3758 2acf6052 2acfa5f4 2ad397c3 2ad3b81c 2ae8af88 2ae8affe 2ae9aacf 2aeaa017 2aeaa36d 2aee9114 2aee91d8 2aee934d 2aee9353 2af6fe8c 2af70e22 2b168526 2b16c542 2b176609 2b1780a3 2b17d95d 2b17db44 2b17ecac 
aaaaac68f310: 2ac9ec8c 2ac9fb44 2ac9fbd2 2aca59ab 2acac04c 2acaf6e0 2acaf6ec 2acaf6f9 2acaf700 2acaf708 2acf2d90 2ad3cfbd 2ad3cfc4 2ad3d000 2ad3f35f 2ad4955d 2ad49571 2ad4f3f2 2ad4f400 2ad5f240 2ad5f37c 2ad5f86a 2ad5f86f 2ad5f880 2ad5fc0d 2ad5fc14 2ad5fc21 2ad5fe1b 2ad873bb 2ad873e3 2ad8a6b2 2ad9086e 2ad93096 2ad9bbb2 2ada152c 2ada1554 2ada3332 2ada5522 2adf3130 2adf313c 2adf3a3f 2adf3bd9 2adf5788 2adf7a8d 2ae07f6b 2ae0857a 2ae0857e 2ae08630 2ae08634 2ae08637 2ae08642 2ae0866f 2ae086e4 2ae086ec 2ae08717 2ae0871b 2aee0170 2aee1d38 2aee75f4 2aee7662 2aee85ca 2aee85e4 2aee8eef 2af70b84 2af74e8f 2b17d843 
aaaaac690ef0: 2aca598b 2acb111b 2acb175f 2acb1772 2acbfaf4 2acbfb00 2acf374f 2acf6d43 2acfa5c8 2ad3baf1 2ad3d4ac 2ad3d4b8 2ad3f1cf 2ad486b2 2ad5a59b 2ad5fc64 2ad5fcf9 2ad6121c 2ad906e9 2ad907bf 2ad9bada 2ada16ce 2ada1ad5 2ada43df 2ada64c0 2ada72ee 2adeb71a 2adf3bcb 2adf7a38 2adf7c6a 2adf8872 2adf8880 2adf9959 2adf9abe 2ae07f78 2ae08503 2ae08754 2ae12e80 2aea3bea 2aecb509 2aee00b0 2aee2bdd 2aee5467 2aee5601 2aee8f20 2af703fd 2af7048b 2af74e74 
Unique trigger count: 
1 10197
2 555
3 91
4 32
5 14
6 11
7 7
8 2
9 3
10 2
11 1
12 1
13 1
14 3
16 2
19 2
23 1
24 2
35 1
48 1
66 1
BTB PER SET UNIQUE ADDR: 14 19 9 10 5 14 13 17 17 7 13 8 18 15 11 14 15 12 14 15 11 16 13 15 15 13 7 11 11 14 20 14 15 9 18 16 18 18 14 11 15 12 9 15 18 13 13 16 21 11 14 9 18 8 12 15 16 12 17 11 15 24 12 15 12 21 11 18 19 12 8 8 11 8 9 21 13 19 13 13 13 13 12 11 15 13 13 13 20 15 21 20 16 11 10 14 17 13 13 14 15 12 17 13 13 13 12 15 16 11 18 10 9 18 14 19 7 13 14 9 15 16 11 10 12 11 10 11 22 15 15 9 14 8 16 13 13 10 13 12 17 11 12 8 15 16 11 16 26 11 15 25 14 18 14 15 13 21 13 19 17 16 23 14 19 13 11 10 21 19 15 10 16 16 11 11 14 13 13 13 8 12 15 15 19 18 13 16 9 19 9 13 13 19 9 15 17 9 18 13 10 11 14 11 19 10 6 16 12 5 8 10 13 12 10 15 7 20 16 16 14 6 13 14 16 11 20 11 8 19 19 19 8 11 13 13 18 12 11 8 9 10 12 13 22 21 11 11 11 13 14 17 13 13 19 19 10 10 19 12 8 10 14 9 15 25 9 8 16 11 11 13 15 18 19 15 9 13 7 17 13 12 17 18 22 14 12 12 20 8 14 11 11 17 14 13 11 16 9 10 12 12 10 10 7 10 10 14 20 13 17 8 13 9 14 8 16 20 14 9 14 14 15 13 9 11 12 15 8 8 16 9 11 15 19 12 13 13 16 9 11 15 8 21 15 12 10 13 18 14 9 16 25 14 14 14 18 11 12 11 13 20 14 10 13 14 12 8 9 11 15 11 16 10 15 9 16 15 16 13 16 15 13 16 16 17 14 9 20 15 14 11 17 11 15 13 11 14 11 16 12 9 10 15 11 12 16 11 14 10 15 9 20 15 9 12 15 16 8 11 13 16 14 16 20 21 7 11 12 17 9 8 21 13 17 18 15 12 18 8 18 13 14 9 16 22 12 15 11 9 16 8 6 12 19 12 15 11 12 11 8 13 18 16 13 10 16 10 19 13 6 12 15 14 8 9 19 13 11 10 12 13 7 15 9 18 13 9 12 7 17 8 12 14 8 17 10 13 13 8 20 9 15 7 11 10 8 11 15 13 21 9 
BTB PER SET COUNT: 14 35 11 10 5 15 13 531 21 1462 18 432 47 15 12 15 16 13 15 1485 12 19 19 542 17 13 10 12 1464 15 1783 399 18 9 22 28 2934 2457 21 12 23 18 16 18 3745 16 15 17 5517 13 14 11 3567 8 12 18 19 12 20 111 17 6358 12 15 12 4161 13 30 4828 40 8 8 1467 8 14 6009 526 68 14 25 15 955 957 13 529 14 14 13 39 18 4167 494 17 3079 19 19 36 19 17 19 16 14 26 16 933 14 12 16 18 852 408 11 1463 66 16 2885 17 14 525 1462 18 28 13 11 542 14 11 13 5424 18 527 10 17 11 19 13 525 11 15 12 43 13 18 16 17 28 1545 18 15259 14 17 8499 14 5540 2927 1042 13 84 544 33 35 20 8063 1038 549 1900 634 10 7893 558 15 1032 14560 1181 12 1848 1467 545 955 1037 9 14 15 15 33 23 15 48 9 101 9 16 169 1065 11 1477 962 1463 228 13 14 12 1037 13 1493 733 6 2488 19 6 9 12 14 16 10 670 8 6512 17 17 957 6 15 15 19 12 796 1951 16 1499 268 4519 8 12 542 14 26 1014 13 8 10 527 12 14 1790 5273 11 954 11 13 957 22 17 14 79 26 13 11 65 13 13 135 14 1465 1478 9901 951 10 16 15 15 14 20 60 86 18 462 13 9 111 16 13 213 39 6201 1036 15 12 197 9 231 13 2568 1488 19 21 17 96 10 12 12 469 12 13 9 10 10 15 35 14 20 380 14 11 957 9 16 6522 18 10 14 16 42 13 28 12 12 16 228 8 1047 1466 12 21 979 12 1039 16 17 9 13 17 8 1582 1038 15 13 21 22 19 9 16 8010 1900 17 1017 34 18 14 39 14 151 14 11 20 20 14 10 9 12 18 12 17 12 15 11 20 19 18 14 19 16 14 150 19 19 19 9 2513 17 121 46 21 17 18 16 1466 20 27 20 13 10 14 17 13 1015 2924 13 19 2274 23 10 564 21 951 14 152 17 9 1934 14 460 14 25 7095 37 14 23 12 24 159 950 2715 27 31 270 20 12 23 10 457 16 18 10 28 3536 14 959 13 537 18 8 7 16 49 14 16 13 525 13 1010 392 40 17 982 13 18 10 52 16 518 13 37 534 160 10 20420 13 21 12 12 13 9 529 9 443 279 385 12 10 67 8 17 16 9 39 22 16 2059 10 8267 395 1284 9 14 12 8 12 1480 15 801 11 
