
*** ChampSim Multicore Out-of-Order Simulator ***

Warmup Instructions: 50000000
Simulation Instructions: 50000000
Number of CPUs: 1
LLC sets: 2048
LLC ways: 16
Off-chip DRAM Size: 4096 MB Channels: 1 Width: 64-bit Data Rate: 6400 MT/s
CPU 0 runs ./micro_traces/srv657.trace.gz
.gz
ITLB has LRU replacement policy
DTLB has LRU replacement policy
STLB has LRU replacement policy
SN4L + DIS + BTB Prefetcher for L1I CPU 0
srv657.cond
L1I has LRU replacement policy
L1D has LRU replacement policy
Initialize SRRIP state for L2C
Initialize DRRIP state for LLC
Heartbeat CPU 0 instructions: 10000000 cycles: 2800885 heartbeat IPC: 3.5703 cumulative IPC: 3.5703 (Simulation time: 0 hr 1 min 45 sec) 
Heartbeat CPU 0 instructions: 20000001 cycles: 5597298 heartbeat IPC: 3.57601 cumulative IPC: 3.57315 (Simulation time: 0 hr 3 min 25 sec) 
Heartbeat CPU 0 instructions: 30000000 cycles: 8394393 heartbeat IPC: 3.57514 cumulative IPC: 3.57381 (Simulation time: 0 hr 5 min 6 sec) 
Heartbeat CPU 0 instructions: 40000001 cycles: 11193435 heartbeat IPC: 3.57265 cumulative IPC: 3.57352 (Simulation time: 0 hr 6 min 43 sec) 
Heartbeat CPU 0 instructions: 50000001 cycles: 13989980 heartbeat IPC: 3.57584 cumulative IPC: 3.57399 (Simulation time: 0 hr 8 min 18 sec) 

Warmup complete CPU 0 instructions: 50000001 cycles: 13989980 (Simulation time: 0 hr 8 min 18 sec) 

Cycle: 20000000 FTQ IN: 57006226 FTQ occupancy: 18.4259 DECODE IN: 57006206 DECODE occupancy: 47.2269 ROB IN: 57006200 ROB occupancy: 288.114 ROB OUT: 57006064
Heartbeat CPU 0 instructions: 60000001 cycles: 22530086 heartbeat IPC: 1.17095 cumulative IPC: 1.17095 (Simulation time: 0 hr 9 min 50 sec) 
Cycle: 30000000 FTQ IN: 11912218 FTQ occupancy: 7.58962 DECODE IN: 11912238 DECODE occupancy: 17.1139 ROB IN: 11912244 ROB occupancy: 145.943 ROB OUT: 11912045
Heartbeat CPU 0 instructions: 70000000 cycles: 30897345 heartbeat IPC: 1.19513 cumulative IPC: 1.18292 (Simulation time: 0 hr 11 min 23 sec) 
Heartbeat CPU 0 instructions: 80000001 cycles: 39377430 heartbeat IPC: 1.17923 cumulative IPC: 1.18169 (Simulation time: 0 hr 12 min 53 sec) 
Cycle: 40000000 FTQ IN: 11826997 FTQ occupancy: 7.80796 DECODE IN: 11826997 DECODE occupancy: 17.6562 ROB IN: 11826994 ROB occupancy: 149.556 ROB OUT: 11827250
Heartbeat CPU 0 instructions: 90000000 cycles: 47759897 heartbeat IPC: 1.19297 cumulative IPC: 1.18449 (Simulation time: 0 hr 14 min 24 sec) 
Cycle: 50000000 FTQ IN: 11948295 FTQ occupancy: 7.63897 DECODE IN: 11948169 DECODE occupancy: 17.2266 ROB IN: 11948112 ROB occupancy: 147.604 ROB OUT: 11948082
Heartbeat CPU 0 instructions: 100000000 cycles: 56223423 heartbeat IPC: 1.18154 cumulative IPC: 1.1839 (Simulation time: 0 hr 15 min 51 sec) 
Finished CPU 0 instructions: 50000000 cycles: 42233444 cumulative IPC: 1.1839 (Simulation time: 0 hr 15 min 51 sec) 

ChampSim completed all CPUs

Region of Interest Statistics

CPU 0 cumulative IPC: 1.1839 instructions: 50000000 cycles: 42233444
 Fetch stage stalled: 67.7492  Sim cycles: 42233444 fetch stall cycle: 28612833
 Empty decode stage: 56.9073  Sim cycles: 42233444 fetch stall cycle: 24033922
ITLB TOTAL     ACCESS:    8065587  HIT:    7517929  MISS:     547658  HIT %:    93.2099  MISS %:    6.79006   MPKI: 10.9532
ITLB LOAD TRANSLATION INSTRUCTION	ACCESS:    5514623  HIT:    5036251  MISS:     478372  HIT %:    91.3254  MISS %:    8.67461  MPKI: 9.56744
ITLB TRANSLATION FROM L1D PREFETCHER INSTRUCTION	ACCESS:    2550964  HIT:    2481678  MISS:      69286  HIT %:    97.2839  MISS %:    2.71607  MPKI: 1.38572

ITLB AVERAGE MISS LATENCY: 384450 cycles
ITLB RQ	ACCESS:   11153393	FORWARD:          0	MERGED:    2588664	TO_CACHE:    8564729

DTLB TOTAL     ACCESS:    9205150  HIT:    8734799  MISS:     470351  HIT %:    94.8903  MISS %:    5.10965   MPKI: 9.40702
DTLB LOAD TRANSLATION DATA	ACCESS:    9205150  HIT:    8734799  MISS:     470351  HIT %:    94.8903  MISS %:    5.10965  MPKI: 9.40702

DTLB AVERAGE MISS LATENCY: 9.35313 cycles
DTLB RQ	ACCESS:   13516389	FORWARD:          0	MERGED:    4276592	TO_CACHE:    9239797

STLB TOTAL     ACCESS:    1267886  HIT:    1265725  MISS:       2161  HIT %:    99.8296  MISS %:   0.170441   MPKI: 0.04322
STLB LOAD TRANSLATION INSTRUCTION	ACCESS:     472384  HIT:     472109  MISS:        275  HIT %:    99.9418  MISS %:  0.0582154  MPKI: 0.0055
STLB TRANSLATION FROM L1D PREFETCHER INSTRUCTION	ACCESS:      75274  HIT:      75255  MISS:         19  HIT %:    99.9748  MISS %:  0.0252411  MPKI: 0.00038
STLB LOAD TRANSLATION DATA	ACCESS:     470135  HIT:     468294  MISS:       1841  HIT %:    99.6084  MISS %:    0.39159  MPKI: 0.03682
STLB TRANSLATION FROM L1D PREFETCHER DATA	ACCESS:     250093  HIT:     250067  MISS:         26  HIT %:    99.9896  MISS %:  0.0103961  MPKI: 0.00052

STLB AVERAGE MISS LATENCY: 76.305 cycles
STLB RQ	ACCESS:    1403170	FORWARD:          0	MERGED:     120153	TO_CACHE:    1283017

STLB Hit, L1D data hit: 0
STLB Hit, L2C data hit: 0
STLB Hit, LLC data hit: 0
STLB Hit, LLC data miss: 0
STLB STLB hints to L2: 0
L1D TOTAL     ACCESS:   13258530  HIT:   12142945  MISS:    1115585  HIT %:    91.5859  MISS %:    8.41409   MPKI: 22.3117
L1D LOAD DATA	ACCESS:    6714076  HIT:    5978575  MISS:     735501  HIT %:    89.0454  MISS %:    10.9546  MPKI: 14.71
L1D RFO DATA	ACCESS:    6217420  HIT:    5930016  MISS:     287404  HIT %:    95.3774  MISS %:    4.62256  MPKI: 5.74808
L1D PREFETCH DATA	ACCESS:     327034  HIT:     234354  MISS:      92680  HIT %:    71.6604  MISS %:    28.3396  MPKI: 1.8536

L1D PREFETCH  REQUESTED:     740527  ISSUED:     740527  USEFUL:      34584  USELESS:      67089
L1D USEFUL LOAD PREFETCHES:      34584 PREFETCH ISSUED TO LOWER LEVEL:     101746  ACCURACY: 33.9905
 TIMELY PREFETCHES:      34584 LATE PREFETCHES: 8990 DROPPED PREFETCHES: 6
L1D AVERAGE MISS LATENCY: 283166 cycles
L1D RQ	ACCESS:   10827211	FORWARD:          0	MERGED:    3913783	TO_CACHE:    6750697
L1D WQ	ACCESS:    6947190	FORWARD:     163110	MERGED:     181498	TO_CACHE:    6765692
L1D PQ	ACCESS:     370453	FORWARD:          0	MERGED:          0	TO_CACHE:     370074

L1D UNIQUE REGIONS ACCESSED: 0
L1D REGIONS CONFLICTS: 0
L1D Cross Page Prefetch Requests: 6693
L1D Same Page Prefetch Requests: 749170
L1D ROI Sum of L1D PQ occupancy: 4712813
L1D PREFETCHES PUSHED FROM L2C: 0
L1I TOTAL     ACCESS:   10587945  HIT:    7031584  MISS:    3556361  HIT %:    66.4112  MISS %:    33.5888   MPKI: 71.1272
L1I LOAD INSTRUCTION	ACCESS:    6461971  HIT:    4127433  MISS:    2334538  HIT %:    63.8727  MISS %:    36.1273  MPKI: 46.6908
L1I PREFETCH INSTRUCTION	ACCESS:    4125974  HIT:    2904151  MISS:    1221823  HIT %:     70.387  MISS %:     29.613  MPKI: 24.4365

L1I PREFETCH  REQUESTED:    4763501  ISSUED:    4763501  USEFUL:     591115  USELESS:     721659
L1I USEFUL LOAD PREFETCHES:     591115 PREFETCH ISSUED TO LOWER LEVEL:    1312770  ACCURACY: 45.0281
 TIMELY PREFETCHES:     591115 LATE PREFETCHES: 90947 DROPPED PREFETCHES: 36029
L1I AVERAGE MISS LATENCY: 897371 cycles
L1I RQ	ACCESS:    9468003	FORWARD:          0	MERGED:    2824724	TO_CACHE:    6643279
L1I PQ	ACCESS:    4763501	FORWARD:          0	MERGED:     253387	TO_CACHE:    4510114

L1BTB TOTAL     ACCESS:    5667830  HIT:    2042040  MISS:    3625790  HIT %:    36.0286  MISS %:    63.9714   MPKI: 72.5158
L1BTB BRANCH_DIRECT_JUMP	ACCESS:     547448  HIT:     143848  MISS:     403600	AVERAGE STALL: 37.545
L1BTB BRANCH_INDIRECT	ACCESS:     182448  HIT:      65645  MISS:     116803	AVERAGE STALL: 95.0686
L1BTB BRANCH_CONDITIONAL	ACCESS:    2706337  HIT:    1414249  MISS:    1292088	AVERAGE STALL: 37.9104
L1BTB BRANCH_DIRECT_CALL	ACCESS:     943625  HIT:     105824  MISS:     837801	AVERAGE STALL: 42.5566
L1BTB BRANCH_INDIRECT_CALL	ACCESS:     172168  HIT:      21802  MISS:     150366	AVERAGE STALL: 116.101
L1BTB BRANCH_RETURN	ACCESS:    1115804  HIT:     290672  MISS:     825132	AVERAGE STALL: 38.8228
L1BTB BRANCH_OTHER ACCESS:          0  HIT:          0  MISS:          0	AVERAGE STALL: -nan
L1BTB TOTAL ROB OCCUPANCY AT BTB MISS: 14.3466

L2BTB TOTAL     ACCESS:    3600323  HIT:    3177723  MISS:     422600  HIT %:    88.2622  MISS %:    11.7378   MPKI: 8.452
L2BTB BRANCH_DIRECT_JUMP	ACCESS:     399414  HIT:     353419  MISS:      45995	AVERAGE STALL: 37.545
L2BTB BRANCH_INDIRECT	ACCESS:     106498  HIT:     101375  MISS:       5123	AVERAGE STALL: 95.0686
L2BTB BRANCH_CONDITIONAL	ACCESS:    1292088  HIT:    1154107  MISS:     137981	AVERAGE STALL: 37.9104
L2BTB BRANCH_DIRECT_CALL	ACCESS:     837801  HIT:     725538  MISS:     112263	AVERAGE STALL: 42.5566
L2BTB BRANCH_INDIRECT_CALL	ACCESS:     140800  HIT:     119294  MISS:      21506	AVERAGE STALL: 116.101
L2BTB BRANCH_RETURN	ACCESS:     823722  HIT:     723990  MISS:      99732	AVERAGE STALL: 38.8228
L2BTB BRANCH_OTHER ACCESS:          0  HIT:          0  MISS:          0	AVERAGE STALL: -nan
L2BTB TOTAL ROB OCCUPANCY AT BTB MISS: 123.09

L2C TOTAL     ACCESS:    6050473  HIT:    4969755  MISS:    1080718  HIT %:    82.1383  MISS %:    17.8617   MPKI: 21.6144
L2C LOAD INSTRUCTION	ACCESS:    2243591  HIT:    1905511  MISS:     338080  HIT %:    84.9313  MISS %:    15.0687  MPKI: 6.7616
L2C PREFETCH INSTRUCTION	ACCESS:    1312770  HIT:    1076866  MISS:     235904  HIT %:    82.0301  MISS %:    17.9699  MPKI: 4.71808
L2C LOAD TRANSLATION INSTRUCTION	ACCESS:        314  HIT:         92  MISS:        222  HIT %:    29.2994  MISS %:    70.7006  MPKI: 0.00444
L2C TRANSLATION FROM L1D PREFETCHER INSTRUCTION	ACCESS:      20916  HIT:      19629  MISS:       1287  HIT %:    93.8468  MISS %:    6.15318  MPKI: 0.02574
L2C LOAD DATA	ACCESS:     726478  HIT:     591983  MISS:     134495  HIT %:    81.4867  MISS %:    18.5133  MPKI: 2.6899
L2C RFO DATA	ACCESS:     287293  HIT:     199648  MISS:      87645  HIT %:    69.4928  MISS %:    30.5072  MPKI: 1.7529
L2C PREFETCH DATA	ACCESS:     935600  HIT:     693077  MISS:     242523  HIT %:    74.0783  MISS %:    25.9217  MPKI: 4.85046
L2C WRITEBACK DATA	ACCESS:     521559  HIT:     482459  MISS:      39100  HIT %:    92.5032  MISS %:    7.49675  MPKI: 0.782
L2C LOAD TRANSLATION DATA	ACCESS:       1906  HIT:        459  MISS:       1447  HIT %:    24.0818  MISS %:    75.9182  MPKI: 0.02894
L2C TRANSLATION FROM L1D PREFETCHER DATA	ACCESS:         46  HIT:         31  MISS:         15  HIT %:    67.3913  MISS %:    32.6087  MPKI: 0.0003

L2C PREFETCH  REQUESTED:    1361054  ISSUED:    1361054  USEFUL:      39479  USELESS:     443389
L2C USEFUL LOAD PREFETCHES:      39479 PREFETCH ISSUED TO LOWER LEVEL:     481048  ACCURACY: 8.20687
 TIMELY PREFETCHES:      39479 LATE PREFETCHES: 2621 DROPPED PREFETCHES: 0
L2C AVERAGE MISS LATENCY: 33.6831 cycles
L2C RQ	ACCESS:    3280612	FORWARD:          0	MERGED:          0	TO_CACHE:    3280544
L2C WQ	ACCESS:     521559	FORWARD:         68	MERGED:          0	TO_CACHE:     521559
L2C PQ	ACCESS:    2775570	FORWARD:          0	MERGED:     505624	TO_CACHE:    2269946

L2C Dense regions hint from L2: 0
PSCL5 TOTAL     ACCESS:      34512  HIT:      17256  MISS:      17256  HIT %:         50  MISS %:         50   MPKI: 0.34512
PSCL5 LOAD TRANSLATION INSTRUCTION	ACCESS:       4208  HIT:       2104  MISS:       2104  HIT %:         50  MISS %:         50  MPKI: 0.04208
PSCL5 TRANSLATION FROM L1D PREFETCHER INSTRUCTION	ACCESS:      30304  HIT:      15152  MISS:      15152  HIT %:         50  MISS %:         50  MPKI: 0.30304


PSCL4 TOTAL     ACCESS:      32307  HIT:      16149  MISS:      16158  HIT %:    49.9861  MISS %:    50.0139   MPKI: 0.32316
PSCL4 LOAD TRANSLATION INSTRUCTION	ACCESS:       3538  HIT:       2050  MISS:       1488  HIT %:    57.9423  MISS %:    42.0577  MPKI: 0.02976
PSCL4 TRANSLATION FROM L1D PREFETCHER INSTRUCTION	ACCESS:      25913  HIT:      14099  MISS:      11814  HIT %:     54.409  MISS %:     45.591  MPKI: 0.23628
PSCL4 LOAD TRANSLATION DATA	ACCESS:        571  HIT:          0  MISS:        571  HIT %:          0  MISS %:        100  MPKI: 0.01142
PSCL4 TRANSLATION FROM L1D PREFETCHER DATA	ACCESS:       2285  HIT:          0  MISS:       2285  HIT %:          0  MISS %:        100  MPKI: 0.0457


PSCL3 TOTAL     ACCESS:      32315  HIT:      16153  MISS:      16162  HIT %:    49.9861  MISS %:    50.0139   MPKI: 0.32324
PSCL3 LOAD TRANSLATION INSTRUCTION	ACCESS:       3542  HIT:       2054  MISS:       1488  HIT %:    57.9898  MISS %:    42.0102  MPKI: 0.02976
PSCL3 TRANSLATION FROM L1D PREFETCHER INSTRUCTION	ACCESS:      25913  HIT:      14099  MISS:      11814  HIT %:     54.409  MISS %:     45.591  MPKI: 0.23628
PSCL3 LOAD TRANSLATION DATA	ACCESS:        575  HIT:          0  MISS:        575  HIT %:          0  MISS %:        100  MPKI: 0.0115
PSCL3 TRANSLATION FROM L1D PREFETCHER DATA	ACCESS:       2285  HIT:          0  MISS:       2285  HIT %:          0  MISS %:        100  MPKI: 0.0457


PSCL2 TOTAL     ACCESS:      22994  HIT:      11448  MISS:      11546  HIT %:    49.7869  MISS %:    50.2131   MPKI: 0.23092
PSCL2 LOAD TRANSLATION INSTRUCTION	ACCESS:       2280  HIT:       2006  MISS:        274  HIT %:    87.9825  MISS %:    12.0175  MPKI: 0.00548
PSCL2 TRANSLATION FROM L1D PREFETCHER INSTRUCTION	ACCESS:      18838  HIT:       9442  MISS:       9396  HIT %:    50.1221  MISS %:    49.8779  MPKI: 0.18792
PSCL2 LOAD TRANSLATION DATA	ACCESS:       1830  HIT:          0  MISS:       1830  HIT %:          0  MISS %:        100  MPKI: 0.0366
PSCL2 TRANSLATION FROM L1D PREFETCHER DATA	ACCESS:         46  HIT:          0  MISS:         46  HIT %:          0  MISS %:        100  MPKI: 0.00092


LLC TOTAL     ACCESS:    1172718  HIT:    1141135  MISS:      31583  HIT %:    97.3069  MISS %:    2.69315   MPKI: 0.63166
LLC LOAD INSTRUCTION	ACCESS:     336094  HIT:     335544  MISS:        550  HIT %:    99.8364  MISS %:   0.163645  MPKI: 0.011
LLC PREFETCH INSTRUCTION	ACCESS:     225623  HIT:     225285  MISS:        338  HIT %:    99.8502  MISS %:   0.149807  MPKI: 0.00676
LLC LOAD TRANSLATION INSTRUCTION	ACCESS:        222  HIT:        185  MISS:         37  HIT %:    83.3333  MISS %:    16.6667  MPKI: 0.00074
LLC TRANSLATION FROM L1D PREFETCHER INSTRUCTION	ACCESS:       1287  HIT:       1281  MISS:          6  HIT %:    99.5338  MISS %:     0.4662  MPKI: 0.00012
LLC LOAD DATA	ACCESS:     133944  HIT:     130161  MISS:       3783  HIT %:    97.1757  MISS %:    2.82431  MPKI: 0.07566
LLC RFO DATA	ACCESS:      87553  HIT:      71960  MISS:      15593  HIT %:    82.1902  MISS %:    17.8098  MPKI: 0.31186
LLC PREFETCH DATA	ACCESS:     255425  HIT:     244559  MISS:      10866  HIT %:    95.7459  MISS %:    4.25409  MPKI: 0.21732
LLC WRITEBACK DATA	ACCESS:     131108  HIT:     130809  MISS:        299  HIT %:    99.7719  MISS %:   0.228056  MPKI: 0.00598
LLC LOAD TRANSLATION DATA	ACCESS:       1447  HIT:       1338  MISS:        109  HIT %:    92.4672  MISS %:    7.53283  MPKI: 0.00218
LLC TRANSLATION FROM L1D PREFETCHER DATA	ACCESS:         15  HIT:         13  MISS:          2  HIT %:    86.6667  MISS %:    13.3333  MPKI: 4e-05

LLC AVERAGE MISS LATENCY: 161.776 cycles
LLC RQ	ACCESS:     560570	FORWARD:          0	MERGED:          0	TO_CACHE:     560562
LLC WQ	ACCESS:     131108	FORWARD:          8	MERGED:          0	TO_CACHE:     131108
LLC PQ	ACCESS:     481048	FORWARD:          0	MERGED:          0	TO_CACHE:     481048

LLC Dense regions hint to LLC: 0

RAW hits: 1810670
Loads Generated: 12637884
Loads sent to L1D: 10827211
Stores Generated: 6947172
Stores sent to L1D: 6947190
Major fault: 0 Minor fault: 2554
Allocated PAGES: 2554
CPU 0 L1I prefetcher final stats
USEFUL PREFETCHES 1269018
USELESS PREFETCHES 1593233
MISSES TRACKED 2245674
MISSES OMITTED 2453855
2245674 2273717 4669001BRANCHES PENDING
22804100/32491826
To predecode: 9164124 predecoding_something: 307856921

stream: 
stream:times selected: 1186117
stream:pref_filled: 116676
stream:pref_useful: 21824
stream:pref_late: 8037
stream:misses: 8233
stream:misses_by_poll: 0

CS: 
CS:times selected: 181003
CS:pref_filled: 54501
CS:pref_useful: 31277
CS:pref_late: 12327
CS:misses: 22114
CS:misses_by_poll: 10

CPLX: 
CPLX:times selected: 1003945
CPLX:pref_filled: 18934
CPLX:pref_useful: 4108
CPLX:pref_late: 3598
CPLX:misses: 95107
CPLX:misses_by_poll: 0

NL_L1: 
NL:times selected: 19424
NL:pref_filled: 547
NL:pref_useful: 216
NL:pref_late: 398
NL:misses: 1594
NL:misses_by_poll: 0

total selections: 2390489
total_filled: 92680
total_useful: 34584
total_late: 25817
total_polluted: 10
total_misses_after_warmup: 772124
conflicts: 5600225

test: 116921

DRAM Statistics
 CHANNEL 0
 RQ ROW_BUFFER_HIT:      11322  ROW_BUFFER_MISS:      19942
 DBUS_CONGESTED:          6
 WQ ROW_BUFFER_HIT:       1560  ROW_BUFFER_MISS:      13540  FULL:          0

 AVG_CONGESTED_CYCLE: 5

CPU 0 Branch Prediction Accuracy: 99.8245% MPKI: 0.32072 Average ROB Occupancy at Mispredict: 154.597
Branch types
NOT_BRANCH: 40860498 81.721%
BRANCH_DIRECT_JUMP: 547448 1.0949%
BRANCH_INDIRECT: 182448 0.364896%
BRANCH_CONDITIONAL: 6177505 12.355%
BRANCH_DIRECT_CALL: 943625 1.88725%
BRANCH_INDIRECT_CALL: 172168 0.344336%
BRANCH_RETURN: 1115804 2.23161%
BRANCH_OTHER: 0 0%

DRAM PAGES: 1048576
Allocated PAGES: 2554
Average_ROB_Occupancy: 149.195
Average_Decode_Occupancy: 17.4109
Average_FTQ_Occupancy: 7.72396
Indirect max targets: 14 Average targets: 1.15488
Branch_type:  BRANCH_DIRECT_JUMP:  Count Percentage: 1.94565 5.77749 5.0648 8.74916 2.23204 5.97073 5.98471 64.2754 
Branch_type:  BRANCH_INDIRECT:  Count Percentage: 11.7409 5.55601 2.54931 0 1.33929 9.67495 17.6494 51.4902 
Branch_type:  BRANCH_CONDITIONAL:  Count Percentage: 24.6534 6.86449 1.56425 5.00453 1.52164 4.76238 2.95787 52.6714 
Branch_type:  BRANCH_DIRECT_CALL:  Count Percentage: 0.259071 1.47569 1.27402 4.19591 2.48863 2.22707 0.704199 87.3754 
Branch_type:  BRANCH_INDIRECT_CALL:  Count Percentage: 9.51291 2.27206 2.98052 8.66386 1.3931 1.70419 1.27894 72.1944 
Branch_type:  BRANCH_RETURN:  Count Percentage: 7.30194 5.10079 1.16083 5.88087 3.30359 6.11259 3.73891 67.4005 
Branch_type:  BRANCH_DIRECT_JUMP:  Total Count: 21305 63264 55460 95804 24441 65380 65533 703821 
Branch_type:  BRANCH_INDIRECT:  Total Count: 42868 20286 9308 0 4890 35325 64441 188000 
Branch_type:  BRANCH_CONDITIONAL:  Total Count: 3045316 847937 193224 618185 187961 588274 365372 6506249 
Branch_type:  BRANCH_DIRECT_CALL:  Total Count: 4893 27871 24062 79247 47002 42062 13300 1650235 
Branch_type:  BRANCH_INDIRECT_CALL:  Total Count: 32750 7822 10261 29827 4796 5867 4403 248543 
Branch_type:  BRANCH_RETURN:  Total Count: 163107 113939 25930 131364 73794 136540 83518 1505558 
Number of unique branch instructions: 9960
Upper 32 bits: 
aaaa
ffff
ffff0000
Unique upper 32 bits: 3
Unique upper 36 bits: 3
Unique upper 40 bits: 5
Unique upper 44 bits: 32
Unique upper 48 bits: 153
Offset_3 4111
Offset_4 243
Offset_5 453
Offset_6 504
Offset_7 587
Offset_8 515
Offset_9 462
Offset_10 380
Offset_11 318
Offset_12 278
Offset_13 216
Offset_14 232
Offset_15 179
Offset_16 219
Offset_17 152
Offset_18 120
Offset_19 234
Offset_20 136
Offset_21 239
Offset_22 399
Offset_23 241
Offset_24 333
Offset_25 94
Offset_47 84
decode_dispatch_called: 20688220 48.9854
Dispatch_width: 0 10368631 50.1185 24.5508
Dispatch_width: 1 603602 2.91761 1.4292
Dispatch_width: 2 694585 3.35739 1.64463
Dispatch_width: 3 441721 2.13513 1.0459
Dispatch_width: 4 2243154 10.8427 5.31132
Dispatch_width: 5 310036 1.49861 0.734101
Dispatch_width: 6 6026491 29.1301 14.2695
Empty_decode_cycles: 21545224 51.0146
ROB_full_cycles: 3392884 8.03364
Starvation_cycles_per_kilo_instr: 328.141
Starvation_cycles_per_kilo_instr_3: 302.609
Starvation_cycles_per_kilo_instr_0: 285.21
Branch_type_1  (3,1)  (4,7)  (5,37)  (6,70)  (7,116)  (8,129)  (9,124)  (10,98)  (11,71)  (12,43)  (13,8)  (14,2)  (15,3)  (16,4)  (18,1)  (19,4)  (20,2)  (21,1)  (22,3)  (23,2)  (24,10)  (25,12) 
Branch_type_2  (3,1)  (4,1)  (5,1)  (8,3)  (9,3)  (12,1)  (13,1)  (14,1)  (16,3)  (17,2)  (20,2)  (21,2)  (23,5)  (24,1)  (47,39) 
Branch_type_3  (3,4109)  (4,235)  (5,411)  (6,419)  (7,442)  (8,325)  (9,249)  (10,154)  (11,127)  (12,50)  (13,7) 
Branch_type_4  (6,3)  (7,8)  (8,24)  (9,51)  (10,60)  (11,60)  (12,101)  (13,91)  (14,104)  (15,84)  (16,97)  (17,69)  (18,54)  (19,115)  (20,69)  (21,127)  (22,211)  (23,136)  (24,194)  (25,78) 
Branch_type_5  (8,2)  (9,1)  (10,4)  (11,5)  (12,3)  (13,14)  (14,16)  (15,11)  (16,20)  (17,11)  (18,16)  (19,12)  (20,12)  (21,13)  (22,42)  (23,26)  (24,36) 
Branch_type_6  (5,4)  (6,12)  (7,21)  (8,32)  (9,34)  (10,64)  (11,55)  (12,80)  (13,95)  (14,109)  (15,81)  (16,95)  (17,70)  (18,49)  (19,103)  (20,51)  (21,96)  (22,143)  (23,72)  (24,92)  (25,4)  (47,45) 
Unique trigger count: 
BTB PER SET UNIQUE ADDR: 2 4 3 2 1 0 3 2 4 0 2 0 5 3 1 3 3 2 3 4 3 4 2 3 4 5 1 3 3 2 6 6 4 2 5 2 1 5 5 2 4 4 3 6 6 3 4 3 6 3 3 2 3 1 0 3 4 3 3 3 1 4 2 3 1 4 5 2 3 5 5 1 1 4 2 3 3 6 1 3 2 2 1 4 3 3 2 5 3 3 6 5 3 5 2 0 3 4 1 3 4 3 3 3 2 2 1 2 3 2 2 1 3 6 2 6 2 4 4 1 4 4 2 0 1 2 2 1 6 4 5 2 3 2 5 3 2 1 3 3 5 3 3 2 2 3 2 5 4 3 3 8 3 5 2 0 3 3 4 2 4 5 3 4 5 3 2 2 9 1 2 2 4 2 1 1 3 4 5 1 3 3 6 3 5 4 4 1 2 3 5 3 3 4 4 4 2 3 2 4 3 2 3 1 3 3 2 5 3 1 2 4 5 3 3 2 1 5 3 0 1 2 2 3 3 2 4 3 0 4 8 3 2 1 4 3 3 1 1 3 1 0 6 4 9 6 1 2 3 3 2 1 1 3 2 6 3 5 4 3 4 4 4 2 3 7 3 2 4 2 3 2 2 3 4 2 1 1 3 3 4 3 6 2 5 5 3 3 1 1 0 3 1 5 1 1 5 3 2 2 3 3 1 2 3 2 4 2 7 5 3 1 3 2 5 1 6 6 2 2 3 7 3 4 2 2 1 5 1 1 4 0 2 5 5 1 3 3 5 0 3 0 1 4 3 3 1 2 4 3 2 6 5 3 5 3 2 0 4 1 2 5 2 4 7 5 1 1 2 1 3 2 2 4 4 4 3 3 3 4 5 3 1 4 3 2 5 2 4 1 5 4 4 2 3 1 5 0 1 3 4 3 4 2 2 4 4 3 1 1 1 3 5 4 2 2 6 4 1 3 1 1 3 4 4 5 2 0 2 4 2 2 9 3 5 5 3 3 3 0 2 4 5 4 4 6 2 4 3 2 4 3 1 2 5 0 1 4 7 3 3 3 4 6 1 3 4 2 3 3 0 4 5 2 2 1 3 5 2 1 2 1 2 2 0 4 3 0 6 1 5 2 3 4 0 6 3 3 3 1 5 1 1 1 1 2 2 2 2 3 3 2 4 7 2 1 2 6 4 5 3 5 4 3 6 6 0 7 6 3 5 3 3 6 3 4 2 1 4 1 2 5 7 3 5 2 8 3 6 9 4 6 4 6 1 3 4 1 2 4 8 3 5 2 2 1 4 2 3 7 3 2 3 7 2 2 3 3 1 5 5 2 2 0 1 0 0 9 5 3 5 7 2 1 2 3 4 2 2 1 4 2 4 7 2 5 4 4 2 2 5 2 3 2 2 3 2 0 3 1 4 3 7 2 2 3 2 5 2 3 5 4 3 3 5 3 2 3 2 3 8 1 4 4 0 0 3 4 3 4 3 2 5 2 3 0 5 3 2 3 6 2 5 4 6 3 5 3 1 3 5 4 4 3 5 6 3 3 3 3 3 2 6 2 5 3 5 3 4 3 1 5 2 2 2 3 6 4 5 5 0 6 0 3 3 2 3 1 3 1 3 3 3 1 2 1 7 2 0 3 2 0 1 1 1 1 1 4 2 4 5 4 2 1 2 4 5 3 2 2 1 3 2 4 2 1 4 2 3 2 0 2 1 3 2 3 2 6 4 1 3 3 2 5 4 4 8 2 2 2 3 3 0 3 3 3 5 2 1 3 4 4 0 3 8 6 3 4 0 3 2 4 2 1 4 6 7 2 2 2 5 3 4 3 4 3 3 5 2 3 1 3 4 0 4 3 1 2 0 4 4 2 4 2 2 1 2 2 4 4 3 1 3 2 5 2 2 1 5 2 2 1 3 3 1 4 7 4 5 2 6 2 5 4 4 4 3 2 4 4 2 6 2 1 8 3 3 4 5 3 1 3 3 6 4 0 2 3 5 4 3 5 4 4 6 3 2 2 3 4 4 2 3 4 2 1 6 3 1 1 5 2 2 3 4 5 3 5 3 4 5 4 0 3 1 5 0 1 5 2 6 5 5 3 4 1 3 2 5 7 4 4 9 7 5 4 6 5 1 5 4 2 0 4 4 5 5 5 3 2 6 1 5 4 2 4 6 5 4 2 3 2 4 5 2 6 9 4 6 3 3 3 0 5 5 1 7 5 1 3 7 5 3 5 2 1 2 3 4 2 5 4 2 7 4 5 4 5 3 5 1 3 4 2 2 5 4 3 3 3 5 3 4 3 5 2 5 3 2 4 5 2 10 5 3 3 3 2 2 3 4 7 6 2 3 2 3 2 3 1 3 2 4 4 2 4 4 5 4 6 0 3 3 3 3 4 2 1 2 2 3 1 0 1 4 1 2 3 3 4 1 8 5 3 2 1 10 1 2 4 1 2 6 5 3 7 2 5 4 5 2 5 2 2 1 1 5 0 4 4 3 7 4 1 6 4 6 2 3 4 5 3 5 7 4 4 6 1 4 4 7 4 3 2 4 3 6 6 3 6 5 6 4 3 4 3 1 2 3 5 1 3 2 1 3 4 2 2 5 2 2 5 4 1 5 1 7 3 3 2 3 1 3 5 3 4 3 4 2 6 2 3 6 3 4 3 3 5 2 8 3 5 3 8 6 1 6 1 5 2 1 2 4 4 3 1 3 4 2 1 2 2 4 3 3 2 3 4 2 5 2 5 4 5 0 5 3 2 2 6 7 0 7 0 1 4 4 2 5 1 3 3 4 1 1 2 4 5 3 4 1 4 3 6 5 1 4 3 3 6 9 4 2 6 5 5 1 1 3 5 6 3 2 2 3 3 4 4 5 3 1 4 2 2 6 8 5 3 3 6 1 2 5 2 4 1 3 2 6 8 2 3 3 3 4 4 2 5 6 6 4 2 1 5 3 2 4 3 4 4 3 4 7 3 5 4 3 5 5 2 1 7 4 4 3 3 3 2 3 3 2 2 5 4 2 2 5 1 1 3 3 7 4 2 3 4 2 3 3 3 4 3 2 1 3 2 4 2 5 3 4 4 2 1 2 6 1 4 2 4 2 4 5 2 1 4 4 4 3 3 5 2 3 4 4 5 4 4 4 3 3 2 2 3 5 2 4 1 3 0 8 3 2 6 4 4 5 7 3 2 3 3 1 2 4 1 4 2 4 2 0 5 1 4 2 2 3 3 3 2 4 2 4 2 3 1 5 2 0 3 3 1 1 3 1 4 2 3 6 3 1 2 2 3 2 2 6 2 3 6 3 3 3 3 2 2 3 0 2 2 2 3 2 1 2 0 3 0 4 2 3 3 2 3 2 1 2 4 4 2 6 1 3 3 2 2 4 5 2 2 5 0 1 2 3 1 1 2 3 3 5 3 1 1 6 2 1 4 1 6 1 4 2 3 6 2 2 2 1 3 3 1 0 3 4 2 3 3 1 2 0 5 2 3 3 0 3 2 5 4 4 3 4 4 1 3 2 2 2 2 5 0 2 3 3 3 3 2 3 3 2 9 6 2 2 2 4 1 1 3 5 2 3 0 3 2 3 2 3 4 5 5 8 0 4 1 6 4 4 5 3 7 2 4 8 3 0 6 3 3 3 4 3 3 2 1 2 4 2 2 3 3 2 3 5 3 5 4 6 1 1 5 5 3 3 4 5 3 6 2 5 5 2 6 3 3 3 1 3 6 5 3 2 3 3 3 3 4 2 2 3 2 3 1 3 7 0 2 2 3 3 3 5 3 4 2 5 1 2 2 5 2 4 5 6 1 1 7 2 4 2 3 4 6 2 3 2 3 6 2 5 3 5 3 4 9 4 4 3 5 1 5 3 3 2 3 0 2 2 3 4 3 2 3 3 5 4 2 4 9 0 3 2 4 4 4 3 4 3 6 2 4 1 5 2 3 4 3 3 0 2 5 0 7 2 5 5 1 4 3 2 0 4 2 3 5 3 6 2 3 2 1 3 4 6 1 3 3 0 3 2 4 5 3 1 3 5 2 3 2 6 3 4 1 5 3 0 2 4 1 1 8 2 0 4 2 4 3 2 3 6 3 3 6 1 5 3 5 2 5 4 2 3 2 7 1 4 0 3 3 4 4 3 3 2 1 2 3 0 3 0 3 4 6 2 2 5 2 3 3 3 1 2 2 4 2 4 2 5 3 2 3 1 2 3 3 2 2 3 3 2 1 1 2 2 5 1 4 1 5 4 2 3 1 4 1 2 3 4 2 3 4 4 5 3 3 3 3 3 2 0 3 2 0 0 1 2 2 4 2 5 2 2 3 4 1 1 3 3 2 2 6 3 2 7 5 4 2 3 1 2 5 3 3 5 2 4 0 1 2 4 3 2 4 3 2 4 3 4 7 3 2 0 4 1 0 2 3 0 4 4 6 1 3 4 6 4 0 2 2 4 2 4 1 3 1 8 3 1 2 3 6 2 7 3 3 7 0 1 3 1 4 2 1 0 2 3 4 5 4 1 0 3 4 5 1 1 1 3 5 2 1 5 4 3 3 5 4 1 6 2 6 1 1 2 2 2 2 4 1 3 1 3 2 3 1 5 2 4 3 4 2 1 3 5 4 4 0 
BTB PER SET COUNT: 2 4 3 1479 1 0 977 2 4 0 2 0 3853 60 1 3 3 19 1423 5204 3 488 2 3 11 6862 1 3 1468 2 3523 2501 4 2 5719 276 2934 3183 4238 2 7 5918 3 2204 11028 3 4 3 1603 3 877 3517 3 1 0 3 4 3 4 871 5 4 979 486 1 380 536 2 3 999 834 2931 1 8738 2 979 1469 748 1 4 2 2 1 4 3 3 2 12 3 3 2953 2446 4 3911 3 0 872 4 1 3 526 1714 3847 3 2 2 1 2853 93 3 2 1 114 2652 2526 2402 871 1296 4 1 4 4 2 0 1 2 8 1 1964 5 18872 2 4111 2 983 3 1859 1 9 3 3679 6 3 2 5 4 2 7769 4 1647 3 7033 3 10282 2 0 3 3 1003 9969 4650 1187 3 1471 5 1957 298 2 13821 238 2 2 923 20 1 5971 3 4 985 9 477 97 6847 468 4594 2046 1443 1 2 3 35 3 3 1728 1474 3080 23 3 235 981 4332 3 2114 1 5 3 2 1474 3318 1 546 6 14 3 3 1806 1 7 7952 0 1 843 2 3 4728 2 64 63 0 8 14162 3 2 1 989 3 3 44 1 3 2 0 2450 4 9290 5915 734 2 3 3 7051 1 1 1516 2 3724 3 7 4 3 1192 626 1770 2 1591 2106 3 13666 277 2 3 2 2 3 1461 6790 1 1 3 16 80058 3 1962 14920 1711 10244 3 3 1 1 0 1899 1 54 1 3793 976 2628 2 2 3 3 1 2 3 2 11 2 1962 983 2464 8057 3 2 16434 4 2450 1239 2 2 601 2214 3 1539 2 2 1 25 1 3 3568 0 2 15 1525 1 986 2867 2470 0 3 0 1 983 982 1470 1 2 3848 802 2 596 4206 13643 1027 3110 2 0 4 1 2 3301 1425 4 2676 9 957 39 490 1 3428 2 2 6 6 2950 1446 2940 960 4 24 458 1 77823 80 2 738 3 4 1 2934 578 2899 447 4 1 7911 0 2 3 4 3 17 2 2 3464 2491 4 1 977 1 1198 44 4 978 1468 772 1043 1 92 1 1 3 44 1558 6 5 0 2 6 3100 2906 8977 3 2695 5625 3 3 4269 0 3 494 4024 379 4 2343 3031 2347 3 1956 981 3 1 2 1958 0 1 4 7863 4 3 3 4 2999 1 1584 981 2 3 6044 0 1908 42 490 2 1 3 980 2 1 2747 1 2 4557 0 3692 19 0 30 1 5 2 2059 983 0 35 3 2438 3 1 3758 19 1 1 1 2 2 257 46 3 6 2 4 526 3 2061 1471 5389 7 503 3 1476 912 13 1275 4325 0 1962 4896 3 6 4890 3 1241 1470 493 2 40 4 1 3 1472 226 725 1796 19 83 3 999 13621 4082 2102 8973 2935 1 3 10 1 1469 2773 16490 3 1961 2 2 1 4 1977 6 3916 160 3 3 6410 2 2 1045 3 1 24 1616 48 2 0 1 0 0 5019 7770 4 2013 2941 3 1 978 735 4 2 1619 1 3639 704 2883 7279 2 7 4 1471 2 2 2645 2 3 2 944 3 3388 0 2483 114 4 492 3431 4241 7 3 2 15 2 1717 4293 6476 3 11 3276 3 2 2524 2 3 3455 1 4 33 0 0 4 6 12 4 3 2 974 479 4 0 14 650 784 3 17117 950 2149 4 1960 3 5405 982 2 3 6677 4 6770 4 1471 3012 487 3 3 1100 4897 2805 10 981 6085 3 3048 1468 4 1475 20 3097 2 2 3558 3 5853 9 4677 38 0 2927 0 574 3 981 3 1 1050 1 3 3 5 1 981 1 2464 970 0 3 2 0 1 1 1 1 1 1764 1433 4 5635 5684 978 1 2 482 6 342 2 2193 1557 3 4266 6498 2 1 493 2 3 1960 0 2 1 6 2 3 2 7877 2363 1 3 2190 2 27 627 4 9015 2 2 1420 3 451 0 135 3 6 2933 3 1 4645 4 5 0 1471 4574 4913 8 2750 0 3 2 1537 2 1 4 1488 3452 2 2 2 8691 2438 309 1208 2207 3 3 19 2 927 1 1428 5 0 26 4 3 2 0 4 4 4800 2652 2 1941 1463 2 2 1488 3253 49451 1 1885 2 3565 6 2 1 2557 6293 2 1 3 9373 1 8 2004 2105 14 3 20998 3788 1960 7 3043 4 3 2 78 4 2 6400 2 1 6416 979 6 4 4466 1000 1 991 1480 4453 5 0 2 1473 24 13 9 6357 5 8122 1192 3 2 170 1472 4 5 2 4 14 2 2 4798 3 1 996 1688 2 2 1726 28054 2443 3 4636 3 3738 3137 4 0 3 1 5704 0 1 1467 2480 49 11 1470 48 8 1468 927 2 3291 3187 4 494 5404 3911 9131 2926 2233 9 1 24 4 626 0 980 4 6358 1413 1471 98 2 829 1 7407 351 4537 4 8355 1964 11 2 980 491 493 4890 3 4882 2564 4204 8501 1469 2935 3 0 1165 8851 1 7333 3879 1 31 6839 998 492 30 2 2 3 3 4 5929 2290 5837 2 6474 488 5 4 4800 3 1247 1 3 4 3917 2 5390 4 3 3 1596 4177 2300 5777 1356 1714 3 733 5 2 4 2801 2067 6336 1508 3 247 3 2 2 3 4 5390 1966 5 959 63 3 2 3 4 3 2 984 2154 2 5 875 1962 7845 6567 0 3 3 3 1468 382 794 2 2 2 487 1 0 1 7 1 2 4 3 5 1566 4407 2984 12547 7 1 13913 1 2 5 979 2371 3892 1087 976 5379 2082 24 4 2449 2 28 2 2 1 1 4915 0 3997 4 3 12093 1473 1 3518 2921 7218 338 492 4 44 3 2448 2791 4 3922 2454 465 5 8 10796 4 3 980 4 3 9320 2450 2874 4410 20537 3788 4 3 289 4 1 2 3 14183 1577 3 2 1 3 6 581 2 504 4 1962 26 4 4905 1966 1 5602 3 735 225 5 1 24 3674 3 4133 4 4 7339 26 6 7 1737 1666 4 5 3 5951 2 6111 3 2415 3 7180 14910 1 5378 3413 2207 3350 1283 2 493 1468 5 1212 2341 3106 3 1 2 490 2842 6479 3 978 2372 15 1913 1470 1586 2969 4 3965 0 3071 3 2 2 48 16474 0 303 0 1 4 3878 3 24 1 963 989 16 1 1 2 3322 2493 3 1394 521 1194 17 14380 11510 1 4639 802 3 2961 10799 1969 4609 8581 4323 3115 1 1 240 1959 2452 2808 2 2 2102 3 4 7 950 3 1 1770 22510 2 3439 15606 6858 3 3 644 4576 2 34 2 4 1 3 716 6247 8325 978 3 3 3 984 29 2 4626 1965 3961 986 727 1 4020 3869 2 3598 4414 4 4 1692 1072 5982 1959 1960 2937 493 3781 2451 8 1707 33103 4 3700 3 3 3 2 3 1014 2 2 15 1169 2 144 1463 1 1 4319 980 4411 6946 3 390 4 2 3 3 660 4 3 4 1 3 10211 5494 2 5414 7280 776 4 2 4988 460 7087 1 6469 2 5 3 4 1641 2 1 4 4 980 3 1962 2450 3 954 2002 4 8150 5 5 4 3 4 7170 2 2812 4413 2 4 1 2261 0 12995 2195 2 2938 917 4 2488 9346 1327 2 3 1016 1 3 735 1 5059 1436 1471 4 0 19504 1 76 2 2 2733 175 3 2 4726 2200 4 1355 4 1 517 2 0 3 235 1 2 1356 1 15628 2 3 6183 727 1 2 2 4314 2 2 2940 2 3 662 3 3 2088 963 2 3950 847 0 4 1602 2 1945 2 1 2 0 5 0 4 2 3009 880 2 3889 980 495 5 4 5833 2 15570 1 3 242 2 490 4 219 4925 2 23594 0 1 2 255 1 1 2 17650 3 2003 402 1 1 2329 2 514 4 1 5385 1 4401 2 4 1949 14 5384 96 1 202 3 1 0 7 1470 2 3 3 1 2 0 6339 2 3 3 0 5026 1998 2536 4 6305 3 4 1972 1 42 2 1460 2 2 5 0 2 3 3 3 9032 2 4 981 2 4476 2941 7052 2 1468 984 1 1 3 1712 2 1011 0 2664 2 3 2 2092 4432 2447 17 5868 0 211 1 2916 4 242 8460 3 7312 2 755 8411 484 0 5879 6291 3 3 4410 2041 240 2 1 2 980 3075 1462 3 959 2 238 3374 5 1958 519 8627 2936 1 1264 37578 4 5 5875 9 1919 6380 2 2712 1959 2578 2471 3194 259 380 1 1936 2967 13 4404 7 14989 34 3 4 4 2 18 4 2 4563 1 3 2552 0 2 2 1226 2268 3 3188 254 957 4055 12078 2 2 2 5239 2 3427 2750 2941 1 1 6354 2 1021 2 4 983 1965 491 4 3178 3317 2940 2 495 3 6352 1220 4 9888 239 4 14664 2940 2927 1958 1470 4 36 1247 0 2 2 250 3565 1471 2 1366 3 8 1439 8779 180 3921 0 1469 2 1469 3372 4 3 4 3352 3631 56 3043 1 2449 2 5 3480 3 3 0 491 2982 0 5380 520 1264 2450 733 2452 3 2 0 3196 2 3 9209 3 8798 2 3 2 11 3 4838 7335 1 9 12075 0 4 232 4555 3507 979 1 3 1959 2 3 2 6752 3 4 489 10392 1014 0 2 494 1466 1 6517 2 0 8338 516 5 3 4 2027 3382 3 436 6955 1 4523 6400 4893 224 1960 1709 2 3 2 10645 4675 6635 0 3 1469 616 5 4 3571 1931 3 2 491 0 2426 0 3 3127 3298 2606 2 2040 1088 1230 7 979 1 15864 2 5 679 4 2 127 3 6355 3 146 2 1729 3 2 2896 3 3 2 1 1 60 2 1510 1 4 2747 10973 492 2 1329 7 23 1 1978 3824 678 2441 491 1013 1443 7567 5 3 3 3 3 2 0 4 2 0 0 1 239 460 4 48 2449 2 2 3 4 1 1 999 3 7 1441 3232 15 194 3673 5188 883 6 3 2 2 599 3 3 497 2 2301 0 2249 2 2521 980 2 4 3 25237 6 3 980 3308 926 3 0 4 2409 0 3209 1718 0 4 1470 1002 1 3 4 2422 7 0 2772 2 6 2 586 1426 1027 733 6698 2141 615 2 1615 2454 8 31333 2933 3 15439 0 1 13 1 4 12734 295 0 710 2965 5 1506 4 1 0 601 4947 1662 1 1 1 3 6641 2 1 4865 4 3879 16 3268 1912 1 2458 2 6245 1 15838 1095 2 2 9 481 1 3 4 1695 964 4 2448 18 28 823 3 25673 12 2 3 1769 42 4 0 
