
*** ChampSim Multicore Out-of-Order Simulator ***

Warmup Instructions: 50000000
Simulation Instructions: 50000000
Number of CPUs: 1
LLC sets: 2048
LLC ways: 16
Off-chip DRAM Size: 4096 MB Channels: 1 Width: 64-bit Data Rate: 6400 MT/s
CPU 0 runs ./micro_traces/srv714.trace.gz
.gz
ITLB has LRU replacement policy
DTLB has LRU replacement policy
STLB has LRU replacement policy
CPU 0 L1I next line prefetcher
L1I has LRU replacement policy
L1D has LRU replacement policy
Initialize SRRIP state for L2C
Initialize DRRIP state for LLC
Heartbeat CPU 0 instructions: 10000003 cycles: 2795836 heartbeat IPC: 3.57675 cumulative IPC: 3.57675 (Simulation time: 0 hr 1 min 38 sec) 
Heartbeat CPU 0 instructions: 20000000 cycles: 5591391 heartbeat IPC: 3.57711 cumulative IPC: 3.57693 (Simulation time: 0 hr 3 min 15 sec) 
Heartbeat CPU 0 instructions: 30000002 cycles: 8386324 heartbeat IPC: 3.5779 cumulative IPC: 3.57725 (Simulation time: 0 hr 4 min 54 sec) 
Heartbeat CPU 0 instructions: 40000003 cycles: 11183837 heartbeat IPC: 3.5746 cumulative IPC: 3.57659 (Simulation time: 0 hr 6 min 34 sec) 
Heartbeat CPU 0 instructions: 50000001 cycles: 13980885 heartbeat IPC: 3.5752 cumulative IPC: 3.57631 (Simulation time: 0 hr 8 min 14 sec) 

Warmup complete CPU 0 instructions: 50000001 cycles: 13980885 (Simulation time: 0 hr 8 min 14 sec) 

Cycle: 20000000 FTQ IN: 58026547 FTQ occupancy: 18.6527 DECODE IN: 58026530 DECODE occupancy: 49.6295 ROB IN: 58026512 ROB occupancy: 308.332 ROB OUT: 58026175
Heartbeat CPU 0 instructions: 60000001 cycles: 21447018 heartbeat IPC: 1.33938 cumulative IPC: 1.33938 (Simulation time: 0 hr 9 min 51 sec) 
Heartbeat CPU 0 instructions: 70000001 cycles: 28915818 heartbeat IPC: 1.3389 cumulative IPC: 1.33914 (Simulation time: 0 hr 11 min 29 sec) 
Cycle: 30000000 FTQ IN: 13439222 FTQ occupancy: 8.90302 DECODE IN: 13439239 DECODE occupancy: 26.4095 ROB IN: 13439257 ROB occupancy: 220.819 ROB OUT: 13439444
Heartbeat CPU 0 instructions: 80000000 cycles: 36310120 heartbeat IPC: 1.35239 cumulative IPC: 1.34353 (Simulation time: 0 hr 13 min 4 sec) 
Cycle: 40000000 FTQ IN: 13534982 FTQ occupancy: 8.78364 DECODE IN: 13534935 DECODE occupancy: 26.0547 ROB IN: 13534935 ROB occupancy: 218.626 ROB OUT: 13534992
Heartbeat CPU 0 instructions: 90000000 cycles: 43762924 heartbeat IPC: 1.34178 cumulative IPC: 1.34309 (Simulation time: 0 hr 14 min 40 sec) 
Cycle: 50000000 FTQ IN: 13493060 FTQ occupancy: 8.95474 DECODE IN: 13493098 DECODE occupancy: 26.362 ROB IN: 13493085 ROB occupancy: 220.588 ROB OUT: 13493161
Heartbeat CPU 0 instructions: 100000002 cycles: 51101262 heartbeat IPC: 1.36271 cumulative IPC: 1.34697 (Simulation time: 0 hr 16 min 21 sec) 
Finished CPU 0 instructions: 50000001 cycles: 37120377 cumulative IPC: 1.34697 (Simulation time: 0 hr 16 min 21 sec) 

ChampSim completed all CPUs

Region of Interest Statistics

CPU 0 cumulative IPC: 1.34697 instructions: 50000001 cycles: 37120377
 Fetch stage stalled: 60.1107  Sim cycles: 37120377 fetch stall cycle: 22313324
 Empty decode stage: 42.1705  Sim cycles: 37120377 fetch stall cycle: 15653859
ITLB TOTAL     ACCESS:    7693270  HIT:    7081873  MISS:     611397  HIT %:    92.0528  MISS %:    7.94717   MPKI: 12.2279
ITLB LOAD TRANSLATION INSTRUCTION	ACCESS:    5970698  HIT:    5841004  MISS:     129694  HIT %:    97.8278  MISS %:    2.17217  MPKI: 2.59388
ITLB TRANSLATION FROM L1D PREFETCHER INSTRUCTION	ACCESS:    1722572  HIT:    1240869  MISS:     481703  HIT %:    72.0358  MISS %:    27.9642  MPKI: 9.63406

ITLB AVERAGE MISS LATENCY: 184247 cycles
ITLB RQ	ACCESS:   11595052	FORWARD:          0	MERGED:    3755984	TO_CACHE:    7839068

DTLB TOTAL     ACCESS:    8985124  HIT:    8507439  MISS:     477685  HIT %:    94.6836  MISS %:     5.3164   MPKI: 9.5537
DTLB LOAD TRANSLATION DATA	ACCESS:    8985124  HIT:    8507439  MISS:     477685  HIT %:    94.6836  MISS %:     5.3164  MPKI: 9.5537

DTLB AVERAGE MISS LATENCY: 9.36626 cycles
DTLB RQ	ACCESS:   13346793	FORWARD:          0	MERGED:    4325265	TO_CACHE:    9021528

STLB TOTAL     ACCESS:    1340235  HIT:    1338040  MISS:       2195  HIT %:    99.8362  MISS %:   0.163777   MPKI: 0.0439
STLB LOAD TRANSLATION INSTRUCTION	ACCESS:     126282  HIT:     126121  MISS:        161  HIT %:    99.8725  MISS %:   0.127492  MPKI: 0.00322
STLB TRANSLATION FROM L1D PREFETCHER INSTRUCTION	ACCESS:     485115  HIT:     485012  MISS:        103  HIT %:    99.9788  MISS %:  0.0212321  MPKI: 0.00206
STLB LOAD TRANSLATION DATA	ACCESS:     477685  HIT:     475767  MISS:       1918  HIT %:    99.5985  MISS %:    0.40152  MPKI: 0.03836
STLB TRANSLATION FROM L1D PREFETCHER DATA	ACCESS:     251153  HIT:     251140  MISS:         13  HIT %:    99.9948  MISS %: 0.00517613  MPKI: 0.00026

STLB AVERAGE MISS LATENCY: 79.5991 cycles
STLB RQ	ACCESS:    1480373	FORWARD:          0	MERGED:     136680	TO_CACHE:    1343693

STLB Hit, L1D data hit: 0
STLB Hit, L2C data hit: 0
STLB Hit, LLC data hit: 0
STLB Hit, LLC data miss: 0
STLB STLB hints to L2: 0
L1D TOTAL     ACCESS:   13084531  HIT:   11936531  MISS:    1148000  HIT %:    91.2263  MISS %:    8.77372   MPKI: 22.96
L1D LOAD DATA	ACCESS:    6583611  HIT:    5824887  MISS:     758724  HIT %:    88.4756  MISS %:    11.5244  MPKI: 15.1745
L1D RFO DATA	ACCESS:    6170982  HIT:    5884127  MISS:     286855  HIT %:    95.3516  MISS %:    4.64845  MPKI: 5.7371
L1D PREFETCH DATA	ACCESS:     329938  HIT:     227517  MISS:     102421  HIT %:    68.9575  MISS %:    31.0425  MPKI: 2.04842

L1D PREFETCH  REQUESTED:     776223  ISSUED:     776223  USEFUL:      43659  USELESS:      70848
L1D USEFUL LOAD PREFETCHES:      43659 PREFETCH ISSUED TO LOWER LEVEL:     114575  ACCURACY: 38.1052
 TIMELY PREFETCHES:      43659 LATE PREFETCHES: 12101 DROPPED PREFETCHES: 3
L1D AVERAGE MISS LATENCY: 343846 cycles
L1D RQ	ACCESS:   10696494	FORWARD:          0	MERGED:    3914335	TO_CACHE:    6622558
L1D WQ	ACCESS:    6919153	FORWARD:     160094	MERGED:     194918	TO_CACHE:    6724235
L1D PQ	ACCESS:     388358	FORWARD:          0	MERGED:          0	TO_CACHE:     387865

L1D UNIQUE REGIONS ACCESSED: 0
L1D REGIONS CONFLICTS: 0
L1D Cross Page Prefetch Requests: 5860
L1D Same Page Prefetch Requests: 781518
L1D ROI Sum of L1D PQ occupancy: 4919921
L1D PREFETCHES PUSHED FROM L2C: 0
L1I TOTAL     ACCESS:   11167154  HIT:    7518756  MISS:    3648398  HIT %:    67.3292  MISS %:    32.6708   MPKI: 72.968
L1I LOAD INSTRUCTION	ACCESS:    6694107  HIT:    6096935  MISS:     597172  HIT %:    91.0791  MISS %:    8.92086  MPKI: 11.9434
L1I PREFETCH INSTRUCTION	ACCESS:    4473047  HIT:    1421821  MISS:    3051226  HIT %:    31.7864  MISS %:    68.2136  MPKI: 61.0245

L1I PREFETCH  REQUESTED:    5153124  ISSUED:    5152371  USEFUL:    2354480  USELESS:     804736
L1I USEFUL LOAD PREFETCHES:    2354480 PREFETCH ISSUED TO LOWER LEVEL:    3159168  ACCURACY: 74.5285
 TIMELY PREFETCHES:    2354480 LATE PREFETCHES: 107942 DROPPED PREFETCHES: 9974
L1I AVERAGE MISS LATENCY: 966328 cycles
L1I RQ	ACCESS:    9466882	FORWARD:          0	MERGED:    2711217	TO_CACHE:    6755665
L1I PQ	ACCESS:    5152371	FORWARD:          0	MERGED:     312984	TO_CACHE:    4839387

L1BTB TOTAL     ACCESS:    5678751  HIT:    2063672  MISS:    3615079  HIT %:    36.3402  MISS %:    63.6598   MPKI: 72.3016
L1BTB BRANCH_DIRECT_JUMP	ACCESS:     545552  HIT:     144053  MISS:     401499	AVERAGE STALL: 31.0186
L1BTB BRANCH_INDIRECT	ACCESS:     182027  HIT:      65595  MISS:     116432	AVERAGE STALL: 126.357
L1BTB BRANCH_CONDITIONAL	ACCESS:    2723314  HIT:    1436099  MISS:    1287215	AVERAGE STALL: 41.2263
L1BTB BRANCH_DIRECT_CALL	ACCESS:     942385  HIT:     105807  MISS:     836578	AVERAGE STALL: 44.6591
L1BTB BRANCH_INDIRECT_CALL	ACCESS:     171545  HIT:      21617  MISS:     149928	AVERAGE STALL: 141.677
L1BTB BRANCH_RETURN	ACCESS:    1113928  HIT:     290501  MISS:     823427	AVERAGE STALL: 40.2582
L1BTB BRANCH_OTHER ACCESS:          0  HIT:          0  MISS:          0	AVERAGE STALL: -nan
L1BTB TOTAL ROB OCCUPANCY AT BTB MISS: 5.7232

L2BTB1 TOTAL     ACCESS:    3589818  HIT:    3466245  MISS:     123573  HIT %:    96.5577  MISS %:    3.44232   MPKI: 2.47146
L2BTB1 BRANCH_DIRECT_JUMP	ACCESS:     397362  HIT:     389089  MISS:       8273	AVERAGE STALL: 31.0186
L2BTB1 BRANCH_INDIRECT	ACCESS:     106202  HIT:      95241  MISS:      10961	AVERAGE STALL: 126.357
L2BTB1 BRANCH_CONDITIONAL	ACCESS:    1287215  HIT:    1272164  MISS:      15051	AVERAGE STALL: 41.2263
L2BTB1 BRANCH_DIRECT_CALL	ACCESS:     836578  HIT:     813731  MISS:      22847	AVERAGE STALL: 44.6591
L2BTB1 BRANCH_INDIRECT_CALL	ACCESS:     140438  HIT:     127229  MISS:      13209	AVERAGE STALL: 141.677
L2BTB1 BRANCH_RETURN	ACCESS:     822023  HIT:     768791  MISS:      53232	AVERAGE STALL: 40.2582
L2BTB1 BRANCH_OTHER ACCESS:          0  HIT:          0  MISS:          0	AVERAGE STALL: -nan
L2BTB1 TOTAL ROB OCCUPANCY AT BTB MISS: 167.43

L2C TOTAL     ACCESS:    6639720  HIT:    5655306  MISS:     984414  HIT %:    85.1739  MISS %:    14.8261   MPKI: 19.6883
L2C LOAD INSTRUCTION	ACCESS:     489230  HIT:     396474  MISS:      92756  HIT %:    81.0404  MISS %:    18.9596  MPKI: 1.85512
L2C PREFETCH INSTRUCTION	ACCESS:    3159168  HIT:    2782843  MISS:     376325  HIT %:    88.0878  MISS %:    11.9122  MPKI: 7.5265
L2C LOAD TRANSLATION INSTRUCTION	ACCESS:        179  HIT:         67  MISS:        112  HIT %:    37.4302  MISS %:    62.5698  MPKI: 0.00224
L2C TRANSLATION FROM L1D PREFETCHER INSTRUCTION	ACCESS:       5044  HIT:       4874  MISS:        170  HIT %:    96.6297  MISS %:    3.37034  MPKI: 0.0034
L2C LOAD DATA	ACCESS:     746591  HIT:     602484  MISS:     144107  HIT %:     80.698  MISS %:     19.302  MPKI: 2.88214
L2C RFO DATA	ACCESS:     286776  HIT:     204314  MISS:      82462  HIT %:    71.2452  MISS %:    28.7548  MPKI: 1.64924
L2C PREFETCH DATA	ACCESS:    1426002  HIT:    1174276  MISS:     251726  HIT %:    82.3474  MISS %:    17.6526  MPKI: 5.03452
L2C WRITEBACK DATA	ACCESS:     524678  HIT:     489472  MISS:      35206  HIT %:      93.29  MISS %:    6.71002  MPKI: 0.70412
L2C LOAD TRANSLATION DATA	ACCESS:       2027  HIT:        487  MISS:       1540  HIT %:    24.0257  MISS %:    75.9743  MPKI: 0.0308
L2C TRANSLATION FROM L1D PREFETCHER DATA	ACCESS:         25  HIT:         15  MISS:         10  HIT %:         60  MISS %:         40  MPKI: 0.0002

L2C PREFETCH  REQUESTED:    3262992  ISSUED:    3262992  USEFUL:      32561  USELESS:     598083
L2C USEFUL LOAD PREFETCHES:      32561 PREFETCH ISSUED TO LOWER LEVEL:     629751  ACCURACY: 5.17046
 TIMELY PREFETCHES:      32561 LATE PREFETCHES: 1700 DROPPED PREFETCHES: 0
L2C AVERAGE MISS LATENCY: 33.5567 cycles
L2C RQ	ACCESS:    1529930	FORWARD:          0	MERGED:          0	TO_CACHE:    1529872
L2C WQ	ACCESS:     524678	FORWARD:         59	MERGED:          0	TO_CACHE:     524678
L2C PQ	ACCESS:    6536735	FORWARD:          0	MERGED:    1931436	TO_CACHE:    4605298

L2C Dense regions hint from L2: 0
PSCL5 TOTAL     ACCESS:      11256  HIT:       5628  MISS:       5628  HIT %:         50  MISS %:         50   MPKI: 0.11256
PSCL5 LOAD TRANSLATION INSTRUCTION	ACCESS:       4150  HIT:       2075  MISS:       2075  HIT %:         50  MISS %:         50  MPKI: 0.0415
PSCL5 TRANSLATION FROM L1D PREFETCHER INSTRUCTION	ACCESS:       7106  HIT:       3553  MISS:       3553  HIT %:         50  MISS %:         50  MPKI: 0.07106


PSCL4 TOTAL     ACCESS:      10946  HIT:       5469  MISS:       5477  HIT %:    49.9635  MISS %:    50.0365   MPKI: 0.10954
PSCL4 LOAD TRANSLATION INSTRUCTION	ACCESS:       2669  HIT:       1977  MISS:        692  HIT %:    74.0727  MISS %:    25.9273  MPKI: 0.01384
PSCL4 TRANSLATION FROM L1D PREFETCHER INSTRUCTION	ACCESS:       5071  HIT:       3492  MISS:       1579  HIT %:    68.8622  MISS %:    31.1378  MPKI: 0.03158
PSCL4 LOAD TRANSLATION DATA	ACCESS:       1293  HIT:          0  MISS:       1293  HIT %:          0  MISS %:        100  MPKI: 0.02586
PSCL4 TRANSLATION FROM L1D PREFETCHER DATA	ACCESS:       1913  HIT:          0  MISS:       1913  HIT %:          0  MISS %:        100  MPKI: 0.03826


PSCL3 TOTAL     ACCESS:      11046  HIT:       5519  MISS:       5527  HIT %:    49.9638  MISS %:    50.0362   MPKI: 0.11054
PSCL3 LOAD TRANSLATION INSTRUCTION	ACCESS:       2719  HIT:       2027  MISS:        692  HIT %:    74.5495  MISS %:    25.4505  MPKI: 0.01384
PSCL3 TRANSLATION FROM L1D PREFETCHER INSTRUCTION	ACCESS:       5071  HIT:       3492  MISS:       1579  HIT %:    68.8622  MISS %:    31.1378  MPKI: 0.03158
PSCL3 LOAD TRANSLATION DATA	ACCESS:       1343  HIT:          0  MISS:       1343  HIT %:          0  MISS %:        100  MPKI: 0.02686
PSCL3 TRANSLATION FROM L1D PREFETCHER DATA	ACCESS:       1913  HIT:          0  MISS:       1913  HIT %:          0  MISS %:        100  MPKI: 0.03826


PSCL2 TOTAL     ACCESS:       8167  HIT:       4016  MISS:       4151  HIT %:    49.1735  MISS %:    50.8265   MPKI: 0.08302
PSCL2 LOAD TRANSLATION INSTRUCTION	ACCESS:       2135  HIT:       1955  MISS:        180  HIT %:    91.5691  MISS %:    8.43091  MPKI: 0.0036
PSCL2 TRANSLATION FROM L1D PREFETCHER INSTRUCTION	ACCESS:       4099  HIT:       2061  MISS:       2038  HIT %:    50.2806  MISS %:    49.7194  MPKI: 0.04076
PSCL2 LOAD TRANSLATION DATA	ACCESS:       1910  HIT:          0  MISS:       1910  HIT %:          0  MISS %:        100  MPKI: 0.0382
PSCL2 TRANSLATION FROM L1D PREFETCHER DATA	ACCESS:         23  HIT:          0  MISS:         23  HIT %:          0  MISS %:        100  MPKI: 0.00046


LLC TOTAL     ACCESS:    1075158  HIT:    1046140  MISS:      29018  HIT %:     97.301  MISS %:    2.69895   MPKI: 0.58036
LLC LOAD INSTRUCTION	ACCESS:      91952  HIT:      91354  MISS:        598  HIT %:    99.3497  MISS %:   0.650339  MPKI: 0.01196
LLC PREFETCH INSTRUCTION	ACCESS:     374692  HIT:     374180  MISS:        512  HIT %:    99.8634  MISS %:   0.136646  MPKI: 0.01024
LLC LOAD TRANSLATION INSTRUCTION	ACCESS:        112  HIT:         87  MISS:         25  HIT %:    77.6786  MISS %:    22.3214  MPKI: 0.0005
LLC TRANSLATION FROM L1D PREFETCHER INSTRUCTION	ACCESS:        170  HIT:        157  MISS:         13  HIT %:    92.3529  MISS %:    7.64706  MPKI: 0.00026
LLC LOAD DATA	ACCESS:     143344  HIT:     139594  MISS:       3750  HIT %:    97.3839  MISS %:    2.61608  MPKI: 0.075
LLC RFO DATA	ACCESS:      82319  HIT:      68962  MISS:      13357  HIT %:    83.7741  MISS %:    16.2259  MPKI: 0.26714
LLC PREFETCH DATA	ACCESS:     255056  HIT:     244701  MISS:      10355  HIT %:    95.9401  MISS %:    4.05989  MPKI: 0.2071
LLC WRITEBACK DATA	ACCESS:     125963  HIT:     125662  MISS:        301  HIT %:     99.761  MISS %:   0.238959  MPKI: 0.00602
LLC LOAD TRANSLATION DATA	ACCESS:       1540  HIT:       1433  MISS:        107  HIT %:    93.0519  MISS %:    6.94805  MPKI: 0.00214
LLC TRANSLATION FROM L1D PREFETCHER DATA	ACCESS:         10  HIT:         10  MISS:          0  HIT %:        100  MISS %:          0  MPKI: 0

LLC AVERAGE MISS LATENCY: 155.69 cycles
LLC RQ	ACCESS:     319457	FORWARD:          0	MERGED:          0	TO_CACHE:     319447
LLC WQ	ACCESS:     125963	FORWARD:         13	MERGED:          0	TO_CACHE:     125963
LLC PQ	ACCESS:     629751	FORWARD:          0	MERGED:          0	TO_CACHE:     629748

LLC Dense regions hint to LLC: 0

RAW hits: 1915356
Loads Generated: 12611850
Loads sent to L1D: 10696494
Stores Generated: 6919135
Stores sent to L1D: 6919153
Major fault: 0 Minor fault: 2606
Allocated PAGES: 2606
I-Shadow cache 408 bytes
Touched + WorthPF tables 12288 bytes 
MMA filter 174 bytes 
FNL filter 272 bytes 
TOTAL PREFETCHER STORAGE SIZE: 31318 bytes
CPU 0 L1I next line prefetcher final stats

stream: 
stream:times selected: 1222410
stream:pref_filled: 122096
stream:pref_useful: 25980
stream:pref_late: 9806
stream:misses: 9045
stream:misses_by_poll: 0

CS: 
CS:times selected: 185651
CS:pref_filled: 64323
CS:pref_useful: 39222
CS:pref_late: 15219
CS:misses: 27529
CS:misses_by_poll: 2

CPLX: 
CPLX:times selected: 1035639
CPLX:pref_filled: 23202
CPLX:pref_useful: 6186
CPLX:pref_late: 4248
CPLX:misses: 121959
CPLX:misses_by_poll: 2

NL_L1: 
NL:times selected: 12581
NL:pref_filled: 1351
NL:pref_useful: 120
NL:pref_late: 297
NL:misses: 1562
NL:misses_by_poll: 0

total selections: 2456281
total_filled: 102421
total_useful: 43659
total_late: 31731
total_polluted: 4
total_misses_after_warmup: 797672
conflicts: 5527179

test: 118416

DRAM Statistics
 CHANNEL 0
 RQ ROW_BUFFER_HIT:      10287  ROW_BUFFER_MISS:      18405
 DBUS_CONGESTED:          8
 WQ ROW_BUFFER_HIT:       1549  ROW_BUFFER_MISS:      12122  FULL:          0

 AVG_CONGESTED_CYCLE: 6

CPU 0 Branch Prediction Accuracy: 99.8128% MPKI: 0.3428 Average ROB Occupancy at Mispredict: 174.648
Branch types
NOT_BRANCH: 40843605 81.6872%
BRANCH_DIRECT_JUMP: 545552 1.0911%
BRANCH_INDIRECT: 182027 0.364054%
BRANCH_CONDITIONAL: 6201004 12.402%
BRANCH_DIRECT_CALL: 942385 1.88477%
BRANCH_INDIRECT_CALL: 171545 0.34309%
BRANCH_RETURN: 1113928 2.22786%
BRANCH_OTHER: 0 0%

DRAM PAGES: 1048576
Allocated PAGES: 2606
Average_ROB_Occupancy: 220.253
Average_Decode_Occupancy: 26.1357
Average_FTQ_Occupancy: 8.83187
Indirect max targets: 14 Average targets: 1.17296
Branch_type:  BRANCH_DIRECT_JUMP:  Count Percentage: 4.13146 5.06703 4.34755 7.19121 3.29683 6.33824 1.50324 68.1244 
Branch_type:  BRANCH_INDIRECT:  Count Percentage: 11.7616 3.38966 2.50461 9.68306 3.35121 2.81474 0.938063 65.557 
Branch_type:  BRANCH_CONDITIONAL:  Count Percentage: 29.586 2.20044 1.52847 4.02408 2.02068 4.2665 0.495612 55.8783 
Branch_type:  BRANCH_DIRECT_CALL:  Count Percentage: 0.388191 1.78932 0.725925 3.43508 3.20006 2.61695 0.725872 87.1186 
Branch_type:  BRANCH_INDIRECT_CALL:  Count Percentage: 9.55006 0 2.99423 0.000874228 1.13766 1.71494 0.995163 83.6071 
Branch_type:  BRANCH_RETURN:  Count Percentage: 10.4368 1.51259 1.1582 3.42735 4.26649 4.83221 0.589292 73.777 
Branch_type:  BRANCH_DIRECT_JUMP:  Total Count: 45065 55270 47422 78440 35961 69136 16397 743085 
Branch_type:  BRANCH_INDIRECT:  Total Count: 42818 12340 9118 35251 12200 10247 3415 238659 
Branch_type:  BRANCH_CONDITIONAL:  Total Count: 3667712 272784 189481 498857 250500 528910 61440 6927114 
Branch_type:  BRANCH_DIRECT_CALL:  Total Count: 7309 33690 13668 64677 60252 49273 13667 1640302 
Branch_type:  BRANCH_INDIRECT_CALL:  Total Count: 32772 0 10275 3 3904 5885 3415 286906 
Branch_type:  BRANCH_RETURN:  Total Count: 232419 33684 25792 76324 95011 107609 13123 1642949 
Number of unique branch instructions: 11196
Upper 32 bits: 
aaaa
ffff
ffff0000
Unique upper 32 bits: 3
Unique upper 36 bits: 3
Unique upper 40 bits: 5
Unique upper 44 bits: 32
Unique upper 48 bits: 160
Offset_3 4624
Offset_4 274
Offset_5 506
Offset_6 569
Offset_7 655
Offset_8 597
Offset_9 563
Offset_10 460
Offset_11 366
Offset_12 325
Offset_13 241
Offset_14 260
Offset_15 213
Offset_16 260
Offset_17 176
Offset_18 152
Offset_19 270
Offset_20 146
Offset_21 241
Offset_22 425
Offset_23 241
Offset_24 373
Offset_25 114
Offset_47 90
decode_dispatch_called: 25072325 67.5433
Dispatch_width: 0 13445343 53.6262 36.2209
Dispatch_width: 1 909948 3.62929 2.45134
Dispatch_width: 2 942918 3.76079 2.54016
Dispatch_width: 3 596942 2.38088 1.60812
Dispatch_width: 4 4680968 18.6699 12.6102
Dispatch_width: 5 287717 1.14755 0.775092
Dispatch_width: 6 4208489 16.7854 11.3374
Empty_decode_cycles: 12048052 32.4567
ROB_full_cycles: 7240471 19.5054
Starvation_cycles_per_kilo_instr: 256.714
Starvation_cycles_per_kilo_instr_3: 207.027
Starvation_cycles_per_kilo_instr_0: 182.529
Branch_type_1  (3,1)  (4,10)  (5,40)  (6,80)  (7,127)  (8,153)  (9,147)  (10,118)  (11,79)  (12,55)  (13,12)  (14,2)  (15,3)  (16,4)  (18,1)  (19,5)  (20,2)  (21,1)  (22,3)  (23,2)  (24,10)  (25,12) 
Branch_type_2  (3,1)  (4,1)  (5,1)  (8,4)  (9,4)  (10,1)  (12,1)  (13,1)  (14,1)  (16,3)  (17,2)  (20,2)  (21,2)  (23,5)  (24,1)  (47,40) 
Branch_type_3  (3,4622)  (4,263)  (5,461)  (6,471)  (7,494)  (8,366)  (9,305)  (10,183)  (11,146)  (12,62)  (13,11) 
Branch_type_4  (6,4)  (7,8)  (8,28)  (9,65)  (10,76)  (11,75)  (12,114)  (13,102)  (14,119)  (15,102)  (16,119)  (17,80)  (18,65)  (19,130)  (20,75)  (21,127)  (22,224)  (23,136)  (24,223)  (25,98) 
Branch_type_5  (8,4)  (9,1)  (10,4)  (11,5)  (12,3)  (13,14)  (14,16)  (15,12)  (16,22)  (17,13)  (18,23)  (19,14)  (20,11)  (21,13)  (22,45)  (23,26)  (24,38) 
Branch_type_6  (5,4)  (6,14)  (7,26)  (8,42)  (9,41)  (10,78)  (11,61)  (12,90)  (13,101)  (14,122)  (15,96)  (16,112)  (17,81)  (18,63)  (19,121)  (20,56)  (21,98)  (22,153)  (23,72)  (24,101)  (25,4)  (47,50) 
Unique trigger count: 
L2BTB1 1536 4
L2BTB2 1536 4
L2BTB3 1536 4
L2BTB4 224 4
