
*** ChampSim Multicore Out-of-Order Simulator ***

Warmup Instructions: 50000000
Simulation Instructions: 50000000
Number of CPUs: 1
LLC sets: 2048
LLC ways: 16
Off-chip DRAM Size: 4096 MB Channels: 1 Width: 64-bit Data Rate: 6400 MT/s
CPU 0 runs ./micro_traces/srv752.trace.gz
.gz
ITLB has LRU replacement policy
DTLB has LRU replacement policy
STLB has LRU replacement policy
CPU 0 L1I next line prefetcher
./conditional/srv752.cond
L1I has LRU replacement policy
L1D has LRU replacement policy
Initialize SRRIP state for L2C
Initialize DRRIP state for LLC
Heartbeat_Variant_0 : 1296 0.158203 per_variant_size: 0 1296 0 0 0 0 0 0 0 
Heartbeat_Variant_1 : 1354 0.165283 per_variant_size: 0 918 436 0 0 0 0 0 0 
Heartbeat_Variant_2 : 1627 0.198608 per_variant_size: 0 961 421 212 33 0 0 0 0 
Heartbeat_Variant_3 : 0 0 per_variant_size: 0 0 0 0 0 0 0 0 0 
Heartbeat_Variant_0_evicts 0 : 5622 1 : 0 2 : 1 3 : 0 
Heartbeat_Variant_1_evicts 0 : 0 1 : 0 2 : 244 3 : 0 
Heartbeat_Variant_2_evicts 0 : 1 1 : 242 2 : 0 3 : 0 
Heartbeat_Variant_3_evicts 0 : 0 1 : 0 2 : 0 3 : 0 
Heartbeat CPU 0 instructions: 10000000 cycles: 2798092 heartbeat IPC: 3.57386 cumulative IPC: 3.57386 (Simulation time: 0 hr 1 min 9 sec) 
Heartbeat_Variant_0 : 1334 0.162842 per_variant_size: 0 1334 0 0 0 0 0 0 0 
Heartbeat_Variant_1 : 1399 0.170776 per_variant_size: 0 939 460 0 0 0 0 0 0 
Heartbeat_Variant_2 : 1692 0.206543 per_variant_size: 0 999 432 228 33 0 0 0 0 
Heartbeat_Variant_3 : 0 0 per_variant_size: 0 0 0 0 0 0 0 0 0 
Heartbeat_Variant_0_evicts 0 : 5644 1 : 2 2 : 0 3 : 0 
Heartbeat_Variant_1_evicts 0 : 0 1 : 0 2 : 239 3 : 0 
Heartbeat_Variant_2_evicts 0 : 2 1 : 239 2 : 0 3 : 0 
Heartbeat_Variant_3_evicts 0 : 0 1 : 0 2 : 0 3 : 0 
Heartbeat CPU 0 instructions: 20000002 cycles: 5596156 heartbeat IPC: 3.5739 cumulative IPC: 3.57388 (Simulation time: 0 hr 2 min 18 sec) 
Heartbeat_Variant_0 : 1380 0.168457 per_variant_size: 0 1380 0 0 0 0 0 0 0 
Heartbeat_Variant_1 : 1450 0.177002 per_variant_size: 0 964 486 0 0 0 0 0 0 
Heartbeat_Variant_2 : 1729 0.21106 per_variant_size: 0 998 447 243 41 0 0 0 0 
Heartbeat_Variant_3 : 0 0 per_variant_size: 0 0 0 0 0 0 0 0 0 
Heartbeat_Variant_0_evicts 0 : 5542 1 : 0 2 : 1 3 : 0 
Heartbeat_Variant_1_evicts 0 : 1 1 : 0 2 : 250 3 : 0 
Heartbeat_Variant_2_evicts 0 : 0 1 : 250 2 : 0 3 : 0 
Heartbeat_Variant_3_evicts 0 : 0 1 : 0 2 : 0 3 : 0 
Heartbeat CPU 0 instructions: 30000000 cycles: 8393239 heartbeat IPC: 3.57515 cumulative IPC: 3.57431 (Simulation time: 0 hr 3 min 19 sec) 
Heartbeat_Variant_0 : 1421 0.173462 per_variant_size: 0 1421 0 0 0 0 0 0 0 
Heartbeat_Variant_1 : 1491 0.182007 per_variant_size: 0 983 508 0 0 0 0 0 0 
Heartbeat_Variant_2 : 1758 0.2146 per_variant_size: 0 997 466 246 49 0 0 0 0 
Heartbeat_Variant_3 : 0 0 per_variant_size: 0 0 0 0 0 0 0 0 0 
Heartbeat_Variant_0_evicts 0 : 5587 1 : 0 2 : 0 3 : 0 
Heartbeat_Variant_1_evicts 0 : 1 1 : 0 2 : 243 3 : 0 
Heartbeat_Variant_2_evicts 0 : 1 1 : 244 2 : 0 3 : 0 
Heartbeat_Variant_3_evicts 0 : 0 1 : 0 2 : 0 3 : 0 
Heartbeat CPU 0 instructions: 40000001 cycles: 11189309 heartbeat IPC: 3.57645 cumulative IPC: 3.57484 (Simulation time: 0 hr 4 min 26 sec) 
Heartbeat_Variant_0 : 1422 0.173584 per_variant_size: 0 1422 0 0 0 0 0 0 0 
Heartbeat_Variant_1 : 1490 0.181885 per_variant_size: 0 982 508 0 0 0 0 0 0 
Heartbeat_Variant_2 : 1758 0.2146 per_variant_size: 0 997 466 247 48 0 0 0 0 
Heartbeat_Variant_3 : 0 0 per_variant_size: 0 0 0 0 0 0 0 0 0 
Heartbeat_Variant_0_evicts 0 : 5588 1 : 1 2 : 0 3 : 0 
Heartbeat_Variant_1_evicts 0 : 0 1 : 0 2 : 245 3 : 0 
Heartbeat_Variant_2_evicts 0 : 0 1 : 245 2 : 0 3 : 0 
Heartbeat_Variant_3_evicts 0 : 0 1 : 0 2 : 0 3 : 0 
Heartbeat CPU 0 instructions: 50000000 cycles: 13986809 heartbeat IPC: 3.57462 cumulative IPC: 3.5748 (Simulation time: 0 hr 5 min 37 sec) 

Warmup complete CPU 0 instructions: 50000004 cycles: 13986810 (Simulation time: 0 hr 5 min 37 sec) 

Cycle: 20000000 FTQ IN: 58113631 FTQ occupancy: 19.7693 DECODE IN: 58113513 DECODE occupancy: 51.6811 ROB IN: 58113453 ROB occupancy: 314.609 ROB OUT: 58113101
Heartbeat_Variant_0 : 1422 0.173584 per_variant_size: 0 1422 0 0 0 0 0 0 0 
Heartbeat_Variant_1 : 1491 0.182007 per_variant_size: 0 985 506 0 0 0 0 0 0 
Heartbeat_Variant_2 : 1759 0.214722 per_variant_size: 0 998 466 249 46 0 0 0 0 
Heartbeat_Variant_3 : 0 0 per_variant_size: 0 0 0 0 0 0 0 0 0 
Heartbeat_Variant_0_evicts 0 : 5551 1 : 0 2 : 0 3 : 0 
Heartbeat_Variant_1_evicts 0 : 0 1 : 0 2 : 245 3 : 0 
Heartbeat_Variant_2_evicts 0 : 0 1 : 245 2 : 0 3 : 0 
Heartbeat_Variant_3_evicts 0 : 0 1 : 0 2 : 0 3 : 0 
Heartbeat CPU 0 instructions: 60000002 cycles: 21368811 heartbeat IPC: 1.35465 cumulative IPC: 1.35465 (Simulation time: 0 hr 6 min 53 sec) 
Heartbeat_Variant_0 : 1422 0.173584 per_variant_size: 0 1422 0 0 0 0 0 0 0 
Heartbeat_Variant_1 : 1490 0.181885 per_variant_size: 0 981 509 0 0 0 0 0 0 
Heartbeat_Variant_2 : 1760 0.214844 per_variant_size: 0 1000 465 238 57 0 0 0 0 
Heartbeat_Variant_3 : 0 0 per_variant_size: 0 0 0 0 0 0 0 0 0 
Heartbeat_Variant_0_evicts 0 : 5663 1 : 0 2 : 0 3 : 0 
Heartbeat_Variant_1_evicts 0 : 0 1 : 0 2 : 237 3 : 0 
Heartbeat_Variant_2_evicts 0 : 0 1 : 238 2 : 0 3 : 0 
Heartbeat_Variant_3_evicts 0 : 0 1 : 0 2 : 0 3 : 0 
Heartbeat CPU 0 instructions: 70000001 cycles: 28642873 heartbeat IPC: 1.37475 cumulative IPC: 1.36462 (Simulation time: 0 hr 8 min 1 sec) 
Cycle: 30000000 FTQ IN: 13747592 FTQ occupancy: 12.0969 DECODE IN: 13747602 DECODE occupancy: 32.0065 ROB IN: 13747606 ROB occupancy: 234.801 ROB OUT: 13747610
Heartbeat_Variant_0 : 1422 0.173584 per_variant_size: 0 1422 0 0 0 0 0 0 0 
Heartbeat_Variant_1 : 1490 0.181885 per_variant_size: 0 982 508 0 0 0 0 0 0 
Heartbeat_Variant_2 : 1760 0.214844 per_variant_size: 0 998 467 240 55 0 0 0 0 
Heartbeat_Variant_3 : 0 0 per_variant_size: 0 0 0 0 0 0 0 0 0 
Heartbeat_Variant_0_evicts 0 : 5570 1 : 0 2 : 0 3 : 0 
Heartbeat_Variant_1_evicts 0 : 0 1 : 0 2 : 246 3 : 0 
Heartbeat_Variant_2_evicts 0 : 0 1 : 246 2 : 0 3 : 0 
Heartbeat_Variant_3_evicts 0 : 0 1 : 0 2 : 0 3 : 0 
Heartbeat CPU 0 instructions: 80000000 cycles: 36036994 heartbeat IPC: 1.35243 cumulative IPC: 1.36053 (Simulation time: 0 hr 9 min 13 sec) 
Cycle: 40000000 FTQ IN: 13579562 FTQ occupancy: 12.2369 DECODE IN: 13579603 DECODE occupancy: 32.1852 ROB IN: 13579650 ROB occupancy: 235.192 ROB OUT: 13579869
Heartbeat_Variant_0 : 1423 0.173706 per_variant_size: 0 1423 0 0 0 0 0 0 0 
Heartbeat_Variant_1 : 1496 0.182617 per_variant_size: 0 983 513 0 0 0 0 0 0 
Heartbeat_Variant_2 : 1765 0.215454 per_variant_size: 0 1003 464 242 56 0 0 0 0 
Heartbeat_Variant_3 : 0 0 per_variant_size: 0 0 0 0 0 0 0 0 0 
Heartbeat_Variant_0_evicts 0 : 5535 1 : 0 2 : 0 3 : 0 
Heartbeat_Variant_1_evicts 0 : 0 1 : 0 2 : 251 3 : 0 
Heartbeat_Variant_2_evicts 0 : 0 1 : 250 2 : 0 3 : 0 
Heartbeat_Variant_3_evicts 0 : 0 1 : 0 2 : 0 3 : 0 
Heartbeat CPU 0 instructions: 90000002 cycles: 43321282 heartbeat IPC: 1.37282 cumulative IPC: 1.36358 (Simulation time: 0 hr 10 min 30 sec) 
Cycle: 50000000 FTQ IN: 13656297 FTQ occupancy: 12.276 DECODE IN: 13656251 DECODE occupancy: 32.2048 ROB IN: 13656256 ROB occupancy: 235.111 ROB OUT: 13656163
Heartbeat_Variant_0 : 1429 0.174438 per_variant_size: 0 1429 0 0 0 0 0 0 0 
Heartbeat_Variant_1 : 1500 0.183105 per_variant_size: 0 979 521 0 0 0 0 0 0 
Heartbeat_Variant_2 : 1766 0.215576 per_variant_size: 0 999 467 254 46 0 0 0 0 
Heartbeat_Variant_3 : 0 0 per_variant_size: 0 0 0 0 0 0 0 0 0 
Heartbeat_Variant_0_evicts 0 : 5598 1 : 0 2 : 0 3 : 0 
Heartbeat_Variant_1_evicts 0 : 0 1 : 0 2 : 241 3 : 0 
Heartbeat_Variant_2_evicts 0 : 0 1 : 241 2 : 0 3 : 0 
Heartbeat_Variant_3_evicts 0 : 0 1 : 0 2 : 0 3 : 0 
Heartbeat CPU 0 instructions: 100000000 cycles: 50653139 heartbeat IPC: 1.36391 cumulative IPC: 1.36365 (Simulation time: 0 hr 11 min 36 sec) 
Finished CPU 0 instructions: 50000000 cycles: 36666330 cumulative IPC: 1.36365 (Simulation time: 0 hr 11 min 36 sec) 

ChampSim completed all CPUs

Region of Interest Statistics

CPU 0 cumulative IPC: 1.36365 instructions: 50000000 cycles: 36666330
 Fetch stage stalled: 55.5441  Sim cycles: 36666330 fetch stall cycle: 20365981
 Empty decode stage: 37.0278  Sim cycles: 36666330 fetch stall cycle: 13576747
ITLB TOTAL     ACCESS:    6902037  HIT:    6396726  MISS:     505311  HIT %:    92.6788  MISS %:    7.32119   MPKI: 10.1062
ITLB LOAD TRANSLATION INSTRUCTION	ACCESS:    5674575  HIT:    5189464  MISS:     485111  HIT %:    91.4511  MISS %:    8.54885  MPKI: 9.70222
ITLB TRANSLATION FROM L1D PREFETCHER INSTRUCTION	ACCESS:    1227462  HIT:    1207262  MISS:      20200  HIT %:    98.3543  MISS %:    1.64567  MPKI: 0.404

ITLB AVERAGE MISS LATENCY: 64802 cycles
ITLB RQ	ACCESS:   10159742	FORWARD:          0	MERGED:    2776906	TO_CACHE:    7382836

DTLB TOTAL     ACCESS:    8976939  HIT:    8507904  MISS:     469035  HIT %:    94.7751  MISS %:    5.22489   MPKI: 9.3807
DTLB LOAD TRANSLATION DATA	ACCESS:    8976939  HIT:    8507904  MISS:     469035  HIT %:    94.7751  MISS %:    5.22489  MPKI: 9.3807

DTLB AVERAGE MISS LATENCY: 9.37469 cycles
DTLB RQ	ACCESS:   13344691	FORWARD:          0	MERGED:    4331699	TO_CACHE:    9012992

STLB TOTAL     ACCESS:    1225303  HIT:    1223004  MISS:       2299  HIT %:    99.8124  MISS %:   0.187627   MPKI: 0.04598
STLB LOAD TRANSLATION INSTRUCTION	ACCESS:     484086  HIT:     483811  MISS:        275  HIT %:    99.9432  MISS %:  0.0568081  MPKI: 0.0055
STLB TRANSLATION FROM L1D PREFETCHER INSTRUCTION	ACCESS:      21225  HIT:      21182  MISS:         43  HIT %:    99.7974  MISS %:   0.202591  MPKI: 0.00086
STLB LOAD TRANSLATION DATA	ACCESS:     469034  HIT:     467084  MISS:       1950  HIT %:    99.5843  MISS %:   0.415748  MPKI: 0.039
STLB TRANSLATION FROM L1D PREFETCHER DATA	ACCESS:     250958  HIT:     250927  MISS:         31  HIT %:    99.9876  MISS %:  0.0123527  MPKI: 0.00062

STLB AVERAGE MISS LATENCY: 74.4076 cycles
STLB RQ	ACCESS:    1377892	FORWARD:          0	MERGED:     121514	TO_CACHE:    1256378

STLB Hit, L1D data hit: 0
STLB Hit, L2C data hit: 0
STLB Hit, LLC data hit: 0
STLB Hit, LLC data miss: 0
STLB STLB hints to L2: 0
L1D TOTAL     ACCESS:   13079024  HIT:   11958127  MISS:    1120897  HIT %:    91.4298  MISS %:    8.57019   MPKI: 22.4179
L1D LOAD DATA	ACCESS:    6552585  HIT:    5814558  MISS:     738027  HIT %:    88.7369  MISS %:    11.2631  MPKI: 14.7605
L1D RFO DATA	ACCESS:    6196749  HIT:    5908829  MISS:     287920  HIT %:    95.3537  MISS %:    4.64631  MPKI: 5.7584
L1D PREFETCH DATA	ACCESS:     329690  HIT:     234740  MISS:      94950  HIT %:    71.2002  MISS %:    28.7998  MPKI: 1.899

L1D PREFETCH  REQUESTED:     745433  ISSUED:     745433  USEFUL:      35377  USELESS:      68691
L1D USEFUL LOAD PREFETCHES:      35377 PREFETCH ISSUED TO LOWER LEVEL:     104218  ACCURACY: 33.9452
 TIMELY PREFETCHES:      35377 LATE PREFETCHES: 9136 DROPPED PREFETCHES: 3
L1D AVERAGE MISS LATENCY: 264508 cycles
L1D RQ	ACCESS:   10698868	FORWARD:          0	MERGED:    3942995	TO_CACHE:    6592395
L1D WQ	ACCESS:    6949033	FORWARD:     163895	MERGED:     196737	TO_CACHE:    6752296
L1D PQ	ACCESS:     372925	FORWARD:          0	MERGED:          0	TO_CACHE:     372508

L1D UNIQUE REGIONS ACCESSED: 0
L1D REGIONS CONFLICTS: 0
L1D Cross Page Prefetch Requests: 6431
L1D Same Page Prefetch Requests: 754717
L1D ROI Sum of L1D PQ occupancy: 4745261
L1D PREFETCHES PUSHED FROM L2C: 0
L1I TOTAL     ACCESS:    8755164  HIT:    5445019  MISS:    3310145  HIT %:    62.1921  MISS %:    37.8079   MPKI: 66.2029
L1I LOAD INSTRUCTION	ACCESS:    6554289  HIT:    4429871  MISS:    2124418  HIT %:    67.5874  MISS %:    32.4126  MPKI: 42.4884
L1I PREFETCH INSTRUCTION	ACCESS:    2200875  HIT:    1015148  MISS:    1185727  HIT %:    46.1247  MISS %:    53.8753  MPKI: 23.7145

L1I PREFETCH  REQUESTED:    3932312  ISSUED:    3928948  USEFUL:     935955  USELESS:     487894
L1I USEFUL LOAD PREFETCHES:     935955 PREFETCH ISSUED TO LOWER LEVEL:    1423846  ACCURACY: 65.7343
 TIMELY PREFETCHES:     935955 LATE PREFETCHES: 238119 DROPPED PREFETCHES: 73755
L1I AVERAGE MISS LATENCY: 2.33439e+06 cycles
L1I RQ	ACCESS:    9497943	FORWARD:          0	MERGED:    2728828	TO_CACHE:    6769115
L1I PQ	ACCESS:    3928948	FORWARD:          0	MERGED:     538321	TO_CACHE:    3390627

L1BTB TOTAL     ACCESS:    5669574  HIT:    2043193  MISS:    3626381  HIT %:    36.0379  MISS %:    63.9621   MPKI: 72.5276
L1BTB BRANCH_DIRECT_JUMP	ACCESS:     548425  HIT:     144759  MISS:     403666	AVERAGE STALL: 44.4977
L1BTB BRANCH_INDIRECT	ACCESS:     182824  HIT:      65932  MISS:     116892	AVERAGE STALL: 104.094
L1BTB BRANCH_CONDITIONAL	ACCESS:    2707954  HIT:    1415602  MISS:    1292352	AVERAGE STALL: 67.6267
L1BTB BRANCH_DIRECT_CALL	ACCESS:     943615  HIT:     105624  MISS:     837991	AVERAGE STALL: 79.2288
L1BTB BRANCH_INDIRECT_CALL	ACCESS:     171575  HIT:      21274  MISS:     150301	AVERAGE STALL: 132.251
L1BTB BRANCH_RETURN	ACCESS:    1115181  HIT:     290002  MISS:     825179	AVERAGE STALL: 51.2711
L1BTB BRANCH_OTHER ACCESS:          0  HIT:          0  MISS:          0	AVERAGE STALL: -nan
L1BTB TOTAL ROB OCCUPANCY AT BTB MISS: 3.60778

L2BTB TOTAL     ACCESS:    3600990  HIT:    3523019  MISS:      77971  HIT %:    97.8347  MISS %:    2.16527   MPKI: 1.55942
L2BTB BRANCH_DIRECT_JUMP	ACCESS:     399500  HIT:     395457  MISS:       4043	AVERAGE STALL: 44.4977
L2BTB BRANCH_INDIRECT	ACCESS:     106598  HIT:     103879  MISS:       2719	AVERAGE STALL: 104.094
L2BTB BRANCH_CONDITIONAL	ACCESS:    1292352  HIT:    1277092  MISS:      15260	AVERAGE STALL: 67.6267
L2BTB BRANCH_DIRECT_CALL	ACCESS:     837991  HIT:     837351  MISS:        640	AVERAGE STALL: 79.2288
L2BTB BRANCH_INDIRECT_CALL	ACCESS:     140773  HIT:     130730  MISS:      10043	AVERAGE STALL: 132.251
L2BTB BRANCH_RETURN	ACCESS:     823776  HIT:     778510  MISS:      45266	AVERAGE STALL: 51.2711
L2BTB BRANCH_OTHER ACCESS:          0  HIT:          0  MISS:          0	AVERAGE STALL: -nan
L2BTB TOTAL ROB OCCUPANCY AT BTB MISS: 167.796

L2C TOTAL     ACCESS:    5687420  HIT:    4825588  MISS:     861832  HIT %:    84.8467  MISS %:    15.1533   MPKI: 17.2366
L2C LOAD INSTRUCTION	ACCESS:    1886299  HIT:    1621151  MISS:     265148  HIT %:    85.9435  MISS %:    14.0565  MPKI: 5.30296
L2C PREFETCH INSTRUCTION	ACCESS:    1423846  HIT:    1247027  MISS:     176819  HIT %:    87.5816  MISS %:    12.4184  MPKI: 3.53638
L2C LOAD TRANSLATION INSTRUCTION	ACCESS:        312  HIT:        123  MISS:        189  HIT %:    39.4231  MISS %:    60.5769  MPKI: 0.00378
L2C TRANSLATION FROM L1D PREFETCHER INSTRUCTION	ACCESS:      42823  HIT:      28773  MISS:      14050  HIT %:    67.1905  MISS %:    32.8095  MPKI: 0.281
L2C LOAD DATA	ACCESS:     728866  HIT:     614452  MISS:     114414  HIT %:    84.3025  MISS %:    15.6975  MPKI: 2.28828
L2C RFO DATA	ACCESS:     287761  HIT:     208423  MISS:      79338  HIT %:    72.4292  MISS %:    27.5708  MPKI: 1.58676
L2C PREFETCH DATA	ACCESS:     791841  HIT:     611845  MISS:     179996  HIT %:    77.2687  MISS %:    22.7313  MPKI: 3.59992
L2C WRITEBACK DATA	ACCESS:     523599  HIT:     493276  MISS:      30323  HIT %:    94.2087  MISS %:    5.79126  MPKI: 0.60646
L2C LOAD TRANSLATION DATA	ACCESS:       2024  HIT:        482  MISS:       1542  HIT %:    23.8142  MISS %:    76.1858  MPKI: 0.03084
L2C TRANSLATION FROM L1D PREFETCHER DATA	ACCESS:         49  HIT:         36  MISS:         13  HIT %:    73.4694  MISS %:    26.5306  MPKI: 0.00026

L2C PREFETCH  REQUESTED:    1486849  ISSUED:    1486849  USEFUL:      30019  USELESS:     343824
L2C USEFUL LOAD PREFETCHES:      30019 PREFETCH ISSUED TO LOWER LEVEL:     359031  ACCURACY: 8.36112
 TIMELY PREFETCHES:      30019 LATE PREFETCHES: 2216 DROPPED PREFETCHES: 0
L2C AVERAGE MISS LATENCY: 35.3256 cycles
L2C RQ	ACCESS:    2948190	FORWARD:          0	MERGED:          0	TO_CACHE:    2948138
L2C WQ	ACCESS:     523600	FORWARD:         52	MERGED:          0	TO_CACHE:     523600
L2C PQ	ACCESS:    3014913	FORWARD:          0	MERGED:     782600	TO_CACHE:    2232313

L2C Dense regions hint from L2: 0
PSCL5 TOTAL     ACCESS:      66686  HIT:      33343  MISS:      33343  HIT %:         50  MISS %:         50   MPKI: 0.66686
PSCL5 LOAD TRANSLATION INSTRUCTION	ACCESS:       4424  HIT:       2212  MISS:       2212  HIT %:         50  MISS %:         50  MPKI: 0.04424
PSCL5 TRANSLATION FROM L1D PREFETCHER INSTRUCTION	ACCESS:      62262  HIT:      31131  MISS:      31131  HIT %:         50  MISS %:         50  MPKI: 0.62262


PSCL4 TOTAL     ACCESS:      63455  HIT:      31725  MISS:      31730  HIT %:    49.9961  MISS %:    50.0039   MPKI: 0.6346
PSCL4 LOAD TRANSLATION INSTRUCTION	ACCESS:       4097  HIT:       2155  MISS:       1942  HIT %:    52.5995  MISS %:    47.4005  MPKI: 0.03884
PSCL4 TRANSLATION FROM L1D PREFETCHER INSTRUCTION	ACCESS:      59140  HIT:      29570  MISS:      29570  HIT %:         50  MISS %:         50  MPKI: 0.5914
PSCL4 LOAD TRANSLATION DATA	ACCESS:        218  HIT:          0  MISS:        218  HIT %:          0  MISS %:        100  MPKI: 0.00436


PSCL3 TOTAL     ACCESS:      63489  HIT:      31742  MISS:      31747  HIT %:    49.9961  MISS %:    50.0039   MPKI: 0.63494
PSCL3 LOAD TRANSLATION INSTRUCTION	ACCESS:       4114  HIT:       2172  MISS:       1942  HIT %:    52.7953  MISS %:    47.2047  MPKI: 0.03884
PSCL3 TRANSLATION FROM L1D PREFETCHER INSTRUCTION	ACCESS:      59140  HIT:      29570  MISS:      29570  HIT %:         50  MISS %:         50  MPKI: 0.5914
PSCL3 LOAD TRANSLATION DATA	ACCESS:        235  HIT:          0  MISS:        235  HIT %:          0  MISS %:        100  MPKI: 0.0047


PSCL2 TOTAL     ACCESS:      45405  HIT:      22638  MISS:      22767  HIT %:    49.8579  MISS %:    50.1421   MPKI: 0.45534
PSCL2 LOAD TRANSLATION INSTRUCTION	ACCESS:       2380  HIT:       2094  MISS:        286  HIT %:    87.9832  MISS %:    12.0168  MPKI: 0.00572
PSCL2 TRANSLATION FROM L1D PREFETCHER INSTRUCTION	ACCESS:      39764  HIT:      20544  MISS:      19220  HIT %:    51.6648  MISS %:    48.3352  MPKI: 0.3844
PSCL2 LOAD TRANSLATION DATA	ACCESS:       1937  HIT:          0  MISS:       1937  HIT %:          0  MISS %:        100  MPKI: 0.03874
PSCL2 TRANSLATION FROM L1D PREFETCHER DATA	ACCESS:       1324  HIT:          0  MISS:       1324  HIT %:          0  MISS %:        100  MPKI: 0.02648


LLC TOTAL     ACCESS:     947251  HIT:     913594  MISS:      33657  HIT %:    96.4469  MISS %:    3.55312   MPKI: 0.67314
LLC LOAD INSTRUCTION	ACCESS:     263794  HIT:     263074  MISS:        720  HIT %:    99.7271  MISS %:    0.27294  MPKI: 0.0144
LLC PREFETCH INSTRUCTION	ACCESS:     175927  HIT:     174621  MISS:       1306  HIT %:    99.2576  MISS %:   0.742353  MPKI: 0.02612
LLC LOAD TRANSLATION INSTRUCTION	ACCESS:        189  HIT:        183  MISS:          6  HIT %:    96.8254  MISS %:     3.1746  MPKI: 0.00012
LLC TRANSLATION FROM L1D PREFETCHER INSTRUCTION	ACCESS:      14050  HIT:      13952  MISS:         98  HIT %:    99.3025  MISS %:   0.697509  MPKI: 0.00196
LLC LOAD DATA	ACCESS:     113589  HIT:     109596  MISS:       3993  HIT %:    96.4847  MISS %:    3.51531  MPKI: 0.07986
LLC RFO DATA	ACCESS:      79280  HIT:      63858  MISS:      15422  HIT %:    80.5474  MISS %:    19.4526  MPKI: 0.30844
LLC PREFETCH DATA	ACCESS:     183104  HIT:     171445  MISS:      11659  HIT %:    93.6326  MISS %:    6.36742  MPKI: 0.23318
LLC WRITEBACK DATA	ACCESS:     115763  HIT:     115412  MISS:        351  HIT %:    99.6968  MISS %:   0.303206  MPKI: 0.00702
LLC LOAD TRANSLATION DATA	ACCESS:       1542  HIT:       1442  MISS:        100  HIT %:    93.5149  MISS %:    6.48508  MPKI: 0.002
LLC TRANSLATION FROM L1D PREFETCHER DATA	ACCESS:         13  HIT:         11  MISS:          2  HIT %:    84.6154  MISS %:    15.3846  MPKI: 4e-05

LLC AVERAGE MISS LATENCY: 161.894 cycles
LLC RQ	ACCESS:     472482	FORWARD:          0	MERGED:          0	TO_CACHE:     472459
LLC WQ	ACCESS:     115763	FORWARD:         23	MERGED:          0	TO_CACHE:     115763
LLC PQ	ACCESS:     359031	FORWARD:          0	MERGED:          0	TO_CACHE:     359031

LLC Dense regions hint to LLC: 0

RAW hits: 1942225
Loads Generated: 12641091
Loads sent to L1D: 10698868
Stores Generated: 6949028
Stores sent to L1D: 6949033
Major fault: 0 Minor fault: 2568
Allocated PAGES: 2568
I-Shadow cache 408 bytes
Touched + WorthPF tables 12288 bytes 
MMA filter 42 bytes 
FNL filter 272 bytes 
TOTAL PREFETCHER STORAGE SIZE: 19922 bytes
CPU 0 L1I next line prefetcher final stats

stream: 
stream:times selected: 1192192
stream:pref_filled: 118143
stream:pref_useful: 22475
stream:pref_late: 8029
stream:misses: 8206
stream:misses_by_poll: 0

CS: 
CS:times selected: 180324
CS:pref_filled: 56026
CS:pref_useful: 32593
CS:pref_late: 11210
CS:misses: 21299
CS:misses_by_poll: 2

CPLX: 
CPLX:times selected: 1010798
CPLX:pref_filled: 19269
CPLX:pref_useful: 3829
CPLX:pref_late: 3906
CPLX:misses: 95305
CPLX:misses_by_poll: 0

NL_L1: 
NL:times selected: 18829
NL:pref_filled: 585
NL:pref_useful: 208
NL:pref_late: 385
NL:misses: 1506
NL:misses_by_poll: 0

total selections: 2402143
total_filled: 94950
total_useful: 35377
total_late: 24939
total_polluted: 2
total_misses_after_warmup: 777842
conflicts: 5518986

test: 117453

DRAM Statistics
 CHANNEL 0
 RQ ROW_BUFFER_HIT:      11478  ROW_BUFFER_MISS:      21803
 DBUS_CONGESTED:          5
 WQ ROW_BUFFER_HIT:       1465  ROW_BUFFER_MISS:      13811  FULL:          0

 AVG_CONGESTED_CYCLE: 5

CPU 0 Branch Prediction Accuracy: 99.8222% MPKI: 0.32516 Average ROB Occupancy at Mispredict: 192.342
Branch types
NOT_BRANCH: 40857025 81.7141%
BRANCH_DIRECT_JUMP: 548425 1.09685%
BRANCH_INDIRECT: 182824 0.365648%
BRANCH_CONDITIONAL: 6181023 12.362%
BRANCH_DIRECT_CALL: 943615 1.88723%
BRANCH_INDIRECT_CALL: 171575 0.34315%
BRANCH_RETURN: 1115181 2.23036%
BRANCH_OTHER: 0 0%

DRAM PAGES: 1048576
Allocated PAGES: 2568
Average_ROB_Occupancy: 236.328
Average_Decode_Occupancy: 32.1339
Average_FTQ_Occupancy: 12.2076
Indirect max targets: 14 Average targets: 1.15282
Branch_type:  BRANCH_DIRECT_JUMP:  Count Percentage: 3.25721 6.21464 4.50661 13.9264 1.69619 2.49452 1.24986 66.6546 
Branch_type:  BRANCH_INDIRECT:  Count Percentage: 11.7539 3.42107 12.2507 23.3881 1.33582 14.5613 1.06598 32.2232 
Branch_type:  BRANCH_CONDITIONAL:  Count Percentage: 21.0749 3.32416 2.44458 8.18149 1.15793 2.83632 0.839678 60.1409 
Branch_type:  BRANCH_DIRECT_CALL:  Count Percentage: 0.260449 1.26526 1.45232 4.73457 2.17036 1.91644 0.934073 87.2665 
Branch_type:  BRANCH_INDIRECT_CALL:  Count Percentage: 9.55199 0.575769 2.99237 4.85391 0.000583649 3.62241 0 78.403 
Branch_type:  BRANCH_RETURN:  Count Percentage: 3.95452 0.574127 3.55249 8.63381 2.27191 4.65604 1.23188 75.1252 
Branch_type:  BRANCH_DIRECT_JUMP:  Total Count: 35737 68185 49445 152796 18610 27369 13713 731312 
Branch_type:  BRANCH_INDIRECT:  Total Count: 43036 12526 44855 85634 4891 53315 3903 117983 
Branch_type:  BRANCH_CONDITIONAL:  Total Count: 2605159 410913 302185 1011347 143136 350609 103796 7434260 
Branch_type:  BRANCH_DIRECT_CALL:  Total Count: 4908 23843 27368 89220 40899 36114 17602 1644482 
Branch_type:  BRANCH_INDIRECT_CALL:  Total Count: 32732 1973 10254 16633 2 12413 0 268665 
Branch_type:  BRANCH_RETURN:  Total Count: 88103 12791 79146 192353 50616 103732 27445 1673718 
Number of unique branch instructions: 9961
Upper 32 bits: 
aaaa
ffff
ffff0000
Unique upper 32 bits: 3
Unique upper 36 bits: 3
Unique upper 40 bits: 5
Unique upper 44 bits: 32
Unique upper 48 bits: 156
Variant_0 : 1429 0.174438
Variant_1 : 1500 0.183105
Variant_2 : 1766 0.215576
Variant_3 : 0 0
Offset_3 4109
Offset_4 259
Offset_5 457
Offset_6 503
Offset_7 584
Offset_8 511
Offset_9 475
Offset_10 385
Offset_11 311
Offset_12 274
Offset_13 202
Offset_14 224
Offset_15 188
Offset_16 218
Offset_17 150
Offset_18 118
Offset_19 235
Offset_20 139
Offset_21 265
Offset_22 390
Offset_23 241
Offset_24 340
Offset_25 88
Offset_47 84
Offset_64 1
decode_dispatch_called: 25058072 68.3408
Dispatch_width: 0 13477948 53.7869 36.7584
Dispatch_width: 1 883182 3.52454 2.4087
Dispatch_width: 2 817807 3.26365 2.2304
Dispatch_width: 3 471591 1.88199 1.28617
Dispatch_width: 4 5101520 20.3588 13.9134
Dispatch_width: 5 175941 0.702133 0.479843
Dispatch_width: 6 4130083 16.482 11.264
Empty_decode_cycles: 11608258 31.6592
ROB_full_cycles: 8447843 23.0398
Starvation_cycles_per_kilo_instr: 240.884
Starvation_cycles_per_kilo_instr_3: 188.109
Starvation_cycles_per_kilo_instr_0: 166.384
Branch_type_1  (3,1)  (4,8)  (5,38)  (6,69)  (7,116)  (8,130)  (9,128)  (10,100)  (11,69)  (12,43)  (13,8)  (14,2)  (15,3)  (16,4)  (18,1)  (19,4)  (20,2)  (21,1)  (22,3)  (23,2)  (24,10)  (25,12) 
Branch_type_2  (3,1)  (5,1)  (8,3)  (9,3)  (12,1)  (13,1)  (14,1)  (16,3)  (17,2)  (20,2)  (21,2)  (23,5)  (24,1)  (47,38) 
Branch_type_3  (3,4107)  (4,251)  (5,414)  (6,419)  (7,437)  (8,320)  (9,261)  (10,155)  (11,125)  (12,50)  (13,7)  (64,1) 
Branch_type_4  (6,3)  (7,8)  (8,24)  (9,52)  (10,60)  (11,60)  (12,97)  (13,85)  (14,99)  (15,89)  (16,97)  (17,68)  (18,53)  (19,114)  (20,71)  (21,144)  (22,206)  (23,136)  (24,191)  (25,72) 
Branch_type_5  (8,2)  (9,1)  (10,4)  (11,5)  (12,3)  (13,14)  (14,16)  (15,11)  (16,20)  (17,11)  (18,16)  (19,13)  (20,12)  (21,13)  (22,42)  (23,26)  (24,40) 
Branch_type_6  (5,4)  (6,12)  (7,23)  (8,32)  (9,30)  (10,66)  (11,52)  (12,80)  (13,87)  (14,106)  (15,85)  (16,94)  (17,69)  (18,48)  (19,104)  (20,52)  (21,105)  (22,139)  (23,72)  (24,98)  (25,4)  (47,46) 
Unique trigger count: 
Variant_0_evicts_0 : 0
Variant_0_evicts_1 : 0
Variant_0_evicts_2 : 0
Variant_0_evicts_3 : 0
Variant_1_evicts_0 : 0
Variant_1_evicts_1 : 0
Variant_1_evicts_2 : 0
Variant_1_evicts_3 : 0
Variant_2_evicts_0 : 0
Variant_2_evicts_1 : 0
Variant_2_evicts_2 : 0
Variant_2_evicts_3 : 0
Variant_3_evicts_0 : 0
Variant_3_evicts_1 : 0
Variant_3_evicts_2 : 0
Variant_3_evicts_3 : 0
BTB PER SET UNIQUE ADDR: 1 4 2 7 3 3 5 3 2 4 3 3 1 6 2 5 1 3 3 2 2 4 4 3 3 4 2 1 3 6 3 3 2 3 3 4 3 2 2 3 3 4 5 1 2 3 3 3 2 2 2 3 2 3 3 3 3 2 2 2 4 3 2 2 6 1 5 3 5 3 3 3 5 3 2 5 4 4 6 4 7 5 3 6 3 4 2 3 3 2 2 5 3 4 3 1 4 2 2 4 3 4 4 4 2 5 4 2 3 7 6 2 2 3 0 2 4 5 4 5 3 3 3 3 7 3 2 2 3 1 5 3 3 2 4 3 4 1 3 3 2 3 2 4 4 6 5 3 5 5 3 1 4 7 4 3 3 2 4 4 1 3 4 1 4 2 1 5 4 7 4 3 3 1 3 3 2 5 2 2 3 2 3 5 2 6 2 4 5 3 3 1 2 5 1 3 4 4 4 3 4 2 3 2 0 4 2 2 5 4 3 4 5 2 3 3 3 3 2 5 3 5 3 2 5 2 3 5 4 5 1 3 5 5 3 4 2 4 4 4 3 6 3 4 3 1 3 2 6 4 2 3 1 2 2 4 2 3 3 3 6 2 6 2 3 2 5 2 4 5 1 4 3 3 3 3 4 1 3 4 4 2 1 5 2 2 3 2 4 1 3 3 3 3 2 4 2 2 2 3 5 1 2 4 3 2 2 6 7 3 2 2 3 3 4 4 2 2 3 4 6 4 2 2 6 3 2 4 1 5 3 6 2 3 3 3 2 4 3 3 4 5 3 2 2 2 4 2 1 2 3 5 3 4 4 5 4 2 2 3 4 4 2 4 2 3 2 6 3 3 5 5 1 3 2 3 1 2 1 1 2 4 3 2 3 2 1 5 3 5 3 2 2 4 2 4 4 3 2 2 5 5 3 1 2 3 2 2 8 2 2 4 1 3 6 2 2 4 3 3 2 2 3 7 3 2 4 3 1 4 4 2 6 3 3 0 3 2 2 2 3 1 1 3 3 0 2 4 5 4 2 2 2 2 6 1 3 2 4 2 3 5 3 4 1 2 4 2 3 3 5 5 5 4 7 6 1 2 3 4 3 2 5 3 2 3 2 2 5 4 2 3 4 2 4 4 3 2 2 3 3 3 5 2 5 3 4 1 2 2 2 3 4 3 2 5 6 2 3 2 2 2 5 3 4 3 1 2 2 2 5 3 5 2 3 4 1 3 3 3 4 3 5 6 3 4 3 4 4 4 3 4 3 5 4 4 3 0 4 2 1 3 3 4 3 2 4 3 3 2 1 1 1 3 2 3 4 2 3 2 1 4 3 3 2 1 3 2 5 2 3 3 2 2 2 3 5 4 4 3 3 3 2 2 3 3 3 1 3 3 3 4 3 3 1 4 3 4 3 3 4 1 4 3 2 3 2 3 3 3 2 2 4 4 3 4 5 4 3 4 5 4 2 3 4 3 4 3 2 2 2 2 3 2 3 4 3 1 3 2 1 3 2 4 3 1 3 2 4 4 4 2 3 3 3 3 2 4 3 3 3 7 1 2 5 4 2 5 5 2 4 1 5 2 3 3 3 2 3 5 4 2 2 2 4 3 2 3 3 4 4 1 1 4 4 3 4 4 2 2 4 4 2 3 3 2 4 3 2 6 3 3 4 3 4 2 6 4 2 2 4 7 3 4 5 1 7 2 2 4 6 5 2 3 3 5 2 1 2 2 5 2 4 4 3 3 4 5 2 6 3 2 1 2 2 3 4 3 1 2 2 4 2 2 1 5 2 3 6 2 4 4 2 5 3 3 7 1 2 3 4 5 3 3 5 3 3 3 4 3 4 1 0 2 3 3 3 2 2 2 3 4 4 1 4 2 3 2 4 4 2 5 3 3 4 2 5 4 3 2 0 4 2 3 2 3 5 3 2 3 5 3 2 3 3 3 4 5 3 3 2 3 4 4 4 3 5 2 3 2 6 1 3 3 2 3 2 4 1 4 3 4 3 3 1 3 2 2 2 1 6 1 1 2 3 4 1 4 2 2 3 1 2 4 4 1 3 4 5 5 5 3 2 4 2 3 3 3 4 3 3 2 3 5 1 2 6 4 2 2 4 7 4 2 2 4 4 1 2 2 3 3 3 2 3 1 3 2 5 4 4 5 4 2 7 3 4 4 2 2 3 2 4 5 3 1 7 2 1 3 4 1 3 8 2 4 2 2 4 3 3 2 3 4 4 2 3 2 3 3 4 2 2 5 5 2 2 4 2 2 4 4 4 3 4 3 4 4 2 5 3 5 2 4 3 2 3 3 3 4 2 3 3 5 5 3 3 4 4 3 1 4 3 2 3 3 5 4 2 3 3 5 3 6 3 2 4 5 3 4 2 4 4 3 1 5 4 4 3 2 3 6 2 3 1 4 5 3 5 4 2 4 2 5 3 5 2 2 3 4 5 2 3 4 3 3 3 2 2 6 2 6 3 6 4 4 3 2 4 3 6 4 3 10 3 3 1 4 2 1 2 5 2 1 4 3 2 5 4 5 4 5 3 3 3 4 3 5 2 1 6 3 3 3 2 2 3 2 4 3 4 5 2 2 3 4 2 4 3 1 3 5 2 3 2 2 3 5 2 3 4 1 5 3 3 2 3 4 6 4 6 2 4 3 1 5 3 3 2 4 1 1 6 3 1 3 5 2 2 6 3 3 1 1 2 3 3 4 3 1 2 2 1 2 7 2 3 1 4 2 4 2 2 4 0 4 3 2 4 3 4 1 4 6 4 4 2 3 3 3 4 2 4 2 2 3 2 2 3 3 3 3 6 3 2 2 4 3 0 4 3 4 3 2 2 3 1 2 3 4 3 2 3 4 2 2 3 3 3 6 3 2 4 2 3 4 2 2 3 3 4 3 6 3 3 3 4 4 4 5 8 2 1 5 3 3 4 5 3 3 2 5 3 6 3 2 2 3 3 4 6 7 5 3 3 2 5 2 2 4 2 5 4 1 3 2 2 4 7 3 2 3 5 2 6 2 2 3 3 5 3 3 2 3 5 6 2 4 6 3 3 3 3 6 3 1 2 2 3 3 4 4 2 6 4 3 3 4 3 4 4 3 1 5 3 5 2 4 2 4 2 2 1 2 4 3 4 6 2 1 2 3 3 5 1 4 3 4 3 5 2 3 5 3 2 2 3 5 3 5 2 2 3 3 6 2 1 2 1 2 4 3 6 6 6 2 3 5 3 6 3 1 5 3 2 3 4 5 5 3 4 2 2 2 3 6 3 3 3 4 2 2 2 2 3 4 2 5 4 4 3 1 3 4 4 4 3 2 1 4 2 2 5 3 3 1 3 3 5 8 3 4 3 4 4 3 4 2 5 2 3 2 2 6 5 5 2 4 2 1 4 3 4 6 4 3 2 1 6 3 3 5 3 3 1 2 4 4 4 8 4 1 3 6 3 2 5 2 3 3 2 4 3 2 4 5 4 3 0 4 5 2 4 3 4 7 3 2 3 1 2 5 2 3 3 3 4 3 4 2 2 6 2 4 1 3 5 5 4 5 4 3 4 2 2 4 4 2 4 3 3 3 3 3 4 2 2 2 3 4 4 3 2 3 4 2 3 2 3 5 4 3 2 2 4 3 5 4 2 3 2 4 5 2 4 4 4 4 1 2 2 3 2 5 4 3 3 2 2 2 3 4 3 4 2 3 4 3 3 7 3 5 4 1 2 6 2 2 4 3 5 3 1 1 4 2 2 3 5 3 3 4 1 4 5 3 2 3 3 1 4 3 3 2 3 2 3 2 4 3 3 3 7 2 1 1 4 4 6 4 2 3 2 1 3 2 2 3 4 3 2 4 3 0 3 3 3 1 3 3 1 1 4 6 2 2 4 2 2 1 2 3 4 4 3 3 3 1 3 2 2 3 1 4 5 2 3 5 4 1 6 2 2 5 3 2 3 5 4 3 4 4 4 4 4 2 1 1 3 3 3 4 3 4 2 2 4 3 2 2 3 4 5 5 2 5 4 6 3 5 2 6 2 4 6 3 2 4 1 2 3 2 3 1 3 4 3 3 5 2 2 3 2 5 1 2 3 1 3 1 4 2 7 2 4 1 3 2 1 3 1 3 3 3 5 4 3 2 2 1 3 4 4 1 2 5 4 2 3 2 4 3 3 2 3 2 2 4 3 2 2 3 4 4 8 3 3 3 4 4 2 3 5 4 2 2 2 3 3 1 1 2 2 3 3 4 3 5 2 3 2 4 3 2 4 3 3 3 2 1 2 2 2 2 4 5 1 3 2 5 3 1 0 2 2 2 3 0 4 6 1 3 3 3 3 3 4 3 3 2 5 4 4 2 3 4 2 1 4 3 1 2 2 8 2 4 3 3 3 5 3 2 2 2 3 4 3 0 3 3 3 6 5 5 4 6 2 3 1 4 2 8 3 5 3 3 4 3 4 4 4 5 6 2 4 3 5 3 3 4 3 6 3 3 4 2 3 5 1 3 4 2 2 2 4 5 4 3 1 4 1 3 3 6 4 3 1 1 3 4 1 1 3 6 2 2 5 3 4 2 6 3 5 4 3 3 3 2 5 5 2 4 4 3 4 2 5 3 4 4 3 3 1 1 2 2 3 5 
BTB PER SET COUNT: 1 3414 2937 2938 18 610 577 5041 574 4 45 117 1 692 2 1831 1 3 1692 7 721 4 74 44 536 3481 3 1 6 1801 3 5 7 8 16 5 3 2 152 4 1941 3421 4611 1 2189 3238 720 978 1060 2 2 3 1416 3 3 46 5 988 4 2 8 1952 2 2 5405 1 3563 145 2639 3 3 3 5 1440 347 4189 1950 1894 4321 5 5063 1249 3 2860 410 4 2 3 41 987 3 363 3 367 1712 1 6 2 49 4 7 593 4 1457 21 23 4 972 3 1739 1644 280 2 1322 0 2 4 5 526 2235 25 36 3463 1891 3254 92 2427 2 3 1 1138 3 1735 494 4374 3 1733 249 3 989 19 988 2 1997 1484 12 544 708 210 38 3 1 1962 527 536 4 3 987 1896 271 1 215 1088 1 2433 2 1 1791 2802 2360 1571 393 3 8 617 531 3 2959 495 2 3 2 4 1506 2 1786 509 4 647 264 3 6 7 1008 984 436 493 1151 4 451 4 2 5 2 0 8 4 339 3501 1961 57 1544 1117 372 3 3 3 1046 2 2305 980 5031 32 2106 1483 2 1503 544 6 217 1765 2927 590 1953 2545 2225 1024 436 4 2690 722 4211 1502 641 1467 1 10738 2 1920 4 2 93 1 496 1441 19 1956 3 5 357 2525 66 2727 2 3 6 726 1462 4 2018 1 6 11 3 3 3 1947 1 1953 2958 8 2 1 279 2 2 3 133 593 1 135 1955 3 391 4213 4327 1463 495 2 1466 4681 1 988 4897 3 249 495 2816 4384 1009 987 2 3 3 7062 5 2 2 495 4 5184 4 5 2 4544 3 33 13 1 2605 711 1583 493 3 1824 3 2 1860 1468 3 1201 8 645 61 2922 10 3148 3 521 2 3 1544 2779 36 282 539 978 5 2 10 12 511 2 1807 2 4 494 551 28 496 6709 1750 1 3 1467 6 1 3 1 1 1749 1889 3 13 1004 973 1 7606 1468 243 3 1504 474 4 2 4 5576 5 2 3 513 360 3 491 2 14 2 2 1510 1460 2 85 1 1483 786 2 965 4 3 2146 2 2 2491 3947 306 465 4 379 2924 8 4 2 1758 3 127 0 268 3 2851 481 3 1 1 884 866 0 2 89 381 1463 4 418 1456 3 1283 1 3 2 1244 44 2207 667 736 497 4 2 1495 2967 3 496 5127 2072 1461 1466 4131 1535 1 3 7 2020 20 1467 4505 1468 2045 494 1554 717 5561 458 978 1470 2910 4 1509 71 3 2473 230 498 1464 3 1475 1467 953 3 1173 1 3 207 2 3 2459 1976 1719 6 1038 1961 30 978 2 1654 1499 1604 4 3 1 778 39 2 4015 3 653 497 3 447 1 1556 1401 494 2303 1195 9 498 265 6450 496 1306 4 3888 3 4 989 1625 620 1852 43 0 5075 2 986 37 3 5 1498 30 2439 1212 3 2 1 806 1 500 963 3169 2935 2 3 5 4 4 410 5 2 1 5 1457 498 1465 3 5 2 2 3 3925 6077 5 724 1129 3 686 3 2 1435 1968 4 1 3 4 3 4 5 1466 1 945 505 4302 3 30 483 1 510 4 251 7 2 1443 3 1948 2 2 29 1548 3 2878 20 4 3 3298 28 1470 1045 3 1940 438 18 3863 494 3410 2 18 3 1960 3 423 2957 477 3 1608 1 2425 487 1019 250 1 5788 2438 122 651 48 2 3 3 21 3 2 971 3 3 959 616 1 2 438 2244 2 6 13 7 4015 1 1416 2 1465 499 3 2 3 7 4 2 2 2396 58 4 2 61 3 304 1377 4 1 13 2192 523 3392 561 494 2 541 2811 2 58 2435 2 4 2439 2678 2935 3 252 1476 3 1465 5 6634 4 2 1482 1977 6115 1182 980 1769 1 2582 2 2 4 1224 575 2 3 1959 669 2 1 81 2 1797 2 251 5786 518 13 34 3572 2 5072 9 3 2 2 1503 35 5 3 1 250 2 592 1022 2 1 912 1343 103 268 4 4 44 2760 407 500 3 715 1447 2 722 1601 2890 1969 1287 2947 3 4871 3 3945 3 4097 1940 0 1035 3 314 11 1170 20 2 6 5 31 3 5 590 4 1917 4 1499 5721 1990 3 1190 562 3 2359 3917 463 2 0 3476 3 7 2 3 2260 14 2 3 3855 3 2 3 3 3 4 7277 1469 16 1026 21 5 234 1499 3 4199 2 3 976 559 19 1888 4 1462 147 2 1867 1 875 1269 4 3 872 1 3 126 2 276 1 5427 1 1460 265 3 10 1 9 2909 97 4 1 3776 4 4 1963 3481 836 3469 4435 942 3253 2 6 2072 3 1470 3 2749 4 2694 1947 3 1600 1 515 6434 29 2 730 4392 2764 4 2 1224 1470 4 1 2 9 9 223 536 2 3 1 168 921 504 150 12 3806 498 2 4180 3 932 4 2272 2 3 2 283 5 1041 1 3811 2 1 3 4656 1 3 2043 3 1453 2 2 4229 287 1952 270 1161 2948 1020 2463 562 1990 2191 3 13 7 2 1707 276 17 2 3496 115 495 4 9 213 3 340 1794 4 4 3 2121 3 7 595 486 3 376 669 980 118 981 2 3 2526 54 5 3 496 549 4 3 1 1473 3 2 3 974 981 4 2 1982 3 5 2575 6 1770 1917 1470 1135 1127 240 249 4 272 649 23 2691 16 4 6 24 26 2931 228 3 1 6 991 3 1063 1717 2 2247 2 3023 976 1469 1681 7 4 10 1150 979 3 1956 3 2397 978 2 2 6597 2 971 1895 2950 4 1472 517 686 2092 1587 976 8 6 6089 853 163 6 1946 6 493 2 11 31 1 1016 11 1317 22 2642 37 1148 6 779 4 1202 1975 105 17 2 1 2024 3 2477 487 2 2 1999 6 8 205 483 5 2 2 3 1433 2 2481 5 720 121 2898 1287 285 249 2439 4 11 656 3 3413 3 1937 3 3 249 921 22 13 4 3726 4 6 657 1 4169 508 52 2 27 1 1 1945 1951 1 3 3761 33 997 852 2857 3 7 1 2626 3 1411 4 3 1 2 2 1465 8 363 2 3 609 3824 1042 1725 874 2 4 0 1162 3 494 152 309 556 1 752 1464 1809 4 2 3 3 3 1638 163 2967 2 18 4 1322 615 329 1667 1468 11 1192 605 2 2 98 3 0 510 251 1988 3 2 1449 3 5 485 991 242 19 1932 1475 4 2 1189 4 3 2719 1113 3 2 3928 2 43 2569 51 249 3 5 2173 36 827 66 3 3 451 2295 2922 5 2715 2 1 945 250 3 6 1736 3 5 3 872 7 1767 1467 5 75 3 3 1451 2653 178 5 3 3 6 1965 5 4 10 2 198 4 1 3 1466 492 2208 2782 3 3 10 1486 2 1125 2 2 3 3 3756 1468 3 2 202 499 3524 1225 20 2729 494 3 281 1964 4408 1124 1 2234 2 8 260 2323 1619 2 409 1461 3 5 10 5 1820 254 3 1 715 7 3443 2 311 3 1980 75 2 245 974 4 16 4545 3566 3 1 2 1490 772 7 248 533 406 602 2024 2636 2 4 978 52 6 2 3 2261 10 1880 2 8 3 4 4472 2 1 2 1 3 4 1464 1781 1984 1837 2 1020 5 3 2129 3 1 68 2918 2 1019 4 2177 664 5 510 394 495 2244 3 7219 3 3 434 4 2 2 2 2 1459 4 45 1991 4 5 80 247 4 4 353 3757 497 3 1 4 6 2 1201 3 3 1 5 1967 596 4451 3 4 3 805 916 150 1955 8 506 6 963 6 2 1058 7 1315 2 1667 414 1 2127 3 2060 3249 4 1338 2 1 1005 3 896 2285 3 22 953 2 1459 7 4454 4604 6 1 1573 3971 874 2 1596 811 2428 4150 2 1325 34 1458 4 5 253 176 0 214 2149 2464 4 508 6563 4043 4 2 1215 1 2 218 2 3 971 3188 1966 3 556 2 7 2585 3 2447 1 589 10064 5 1011 1702 4 1463 974 2 667 856 2927 2 4 395 93 3 1256 3336 4 2 2 2 2042 2005 3232 1154 1290 3 757 4 1472 2 974 1003 4 3 3 1470 12 23 1114 4 2 3 493 3013 665 2 33 1471 268 5 1 2 2 55 2 2811 503 1494 3 423 2737 423 3 7 766 1997 2 3 30 7 3 4158 3259 1547 4 1 2 4355 274 2 1826 3 4654 2370 1049 1 15 3 1050 4 3813 9 3 2236 1 2513 2894 3 2 3 4 1 50 1311 160 2 48 539 3 82 1457 3 3 1489 58 1439 162 1 5 4 5879 4 2 15 539 76 3 1369 1075 3 4086 285 3 3122 3 0 1782 3 199 1 2433 974 1 1 4 1665 2 1466 261 406 3 1 1945 285 5 4035 257 3 1454 1228 707 2 2618 3 1415 267 748 3 745 3358 49 1 7 735 3 1468 3 2 2191 2830 43 13 4 587 4 988 2073 550 1 1465 544 716 3 2668 919 522 495 2 1690 479 722 415 8 2129 2352 720 2 1512 4 4040 8 3500 249 4862 6 989 3893 4 7 1005 1950 2 859 1675 1892 1 1408 982 2649 10 4322 2 1891 3 3 2373 1 2 1237 1950 4 494 979 552 6938 4 3247 1 167 3 1 7 1 980 3 3 2464 62 1467 2 2 173 1131 2711 979 1 1272 957 23 2 3 2 989 8 39 2 3 494 28 4683 14 2 2 3 229 13 6433 6 57 4 105 9 1956 3 1450 6 2 2 2 721 20519 1 1 4 782 274 3 4 3 1954 97 3 494 766 618 2 590 9 9 275 2 1 2 2 2 1037 6 127 1 3 2 1879 14652 1 0 493 411 2484 120 0 2577 973 384 1464 2217 31 3 3 3248 974 4140 2 5 2451 482 2 3 5 10 265 268 278 2 2 2 4130 5 1472 3 1223 3 138 3 2 1466 2 4 3413 1468 0 1068 511 1775 2448 6803 653 7 5568 566 567 1 4 3 4109 1400 3395 3 494 2929 988 1253 6904 5 1042 424 2 2412 31 3315 158 1053 18 6899 1719 4 3 514 40 3075 248 1 3 2555 2 2 2 515 3617 2954 2448 1 3442 1 3 872 8 498 3 1345 1 3 34 987 492 253 6343 2 2 310 3 1960 1466 43 595 1136 2944 3 3546 3184 13 2809 5 3 464 7 761 4 2 600 12 1002 956 38 1507 1 1 494 2 3 2781 
To predecode: 1185727
Predecoding something: 742905
Predecode request dropped: 0
sizeofblock_0 0
sizeofblock_1 572493
sizeofblock_2 526026
sizeofblock_3 514050
sizeofblock_4 102427
sizeofblock_5 0
sizeofblock_6 0
sizeofblock_7 0
sizeofblock_8 0
