
*** ChampSim Multicore Out-of-Order Simulator ***

Warmup Instructions: 50000000
Simulation Instructions: 50000000
Number of CPUs: 1
LLC sets: 2048
LLC ways: 16
Off-chip DRAM Size: 4096 MB Channels: 1 Width: 64-bit Data Rate: 6400 MT/s
CPU 0 runs ./micro_traces/srv77.trace.gz
.gz
ITLB has LRU replacement policy
DTLB has LRU replacement policy
STLB has LRU replacement policy
FDIP Prefetcher at L1I
L1I has LRU replacement policy
L1D has LRU replacement policy
Initialize SRRIP state for L2C
Initialize DRRIP state for LLC
Heartbeat_Variant_0 : 1321 0.32251 per_variant_size: 0 1321 0 0 0 0 0 0 0 
Heartbeat_Variant_1 : 2530 0.617676 per_variant_size: 0 576 1954 0 0 0 0 0 0 
Heartbeat_Variant_2 : 0 0 per_variant_size: 0 0 0 0 0 0 0 0 0 
Heartbeat_Variant_3 : 0 0 per_variant_size: 0 0 0 0 0 0 0 0 0 
Heartbeat_Variant_0_evicts 0 : 5777 1 : 464 2 : 0 3 : 0 
Heartbeat_Variant_1_evicts 0 : 435 1 : 0 2 : 0 3 : 0 
Heartbeat_Variant_2_evicts 0 : 0 1 : 0 2 : 0 3 : 0 
Heartbeat_Variant_3_evicts 0 : 0 1 : 0 2 : 0 3 : 0 
Heartbeat CPU 0 instructions: 10000000 cycles: 2800296 heartbeat IPC: 3.57105 cumulative IPC: 3.57105 (Simulation time: 0 hr 2 min 32 sec) 
Heartbeat_Variant_0 : 1353 0.330322 per_variant_size: 0 1353 0 0 0 0 0 0 0 
Heartbeat_Variant_1 : 2584 0.630859 per_variant_size: 0 501 2083 0 0 0 0 0 0 
Heartbeat_Variant_2 : 0 0 per_variant_size: 0 0 0 0 0 0 0 0 0 
Heartbeat_Variant_3 : 0 0 per_variant_size: 0 0 0 0 0 0 0 0 0 
Heartbeat_Variant_0_evicts 0 : 5633 1 : 260 2 : 0 3 : 0 
Heartbeat_Variant_1_evicts 0 : 247 1 : 0 2 : 0 3 : 0 
Heartbeat_Variant_2_evicts 0 : 0 1 : 0 2 : 0 3 : 0 
Heartbeat_Variant_3_evicts 0 : 0 1 : 0 2 : 0 3 : 0 
Heartbeat CPU 0 instructions: 20000000 cycles: 5600018 heartbeat IPC: 3.57178 cumulative IPC: 3.57142 (Simulation time: 0 hr 4 min 20 sec) 
Heartbeat_Variant_0 : 1359 0.331787 per_variant_size: 0 1359 0 0 0 0 0 0 0 
Heartbeat_Variant_1 : 2595 0.633545 per_variant_size: 0 503 2092 0 0 0 0 0 0 
Heartbeat_Variant_2 : 0 0 per_variant_size: 0 0 0 0 0 0 0 0 0 
Heartbeat_Variant_3 : 0 0 per_variant_size: 0 0 0 0 0 0 0 0 0 
Heartbeat_Variant_0_evicts 0 : 5657 1 : 122 2 : 0 3 : 0 
Heartbeat_Variant_1_evicts 0 : 122 1 : 0 2 : 0 3 : 0 
Heartbeat_Variant_2_evicts 0 : 0 1 : 0 2 : 0 3 : 0 
Heartbeat_Variant_3_evicts 0 : 0 1 : 0 2 : 0 3 : 0 
Heartbeat CPU 0 instructions: 30000001 cycles: 8400810 heartbeat IPC: 3.57042 cumulative IPC: 3.57108 (Simulation time: 0 hr 6 min 4 sec) 
Heartbeat_Variant_0 : 1360 0.332031 per_variant_size: 0 1360 0 0 0 0 0 0 0 
Heartbeat_Variant_1 : 2610 0.637207 per_variant_size: 0 494 2116 0 0 0 0 0 0 
Heartbeat_Variant_2 : 0 0 per_variant_size: 0 0 0 0 0 0 0 0 0 
Heartbeat_Variant_3 : 0 0 per_variant_size: 0 0 0 0 0 0 0 0 0 
Heartbeat_Variant_0_evicts 0 : 5686 1 : 130 2 : 0 3 : 0 
Heartbeat_Variant_1_evicts 0 : 130 1 : 0 2 : 0 3 : 0 
Heartbeat_Variant_2_evicts 0 : 0 1 : 0 2 : 0 3 : 0 
Heartbeat_Variant_3_evicts 0 : 0 1 : 0 2 : 0 3 : 0 
Heartbeat CPU 0 instructions: 40000001 cycles: 11201741 heartbeat IPC: 3.57024 cumulative IPC: 3.57087 (Simulation time: 0 hr 8 min 10 sec) 
Heartbeat_Variant_0 : 1365 0.333252 per_variant_size: 0 1365 0 0 0 0 0 0 0 
Heartbeat_Variant_1 : 2614 0.638184 per_variant_size: 0 491 2123 0 0 0 0 0 0 
Heartbeat_Variant_2 : 0 0 per_variant_size: 0 0 0 0 0 0 0 0 0 
Heartbeat_Variant_3 : 0 0 per_variant_size: 0 0 0 0 0 0 0 0 0 
Heartbeat_Variant_0_evicts 0 : 5606 1 : 98 2 : 0 3 : 0 
Heartbeat_Variant_1_evicts 0 : 94 1 : 0 2 : 0 3 : 0 
Heartbeat_Variant_2_evicts 0 : 0 1 : 0 2 : 0 3 : 0 
Heartbeat_Variant_3_evicts 0 : 0 1 : 0 2 : 0 3 : 0 
Heartbeat CPU 0 instructions: 50000000 cycles: 14002966 heartbeat IPC: 3.56987 cumulative IPC: 3.57067 (Simulation time: 0 hr 9 min 56 sec) 

Warmup complete CPU 0 instructions: 50000004 cycles: 14002967 (Simulation time: 0 hr 9 min 56 sec) 

Cycle: 20000000 FTQ IN: 58345129 FTQ occupancy: 20.579 DECODE IN: 58344994 DECODE occupancy: 53.2831 ROB IN: 58344934 ROB occupancy: 317.776 ROB OUT: 58344582
Heartbeat_Variant_0 : 1365 0.333252 per_variant_size: 0 1365 0 0 0 0 0 0 0 
Heartbeat_Variant_1 : 2615 0.638428 per_variant_size: 0 501 2114 0 0 0 0 0 0 
Heartbeat_Variant_2 : 0 0 per_variant_size: 0 0 0 0 0 0 0 0 0 
Heartbeat_Variant_3 : 0 0 per_variant_size: 0 0 0 0 0 0 0 0 0 
Heartbeat_Variant_0_evicts 0 : 5619 1 : 0 2 : 0 3 : 0 
Heartbeat_Variant_1_evicts 0 : 0 1 : 0 2 : 0 3 : 0 
Heartbeat_Variant_2_evicts 0 : 0 1 : 0 2 : 0 3 : 0 
Heartbeat_Variant_3_evicts 0 : 0 1 : 0 2 : 0 3 : 0 
Heartbeat CPU 0 instructions: 60000001 cycles: 21185635 heartbeat IPC: 1.39224 cumulative IPC: 1.39224 (Simulation time: 0 hr 12 min 8 sec) 
Heartbeat_Variant_0 : 1367 0.33374 per_variant_size: 0 1367 0 0 0 0 0 0 0 
Heartbeat_Variant_1 : 2633 0.642822 per_variant_size: 0 516 2117 0 0 0 0 0 0 
Heartbeat_Variant_2 : 0 0 per_variant_size: 0 0 0 0 0 0 0 0 0 
Heartbeat_Variant_3 : 0 0 per_variant_size: 0 0 0 0 0 0 0 0 0 
Heartbeat_Variant_0_evicts 0 : 5666 1 : 135 2 : 0 3 : 0 
Heartbeat_Variant_1_evicts 0 : 136 1 : 0 2 : 0 3 : 0 
Heartbeat_Variant_2_evicts 0 : 0 1 : 0 2 : 0 3 : 0 
Heartbeat_Variant_3_evicts 0 : 0 1 : 0 2 : 0 3 : 0 
Heartbeat CPU 0 instructions: 70000000 cycles: 28473240 heartbeat IPC: 1.37219 cumulative IPC: 1.38214 (Simulation time: 0 hr 14 min 22 sec) 
Cycle: 30000000 FTQ IN: 13770976 FTQ occupancy: 14.898 DECODE IN: 13771111 DECODE occupancy: 37.0295 ROB IN: 13771171 ROB occupancy: 243.954 ROB OUT: 13771520
Heartbeat_Variant_0 : 1369 0.334229 per_variant_size: 0 1369 0 0 0 0 0 0 0 
Heartbeat_Variant_1 : 2634 0.643066 per_variant_size: 0 526 2108 0 0 0 0 0 0 
Heartbeat_Variant_2 : 0 0 per_variant_size: 0 0 0 0 0 0 0 0 0 
Heartbeat_Variant_3 : 0 0 per_variant_size: 0 0 0 0 0 0 0 0 0 
Heartbeat_Variant_0_evicts 0 : 5481 1 : 11 2 : 0 3 : 0 
Heartbeat_Variant_1_evicts 0 : 9 1 : 0 2 : 0 3 : 0 
Heartbeat_Variant_2_evicts 0 : 0 1 : 0 2 : 0 3 : 0 
Heartbeat_Variant_3_evicts 0 : 0 1 : 0 2 : 0 3 : 0 
Heartbeat CPU 0 instructions: 80000001 cycles: 35665019 heartbeat IPC: 1.39048 cumulative IPC: 1.38491 (Simulation time: 0 hr 16 min 33 sec) 
Cycle: 40000000 FTQ IN: 13928311 FTQ occupancy: 15.0635 DECODE IN: 13928225 DECODE occupancy: 37.7849 ROB IN: 13928165 ROB occupancy: 249.502 ROB OUT: 13927816
Heartbeat_Variant_0 : 1372 0.334961 per_variant_size: 0 1372 0 0 0 0 0 0 0 
Heartbeat_Variant_1 : 2633 0.642822 per_variant_size: 0 520 2113 0 0 0 0 0 0 
Heartbeat_Variant_2 : 0 0 per_variant_size: 0 0 0 0 0 0 0 0 0 
Heartbeat_Variant_3 : 0 0 per_variant_size: 0 0 0 0 0 0 0 0 0 
Heartbeat_Variant_0_evicts 0 : 5568 1 : 111 2 : 0 3 : 0 
Heartbeat_Variant_1_evicts 0 : 108 1 : 0 2 : 0 3 : 0 
Heartbeat_Variant_2_evicts 0 : 0 1 : 0 2 : 0 3 : 0 
Heartbeat_Variant_3_evicts 0 : 0 1 : 0 2 : 0 3 : 0 
Heartbeat CPU 0 instructions: 90000001 cycles: 42849272 heartbeat IPC: 1.39193 cumulative IPC: 1.38666 (Simulation time: 0 hr 18 min 40 sec) 
Cycle: 50000000 FTQ IN: 13808611 FTQ occupancy: 14.9697 DECODE IN: 13808589 DECODE occupancy: 37.2673 ROB IN: 13808589 ROB occupancy: 245.7 ROB OUT: 13808593
Heartbeat_Variant_0 : 1372 0.334961 per_variant_size: 0 1372 0 0 0 0 0 0 0 
Heartbeat_Variant_1 : 2643 0.645264 per_variant_size: 0 506 2137 0 0 0 0 0 0 
Heartbeat_Variant_2 : 0 0 per_variant_size: 0 0 0 0 0 0 0 0 0 
Heartbeat_Variant_3 : 0 0 per_variant_size: 0 0 0 0 0 0 0 0 0 
Heartbeat_Variant_0_evicts 0 : 5608 1 : 140 2 : 0 3 : 0 
Heartbeat_Variant_1_evicts 0 : 140 1 : 0 2 : 0 3 : 0 
Heartbeat_Variant_2_evicts 0 : 0 1 : 0 2 : 0 3 : 0 
Heartbeat_Variant_3_evicts 0 : 0 1 : 0 2 : 0 3 : 0 
Heartbeat CPU 0 instructions: 100000002 cycles: 50105457 heartbeat IPC: 1.37813 cumulative IPC: 1.38495 (Simulation time: 0 hr 20 min 57 sec) 
Finished CPU 0 instructions: 50000002 cycles: 36102491 cumulative IPC: 1.38495 (Simulation time: 0 hr 20 min 57 sec) 

ChampSim completed all CPUs

Region of Interest Statistics

CPU 0 cumulative IPC: 1.38495 instructions: 50000002 cycles: 36102491
 Fetch stage stalled: 46.3261  Sim cycles: 36102491 fetch stall cycle: 16724894
 Empty decode stage: 27.0682  Sim cycles: 36102491 fetch stall cycle: 9772306
ITLB TOTAL     ACCESS:    5866450  HIT:    5367610  MISS:     498840  HIT %:    91.4967  MISS %:    8.50327   MPKI: 9.9768
ITLB LOAD TRANSLATION INSTRUCTION	ACCESS:    5727319  HIT:    5228479  MISS:     498840  HIT %:    91.2902  MISS %:    8.70983  MPKI: 9.9768
ITLB TRANSLATION FROM L1D PREFETCHER INSTRUCTION	ACCESS:     139131  HIT:     139131  MISS:          0  HIT %:        100  MISS %:          0  MPKI: 0

ITLB AVERAGE MISS LATENCY: 9.0528 cycles
ITLB RQ	ACCESS:    7979528	FORWARD:          0	MERGED:    1624058	TO_CACHE:    6355470

DTLB TOTAL     ACCESS:    8961183  HIT:    8482761  MISS:     478422  HIT %:    94.6612  MISS %:    5.33883   MPKI: 9.56844
DTLB LOAD TRANSLATION DATA	ACCESS:    8961183  HIT:    8482761  MISS:     478422  HIT %:    94.6612  MISS %:    5.33883  MPKI: 9.56844

DTLB AVERAGE MISS LATENCY: 9.32797 cycles
DTLB RQ	ACCESS:   13342787	FORWARD:          0	MERGED:    4344944	TO_CACHE:    8997843

STLB TOTAL     ACCESS:    1220884  HIT:    1218746  MISS:       2138  HIT %:    99.8249  MISS %:   0.175119   MPKI: 0.04276
STLB LOAD TRANSLATION INSTRUCTION	ACCESS:     498839  HIT:     498576  MISS:        263  HIT %:    99.9473  MISS %:  0.0527224  MPKI: 0.00526
STLB LOAD TRANSLATION DATA	ACCESS:     478421  HIT:     476560  MISS:       1861  HIT %:     99.611  MISS %:   0.388988  MPKI: 0.03722
STLB TRANSLATION FROM L1D PREFETCHER DATA	ACCESS:     243624  HIT:     243610  MISS:         14  HIT %:    99.9943  MISS %: 0.00574656  MPKI: 0.00028

STLB AVERAGE MISS LATENCY: 70.8466 cycles
STLB RQ	ACCESS:    1339190	FORWARD:          0	MERGED:     118275	TO_CACHE:    1220915

STLB Hit, L1D data hit: 0
STLB Hit, L2C data hit: 0
STLB Hit, LLC data hit: 0
STLB Hit, LLC data miss: 0
STLB STLB hints to L2: 0
L1D TOTAL     ACCESS:   13076947  HIT:   11947815  MISS:    1129132  HIT %:    91.3655  MISS %:    8.63452   MPKI: 22.5826
L1D LOAD DATA	ACCESS:    6549692  HIT:    5801959  MISS:     747733  HIT %:    88.5837  MISS %:    11.4163  MPKI: 14.9547
L1D RFO DATA	ACCESS:    6207075  HIT:    5920023  MISS:     287052  HIT %:    95.3754  MISS %:    4.62459  MPKI: 5.74104
L1D PREFETCH DATA	ACCESS:     320180  HIT:     225833  MISS:      94347  HIT %:    70.5331  MISS %:    29.4669  MPKI: 1.88694

L1D PREFETCH  REQUESTED:     724232  ISSUED:     724232  USEFUL:      33206  USELESS:      69504
L1D USEFUL LOAD PREFETCHES:      33206 PREFETCH ISSUED TO LOWER LEVEL:     102808  ACCURACY: 32.299
 TIMELY PREFETCHES:      33206 LATE PREFETCHES: 8383 DROPPED PREFETCHES: 2
L1D AVERAGE MISS LATENCY: 244350 cycles
L1D RQ	ACCESS:   10674616	FORWARD:          0	MERGED:    3924446	TO_CACHE:    6584072
L1D WQ	ACCESS:    6959500	FORWARD:     166472	MERGED:     200785	TO_CACHE:    6758715
L1D PQ	ACCESS:     362303	FORWARD:          0	MERGED:          0	TO_CACHE:     361929

L1D UNIQUE REGIONS ACCESSED: 0
L1D REGIONS CONFLICTS: 0
L1D Cross Page Prefetch Requests: 5487
L1D Same Page Prefetch Requests: 743950
L1D ROI Sum of L1D PQ occupancy: 4599342
L1D PREFETCHES PUSHED FROM L2C: 0
L1I TOTAL     ACCESS:    6716760  HIT:    2396829  MISS:    4319931  HIT %:    35.6843  MISS %:    64.3157   MPKI: 86.3986
L1I LOAD INSTRUCTION	ACCESS:    6344117  HIT:    2036942  MISS:    4307175  HIT %:    32.1076  MISS %:    67.8924  MPKI: 86.1435
L1I PREFETCH INSTRUCTION	ACCESS:     372643  HIT:     359887  MISS:      12756  HIT %:    96.5769  MISS %:    3.42312  MPKI: 0.25512

L1I PREFETCH  REQUESTED:    1613141  ISSUED:    1613141  USEFUL:       5337  USELESS:      12752
L1I USEFUL LOAD PREFETCHES:       5337 PREFETCH ISSUED TO LOWER LEVEL:      18093  ACCURACY: 29.4976
 TIMELY PREFETCHES:       5337 LATE PREFETCHES: 5337 DROPPED PREFETCHES: 0
L1I AVERAGE MISS LATENCY: 39761.2 cycles
L1I RQ	ACCESS:    9573119	FORWARD:          0	MERGED:    2784377	TO_CACHE:    6788742
L1I PQ	ACCESS:    1613141	FORWARD:          0	MERGED:     422355	TO_CACHE:    1190786

L1BTB TOTAL     ACCESS:    5671823  HIT:    2018286  MISS:    3653537  HIT %:    35.5844  MISS %:    64.4156   MPKI: 73.0707
L1BTB BRANCH_DIRECT_JUMP	ACCESS:     548052 HIT:     142381 MISS:     405671 AVERAGE STALL: 56.6063 AVERAGE FETCH STALL: 23.1079 AVERAGE FETCH QUEUE STALL: 13.5139 AVERAGE DECODE STALL: 19.0682 AVERAGE EXECUTE STALL: 2.30555e+15
L1BTB BRANCH_INDIRECT	ACCESS:     182320 HIT:      65364 MISS:     116956 AVERAGE STALL: 115.19 AVERAGE FETCH STALL: 21.1018 AVERAGE FETCH QUEUE STALL: 10.6601 AVERAGE DECODE STALL: 12.2816 AVERAGE EXECUTE STALL: 70.1828
L1BTB BRANCH_CONDITIONAL	ACCESS:    2696711 HIT:    1395851 MISS:    1300860 AVERAGE STALL: 66.3919 AVERAGE FETCH STALL: 23.4304 AVERAGE FETCH QUEUE STALL: 23.2626 AVERAGE DECODE STALL: 18.8563 AVERAGE EXECUTE STALL: 2.66494e+15
L1BTB BRANCH_DIRECT_CALL	ACCESS:     949924 HIT:     104417 MISS:     845507 AVERAGE STALL: 70.6625 AVERAGE FETCH STALL: 21.4802 AVERAGE FETCH QUEUE STALL: 23.8708 AVERAGE DECODE STALL: 24.5781 AVERAGE EXECUTE STALL: 9.60768e+15
L1BTB BRANCH_INDIRECT_CALL	ACCESS:     172450 HIT:      21032 MISS:     151418 AVERAGE STALL: 143.835 AVERAGE FETCH STALL: 13.7098 AVERAGE FETCH QUEUE STALL: 19.0838 AVERAGE DECODE STALL: 12.1407 AVERAGE EXECUTE STALL: 98.4074
L1BTB BRANCH_RETURN	ACCESS:    1122366 HIT:     289241 MISS:     833125 AVERAGE STALL: 51.219 AVERAGE FETCH STALL: 19.695 AVERAGE FETCH QUEUE STALL: 4.43785 AVERAGE DECODE STALL: 5.8983 AVERAGE EXECUTE STALL: 4.28825e+14
L1BTB BRANCH_OTHER ACCESS:          0 HIT:          0 MISS:          0 AVERAGE STALL: -nan AVERAGE FETCH STALL: -nan AVERAGE FETCH QUEUE STALL: -nan AVERAGE DECODE STALL: -nan AVERAGE EXECUTE STALL: -nan
L1BTB TOTAL ROB OCCUPANCY AT BTB MISS: 2.73919

L2BTB TOTAL     ACCESS:    3628294  HIT:    3561087  MISS:      67207  HIT %:    98.1477  MISS %:     1.8523   MPKI: 1.34414
L2BTB BRANCH_DIRECT_JUMP	ACCESS:     401612 HIT:     397661 MISS:       3951 AVERAGE STALL: 56.6063 AVERAGE FETCH STALL: 23.1079 AVERAGE FETCH QUEUE STALL: 13.5139 AVERAGE DECODE STALL: 19.0682 AVERAGE EXECUTE STALL: 2.30555e+15
L2BTB BRANCH_INDIRECT	ACCESS:     106621 HIT:     103856 MISS:       2765 AVERAGE STALL: 115.19 AVERAGE FETCH STALL: 21.1018 AVERAGE FETCH QUEUE STALL: 10.6601 AVERAGE DECODE STALL: 12.2816 AVERAGE EXECUTE STALL: 70.1828
L2BTB BRANCH_CONDITIONAL	ACCESS:    1300860 HIT:    1293913 MISS:       6947 AVERAGE STALL: 66.3919 AVERAGE FETCH STALL: 23.4304 AVERAGE FETCH QUEUE STALL: 23.2626 AVERAGE DECODE STALL: 18.8563 AVERAGE EXECUTE STALL: 2.66494e+15
L2BTB BRANCH_DIRECT_CALL	ACCESS:     845507 HIT:     843577 MISS:       1930 AVERAGE STALL: 70.6625 AVERAGE FETCH STALL: 21.4802 AVERAGE FETCH QUEUE STALL: 23.8708 AVERAGE DECODE STALL: 24.5781 AVERAGE EXECUTE STALL: 9.60768e+15
L2BTB BRANCH_INDIRECT_CALL	ACCESS:     141989 HIT:     131982 MISS:      10007 AVERAGE STALL: 143.835 AVERAGE FETCH STALL: 13.7098 AVERAGE FETCH QUEUE STALL: 19.0838 AVERAGE DECODE STALL: 12.1407 AVERAGE EXECUTE STALL: 98.4074
L2BTB BRANCH_RETURN	ACCESS:     831705 HIT:     790098 MISS:      41607 AVERAGE STALL: 51.219 AVERAGE FETCH STALL: 19.695 AVERAGE FETCH QUEUE STALL: 4.43785 AVERAGE DECODE STALL: 5.8983 AVERAGE EXECUTE STALL: 4.28825e+14
L2BTB BRANCH_OTHER ACCESS:          0 HIT:          0 MISS:          0 AVERAGE STALL: -nan AVERAGE FETCH STALL: -nan AVERAGE FETCH QUEUE STALL: -nan AVERAGE DECODE STALL: -nan AVERAGE EXECUTE STALL: -nan
L2BTB TOTAL ROB OCCUPANCY AT BTB MISS: 148.909

L2C TOTAL     ACCESS:    6084229  HIT:    5573536  MISS:     510693  HIT %:    91.6063  MISS %:    8.39372   MPKI: 10.2139
L2C LOAD INSTRUCTION	ACCESS:    4301838  HIT:    4027025  MISS:     274813  HIT %:    93.6117  MISS %:    6.38827  MPKI: 5.49626
L2C PREFETCH INSTRUCTION	ACCESS:      18093  HIT:      18093  MISS:          0  HIT %:        100  MISS %:          0  MPKI: 0
L2C LOAD TRANSLATION INSTRUCTION	ACCESS:        291  HIT:         59  MISS:        232  HIT %:    20.2749  MISS %:    79.7251  MPKI: 0.00464
L2C LOAD DATA	ACCESS:     738743  HIT:     656728  MISS:      82015  HIT %:     88.898  MISS %:     11.102  MPKI: 1.6403
L2C RFO DATA	ACCESS:     286957  HIT:     228358  MISS:      58599  HIT %:    79.5792  MISS %:    20.4208  MPKI: 1.17198
L2C PREFETCH DATA	ACCESS:     209589  HIT:     132702  MISS:      76887  HIT %:    63.3153  MISS %:    36.6847  MPKI: 1.53774
L2C WRITEBACK DATA	ACCESS:     526774  HIT:     510018  MISS:      16756  HIT %:    96.8191  MISS %:    3.18087  MPKI: 0.33512
L2C LOAD TRANSLATION DATA	ACCESS:       1922  HIT:        536  MISS:       1386  HIT %:    27.8876  MISS %:    72.1124  MPKI: 0.02772
L2C TRANSLATION FROM L1D PREFETCHER DATA	ACCESS:         22  HIT:         17  MISS:          5  HIT %:    77.2727  MISS %:    22.7273  MPKI: 0.0001

L2C PREFETCH  REQUESTED:     115965  ISSUED:     115965  USEFUL:       9318  USELESS:      67898
L2C USEFUL LOAD PREFETCHES:       9318 PREFETCH ISSUED TO LOWER LEVEL:      77281  ACCURACY: 12.0573
 TIMELY PREFETCHES:       9318 LATE PREFETCHES: 393 DROPPED PREFETCHES: 0
L2C AVERAGE MISS LATENCY: 37.5547 cycles
L2C RQ	ACCESS:    5330400	FORWARD:          0	MERGED:        572	TO_CACHE:    5329774
L2C WQ	ACCESS:     526774	FORWARD:         54	MERGED:          0	TO_CACHE:     526774
L2C PQ	ACCESS:     236866	FORWARD:          0	MERGED:       4561	TO_CACHE:     232305

L2C Dense regions hint from L2: 0
PSCL5 TOTAL     ACCESS:       4280  HIT:       2140  MISS:       2140  HIT %:         50  MISS %:         50   MPKI: 0.0428
PSCL5 LOAD TRANSLATION INSTRUCTION	ACCESS:       4236  HIT:       2118  MISS:       2118  HIT %:         50  MISS %:         50  MPKI: 0.04236
PSCL5 TRANSLATION FROM L1D PREFETCHER INSTRUCTION	ACCESS:         44  HIT:         22  MISS:         22  HIT %:         50  MISS %:         50  MPKI: 0.00044


PSCL4 TOTAL     ACCESS:       4023  HIT:       2009  MISS:       2014  HIT %:    49.9379  MISS %:    50.0621   MPKI: 0.04028
PSCL4 LOAD TRANSLATION INSTRUCTION	ACCESS:       3688  HIT:       1988  MISS:       1700  HIT %:    53.9046  MISS %:    46.0954  MPKI: 0.034
PSCL4 TRANSLATION FROM L1D PREFETCHER INSTRUCTION	ACCESS:         42  HIT:         21  MISS:         21  HIT %:         50  MISS %:         50  MPKI: 0.00042
PSCL4 LOAD TRANSLATION DATA	ACCESS:        293  HIT:          0  MISS:        293  HIT %:          0  MISS %:        100  MPKI: 0.00586


PSCL3 TOTAL     ACCESS:       4203  HIT:       2099  MISS:       2104  HIT %:    49.9405  MISS %:    50.0595   MPKI: 0.04208
PSCL3 LOAD TRANSLATION INSTRUCTION	ACCESS:       3778  HIT:       2078  MISS:       1700  HIT %:    55.0026  MISS %:    44.9974  MPKI: 0.034
PSCL3 TRANSLATION FROM L1D PREFETCHER INSTRUCTION	ACCESS:         42  HIT:         21  MISS:         21  HIT %:         50  MISS %:         50  MPKI: 0.00042
PSCL3 LOAD TRANSLATION DATA	ACCESS:        383  HIT:          0  MISS:        383  HIT %:          0  MISS %:        100  MPKI: 0.00766


PSCL2 TOTAL     ACCESS:       4195  HIT:       2055  MISS:       2140  HIT %:    48.9869  MISS %:    51.0131   MPKI: 0.0428
PSCL2 LOAD TRANSLATION INSTRUCTION	ACCESS:       2296  HIT:       2033  MISS:        263  HIT %:    88.5453  MISS %:    11.4547  MPKI: 0.00526
PSCL2 TRANSLATION FROM L1D PREFETCHER INSTRUCTION	ACCESS:         22  HIT:         22  MISS:          0  HIT %:        100  MISS %:          0  MPKI: 0
PSCL2 LOAD TRANSLATION DATA	ACCESS:       1855  HIT:          0  MISS:       1855  HIT %:          0  MISS %:        100  MPKI: 0.0371
PSCL2 TRANSLATION FROM L1D PREFETCHER DATA	ACCESS:         22  HIT:          0  MISS:         22  HIT %:          0  MISS %:        100  MPKI: 0.00044


LLC TOTAL     ACCESS:     579158  HIT:     551530  MISS:      27628  HIT %:    95.2296  MISS %:    4.77037   MPKI: 0.55256
LLC LOAD INSTRUCTION	ACCESS:     274792  HIT:     274076  MISS:        716  HIT %:    99.7394  MISS %:   0.260561  MPKI: 0.01432
LLC LOAD TRANSLATION INSTRUCTION	ACCESS:        232  HIT:        205  MISS:         27  HIT %:    88.3621  MISS %:    11.6379  MPKI: 0.00054
LLC LOAD DATA	ACCESS:      81668  HIT:      78191  MISS:       3477  HIT %:    95.7425  MISS %:    4.25748  MPKI: 0.06954
LLC RFO DATA	ACCESS:      58565  HIT:      45615  MISS:      12950  HIT %:    77.8878  MISS %:    22.1122  MPKI: 0.259
LLC PREFETCH DATA	ACCESS:      77281  HIT:      67247  MISS:      10034  HIT %:    87.0162  MISS %:    12.9838  MPKI: 0.20068
LLC WRITEBACK DATA	ACCESS:      85229  HIT:      84873  MISS:        356  HIT %:    99.5823  MISS %:   0.417698  MPKI: 0.00712
LLC LOAD TRANSLATION DATA	ACCESS:       1386  HIT:       1318  MISS:         68  HIT %:    95.0938  MISS %:     4.9062  MPKI: 0.00136
LLC TRANSLATION FROM L1D PREFETCHER DATA	ACCESS:          5  HIT:          5  MISS:          0  HIT %:        100  MISS %:          0  MPKI: 0

LLC AVERAGE MISS LATENCY: 156.529 cycles
LLC RQ	ACCESS:     416657	FORWARD:          0	MERGED:          0	TO_CACHE:     416648
LLC WQ	ACCESS:      85229	FORWARD:          9	MERGED:          0	TO_CACHE:      85229
LLC PQ	ACCESS:      77281	FORWARD:          0	MERGED:          0	TO_CACHE:      77281

LLC Dense regions hint to LLC: 0

RAW hits: 1959480
Loads Generated: 12634096
Loads sent to L1D: 10674616
Stores Generated: 6959486
Stores sent to L1D: 6959500
Major fault: 0 Minor fault: 2564
Allocated PAGES: 2564

stream: 
stream:times selected: 1175307
stream:pref_filled: 120893
stream:pref_useful: 21712
stream:pref_late: 9682
stream:misses: 8492
stream:misses_by_poll: 0

CS: 
CS:times selected: 176011
CS:pref_filled: 52548
CS:pref_useful: 29442
CS:pref_late: 14472
CS:misses: 23421
CS:misses_by_poll: 3

CPLX: 
CPLX:times selected: 998252
CPLX:pref_filled: 18729
CPLX:pref_useful: 3744
CPLX:pref_late: 3786
CPLX:misses: 97726
CPLX:misses_by_poll: 0

NL_L1: 
NL:times selected: 14935
NL:pref_filled: 403
NL:pref_useful: 131
NL:pref_late: 436
NL:misses: 1217
NL:misses_by_poll: 0

total selections: 2364505
total_filled: 94347
total_useful: 33206
total_late: 29676
total_polluted: 3
total_misses_after_warmup: 782113
conflicts: 5529422

test: 116668

DRAM Statistics
 CHANNEL 0
 RQ ROW_BUFFER_HIT:      10024  ROW_BUFFER_MISS:      17239
 DBUS_CONGESTED:         14
 WQ ROW_BUFFER_HIT:       1319  ROW_BUFFER_MISS:      11836  FULL:          0

 AVG_CONGESTED_CYCLE: 4

CPU 0 Branch Prediction Accuracy: 99.8277% MPKI: 0.31548 Average ROB Occupancy at Mispredict: 196.993
Branch types
NOT_BRANCH: 40845842 81.6917%
BRANCH_DIRECT_JUMP: 548052 1.0961%
BRANCH_INDIRECT: 182320 0.36464%
BRANCH_CONDITIONAL: 6179077 12.3582%
BRANCH_DIRECT_CALL: 949924 1.89985%
BRANCH_INDIRECT_CALL: 172450 0.3449%
BRANCH_RETURN: 1122366 2.24473%
BRANCH_OTHER: 0 0%

DRAM PAGES: 1048576
Allocated PAGES: 2564
Average_ROB_Occupancy: 247.477
Average_Decode_Occupancy: 37.3579
Average_FTQ_Occupancy: 14.9596
Indirect max targets: 14 Average targets: 1.14626
Branch_type:  BRANCH_DIRECT_JUMP:  Count Percentage: 2.87862 6.1138 4.14919 9.13356 1.69182 6.28893 0.97641 68.7677 
Branch_type:  BRANCH_INDIRECT:  Count Percentage: 11.756 3.42591 12.1686 7.97752 1.34242 1.20023 1.07996 61.0493 
Branch_type:  BRANCH_CONDITIONAL:  Count Percentage: 21.0876 3.59347 2.33299 5.53788 1.2072 4.57014 0.781624 60.8891 
Branch_type:  BRANCH_DIRECT_CALL:  Count Percentage: 0.256774 1.80254 1.4144 5.09572 2.15277 3.01344 0.77423 85.4901 
Branch_type:  BRANCH_INDIRECT_CALL:  Count Percentage: 9.55828 0.555893 2.99595 4.8374 0 4.01591 0 78.0366 
Branch_type:  BRANCH_RETURN:  Count Percentage: 3.6589 1.31395 2.89175 6.65044 2.86178 5.50666 1.41892 75.6976 
Branch_type:  BRANCH_DIRECT_JUMP:  Total Count: 31510 66923 45418 99978 18519 68840 10688 752746 
Branch_type:  BRANCH_INDIRECT:  Total Count: 42911 12505 44417 29119 4900 4381 3942 222838 
Branch_type:  BRANCH_CONDITIONAL:  Total Count: 2604540 443832 288149 683988 149102 564461 96539 7520461 
Branch_type:  BRANCH_DIRECT_CALL:  Total Count: 4863 34138 26787 96507 40771 57071 14663 1619082 
Branch_type:  BRANCH_INDIRECT_CALL:  Total Count: 32893 1913 10310 16647 0 13820 0 268548 
Branch_type:  BRANCH_RETURN:  Total Count: 81916 29417 64741 148891 64070 123284 31767 1694729 
Number of unique branch instructions: 9821
Upper 32 bits: 
aaaa
ffff
ffff0000
Unique upper 32 bits: 3
Unique upper 36 bits: 3
Unique upper 40 bits: 5
Unique upper 44 bits: 32
Unique upper 48 bits: 154
Variant_0 : 1372 0.334961
Variant_1 : 2643 0.645264
Variant_2 : 0 0
Variant_3 : 0 0
Offset_3 4036
Offset_4 250
Offset_5 451
Offset_6 502
Offset_7 573
Offset_8 505
Offset_9 462
Offset_10 378
Offset_11 305
Offset_12 271
Offset_13 199
Offset_14 227
Offset_15 193
Offset_16 222
Offset_17 142
Offset_18 118
Offset_19 234
Offset_20 136
Offset_21 235
Offset_22 391
Offset_23 243
Offset_24 324
Offset_25 88
Offset_47 80
decode_dispatch_called: 26240393 72.6831
Dispatch_width: 0 14190594 54.0792 39.3064
Dispatch_width: 1 1016632 3.8743 2.81596
Dispatch_width: 2 817199 3.11428 2.26355
Dispatch_width: 3 490887 1.87073 1.3597
Dispatch_width: 4 6180794 23.5545 17.1201
Dispatch_width: 5 112587 0.42906 0.311854
Dispatch_width: 6 3431700 13.0779 9.50544
Empty_decode_cycles: 9862098 27.3169
ROB_full_cycles: 9839484 27.2543
Starvation_cycles_per_kilo_instr: 228.313
Starvation_cycles_per_kilo_instr_3: 165.379
Starvation_cycles_per_kilo_instr_0: 142.132
Branch_type_1  (3,1)  (4,11)  (5,37)  (6,69)  (7,112)  (8,130)  (9,122)  (10,97)  (11,68)  (12,43)  (13,5)  (14,2)  (15,3)  (16,4)  (18,1)  (19,4)  (20,2)  (21,1)  (22,3)  (23,2)  (24,10)  (25,12) 
Branch_type_2  (3,1)  (5,1)  (8,3)  (9,3)  (12,1)  (13,1)  (14,1)  (16,3)  (17,2)  (20,2)  (21,2)  (23,5)  (24,1)  (47,36) 
Branch_type_3  (3,4034)  (4,239)  (5,409)  (6,418)  (7,432)  (8,310)  (9,253)  (10,151)  (11,120)  (12,52)  (13,4) 
Branch_type_4  (6,3)  (7,8)  (8,26)  (9,51)  (10,62)  (11,59)  (12,96)  (13,86)  (14,100)  (15,91)  (16,99)  (17,63)  (18,53)  (19,115)  (20,71)  (21,124)  (22,208)  (23,137)  (24,185)  (25,72) 
Branch_type_5  (8,2)  (9,1)  (10,3)  (11,5)  (12,3)  (13,14)  (14,16)  (15,11)  (16,20)  (17,11)  (18,16)  (19,12)  (20,10)  (21,13)  (22,42)  (23,26)  (24,37) 
Branch_type_6  (5,4)  (6,12)  (7,21)  (8,34)  (9,32)  (10,65)  (11,53)  (12,76)  (13,89)  (14,108)  (15,88)  (16,96)  (17,66)  (18,48)  (19,103)  (20,51)  (21,95)  (22,138)  (23,73)  (24,91)  (25,4)  (47,44) 
Unique trigger count: 
Variant_0_evicts_0 : 0
Variant_0_evicts_1 : 0
Variant_0_evicts_2 : 0
Variant_0_evicts_3 : 0
Variant_1_evicts_0 : 0
Variant_1_evicts_1 : 0
Variant_1_evicts_2 : 0
Variant_1_evicts_3 : 0
Variant_2_evicts_0 : 0
Variant_2_evicts_1 : 0
Variant_2_evicts_2 : 0
Variant_2_evicts_3 : 0
Variant_3_evicts_0 : 0
Variant_3_evicts_1 : 0
Variant_3_evicts_2 : 0
Variant_3_evicts_3 : 0
BTB PER SET UNIQUE ADDR: 8 9 7 7 10 9 9 11 7 10 9 14 7 10 10 7 8 9 7 14 9 12 10 13 8 14 9 9 8 11 11 13 12 7 8 10 9 9 12 6 8 9 12 12 7 8 6 8 9 11 11 9 10 11 9 7 10 7 8 15 8 14 11 11 11 10 9 7 15 11 10 9 8 8 9 8 6 8 9 13 7 11 7 13 10 10 10 10 5 17 7 7 10 9 8 11 7 11 10 11 14 14 10 8 8 12 6 10 7 8 8 15 7 7 8 7 9 9 9 11 14 6 7 8 10 12 6 12 13 9 8 13 8 10 10 10 8 12 13 19 9 11 9 9 9 13 13 10 8 9 10 10 6 11 6 14 14 15 10 13 8 8 15 8 10 12 7 7 9 9 10 13 7 15 12 10 12 10 11 10 10 9 11 12 13 16 5 10 8 7 4 13 6 11 15 7 11 11 8 12 10 12 8 8 8 10 11 8 13 7 11 12 7 11 10 9 9 10 10 13 9 15 6 10 10 12 12 10 6 12 10 5 12 11 9 10 12 9 9 6 12 11 14 10 10 9 11 6 11 8 14 12 11 8 8 10 10 8 8 3 10 8 7 9 7 7 8 7 6 7 9 12 8 4 7 11 10 12 8 9 9 6 13 8 11 8 9 10 7 12 12 13 11 7 7 14 11 9 10 7 10 9 7 12 11 13 11 5 13 7 10 15 10 19 10 8 8 12 9 14 10 10 7 10 10 16 8 8 8 11 6 9 7 10 9 11 8 10 4 15 9 12 7 9 12 9 9 6 7 8 13 8 8 11 6 8 8 11 7 10 6 17 7 11 8 14 6 14 13 10 8 6 11 7 12 12 8 14 10 10 8 7 7 9 6 12 11 10 9 10 8 8 9 14 6 11 8 9 11 11 9 10 9 9 12 12 12 14 11 9 12 9 7 15 9 7 8 13 9 11 8 13 8 13 13 10 8 10 9 9 13 10 12 12 9 13 16 8 7 11 9 8 10 15 13 6 9 13 9 11 10 13 14 12 11 11 14 11 7 12 8 8 10 11 11 7 9 6 7 12 11 9 12 8 9 11 8 16 8 9 11 13 11 14 9 15 13 14 8 13 9 11 9 9 11 8 12 11 9 11 11 12 9 12 9 10 5 11 10 12 9 14 10 7 9 11 11 10 7 7 6 6 8 6 12 10 15 7 6 16 13 9 12 9 14 17 8 12 11 13 11 7 11 8 14 11 8 14 13 9 7 13 12 12 11 10 10 11 9 10 12 12 6 12 7 14 10 12 13 9 11 12 11 10 9 12 12 12 10 9 8 10 7 12 11 7 9 11 13 11 8 12 10 10 9 7 8 14 10 10 12 7 7 6 14 15 11 6 11 10 10 12 7 9 6 11 10 9 13 12 11 7 9 8 11 14 10 13 6 11 7 10 12 12 10 10 8 12 7 11 9 11 13 11 6 14 9 8 12 6 10 11 9 7 12 10 11 15 10 9 12 7 11 12 6 13 10 13 11 12 13 10 12 10 13 10 13 12 13 14 7 15 11 13 10 7 9 10 12 10 10 15 11 5 13 8 8 12 7 11 6 10 11 7 6 16 10 6 9 7 13 13 7 9 8 11 15 10 9 8 11 10 9 10 8 6 9 10 7 9 15 9 8 10 9 10 11 10 13 10 9 5 10 10 14 13 8 9 12 7 10 11 10 10 7 10 14 8 9 7 9 8 8 12 13 10 7 10 9 10 6 11 11 7 12 9 7 8 11 14 8 11 8 9 9 9 11 10 9 3 9 7 14 13 10 13 8 12 16 10 10 10 9 11 16 11 13 9 10 11 9 10 11 15 10 15 12 12 8 12 10 10 8 9 9 11 7 9 10 12 16 12 9 11 9 12 12 7 10 8 7 12 9 9 13 9 10 14 8 7 12 7 8 10 12 11 15 12 13 10 11 9 7 8 11 6 10 7 13 12 8 16 12 11 12 6 11 12 10 7 13 7 12 8 9 12 11 11 10 7 12 7 12 10 9 11 14 10 5 7 15 10 13 8 6 9 7 13 12 14 10 10 11 7 11 9 13 9 9 13 11 9 6 10 8 11 9 11 9 8 8 12 10 9 9 11 6 7 12 12 7 13 12 9 5 10 11 11 11 8 11 9 11 10 6 10 10 9 7 8 8 8 9 13 9 10 8 8 9 10 14 14 9 11 12 10 15 11 12 16 5 13 6 10 8 15 13 13 12 7 11 10 8 11 11 7 8 4 14 11 12 17 6 8 14 12 7 10 8 13 9 11 8 9 8 7 6 10 6 9 10 9 10 9 
BTB PER SET COUNT: 8 9 1921 9 12 10 1481 11 1480 10 10 823 14629 1483 10 7 1037 10 326 19 11 493 839 13 15 15 16 9 150 531 16 14 12 7 9 1058 11 9 16 7 8 10 19 973 1480 11 6 8 489 14 14 244 12 13 10 308 12 7 527 22 9 14 13 12 16 11 11 1275 16 12 14 965 8 9 12 11 7 9 11 14 964 18 992 18 11 14 11 15 5 22 10 881 491 419 9 13 7 1007 10 13 20 24 10 10 3469 15 11 15 1919 14 8 35 74 9 10 8 11 9 9 1046 393 6 8 13 10 86 6 16 16 965 8 2960 10 12 10 12 12 27 20 27 9 13 10 11 9 15 236 10 12 14 17 291 888 17 6 21 1500 25 12 24 8 227 76 8 11 1358 7 7 11 10 11 18 7 20 14 16 22 11 14 904 12 272 13 15 17 51 5 14 9 7 4 18 6 12 20 105 12 1354 16 16 15 16 12 8 8 10 11 486 19 7 22 70 8 14742 15 22 13 11 482 18 12 22 9 10 11 15 12 10 7 16 16 5 12 12 11 12 34 9 9 9 14 16 23 10 15 855 1081 6 12 10 19 17 11 9 8 13 103 8 8 3 1006 10 7 13 7 8 8 7 6 8 11 77 9 4 9 12 11 17 8 907 10 9 867 8 14 9 9 11 8 15 13 14 12 8 8 17 12 9 12 7 10 9 7 19 12 131 11 5 15 11 407 19 15 28 1960 966 11 20 10 17 16 183 7 12 87 1562 10 14 8 16 6 19 42 14 10 13 11 267 4 28 10 57 7 483 12 10 10 8 9 114 2071 8 9 15 8 9 8 14 8 20 6 22 9 12 9 138 6 17 13 15 15 359 17 9 14 15 8 17 14 11 967 11 8 13 8 14 517 13 9 12 12 8 11 379 6 13 8 14 1153 14 10 12 10 10 16 18 19 15 15 20 14 9 7 15 14 7 8 6025 12 11 13 18 11 16 18 15 1278 10 10 1473 21 10 14 16 9 16 279 9 7 15 10 10 64 22 18 6 1006 17 10 13 14 442 17 15 12 2959 21 15 7 18 32 8 14 11 14 10 9 6 14 16 18 9 16 12 9 15 8 26 13 9 12 15 18 19 9 20 505 18 9 21 13 13 625 395 20 15 503 1006 14 16 13 16 10 15 10 14 5 11 11 17 9 18 16 7 12 14 33 14 10 7 6 6 9 6 15 11 20 9 6 2956 20 12 14 10 17 28 127 1009 13 19 13 7 13 14 22 48 8 22 19 9 8 23 672 125 19 10 12 11 9 13 12 14 6 12 70 21 19 17 18 1406 13 15 13 13 1487 14 15 15 14 12 10 19 8 1327 20 8 9 15 14 11 9 14 13 13 10 9 2947 1023 10 10 14 8 8 10 21 19 15 2436 12 14 11 18 11 9 6 12 12 11 519 23 11 8 10 13 11 23 10 16 6 12 8 13 13 16 14 13 11 13 7 17 16 11 19 16 6 16 13 9 31 6 10 19 10 8 1764 10 15 297 11 13 13 7 15 13 6 16 13 997 576 18 14 10 74 14 140 498 22 18 25 24 7 16 14 208 171 7 13 12 19 13 12 20 15 8 2486 9 8 3970 7 18 6 16 1044 7 7 154 13 7 11 9 225 763 1215 14 14 11 413 12 14 9 303 55 14 99 9 6 9 11 7 17 19 10 165 12 12 1967 17 15 17 11 107 5 99 12 349 14 967 9 18 10 22 16 551 1486 10 12 17 8 10 7 9 8 10 12 18 12 9 10 11 112 7 109 15 7 14 10 11 876 11 19 1414 12 965 11 10 12 12 14 10 3 10 8 14 14 1229 14 186 21 26 1609 14 13 12 15 46 14 16 12 10 13 11 7782 13 43 480 19 13 2590 10 15 12 1146 10 10 21 16 8 9 14 154 21 23 10 12 32 88 15 12 969 9 11 28 10 14 92 9 14 17 9 8 344 807 23 14 14 14 269 13 24 13 13 11 7 10 11 6 10 7 13 15 8 22 15 16 12 6 12 14 2454 7 18 10 20 172 9 1685 11 14 11 60 14 7 1667 12 11 13 21 16 5 7 26 13 15 267 7 12 7 18 125 61 10 760 12 7 17 11 970 1328 12 15 16 970 6 13 9 165 10 13 11 8 9 17 1265 11 67 13 6 7 16 13 10 2324 18 9 5 11 106 13 19 12 251 15 749 482 10 11 197 11 154 8 60 9 929 15 9 10 9 13 9 10 46 880 12 12 12 13 1091 14 30 121 5 1261 7 756 8 19 15 566 14 8 17 11 14 1221 12 10 10 1480 35 13 14 34 6 10 16 28 7 14 8 15 519 11 10 13 8 8 7 11 11 9 13 541 13 16 
To predecode: 0
Predecoding something: 0
Predecode request dropped: 0
sizeofblock_0 0
sizeofblock_1 49213
sizeofblock_2 91117
sizeofblock_3 0
sizeofblock_4 0
sizeofblock_5 0
sizeofblock_6 0
sizeofblock_7 0
sizeofblock_8 0
Variant_0 Correct: 1617212 Incorrect: 0 Accuracy: 1
Variant_1 Correct: 5748341 Incorrect: 0 Accuracy: 1
Variant_2 Correct: 0 Incorrect: 0 Accuracy: -nan
Variant_3 Correct: 0 Incorrect: 0 Accuracy: -nan
