
*** ChampSim Multicore Out-of-Order Simulator ***

Warmup Instructions: 50000000
Simulation Instructions: 50000000
Number of CPUs: 1
LLC sets: 2048
LLC ways: 16
Off-chip DRAM Size: 4096 MB Channels: 1 Width: 64-bit Data Rate: 6400 MT/s
CPU 0 runs ./micro_traces/srv737.trace.gz
.gz
ITLB has LRU replacement policy
DTLB has LRU replacement policy
STLB has LRU replacement policy
CPU 0 L1I next line prefetcher
L1I has LRU replacement policy
L1D has LRU replacement policy
Initialize SRRIP state for L2C
Initialize DRRIP state for LLC
Heartbeat CPU 0 instructions: 10000002 cycles: 2794074 heartbeat IPC: 3.579 cumulative IPC: 3.579 (Simulation time: 0 hr 1 min 42 sec) 
Heartbeat CPU 0 instructions: 20000000 cycles: 5588111 heartbeat IPC: 3.57905 cumulative IPC: 3.57903 (Simulation time: 0 hr 3 min 23 sec) 
Heartbeat CPU 0 instructions: 30000000 cycles: 8382713 heartbeat IPC: 3.57833 cumulative IPC: 3.57879 (Simulation time: 0 hr 5 min 2 sec) 
Heartbeat CPU 0 instructions: 40000002 cycles: 11177594 heartbeat IPC: 3.57797 cumulative IPC: 3.57859 (Simulation time: 0 hr 6 min 46 sec) 
Heartbeat CPU 0 instructions: 50000000 cycles: 13970605 heartbeat IPC: 3.58036 cumulative IPC: 3.57894 (Simulation time: 0 hr 8 min 25 sec) 

Warmup complete CPU 0 instructions: 50000004 cycles: 13970606 (Simulation time: 0 hr 8 min 25 sec) 

*** Reached end of trace for Core: 0 Repeating trace: ./micro_traces/srv737.trace.gz
Cycle: 20000000 FTQ IN: 56622486 FTQ occupancy: 17.2261 DECODE IN: 56622486 DECODE occupancy: 45.0262 ROB IN: 56622486 ROB occupancy: 280.904 ROB OUT: 56622456
Heartbeat CPU 0 instructions: 60000000 cycles: 23052494 heartbeat IPC: 1.10109 cumulative IPC: 1.10109 (Simulation time: 0 hr 9 min 45 sec) 
Cycle: 30000000 FTQ IN: 11075195 FTQ occupancy: 3.8456 DECODE IN: 11075195 DECODE occupancy: 10.4457 ROB IN: 11075195 ROB occupancy: 126.929 ROB OUT: 11075075
Heartbeat CPU 0 instructions: 70000001 cycles: 32216229 heartbeat IPC: 1.09126 cumulative IPC: 1.09615 (Simulation time: 0 hr 11 min 6 sec) 
Cycle: 40000000 FTQ IN: 10860884 FTQ occupancy: 3.95184 DECODE IN: 10860843 DECODE occupancy: 10.4945 ROB IN: 10860843 ROB occupancy: 123.986 ROB OUT: 10860878
Heartbeat CPU 0 instructions: 80000002 cycles: 41299413 heartbeat IPC: 1.10094 cumulative IPC: 1.09774 (Simulation time: 0 hr 12 min 24 sec) 
Cycle: 50000000 FTQ IN: 10977410 FTQ occupancy: 3.85722 DECODE IN: 10977359 DECODE occupancy: 10.208 ROB IN: 10977359 ROB occupancy: 121.761 ROB OUT: 10977474
Heartbeat CPU 0 instructions: 90000001 cycles: 50495937 heartbeat IPC: 1.08737 cumulative IPC: 1.09513 (Simulation time: 0 hr 13 min 43 sec) 
Heartbeat CPU 0 instructions: 100000000 cycles: 59439107 heartbeat IPC: 1.11817 cumulative IPC: 1.09966 (Simulation time: 0 hr 15 min 7 sec) 
Finished CPU 0 instructions: 50000000 cycles: 45468511 cumulative IPC: 1.09966 (Simulation time: 0 hr 15 min 7 sec) 

ChampSim completed all CPUs

Region of Interest Statistics

CPU 0 cumulative IPC: 1.09966 instructions: 50000000 cycles: 45468511
 Fetch stage stalled: 73.0823  Sim cycles: 45468511 fetch stall cycle: 33229430
 Empty decode stage: 57.5641  Sim cycles: 45468511 fetch stall cycle: 26173525
ITLB TOTAL     ACCESS:    7584473  HIT:    6990847  MISS:     593626  HIT %:    92.1731  MISS %:    7.82686   MPKI: 11.8725
ITLB LOAD TRANSLATION INSTRUCTION	ACCESS:    5840246  HIT:    5716021  MISS:     124225  HIT %:    97.8729  MISS %:    2.12705  MPKI: 2.4845
ITLB TRANSLATION FROM L1D PREFETCHER INSTRUCTION	ACCESS:    1744227  HIT:    1274826  MISS:     469401  HIT %:    73.0883  MISS %:    26.9117  MPKI: 9.38802

ITLB AVERAGE MISS LATENCY: 123359 cycles
ITLB RQ	ACCESS:   11450775	FORWARD:          0	MERGED:    3728966	TO_CACHE:    7721809

DTLB TOTAL     ACCESS:    9297389  HIT:    8822273  MISS:     475116  HIT %:    94.8898  MISS %:    5.11021   MPKI: 9.50232
DTLB LOAD TRANSLATION DATA	ACCESS:    9297389  HIT:    8822273  MISS:     475116  HIT %:    94.8898  MISS %:    5.11021  MPKI: 9.50232

DTLB AVERAGE MISS LATENCY: 9.29603 cycles
DTLB RQ	ACCESS:   13556072	FORWARD:          0	MERGED:    4224055	TO_CACHE:    9332017

STLB TOTAL     ACCESS:    1333780  HIT:    1331283  MISS:       2497  HIT %:    99.8128  MISS %:   0.187212   MPKI: 0.04994
STLB LOAD TRANSLATION INSTRUCTION	ACCESS:     122310  HIT:     122070  MISS:        240  HIT %:    99.8038  MISS %:   0.196223  MPKI: 0.0048
STLB TRANSLATION FROM L1D PREFETCHER INSTRUCTION	ACCESS:     471316  HIT:     471164  MISS:        152  HIT %:    99.9677  MISS %:  0.0322501  MPKI: 0.00304
STLB LOAD TRANSLATION DATA	ACCESS:     475116  HIT:     473048  MISS:       2068  HIT %:    99.5647  MISS %:   0.435262  MPKI: 0.04136
STLB TRANSLATION FROM L1D PREFETCHER DATA	ACCESS:     265038  HIT:     265001  MISS:         37  HIT %:     99.986  MISS %:  0.0139603  MPKI: 0.00074

STLB AVERAGE MISS LATENCY: 58.4557 cycles
STLB RQ	ACCESS:    1518471	FORWARD:          0	MERGED:     180645	TO_CACHE:    1337826

STLB Hit, L1D data hit: 0
STLB Hit, L2C data hit: 0
STLB Hit, LLC data hit: 0
STLB Hit, LLC data miss: 0
STLB STLB hints to L2: 0
L1D TOTAL     ACCESS:   13312088  HIT:   12087161  MISS:    1224927  HIT %:    90.7984  MISS %:    9.20161   MPKI: 24.4985
L1D LOAD DATA	ACCESS:    6827569  HIT:    6015313  MISS:     812256  HIT %:    88.1033  MISS %:    11.8967  MPKI: 16.2451
L1D RFO DATA	ACCESS:    6139076  HIT:    5843306  MISS:     295770  HIT %:    95.1822  MISS %:    4.81783  MPKI: 5.9154
L1D PREFETCH DATA	ACCESS:     345443  HIT:     228542  MISS:     116901  HIT %:    66.1591  MISS %:    33.8409  MPKI: 2.33802

L1D PREFETCH  REQUESTED:     891717  ISSUED:     891717  USEFUL:      68254  USELESS:      72289
L1D USEFUL LOAD PREFETCHES:      68254 PREFETCH ISSUED TO LOWER LEVEL:     140581  ACCURACY: 48.5514
 TIMELY PREFETCHES:      68254 LATE PREFETCHES: 23639 DROPPED PREFETCHES: 2
L1D AVERAGE MISS LATENCY: 713009 cycles
L1D RQ	ACCESS:   10864830	FORWARD:          0	MERGED:    3833713	TO_CACHE:    6867694
L1D WQ	ACCESS:    6858817	FORWARD:     163710	MERGED:     170439	TO_CACHE:    6688378
L1D PQ	ACCESS:     446002	FORWARD:          0	MERGED:          0	TO_CACHE:     445715

L1D UNIQUE REGIONS ACCESSED: 0
L1D REGIONS CONFLICTS: 0
L1D Cross Page Prefetch Requests: 8844
L1D Same Page Prefetch Requests: 895250
L1D ROI Sum of L1D PQ occupancy: 5670033
L1D PREFETCHES PUSHED FROM L2C: 0
L1I TOTAL     ACCESS:   11160723  HIT:    7593109  MISS:    3567614  HIT %:    68.0342  MISS %:    31.9658   MPKI: 71.3523
L1I LOAD INSTRUCTION	ACCESS:    6642016  HIT:    6143826  MISS:     498190  HIT %:    92.4994  MISS %:    7.50058  MPKI: 9.9638
L1I PREFETCH INSTRUCTION	ACCESS:    4518707  HIT:    1449283  MISS:    3069424  HIT %:     32.073  MISS %:     67.927  MPKI: 61.3885

L1I PREFETCH  REQUESTED:    5077552  ISSUED:    5077487  USEFUL:    2369752  USELESS:     746412
L1I USEFUL LOAD PREFETCHES:    2369752 PREFETCH ISSUED TO LOWER LEVEL:    3116099  ACCURACY: 76.0487
 TIMELY PREFETCHES:    2369752 LATE PREFETCHES: 46673 DROPPED PREFETCHES: 10816
L1I AVERAGE MISS LATENCY: 475698 cycles
L1I RQ	ACCESS:    9451563	FORWARD:          0	MERGED:    2787853	TO_CACHE:    6663710
L1I PQ	ACCESS:    5077487	FORWARD:          0	MERGED:     290422	TO_CACHE:    4787065

L1BTB TOTAL     ACCESS:    5698647  HIT:    2111641  MISS:    3587006  HIT %:    37.0551  MISS %:    62.9449   MPKI: 71.7401
L1BTB BRANCH_DIRECT_JUMP	ACCESS:     540740  HIT:     142392  MISS:     398348	AVERAGE STALL: 19.7138
L1BTB BRANCH_INDIRECT	ACCESS:     180201  HIT:      64939  MISS:     115262	AVERAGE STALL: 80.3191
L1BTB BRANCH_CONDITIONAL	ACCESS:    2772241  HIT:    1494838  MISS:    1277403	AVERAGE STALL: 19.66
L1BTB BRANCH_DIRECT_CALL	ACCESS:     933617  HIT:     102650  MISS:     830967	AVERAGE STALL: 20.6325
L1BTB BRANCH_INDIRECT_CALL	ACCESS:     169133  HIT:      20664  MISS:     148469	AVERAGE STALL: 103.41
L1BTB BRANCH_RETURN	ACCESS:    1102715  HIT:     286158  MISS:     816557	AVERAGE STALL: 21.6877
L1BTB BRANCH_OTHER ACCESS:          0  HIT:          0  MISS:          0	AVERAGE STALL: -nan
L1BTB TOTAL ROB OCCUPANCY AT BTB MISS: 29.6398

L2BTB TOTAL     ACCESS:    3562196  HIT:    2548105  MISS:    1014091  HIT %:    71.5319  MISS %:    28.4681   MPKI: 20.2818
L2BTB BRANCH_DIRECT_JUMP	ACCESS:     394284  HIT:     280262  MISS:     114022	AVERAGE STALL: 19.7138
L2BTB BRANCH_INDIRECT	ACCESS:     105118  HIT:      92306  MISS:      12812	AVERAGE STALL: 80.3191
L2BTB BRANCH_CONDITIONAL	ACCESS:    1277403  HIT:     911516  MISS:     365887	AVERAGE STALL: 19.66
L2BTB BRANCH_DIRECT_CALL	ACCESS:     830967  HIT:     568569  MISS:     262398	AVERAGE STALL: 20.6325
L2BTB BRANCH_INDIRECT_CALL	ACCESS:     139099  HIT:      91398  MISS:      47701	AVERAGE STALL: 103.41
L2BTB BRANCH_RETURN	ACCESS:     815325  HIT:     604054  MISS:     211271	AVERAGE STALL: 21.6877
L2BTB BRANCH_OTHER ACCESS:          0  HIT:          0  MISS:          0	AVERAGE STALL: -nan
L2BTB TOTAL ROB OCCUPANCY AT BTB MISS: 104.841

L2C TOTAL     ACCESS:    6665973  HIT:    5530137  MISS:    1135836  HIT %:    82.9607  MISS %:    17.0393   MPKI: 22.7167
L2C LOAD INSTRUCTION	ACCESS:     451517  HIT:     360664  MISS:      90853  HIT %:    79.8783  MISS %:    20.1217  MPKI: 1.81706
L2C PREFETCH INSTRUCTION	ACCESS:    3116097  HIT:    2698775  MISS:     417322  HIT %:    86.6075  MISS %:    13.3925  MPKI: 8.34644
L2C LOAD TRANSLATION INSTRUCTION	ACCESS:        266  HIT:         70  MISS:        196  HIT %:    26.3158  MISS %:    73.6842  MPKI: 0.00392
L2C TRANSLATION FROM L1D PREFETCHER INSTRUCTION	ACCESS:       5303  HIT:       5102  MISS:        201  HIT %:    96.2097  MISS %:    3.79031  MPKI: 0.00402
L2C LOAD DATA	ACCESS:     788591  HIT:     603832  MISS:     184759  HIT %:     76.571  MISS %:     23.429  MPKI: 3.69518
L2C RFO DATA	ACCESS:     295706  HIT:     203240  MISS:      92466  HIT %:    68.7304  MISS %:    31.2696  MPKI: 1.84932
L2C PREFETCH DATA	ACCESS:    1466837  HIT:    1159886  MISS:     306951  HIT %:     79.074  MISS %:     20.926  MPKI: 6.13902
L2C WRITEBACK DATA	ACCESS:     539414  HIT:     498024  MISS:      41390  HIT %:    92.3269  MISS %:    7.67314  MPKI: 0.8278
L2C LOAD TRANSLATION DATA	ACCESS:       2186  HIT:        503  MISS:       1683  HIT %:    23.0101  MISS %:    76.9899  MPKI: 0.03366
L2C TRANSLATION FROM L1D PREFETCHER DATA	ACCESS:         56  HIT:         41  MISS:         15  HIT %:    73.2143  MISS %:    26.7857  MPKI: 0.0003

L2C PREFETCH  REQUESTED:    3246976  ISSUED:    3246976  USEFUL:      36211  USELESS:     690462
L2C USEFUL LOAD PREFETCHES:      36211 PREFETCH ISSUED TO LOWER LEVEL:     725783  ACCURACY: 4.98923
 TIMELY PREFETCHES:      36211 LATE PREFETCHES: 1510 DROPPED PREFETCHES: 0
L2C AVERAGE MISS LATENCY: 33.8774 cycles
L2C RQ	ACCESS:    1543675	FORWARD:          0	MERGED:          0	TO_CACHE:    1543626
L2C WQ	ACCESS:     539414	FORWARD:         49	MERGED:          0	TO_CACHE:     539414
L2C PQ	ACCESS:    6503656	FORWARD:          0	MERGED:    1901113	TO_CACHE:    4602543

L2C Dense regions hint from L2: 0
PSCL5 TOTAL     ACCESS:      13028  HIT:       6514  MISS:       6514  HIT %:         50  MISS %:         50   MPKI: 0.13028
PSCL5 LOAD TRANSLATION INSTRUCTION	ACCESS:       4586  HIT:       2293  MISS:       2293  HIT %:         50  MISS %:         50  MPKI: 0.04586
PSCL5 TRANSLATION FROM L1D PREFETCHER INSTRUCTION	ACCESS:       8442  HIT:       4221  MISS:       4221  HIT %:         50  MISS %:         50  MPKI: 0.08442


PSCL4 TOTAL     ACCESS:       8644  HIT:       4317  MISS:       4327  HIT %:    49.9422  MISS %:    50.0578   MPKI: 0.08654
PSCL4 LOAD TRANSLATION INSTRUCTION	ACCESS:       1855  HIT:       1632  MISS:        223  HIT %:    87.9784  MISS %:    12.0216  MPKI: 0.00446
PSCL4 TRANSLATION FROM L1D PREFETCHER INSTRUCTION	ACCESS:       2768  HIT:       2685  MISS:         83  HIT %:    97.0014  MISS %:    2.99855  MPKI: 0.00166
PSCL4 LOAD TRANSLATION DATA	ACCESS:       1419  HIT:          0  MISS:       1419  HIT %:          0  MISS %:        100  MPKI: 0.02838
PSCL4 TRANSLATION FROM L1D PREFETCHER DATA	ACCESS:       2602  HIT:          0  MISS:       2602  HIT %:          0  MISS %:        100  MPKI: 0.05204


PSCL3 TOTAL     ACCESS:      12798  HIT:       6389  MISS:       6409  HIT %:    49.9219  MISS %:    50.0781   MPKI: 0.12818
PSCL3 LOAD TRANSLATION INSTRUCTION	ACCESS:       2475  HIT:       2250  MISS:        225  HIT %:    90.9091  MISS %:    9.09091  MPKI: 0.0045
PSCL3 TRANSLATION FROM L1D PREFETCHER INSTRUCTION	ACCESS:       4218  HIT:       4139  MISS:         79  HIT %:    98.1271  MISS %:    1.87293  MPKI: 0.00158
PSCL3 LOAD TRANSLATION DATA	ACCESS:       2045  HIT:          0  MISS:       2045  HIT %:          0  MISS %:        100  MPKI: 0.0409
PSCL3 TRANSLATION FROM L1D PREFETCHER DATA	ACCESS:       4060  HIT:          0  MISS:       4060  HIT %:          0  MISS %:        100  MPKI: 0.0812


PSCL2 TOTAL     ACCESS:      10670  HIT:       5258  MISS:       5412  HIT %:    49.2784  MISS %:    50.7216   MPKI: 0.10824
PSCL2 LOAD TRANSLATION INSTRUCTION	ACCESS:       2414  HIT:       2158  MISS:        256  HIT %:    89.3952  MISS %:    10.6048  MPKI: 0.00512
PSCL2 TRANSLATION FROM L1D PREFETCHER INSTRUCTION	ACCESS:       6146  HIT:       3100  MISS:       3046  HIT %:    50.4393  MISS %:    49.5607  MPKI: 0.06092
PSCL2 LOAD TRANSLATION DATA	ACCESS:       2056  HIT:          0  MISS:       2056  HIT %:          0  MISS %:        100  MPKI: 0.04112
PSCL2 TRANSLATION FROM L1D PREFETCHER DATA	ACCESS:         54  HIT:          0  MISS:         54  HIT %:          0  MISS %:        100  MPKI: 0.00108


LLC TOTAL     ACCESS:    1239675  HIT:    1211653  MISS:      28022  HIT %:    97.7396  MISS %:    2.26043   MPKI: 0.56044
LLC LOAD INSTRUCTION	ACCESS:      90453  HIT:      90089  MISS:        364  HIT %:    99.5976  MISS %:   0.402419  MPKI: 0.00728
LLC PREFETCH INSTRUCTION	ACCESS:     415454  HIT:     414879  MISS:        575  HIT %:    99.8616  MISS %:   0.138403  MPKI: 0.0115
LLC LOAD TRANSLATION INSTRUCTION	ACCESS:        196  HIT:        169  MISS:         27  HIT %:    86.2245  MISS %:    13.7755  MPKI: 0.00054
LLC TRANSLATION FROM L1D PREFETCHER INSTRUCTION	ACCESS:        201  HIT:        187  MISS:         14  HIT %:    93.0348  MISS %:    6.96517  MPKI: 0.00028
LLC LOAD DATA	ACCESS:     183790  HIT:     180606  MISS:       3184  HIT %:    98.2676  MISS %:    1.73241  MPKI: 0.06368
LLC RFO DATA	ACCESS:      92303  HIT:      78186  MISS:      14117  HIT %:    84.7058  MISS %:    15.2942  MPKI: 0.28234
LLC PREFETCH DATA	ACCESS:     310329  HIT:     300839  MISS:       9490  HIT %:     96.942  MISS %:    3.05804  MPKI: 0.1898
LLC WRITEBACK DATA	ACCESS:     145251  HIT:     145082  MISS:        169  HIT %:    99.8836  MISS %:    0.11635  MPKI: 0.00338
LLC LOAD TRANSLATION DATA	ACCESS:       1683  HIT:       1601  MISS:         82  HIT %:    95.1277  MISS %:    4.87225  MPKI: 0.00164
LLC TRANSLATION FROM L1D PREFETCHER DATA	ACCESS:         15  HIT:         15  MISS:          0  HIT %:        100  MISS %:          0  MPKI: 0

LLC AVERAGE MISS LATENCY: 201.861 cycles
LLC RQ	ACCESS:     368663	FORWARD:          0	MERGED:          0	TO_CACHE:     368641
LLC WQ	ACCESS:     145251	FORWARD:         22	MERGED:          0	TO_CACHE:     145251
LLC PQ	ACCESS:     725783	FORWARD:          0	MERGED:          0	TO_CACHE:     725783

LLC Dense regions hint to LLC: 0

RAW hits: 1699890
Loads Generated: 12564720
Loads sent to L1D: 10864830
Stores Generated: 6858814
Stores sent to L1D: 6858817
Major fault: 0 Minor fault: 2281
Allocated PAGES: 2281
I-Shadow cache 408 bytes
Touched + WorthPF tables 12288 bytes 
MMA filter 174 bytes 
FNL filter 272 bytes 
TOTAL PREFETCHER STORAGE SIZE: 31318 bytes
CPU 0 L1I next line prefetcher final stats

stream: 
stream:times selected: 1323574
stream:pref_filled: 128879
stream:pref_useful: 32500
stream:pref_late: 14177
stream:misses: 12825
stream:misses_by_poll: 0

CS: 
CS:times selected: 215020
CS:pref_filled: 84975
CS:pref_useful: 60678
CS:pref_late: 20681
CS:misses: 41127
CS:misses_by_poll: 5

CPLX: 
CPLX:times selected: 1107118
CPLX:pref_filled: 32625
CPLX:pref_useful: 11371
CPLX:pref_late: 7439
CPLX:misses: 180389
CPLX:misses_by_poll: 1

NL_L1: 
NL:times selected: 22969
NL:pref_filled: 1050
NL:pref_useful: 627
NL:pref_late: 1233
NL:misses: 4202
NL:misses_by_poll: 0

total selections: 2668681
total_filled: 116901
total_useful: 68254
total_late: 46807
total_polluted: 6
total_misses_after_warmup: 852386
conflicts: 5593952

test: 123533

DRAM Statistics
 CHANNEL 0
 RQ ROW_BUFFER_HIT:       9701  ROW_BUFFER_MISS:      18142
 DBUS_CONGESTED:         10
 WQ ROW_BUFFER_HIT:       2099  ROW_BUFFER_MISS:      13523  FULL:          0

 AVG_CONGESTED_CYCLE: 3

CPU 0 Branch Prediction Accuracy: 99.8259% MPKI: 0.31964 Average ROB Occupancy at Mispredict: 145.864
Branch types
NOT_BRANCH: 40817306 81.6346%
BRANCH_DIRECT_JUMP: 540740 1.08148%
BRANCH_INDIRECT: 180201 0.360402%
BRANCH_CONDITIONAL: 6255838 12.5117%
BRANCH_DIRECT_CALL: 933617 1.86723%
BRANCH_INDIRECT_CALL: 169133 0.338266%
BRANCH_RETURN: 1102715 2.20543%
BRANCH_OTHER: 0 0%

DRAM PAGES: 1048576
Allocated PAGES: 2281
Average_ROB_Occupancy: 126.615
Average_Decode_Occupancy: 10.5333
Average_FTQ_Occupancy: 3.92703
Indirect max targets: 14 Average targets: 1.14815
Branch_type:  BRANCH_DIRECT_JUMP:  Count Percentage: 3.29371 6.75783 3.58891 7.63381 2.2268 6.33155 1.29995 68.8674 
Branch_type:  BRANCH_INDIRECT:  Count Percentage: 6.11084 3.45569 8.14159 9.70078 3.33946 2.80577 3.07622 63.3696 
Branch_type:  BRANCH_CONDITIONAL:  Count Percentage: 27.0545 3.41412 0.878307 3.8448 1.78046 4.00603 1.08744 57.9343 
Branch_type:  BRANCH_DIRECT_CALL:  Count Percentage: 0.394682 1.26401 0.41651 3.31712 2.13994 2.83915 1.00942 88.6192 
Branch_type:  BRANCH_INDIRECT_CALL:  Count Percentage: 9.56744 0 3.00951 0 0 2.34688 3.28207 81.7941 
Branch_type:  BRANCH_RETURN:  Count Percentage: 7.8894 1.34967 1.21722 3.66529 3.91883 4.73586 1.38557 75.8382 
Branch_type:  BRANCH_DIRECT_JUMP:  Total Count: 35604 73050 38795 82519 24071 68442 14052 744435 
Branch_type:  BRANCH_INDIRECT:  Total Count: 22030 12458 29351 34972 12039 10115 11090 228452 
Branch_type:  BRANCH_CONDITIONAL:  Total Count: 3383407 426966 109840 480826 222662 500989 135994 7245188 
Branch_type:  BRANCH_DIRECT_CALL:  Total Count: 7359 23568 7766 61849 39900 52937 18821 1652339 
Branch_type:  BRANCH_INDIRECT_CALL:  Total Count: 32328 0 10169 0 0 7930 11090 276379 
Branch_type:  BRANCH_RETURN:  Total Count: 173820 29736 26818 80754 86340 104341 30527 1670873 
Number of unique branch instructions: 10324
Upper 32 bits: 
aaaa
ffff
ffff0000
Unique upper 32 bits: 3
Unique upper 36 bits: 3
Unique upper 40 bits: 5
Unique upper 44 bits: 32
Unique upper 48 bits: 157
Offset_3 4251
Offset_4 257
Offset_5 470
Offset_6 532
Offset_7 611
Offset_8 527
Offset_9 508
Offset_10 409
Offset_11 338
Offset_12 278
Offset_13 213
Offset_14 229
Offset_15 201
Offset_16 235
Offset_17 158
Offset_18 135
Offset_19 251
Offset_20 147
Offset_21 245
Offset_22 404
Offset_23 241
Offset_24 333
Offset_25 88
Offset_47 80
decode_dispatch_called: 21046694 46.2885
Dispatch_width: 0 10288754 48.8854 22.6283
Dispatch_width: 1 716529 3.40447 1.57588
Dispatch_width: 2 985123 4.68065 2.1666
Dispatch_width: 3 701700 3.33402 1.54327
Dispatch_width: 4 2202536 10.465 4.84409
Dispatch_width: 5 514610 2.44509 1.13179
Dispatch_width: 6 5637442 26.7854 12.3986
Empty_decode_cycles: 24421817 53.7115
ROB_full_cycles: 2729970 6.00409
Starvation_cycles_per_kilo_instr: 371.011
Starvation_cycles_per_kilo_instr_3: 343.84
Starvation_cycles_per_kilo_instr_0: 319.806
Branch_type_1  (3,1)  (4,9)  (5,38)  (6,75)  (7,117)  (8,129)  (9,131)  (10,105)  (11,77)  (12,45)  (13,4)  (14,2)  (15,3)  (16,4)  (18,1)  (19,4)  (20,2)  (21,1)  (22,3)  (23,2)  (24,10)  (25,12) 
Branch_type_2  (3,1)  (5,1)  (8,3)  (9,3)  (12,1)  (13,1)  (14,1)  (16,3)  (17,2)  (20,2)  (21,2)  (23,5)  (24,1)  (47,36) 
Branch_type_3  (3,4249)  (4,248)  (5,427)  (6,441)  (7,462)  (8,334)  (9,284)  (10,172)  (11,138)  (12,50)  (13,4) 
Branch_type_4  (6,4)  (7,8)  (8,26)  (9,55)  (10,62)  (11,61)  (12,101)  (13,94)  (14,101)  (15,95)  (16,107)  (17,71)  (18,62)  (19,122)  (20,75)  (21,130)  (22,217)  (23,136)  (24,194)  (25,72) 
Branch_type_5  (8,2)  (9,1)  (10,3)  (11,6)  (12,3)  (13,14)  (14,16)  (15,11)  (16,20)  (17,12)  (18,16)  (19,12)  (20,11)  (21,13)  (22,42)  (23,26)  (24,37) 
Branch_type_6  (5,4)  (6,12)  (7,24)  (8,33)  (9,34)  (10,67)  (11,56)  (12,78)  (13,96)  (14,109)  (15,92)  (16,101)  (17,73)  (18,56)  (19,113)  (20,57)  (21,99)  (22,142)  (23,72)  (24,91)  (25,4)  (47,44) 
Unique trigger count: 
BTB PER SET UNIQUE ADDR: 22 27 23 29 27 25 19 26 18 26 18 32 26 20 25 19 23 23 22 28 25 20 24 25 20 25 26 28 24 23 22 23 25 16 17 23 24 26 14 22 23 21 25 30 21 14 27 19 27 23 32 20 23 26 23 11 21 19 18 29 22 31 24 27 24 28 23 19 30 25 24 22 27 21 19 16 18 27 20 34 27 15 21 31 25 20 29 22 19 41 19 15 25 21 13 27 24 22 29 29 37 30 26 19 27 19 23 25 14 21 22 33 22 21 22 14 28 26 26 24 29 17 22 15 25 22 11 24 35 22 21 31 22 30 20 31 16 27 21 32 20 29 21 22 25 25 28 21 17 24 24 26 15 23 16 33 26 31 29 27 30 25 26 25 20 27 26 21 27 20 22 29 23 25 24 21 22 22 22 26 18 23 21 29 33 31 18 27 27 21 25 17 20 30 25 19 17 24 22 27 28 27 19 19 18 21 23 24 22 24 19 27 20 22 24 27 22 27 18 38 16 27 18 23 19 26 30 27 18 30 21 14 23 31 24 30 28 19 21 17 23 25 29 29 23 21 21 24 26 24 30 30 25 20 29 27 19 17 19 24 27 19 11 24 22 16 20 21 20 22 21 28 18 16 17 19 24 29 23 24 17 26 18 20 25 18 18 33 33 30 26 19 23 27 17 31 25 27 27 25 21 23 21 39 25 30 27 24 33 28 25 30 21 38 27 18 31 19 22 33 20 28 17 22 28 27 24 24 24 18 22 30 20 21 23 26 18 19 19 35 26 24 16 28 27 28 18 25 23 25 26 25 29 23 25 28 24 28 18 17 19 30 21 32 25 28 14 22 30 22 23 17 24 26 18 31 27 28 21 27 24 23 16 20 19 23 29 32 27 27 32 14 27 29 19 16 19 21 29 25 23 25 22 25 28 28 27 23 24 23 27 22 19 30 24 23 22 32 38 31 22 28 24 27 29 23 28 20 24 21 28 24 20 23 30 29 25 22 21 25 27 20 19 30 32 21 17 29 29 25 27 38 25 20 31 35 26 28 18 30 17 24 20 29 34 20 22 26 29 27 24 29 29 24 25 38 24 34 17 25 34 25 20 26 17 25 36 32 28 24 20 25 19 19 21 21 29 26 22 26 20 31 19 37 21 22 19 30 31 27 23 33 24 24 23 26 23 34 19 18 15 22 25 16 24 32 38 15 16 34 28 25 25 24 26 31 21 27 28 26 27 22 29 25 28 36 14 26 17 23 26 32 24 24 20 19 24 24 29 26 20 37 21 24 28 29 26 30 25 28 29 28 31 36 24 31 28 31 21 24 28 25 16 24 26 26 23 26 35 31 20 20 27 16 25 17 14 24 28 22 26 22 24 16 24 27 33 23 21 22 32 28 22 18 13 30 18 28 23 29 31 26 19 20 21 32 20 28 19 26 20 30 36 23 26 22 27 33 25 28 23 29 27 38 30 28 25 25 37 24 16 26 23 21 32 25 23 25 28 21 24 15 26 30 24 28 19 23 20 21 26 22 19 28 33 22 25 26 31 29 23 30 24 28 27 24 22 24 27 28 24 26 23 14 17 22 19 27 21 27 17 25 28 33 12 29 21 19 17 17 22 26 17 22 18 22 34 27 19 31 25 27 22 23 19 21 23 25 22 21 26 21 22 23 25 27 25 32 37 20 21 22 23 27 32 28 23 21 23 22 25 21 23 24 18 23 33 25 19 17 25 16 16 25 24 30 17 26 23 27 24 27 21 24 27 17 30 21 27 27 16 27 24 22 24 22 18 24 24 14 17 15 28 27 24 31 20 18 29 25 34 25 34 27 35 22 26 21 23 21 21 36 29 29 20 26 37 31 15 27 26 31 16 28 27 23 21 26 26 31 24 31 25 24 16 29 25 24 25 20 27 24 25 25 25 29 23 36 22 27 24 20 20 26 34 31 31 30 29 29 25 24 19 27 30 20 25 19 31 20 21 29 25 23 25 14 22 23 20 24 27 16 27 33 26 25 29 25 25 24 28 18 23 24 24 30 30 24 20 20 25 22 22 28 14 29 20 27 23 33 21 23 22 23 28 26 37 23 25 26 25 27 19 29 23 22 14 30 18 18 31 32 29 20 21 34 21 22 25 30 18 30 25 20 23 26 23 30 26 27 25 25 19 26 20 27 27 23 26 25 26 24 23 33 30 22 31 28 20 29 25 28 29 23 28 21 34 33 32 33 19 27 26 25 23 32 36 19 26 22 30 26 25 23 24 20 21 25 31 25 32 29 19 24 29 27 19 33 22 26 26 28 27 18 24 25 13 20 10 15 22 32 25 15 
BTB PER SET COUNT: 2155 2413 2672 2030 2783 2077 1713 1739 1726 2202 1226 2543 11250 1850 1745 1141 2115 2060 1656 2126 1712 1640 2119 2189 1146 1987 2225 2105 2114 1863 1843 2478 1820 885 1232 1950 1951 2414 1049 2271 1598 1609 2469 2412 1794 655 2124 1455 1963 1685 2452 1351 1946 2091 1690 754 1510 1606 1364 1990 1788 3084 1974 1889 2360 1987 1742 1456 2268 1891 2259 2162 2566 1503 1269 865 930 2209 1502 2488 2552 1054 1938 2578 2097 1738 2249 2134 1751 3867 1337 1415 2216 1896 860 2146 1521 1526 2299 3724 3554 2564 2066 1705 3453 1427 1744 2102 1638 3021 1785 2831 2249 1541 1599 1236 2080 2437 2540 1813 2244 1409 1648 1084 1711 1541 770 2812 3492 1743 1457 3054 1466 2447 1602 2234 1552 2252 1513 2568 1681 2174 1752 1772 1822 1795 2685 1405 1051 1791 1647 2106 1458 1637 961 2915 2523 2253 2291 2490 1996 1834 2541 2289 1789 2149 1845 1427 2140 1658 1535 2320 1872 1778 2091 1908 1794 1621 1731 2442 1493 1928 1798 2146 2736 3035 1079 1959 2339 2191 1845 1361 1056 2588 2054 1289 1365 1902 1615 1588 1961 2039 1815 1562 1153 1910 1813 1976 1863 2424 1436 2155 1369 3097 1866 2253 1610 2412 1549 3409 1003 2078 1380 1659 1549 2129 2675 2249 1376 3207 1631 590 1710 2284 1420 6752 2349 1564 2046 1110 1845 1906 2923 2757 1703 1996 1381 1880 1961 1481 2026 2138 1981 1523 2043 2524 1572 1365 1380 1635 2190 1556 298 1903 1923 812 1736 1522 2220 1915 1572 1804 1148 880 1475 1156 2081 2386 1984 1836 977 2134 1445 1741 2169 1571 1224 2887 3078 2283 2127 1432 1908 2443 1141 2640 2313 2001 1751 2265 1580 1447 1848 2941 1887 2902 1815 1762 2840 2335 2456 2108 1279 3109 3008 1417 2506 1753 1639 2769 1491 3137 1135 1586 2633 2463 2309 1329 1706 1061 1766 2880 1174 1319 1914 1728 1356 1754 1088 3464 2020 2938 1235 2015 2392 1911 1397 1784 1904 2014 2214 1762 2475 1800 1735 2517 2103 2665 1439 1334 1247 2774 1440 2736 1765 2937 732 1647 1808 1527 2068 1228 2289 2289 1421 2680 1852 2365 1731 2620 2221 1984 1481 982 1114 1750 2852 2401 2166 2228 2261 927 2345 2382 1392 1301 1449 1554 2695 2182 1563 2017 2014 1485 2170 2250 2079 2231 1363 2018 2014 1297 1385 2547 1558 1979 1718 4694 3265 2648 1420 2220 2392 1856 2522 1713 2541 1387 1632 1968 2576 2034 1291 1535 2623 2232 1773 1510 1745 1805 2694 1423 1481 2621 2927 1964 1402 1971 2243 1771 2357 3897 1682 1656 2548 3191 2073 2564 1360 2139 1326 1860 1291 2465 2775 1737 6516 1941 2556 1961 1948 1983 1869 1886 1907 3084 1792 3136 1318 1816 2773 2234 1597 2226 1341 1874 3256 2476 2538 1696 1710 2292 4327 1103 996 1840 2622 2576 1660 2211 1430 2741 1395 3128 1531 1260 1170 2715 2703 1957 1848 3131 2612 2532 1608 2669 1543 2792 1153 1219 885 1884 2255 1141 1898 2962 3432 2104 1159 4229 3097 2050 2068 1836 2476 2510 2193 2435 2081 1879 2337 1720 2362 1991 2247 2642 982 2173 1139 2394 1735 2829 2022 2047 1446 1388 1810 1855 2318 2226 1273 2854 1563 1941 2399 2623 1768 2117 1737 2531 2441 2182 2965 2894 1946 2568 2581 2491 1697 1889 2386 2269 1027 3184 1992 2128 1802 2228 3040 2693 2000 1787 2343 970 1819 1219 1817 2300 1980 1581 1193 1860 1819 985 2115 2061 2578 1956 1239 1675 2934 2588 2385 1095 689 2433 1014 2360 2288 2191 2852 1748 1105 1379 1618 2825 1447 2827 2264 1984 1708 3074 3109 1699 1873 1679 2106 2575 1628 2240 2285 2069 2539 2629 2845 2503 1341 2314 3605 1203 1044 2181 1337 1830 3182 1930 1537 1729 2371 1897 2137 673 2436 2743 6405 2587 1423 1920 2204 1804 1747 1675 1437 2165 2956 2043 2010 2502 2282 2995 1898 2539 1957 2326 2750 2189 1788 2009 2150 2335 1612 2565 2181 901 1471 1804 1692 2424 1683 1840 1443 2304 2448 2722 794 2293 1765 1401 1256 1114 1782 2129 1143 1858 1734 1552 3096 2190 1547 2613 2270 2427 1537 1862 1672 1659 1670 2271 1768 2016 2146 6147 1607 1899 1757 2037 2255 3178 3518 1644 1906 1421 1905 2142 2881 2731 2135 1771 1928 1615 2524 1584 2641 2045 1203 1930 2749 2267 1717 1090 2146 1026 694 1747 2710 2891 1174 2062 1128 2044 1702 2404 1745 1431 2088 1321 2216 1888 1467 2598 1633 2236 1866 1632 1958 1829 1407 2217 1543 1100 1315 1364 2275 2410 1686 2820 1623 1350 1787 2052 3139 1890 2696 2465 2789 1565 1893 1885 1857 1584 1411 5280 2553 2252 1695 2942 2869 2821 1089 2747 1699 2631 1169 2371 2552 1892 1515 2000 2220 2700 2070 2988 2165 2046 1181 2807 1832 1912 2420 1872 2229 2043 1933 1743 2171 2280 1706 3263 1456 5612 2462 1960 1601 1732 2804 2512 2776 2353 2484 2175 2505 2060 1648 2037 2807 1099 1899 1101 2819 1475 1673 2636 2149 1767 1814 857 1603 1919 2399 1900 2123 841 1560 2923 2225 2262 2308 1881 1847 1912 2230 1218 3113 2534 1513 2515 2786 1639 1536 1606 2221 1603 1717 2409 776 2339 1564 2643 1673 2588 1733 1933 1960 2313 2528 2492 3503 2014 1947 2057 2122 2176 1392 2469 1413 1660 624 2637 1126 1123 2071 2717 3119 1428 1661 3094 1966 1617 2343 2344 1293 3095 2023 1514 2015 1989 1766 2369 2168 2207 2201 2531 1863 3546 1680 2090 2410 1695 1849 2174 2088 2058 1688 2560 2495 1409 2710 2210 1416 2082 1927 2806 2421 1755 2578 1577 3383 2311 2685 3251 1810 2195 2119 2076 1436 3268 4302 1358 2388 2023 2157 2607 1894 1986 2263 1750 1386 3169 2244 2036 2636 3078 1602 1779 2135 2048 1495 3104 1680 2300 2562 2360 2266 1323 1431 1886 969 1721 485 1156 1560 3016 2066 1051 
