
*** ChampSim Multicore Out-of-Order Simulator ***

Warmup Instructions: 50000000
Simulation Instructions: 50000000
Number of CPUs: 1
LLC sets: 2048
LLC ways: 16
Off-chip DRAM Size: 4096 MB Channels: 1 Width: 64-bit Data Rate: 6400 MT/s
CPU 0 runs ./micro_traces/srv77.trace.gz
.gz
ITLB has LRU replacement policy
DTLB has LRU replacement policy
STLB has LRU replacement policy
FDIP Prefetcher at L1I
L1I has LRU replacement policy
L1D has LRU replacement policy
Initialize SRRIP state for L2C
Initialize DRRIP state for LLC
Heartbeat_Variant_0 : 1083 0.264404 per_variant_size: 0 1083 0 0 0 0 0 0 0 
Heartbeat_Variant_1 : 2267 0.553467 per_variant_size: 0 447 1820 0 0 0 0 0 0 
Heartbeat_Variant_2 : 0 0 per_variant_size: 0 0 0 0 0 0 0 0 0 
Heartbeat_Variant_3 : 0 0 per_variant_size: 0 0 0 0 0 0 0 0 0 
Heartbeat_Variant_0_evicts 0 : 21656 1 : 18190 2 : 0 3 : 0 
Heartbeat_Variant_1_evicts 0 : 18239 1 : 0 2 : 0 3 : 0 
Heartbeat_Variant_2_evicts 0 : 0 1 : 0 2 : 0 3 : 0 
Heartbeat_Variant_3_evicts 0 : 0 1 : 0 2 : 0 3 : 0 
Heartbeat CPU 0 instructions: 10000000 cycles: 2796105 heartbeat IPC: 3.5764 cumulative IPC: 3.5764 (Simulation time: 0 hr 1 min 59 sec) 
Heartbeat_Variant_0 : 1083 0.264404 per_variant_size: 0 1083 0 0 0 0 0 0 0 
Heartbeat_Variant_1 : 2351 0.573975 per_variant_size: 0 445 1906 0 0 0 0 0 0 
Heartbeat_Variant_2 : 0 0 per_variant_size: 0 0 0 0 0 0 0 0 0 
Heartbeat_Variant_3 : 0 0 per_variant_size: 0 0 0 0 0 0 0 0 0 
Heartbeat_Variant_0_evicts 0 : 21590 1 : 17926 2 : 0 3 : 0 
Heartbeat_Variant_1_evicts 0 : 17945 1 : 0 2 : 0 3 : 0 
Heartbeat_Variant_2_evicts 0 : 0 1 : 0 2 : 0 3 : 0 
Heartbeat_Variant_3_evicts 0 : 0 1 : 0 2 : 0 3 : 0 
Heartbeat CPU 0 instructions: 20000000 cycles: 5591954 heartbeat IPC: 3.57673 cumulative IPC: 3.57657 (Simulation time: 0 hr 4 min 1 sec) 
Heartbeat_Variant_0 : 1086 0.265137 per_variant_size: 0 1086 0 0 0 0 0 0 0 
Heartbeat_Variant_1 : 2353 0.574463 per_variant_size: 0 438 1915 0 0 0 0 0 0 
Heartbeat_Variant_2 : 0 0 per_variant_size: 0 0 0 0 0 0 0 0 0 
Heartbeat_Variant_3 : 0 0 per_variant_size: 0 0 0 0 0 0 0 0 0 
Heartbeat_Variant_0_evicts 0 : 22013 1 : 18271 2 : 0 3 : 0 
Heartbeat_Variant_1_evicts 0 : 18268 1 : 0 2 : 0 3 : 0 
Heartbeat_Variant_2_evicts 0 : 0 1 : 0 2 : 0 3 : 0 
Heartbeat_Variant_3_evicts 0 : 0 1 : 0 2 : 0 3 : 0 
Heartbeat CPU 0 instructions: 30000001 cycles: 8388396 heartbeat IPC: 3.57597 cumulative IPC: 3.57637 (Simulation time: 0 hr 6 min 11 sec) 
Heartbeat_Variant_0 : 1104 0.269531 per_variant_size: 0 1104 0 0 0 0 0 0 0 
Heartbeat_Variant_1 : 2339 0.571045 per_variant_size: 0 432 1907 0 0 0 0 0 0 
Heartbeat_Variant_2 : 0 0 per_variant_size: 0 0 0 0 0 0 0 0 0 
Heartbeat_Variant_3 : 0 0 per_variant_size: 0 0 0 0 0 0 0 0 0 
Heartbeat_Variant_0_evicts 0 : 22117 1 : 18524 2 : 0 3 : 0 
Heartbeat_Variant_1_evicts 0 : 18506 1 : 0 2 : 0 3 : 0 
Heartbeat_Variant_2_evicts 0 : 0 1 : 0 2 : 0 3 : 0 
Heartbeat_Variant_3_evicts 0 : 0 1 : 0 2 : 0 3 : 0 
Heartbeat CPU 0 instructions: 40000001 cycles: 11185351 heartbeat IPC: 3.57532 cumulative IPC: 3.57611 (Simulation time: 0 hr 8 min 23 sec) 
Heartbeat_Variant_0 : 1087 0.265381 per_variant_size: 0 1087 0 0 0 0 0 0 0 
Heartbeat_Variant_1 : 2356 0.575195 per_variant_size: 0 441 1915 0 0 0 0 0 0 
Heartbeat_Variant_2 : 0 0 per_variant_size: 0 0 0 0 0 0 0 0 0 
Heartbeat_Variant_3 : 0 0 per_variant_size: 0 0 0 0 0 0 0 0 0 
Heartbeat_Variant_0_evicts 0 : 22111 1 : 18726 2 : 0 3 : 0 
Heartbeat_Variant_1_evicts 0 : 18743 1 : 0 2 : 0 3 : 0 
Heartbeat_Variant_2_evicts 0 : 0 1 : 0 2 : 0 3 : 0 
Heartbeat_Variant_3_evicts 0 : 0 1 : 0 2 : 0 3 : 0 
Heartbeat CPU 0 instructions: 50000000 cycles: 13982218 heartbeat IPC: 3.57543 cumulative IPC: 3.57597 (Simulation time: 0 hr 10 min 28 sec) 

Warmup complete CPU 0 instructions: 50000004 cycles: 13982219 (Simulation time: 0 hr 10 min 28 sec) 

Cycle: 20000000 FTQ IN: 56853851 FTQ occupancy: 18.1904 DECODE IN: 56853851 DECODE occupancy: 46.5775 ROB IN: 56853851 ROB occupancy: 281.624 ROB OUT: 56853786
Heartbeat_Variant_0 : 1074 0.262207 per_variant_size: 0 1074 0 0 0 0 0 0 0 
Heartbeat_Variant_1 : 2369 0.578369 per_variant_size: 0 451 1918 0 0 0 0 0 0 
Heartbeat_Variant_2 : 0 0 per_variant_size: 0 0 0 0 0 0 0 0 0 
Heartbeat_Variant_3 : 0 0 per_variant_size: 0 0 0 0 0 0 0 0 0 
Heartbeat_Variant_0_evicts 0 : 22249 1 : 18816 2 : 0 3 : 0 
Heartbeat_Variant_1_evicts 0 : 18829 1 : 0 2 : 0 3 : 0 
Heartbeat_Variant_2_evicts 0 : 0 1 : 0 2 : 0 3 : 0 
Heartbeat_Variant_3_evicts 0 : 0 1 : 0 2 : 0 3 : 0 
Heartbeat CPU 0 instructions: 60000001 cycles: 22751177 heartbeat IPC: 1.14039 cumulative IPC: 1.14039 (Simulation time: 0 hr 12 min 26 sec) 
Cycle: 30000000 FTQ IN: 11399050 FTQ occupancy: 7.0168 DECODE IN: 11399027 DECODE occupancy: 15.1958 ROB IN: 11399027 ROB occupancy: 125.916 ROB OUT: 11399025
Heartbeat_Variant_0 : 1090 0.266113 per_variant_size: 0 1090 0 0 0 0 0 0 0 
Heartbeat_Variant_1 : 2353 0.574463 per_variant_size: 0 438 1915 0 0 0 0 0 0 
Heartbeat_Variant_2 : 0 0 per_variant_size: 0 0 0 0 0 0 0 0 0 
Heartbeat_Variant_3 : 0 0 per_variant_size: 0 0 0 0 0 0 0 0 0 
Heartbeat_Variant_0_evicts 0 : 22034 1 : 18874 2 : 0 3 : 0 
Heartbeat_Variant_1_evicts 0 : 18858 1 : 0 2 : 0 3 : 0 
Heartbeat_Variant_2_evicts 0 : 0 1 : 0 2 : 0 3 : 0 
Heartbeat_Variant_3_evicts 0 : 0 1 : 0 2 : 0 3 : 0 
Heartbeat CPU 0 instructions: 70000002 cycles: 31651950 heartbeat IPC: 1.1235 cumulative IPC: 1.13188 (Simulation time: 0 hr 14 min 24 sec) 
Cycle: 40000000 FTQ IN: 11366570 FTQ occupancy: 7.25729 DECODE IN: 11366520 DECODE occupancy: 15.7858 ROB IN: 11366460 ROB occupancy: 129.986 ROB OUT: 11366402
Heartbeat_Variant_0 : 1084 0.264648 per_variant_size: 0 1084 0 0 0 0 0 0 0 
Heartbeat_Variant_1 : 2359 0.575928 per_variant_size: 0 437 1922 0 0 0 0 0 0 
Heartbeat_Variant_2 : 0 0 per_variant_size: 0 0 0 0 0 0 0 0 0 
Heartbeat_Variant_3 : 0 0 per_variant_size: 0 0 0 0 0 0 0 0 0 
Heartbeat_Variant_0_evicts 0 : 21677 1 : 18302 2 : 0 3 : 0 
Heartbeat_Variant_1_evicts 0 : 18308 1 : 0 2 : 0 3 : 0 
Heartbeat_Variant_2_evicts 0 : 0 1 : 0 2 : 0 3 : 0 
Heartbeat_Variant_3_evicts 0 : 0 1 : 0 2 : 0 3 : 0 
Heartbeat CPU 0 instructions: 80000001 cycles: 40336060 heartbeat IPC: 1.15153 cumulative IPC: 1.13835 (Simulation time: 0 hr 16 min 19 sec) 
Heartbeat_Variant_0 : 1085 0.264893 per_variant_size: 0 1085 0 0 0 0 0 0 0 
Heartbeat_Variant_1 : 2358 0.575684 per_variant_size: 0 427 1931 0 0 0 0 0 0 
Heartbeat_Variant_2 : 0 0 per_variant_size: 0 0 0 0 0 0 0 0 0 
Heartbeat_Variant_3 : 0 0 per_variant_size: 0 0 0 0 0 0 0 0 0 
Heartbeat_Variant_0_evicts 0 : 21861 1 : 18630 2 : 0 3 : 0 
Heartbeat_Variant_1_evicts 0 : 18629 1 : 0 2 : 0 3 : 0 
Heartbeat_Variant_2_evicts 0 : 0 1 : 0 2 : 0 3 : 0 
Heartbeat_Variant_3_evicts 0 : 0 1 : 0 2 : 0 3 : 0 
Heartbeat CPU 0 instructions: 90000001 cycles: 49056943 heartbeat IPC: 1.14667 cumulative IPC: 1.14042 (Simulation time: 0 hr 18 min 21 sec) 
Cycle: 50000000 FTQ IN: 11460129 FTQ occupancy: 7.09321 DECODE IN: 11460189 DECODE occupancy: 15.4203 ROB IN: 11460249 ROB occupancy: 127.578 ROB OUT: 11460351
Heartbeat_Variant_0 : 1085 0.264893 per_variant_size: 0 1085 0 0 0 0 0 0 0 
Heartbeat_Variant_1 : 2372 0.579102 per_variant_size: 0 434 1938 0 0 0 0 0 0 
Heartbeat_Variant_2 : 0 0 per_variant_size: 0 0 0 0 0 0 0 0 0 
Heartbeat_Variant_3 : 0 0 per_variant_size: 0 0 0 0 0 0 0 0 0 
Heartbeat_Variant_0_evicts 0 : 21824 1 : 18689 2 : 0 3 : 0 
Heartbeat_Variant_1_evicts 0 : 18690 1 : 0 2 : 0 3 : 0 
Heartbeat_Variant_2_evicts 0 : 0 1 : 0 2 : 0 3 : 0 
Heartbeat_Variant_3_evicts 0 : 0 1 : 0 2 : 0 3 : 0 
Heartbeat CPU 0 instructions: 100000002 cycles: 57910310 heartbeat IPC: 1.12951 cumulative IPC: 1.13822 (Simulation time: 0 hr 20 min 10 sec) 
Finished CPU 0 instructions: 50000002 cycles: 43928092 cumulative IPC: 1.13822 (Simulation time: 0 hr 20 min 10 sec) 

ChampSim completed all CPUs

Region of Interest Statistics

CPU 0 cumulative IPC: 1.13822 instructions: 50000002 cycles: 43928092
 Fetch stage stalled: 70.1059  Sim cycles: 43928092 fetch stall cycle: 30796206
 Empty decode stage: 58.3917  Sim cycles: 43928092 fetch stall cycle: 25650341
ITLB TOTAL     ACCESS:    5621969  HIT:    5123246  MISS:     498723  HIT %:     91.129  MISS %:    8.87097   MPKI: 9.97446
ITLB LOAD TRANSLATION INSTRUCTION	ACCESS:    5517069  HIT:    5018346  MISS:     498723  HIT %:    90.9604  MISS %:    9.03964  MPKI: 9.97446
ITLB TRANSLATION FROM L1D PREFETCHER INSTRUCTION	ACCESS:     104900  HIT:     104900  MISS:          0  HIT %:        100  MISS %:          0  MPKI: 0

ITLB AVERAGE MISS LATENCY: 9.03867 cycles
ITLB RQ	ACCESS:    7475019	FORWARD:          0	MERGED:    1352166	TO_CACHE:    6122853

DTLB TOTAL     ACCESS:    9287856  HIT:    8808581  MISS:     479275  HIT %:    94.8398  MISS %:    5.16023   MPKI: 9.5855
DTLB LOAD TRANSLATION DATA	ACCESS:    9287856  HIT:    8808581  MISS:     479275  HIT %:    94.8398  MISS %:    5.16023  MPKI: 9.5855

DTLB AVERAGE MISS LATENCY: 9.31432 cycles
DTLB RQ	ACCESS:   13586825	FORWARD:          0	MERGED:    4264273	TO_CACHE:    9322552

STLB TOTAL     ACCESS:    1222199  HIT:    1220055  MISS:       2144  HIT %:    99.8246  MISS %:   0.175422   MPKI: 0.04288
STLB LOAD TRANSLATION INSTRUCTION	ACCESS:     498722  HIT:     498459  MISS:        263  HIT %:    99.9473  MISS %:  0.0527348  MPKI: 0.00526
STLB LOAD TRANSLATION DATA	ACCESS:     479168  HIT:     477318  MISS:       1850  HIT %:    99.6139  MISS %:   0.386086  MPKI: 0.037
STLB TRANSLATION FROM L1D PREFETCHER DATA	ACCESS:     244309  HIT:     244278  MISS:         31  HIT %:    99.9873  MISS %:  0.0126888  MPKI: 0.00062

STLB AVERAGE MISS LATENCY: 66.9104 cycles
STLB RQ	ACCESS:    1341113	FORWARD:          0	MERGED:     118888	TO_CACHE:    1222225

STLB Hit, L1D data hit: 0
STLB Hit, L2C data hit: 0
STLB Hit, LLC data hit: 0
STLB Hit, LLC data miss: 0
STLB STLB hints to L2: 0
L1D TOTAL     ACCESS:   13339986  HIT:   12212664  MISS:    1127322  HIT %:    91.5493  MISS %:     8.4507   MPKI: 22.5464
L1D LOAD DATA	ACCESS:    6772616  HIT:    6026253  MISS:     746363  HIT %:    88.9797  MISS %:    11.0203  MPKI: 14.9273
L1D RFO DATA	ACCESS:    6245728  HIT:    5958085  MISS:     287643  HIT %:    95.3946  MISS %:    4.60544  MPKI: 5.75286
L1D PREFETCH DATA	ACCESS:     321642  HIT:     228326  MISS:      93316  HIT %:    70.9876  MISS %:    29.0124  MPKI: 1.86632

L1D PREFETCH  REQUESTED:     726568  ISSUED:     726568  USEFUL:      33375  USELESS:      68193
L1D USEFUL LOAD PREFETCHES:      33375 PREFETCH ISSUED TO LOWER LEVEL:     101651  ACCURACY: 32.8329
 TIMELY PREFETCHES:      33375 LATE PREFETCHES: 8272 DROPPED PREFETCHES: 4
L1D AVERAGE MISS LATENCY: 271629 cycles
L1D RQ	ACCESS:   10853369	FORWARD:          0	MERGED:    3882956	TO_CACHE:    6804271
L1D WQ	ACCESS:    6959500	FORWARD:     166478	MERGED:     176946	TO_CACHE:    6782554
L1D PQ	ACCESS:     363452	FORWARD:          0	MERGED:          0	TO_CACHE:     363116

L1D UNIQUE REGIONS ACCESSED: 0
L1D REGIONS CONFLICTS: 0
L1D Cross Page Prefetch Requests: 6834
L1D Same Page Prefetch Requests: 741604
L1D ROI Sum of L1D PQ occupancy: 4601526
L1D PREFETCHES PUSHED FROM L2C: 0
L1I TOTAL     ACCESS:    6952986  HIT:    4165805  MISS:    2787181  HIT %:    59.9139  MISS %:    40.0861   MPKI: 55.7436
L1I LOAD INSTRUCTION	ACCESS:    6460590  HIT:    3673409  MISS:    2787181  HIT %:    56.8587  MISS %:    43.1413  MPKI: 55.7436
L1I PREFETCH INSTRUCTION	ACCESS:     492396  HIT:     492396  MISS:          0  HIT %:        100  MISS %:          0  MPKI: 0

L1I PREFETCH  REQUESTED:    1103784  ISSUED:    1103784  USEFUL:          0  USELESS:          0
L1I USEFUL LOAD PREFETCHES:          0 PREFETCH ISSUED TO LOWER LEVEL:          0  ACCURACY: -nan
 TIMELY PREFETCHES:          0 LATE PREFETCHES: 0 DROPPED PREFETCHES: 0
L1I AVERAGE MISS LATENCY: 17.409 cycles
L1I RQ	ACCESS:    9461973	FORWARD:          0	MERGED:    2777149	TO_CACHE:    6684824
L1I PQ	ACCESS:    1103784	FORWARD:          0	MERGED:     313589	TO_CACHE:     790195

L1BTB TOTAL     ACCESS:    5671783  HIT:    2018243  MISS:    3653540  HIT %:    35.5839  MISS %:    64.4161   MPKI: 73.0708
L1BTB BRANCH_DIRECT_JUMP	ACCESS:     548049 HIT:     142385 MISS:     405664 AVERAGE STALL: 37.1854 AVERAGE FETCH STALL: 18.5619 AVERAGE FETCH QUEUE STALL: 9.47894 AVERAGE DECODE STALL: 8.34174 AVERAGE EXECUTE STALL: 3.98504e+14
L1BTB BRANCH_INDIRECT	ACCESS:     182320 HIT:      65369 MISS:     116951 AVERAGE STALL: 94.8591 AVERAGE FETCH STALL: 15.2317 AVERAGE FETCH QUEUE STALL: 8.9323 AVERAGE DECODE STALL: 7.42827 AVERAGE EXECUTE STALL: 62.325
L1BTB BRANCH_CONDITIONAL	ACCESS:    2696684 HIT:    1395798 MISS:    1300886 AVERAGE STALL: 37.393 AVERAGE FETCH STALL: 22.247 AVERAGE FETCH QUEUE STALL: 7.07601 AVERAGE DECODE STALL: 7.30544 AVERAGE EXECUTE STALL: 1.64289e+14
L1BTB BRANCH_DIRECT_CALL	ACCESS:     949919 HIT:     104420 MISS:     845499 AVERAGE STALL: 39.3067 AVERAGE FETCH STALL: 22.5798 AVERAGE FETCH QUEUE STALL: 8.01995 AVERAGE DECODE STALL: 7.93844 AVERAGE EXECUTE STALL: 1.08887e+14
L1BTB BRANCH_INDIRECT_CALL	ACCESS:     172450 HIT:      21030 MISS:     151420 AVERAGE STALL: 115.994 AVERAGE FETCH STALL: 18.5987 AVERAGE FETCH QUEUE STALL: 6.67665 AVERAGE DECODE STALL: 6.91866 AVERAGE EXECUTE STALL: 83.2633
L1BTB BRANCH_RETURN	ACCESS:    1122361 HIT:     289241 MISS:     833120 AVERAGE STALL: 38.0466 AVERAGE FETCH STALL: 19.0503 AVERAGE FETCH QUEUE STALL: 5.56021 AVERAGE DECODE STALL: 6.27658 AVERAGE EXECUTE STALL: 1.99567e+14
L1BTB BRANCH_OTHER ACCESS:          0 HIT:          0 MISS:          0 AVERAGE STALL: -nan AVERAGE FETCH STALL: -nan AVERAGE FETCH QUEUE STALL: -nan AVERAGE DECODE STALL: -nan AVERAGE EXECUTE STALL: -nan
L1BTB TOTAL ROB OCCUPANCY AT BTB MISS: 13.4552

L2BTB TOTAL     ACCESS:    3628293  HIT:    3170709  MISS:     457584  HIT %:    87.3884  MISS %:    12.6116   MPKI: 9.15168
L2BTB BRANCH_DIRECT_JUMP	ACCESS:     401607 HIT:     359358 MISS:      42249 AVERAGE STALL: 37.1854 AVERAGE FETCH STALL: 18.5619 AVERAGE FETCH QUEUE STALL: 9.47894 AVERAGE DECODE STALL: 8.34174 AVERAGE EXECUTE STALL: 3.98504e+14
L2BTB BRANCH_INDIRECT	ACCESS:     106613 HIT:      97218 MISS:       9395 AVERAGE STALL: 94.8591 AVERAGE FETCH STALL: 15.2317 AVERAGE FETCH QUEUE STALL: 8.9323 AVERAGE DECODE STALL: 7.42827 AVERAGE EXECUTE STALL: 62.325
L2BTB BRANCH_CONDITIONAL	ACCESS:    1300886 HIT:    1188110 MISS:     112776 AVERAGE STALL: 37.393 AVERAGE FETCH STALL: 22.247 AVERAGE FETCH QUEUE STALL: 7.07601 AVERAGE DECODE STALL: 7.30544 AVERAGE EXECUTE STALL: 1.64289e+14
L2BTB BRANCH_DIRECT_CALL	ACCESS:     845499 HIT:     676067 MISS:     169432 AVERAGE STALL: 39.3067 AVERAGE FETCH STALL: 22.5798 AVERAGE FETCH QUEUE STALL: 8.01995 AVERAGE DECODE STALL: 7.93844 AVERAGE EXECUTE STALL: 1.08887e+14
L2BTB BRANCH_INDIRECT_CALL	ACCESS:     141988 HIT:     109286 MISS:      32702 AVERAGE STALL: 115.994 AVERAGE FETCH STALL: 18.5987 AVERAGE FETCH QUEUE STALL: 6.67665 AVERAGE DECODE STALL: 6.91866 AVERAGE EXECUTE STALL: 83.2633
L2BTB BRANCH_RETURN	ACCESS:     831700 HIT:     740670 MISS:      91030 AVERAGE STALL: 38.0466 AVERAGE FETCH STALL: 19.0503 AVERAGE FETCH QUEUE STALL: 5.56021 AVERAGE DECODE STALL: 6.27658 AVERAGE EXECUTE STALL: 1.99567e+14
L2BTB BRANCH_OTHER ACCESS:          0 HIT:          0 MISS:          0 AVERAGE STALL: -nan AVERAGE FETCH STALL: -nan AVERAGE FETCH QUEUE STALL: -nan AVERAGE DECODE STALL: -nan AVERAGE EXECUTE STALL: -nan
L2BTB TOTAL ROB OCCUPANCY AT BTB MISS: 107.432

L2C TOTAL     ACCESS:    4531798  HIT:    4037679  MISS:     494119  HIT %:    89.0966  MISS %:    10.9034   MPKI: 9.88238
L2C LOAD INSTRUCTION	ACCESS:    2787181  HIT:    2509995  MISS:     277186  HIT %:     90.055  MISS %:    9.94503  MPKI: 5.54372
L2C LOAD TRANSLATION INSTRUCTION	ACCESS:        288  HIT:         71  MISS:        217  HIT %:    24.6528  MISS %:    75.3472  MPKI: 0.00434
L2C LOAD DATA	ACCESS:     738065  HIT:     659409  MISS:      78656  HIT %:    89.3429  MISS %:    10.6571  MPKI: 1.57312
L2C RFO DATA	ACCESS:     287563  HIT:     235520  MISS:      52043  HIT %:    81.9021  MISS %:    18.0979  MPKI: 1.04086
L2C PREFETCH DATA	ACCESS:     190213  HIT:     118301  MISS:      71912  HIT %:     62.194  MISS %:     37.806  MPKI: 1.43824
L2C WRITEBACK DATA	ACCESS:     526536  HIT:     513838  MISS:      12698  HIT %:    97.5884  MISS %:    2.41161  MPKI: 0.25396
L2C LOAD TRANSLATION DATA	ACCESS:       1909  HIT:        511  MISS:       1398  HIT %:    26.7679  MISS %:    73.2321  MPKI: 0.02796
L2C TRANSLATION FROM L1D PREFETCHER DATA	ACCESS:         43  HIT:         34  MISS:          9  HIT %:    79.0698  MISS %:    20.9302  MPKI: 0.00018

L2C PREFETCH  REQUESTED:      96279  ISSUED:      96279  USEFUL:       8334  USELESS:      64022
L2C USEFUL LOAD PREFETCHES:       8334 PREFETCH ISSUED TO LOWER LEVEL:      72381  ACCURACY: 11.5141
 TIMELY PREFETCHES:       8334 LATE PREFETCHES: 469 DROPPED PREFETCHES: 0
L2C AVERAGE MISS LATENCY: 37.7882 cycles
L2C RQ	ACCESS:    3815095	FORWARD:          0	MERGED:          0	TO_CACHE:    3815051
L2C WQ	ACCESS:     526536	FORWARD:         44	MERGED:          0	TO_CACHE:     526536
L2C PQ	ACCESS:     197930	FORWARD:          0	MERGED:       3803	TO_CACHE:     194127

L2C Dense regions hint from L2: 0
PSCL5 TOTAL     ACCESS:       4300  HIT:       2150  MISS:       2150  HIT %:         50  MISS %:         50   MPKI: 0.043
PSCL5 LOAD TRANSLATION INSTRUCTION	ACCESS:       4214  HIT:       2107  MISS:       2107  HIT %:         50  MISS %:         50  MPKI: 0.04214
PSCL5 TRANSLATION FROM L1D PREFETCHER INSTRUCTION	ACCESS:         86  HIT:         43  MISS:         43  HIT %:         50  MISS %:         50  MPKI: 0.00086


PSCL4 TOTAL     ACCESS:       4031  HIT:       2013  MISS:       2018  HIT %:     49.938  MISS %:     50.062   MPKI: 0.04036
PSCL4 LOAD TRANSLATION INSTRUCTION	ACCESS:       3663  HIT:       1972  MISS:       1691  HIT %:    53.8357  MISS %:    46.1643  MPKI: 0.03382
PSCL4 TRANSLATION FROM L1D PREFETCHER INSTRUCTION	ACCESS:         82  HIT:         41  MISS:         41  HIT %:         50  MISS %:         50  MPKI: 0.00082
PSCL4 LOAD TRANSLATION DATA	ACCESS:        286  HIT:          0  MISS:        286  HIT %:          0  MISS %:        100  MPKI: 0.00572


PSCL3 TOTAL     ACCESS:       4211  HIT:       2103  MISS:       2108  HIT %:    49.9406  MISS %:    50.0594   MPKI: 0.04216
PSCL3 LOAD TRANSLATION INSTRUCTION	ACCESS:       3753  HIT:       2062  MISS:       1691  HIT %:    54.9427  MISS %:    45.0573  MPKI: 0.03382
PSCL3 TRANSLATION FROM L1D PREFETCHER INSTRUCTION	ACCESS:         82  HIT:         41  MISS:         41  HIT %:         50  MISS %:         50  MPKI: 0.00082
PSCL3 LOAD TRANSLATION DATA	ACCESS:        376  HIT:          0  MISS:        376  HIT %:          0  MISS %:        100  MPKI: 0.00752


PSCL2 TOTAL     ACCESS:       4220  HIT:       2070  MISS:       2150  HIT %:    49.0521  MISS %:    50.9479   MPKI: 0.043
PSCL2 LOAD TRANSLATION INSTRUCTION	ACCESS:       2290  HIT:       2027  MISS:        263  HIT %:    88.5153  MISS %:    11.4847  MPKI: 0.00526
PSCL2 TRANSLATION FROM L1D PREFETCHER INSTRUCTION	ACCESS:         43  HIT:         43  MISS:          0  HIT %:        100  MISS %:          0  MPKI: 0
PSCL2 LOAD TRANSLATION DATA	ACCESS:       1844  HIT:          0  MISS:       1844  HIT %:          0  MISS %:        100  MPKI: 0.03688
PSCL2 TRANSLATION FROM L1D PREFETCHER DATA	ACCESS:         43  HIT:          0  MISS:         43  HIT %:          0  MISS %:        100  MPKI: 0.00086


LLC TOTAL     ACCESS:     557157  HIT:     529994  MISS:      27163  HIT %:    95.1247  MISS %:    4.87529   MPKI: 0.54326
LLC LOAD INSTRUCTION	ACCESS:     277186  HIT:     276478  MISS:        708  HIT %:    99.7446  MISS %:   0.255424  MPKI: 0.01416
LLC LOAD TRANSLATION INSTRUCTION	ACCESS:        217  HIT:        201  MISS:         16  HIT %:    92.6267  MISS %:    7.37327  MPKI: 0.00032
LLC LOAD DATA	ACCESS:      78191  HIT:      74785  MISS:       3406  HIT %:     95.644  MISS %:      4.356  MPKI: 0.06812
LLC RFO DATA	ACCESS:      52030  HIT:      39113  MISS:      12917  HIT %:    75.1739  MISS %:    24.8261  MPKI: 0.25834
LLC PREFETCH DATA	ACCESS:      72380  HIT:      62599  MISS:       9781  HIT %:    86.4866  MISS %:    13.5134  MPKI: 0.19562
LLC WRITEBACK DATA	ACCESS:      75746  HIT:      75480  MISS:        266  HIT %:    99.6488  MISS %:   0.351174  MPKI: 0.00532
LLC LOAD TRANSLATION DATA	ACCESS:       1398  HIT:       1329  MISS:         69  HIT %:    95.0644  MISS %:    4.93562  MPKI: 0.00138
LLC TRANSLATION FROM L1D PREFETCHER DATA	ACCESS:          9  HIT:          9  MISS:          0  HIT %:        100  MISS %:          0  MPKI: 0

LLC AVERAGE MISS LATENCY: 154.297 cycles
LLC RQ	ACCESS:     409042	FORWARD:          0	MERGED:          0	TO_CACHE:     409033
LLC WQ	ACCESS:      75746	FORWARD:         10	MERGED:          0	TO_CACHE:      75746
LLC PQ	ACCESS:      72381	FORWARD:          0	MERGED:          0	TO_CACHE:      72380

LLC Dense regions hint to LLC: 0

RAW hits: 1780727
Loads Generated: 12634096
Loads sent to L1D: 10853369
Stores Generated: 6959486
Stores sent to L1D: 6959500
Major fault: 0 Minor fault: 2564
Allocated PAGES: 2564

stream: 
stream:times selected: 1174780
stream:pref_filled: 121854
stream:pref_useful: 23797
stream:pref_late: 6954
stream:misses: 7966
stream:misses_by_poll: 0

CS: 
CS:times selected: 174775
CS:pref_filled: 59931
CS:pref_useful: 36925
CS:pref_late: 7170
CS:misses: 16243
CS:misses_by_poll: 3

CPLX: 
CPLX:times selected: 999009
CPLX:pref_filled: 19021
CPLX:pref_useful: 4433
CPLX:pref_late: 3086
CPLX:misses: 94596
CPLX:misses_by_poll: 1

NL_L1: 
NL:times selected: 20839
NL:pref_filled: 708
NL:pref_useful: 372
NL:pref_late: 279
NL:misses: 1710
NL:misses_by_poll: 0

total selections: 2369403
total_filled: 93316
total_useful: 33375
total_late: 18871
total_polluted: 4
total_misses_after_warmup: 778018
conflicts: 5632867

test: 116106

DRAM Statistics
 CHANNEL 0
 RQ ROW_BUFFER_HIT:       9948  ROW_BUFFER_MISS:      16944
 DBUS_CONGESTED:          5
 WQ ROW_BUFFER_HIT:       1247  ROW_BUFFER_MISS:      11681  FULL:          0

 AVG_CONGESTED_CYCLE: 6

CPU 0 Branch Prediction Accuracy: 99.8277% MPKI: 0.31548 Average ROB Occupancy at Mispredict: 138.715
Branch types
NOT_BRANCH: 40845563 81.6911%
BRANCH_DIRECT_JUMP: 548049 1.0961%
BRANCH_INDIRECT: 182320 0.36464%
BRANCH_CONDITIONAL: 6179016 12.358%
BRANCH_DIRECT_CALL: 949919 1.89984%
BRANCH_INDIRECT_CALL: 172450 0.3449%
BRANCH_RETURN: 1122361 2.24472%
BRANCH_OTHER: 0 0%

DRAM PAGES: 1048576
Allocated PAGES: 2564
Average_ROB_Occupancy: 128.733
Average_Decode_Occupancy: 15.4804
Average_FTQ_Occupancy: 7.1334
Indirect max targets: 14 Average targets: 1.14626
Branch_type:  BRANCH_DIRECT_JUMP:  Count Percentage: 2.87863 6.11382 4.39925 9.13359 1.69182 6.28895 0.976413 68.5175 
Branch_type:  BRANCH_INDIRECT:  Count Percentage: 11.756 3.42591 12.1686 7.97752 1.34242 1.20023 1.07996 61.0493 
Branch_type:  BRANCH_CONDITIONAL:  Count Percentage: 21.0876 3.59349 2.39948 5.53791 1.2072 4.57016 0.781628 60.8225 
Branch_type:  BRANCH_DIRECT_CALL:  Count Percentage: 0.256775 1.80255 1.4144 5.09574 2.15278 3.01345 0.774232 85.4901 
Branch_type:  BRANCH_INDIRECT_CALL:  Count Percentage: 9.55828 0.555893 2.99595 4.8374 0 4.01591 0 78.0366 
Branch_type:  BRANCH_RETURN:  Count Percentage: 3.65891 1.31396 2.89176 6.65045 2.86179 5.50668 1.41892 75.6975 
Branch_type:  BRANCH_DIRECT_JUMP:  Total Count: 31510 66923 48155 99978 18519 68840 10688 750006 
Branch_type:  BRANCH_INDIRECT:  Total Count: 42911 12505 44417 29119 4900 4381 3942 222838 
Branch_type:  BRANCH_CONDITIONAL:  Total Count: 2604530 443832 296360 683988 149102 564461 96539 7512199 
Branch_type:  BRANCH_DIRECT_CALL:  Total Count: 4863 34138 26787 96507 40771 57071 14663 1619077 
Branch_type:  BRANCH_INDIRECT_CALL:  Total Count: 32893 1913 10310 16647 0 13820 0 268548 
Branch_type:  BRANCH_RETURN:  Total Count: 81916 29417 64741 148891 64070 123284 31767 1694724 
Number of unique branch instructions: 9821
Upper 32 bits: 
aaaa
ffff
ffff0000
Unique upper 32 bits: 3
Unique upper 36 bits: 3
Unique upper 40 bits: 5
Unique upper 44 bits: 32
Unique upper 48 bits: 154
Variant_0 : 1085 0.264893
Variant_1 : 2372 0.579102
Variant_2 : 0 0
Variant_3 : 0 0
Offset_3 4036
Offset_4 250
Offset_5 451
Offset_6 502
Offset_7 573
Offset_8 505
Offset_9 462
Offset_10 378
Offset_11 305
Offset_12 271
Offset_13 199
Offset_14 227
Offset_15 193
Offset_16 222
Offset_17 142
Offset_18 118
Offset_19 234
Offset_20 136
Offset_21 235
Offset_22 391
Offset_23 243
Offset_24 324
Offset_25 88
Offset_47 80
decode_dispatch_called: 19977975 45.4788
Dispatch_width: 0 9926753 49.6885 22.5977
Dispatch_width: 1 558218 2.79417 1.27075
Dispatch_width: 2 640671 3.20689 1.45845
Dispatch_width: 3 410721 2.05587 0.934985
Dispatch_width: 4 1712301 8.57094 3.89796
Dispatch_width: 5 296976 1.48652 0.67605
Dispatch_width: 6 6432335 32.1971 14.6429
Empty_decode_cycles: 23950117 54.5212
ROB_full_cycles: 2537384 5.77622
Starvation_cycles_per_kilo_instr: 349.584
Starvation_cycles_per_kilo_instr_3: 329.491
Starvation_cycles_per_kilo_instr_0: 313.395
Branch_type_1  (3,1)  (4,11)  (5,37)  (6,69)  (7,112)  (8,130)  (9,122)  (10,97)  (11,68)  (12,43)  (13,5)  (14,2)  (15,3)  (16,4)  (18,1)  (19,4)  (20,2)  (21,1)  (22,3)  (23,2)  (24,10)  (25,12) 
Branch_type_2  (3,1)  (5,1)  (8,3)  (9,3)  (12,1)  (13,1)  (14,1)  (16,3)  (17,2)  (20,2)  (21,2)  (23,5)  (24,1)  (47,36) 
Branch_type_3  (3,4034)  (4,239)  (5,409)  (6,418)  (7,432)  (8,310)  (9,253)  (10,151)  (11,120)  (12,52)  (13,4) 
Branch_type_4  (6,3)  (7,8)  (8,26)  (9,51)  (10,62)  (11,59)  (12,96)  (13,86)  (14,100)  (15,91)  (16,99)  (17,63)  (18,53)  (19,115)  (20,71)  (21,124)  (22,208)  (23,137)  (24,185)  (25,72) 
Branch_type_5  (8,2)  (9,1)  (10,3)  (11,5)  (12,3)  (13,14)  (14,16)  (15,11)  (16,20)  (17,11)  (18,16)  (19,12)  (20,10)  (21,13)  (22,42)  (23,26)  (24,37) 
Branch_type_6  (5,4)  (6,12)  (7,21)  (8,34)  (9,32)  (10,65)  (11,53)  (12,76)  (13,89)  (14,108)  (15,88)  (16,96)  (17,66)  (18,48)  (19,103)  (20,51)  (21,95)  (22,138)  (23,73)  (24,91)  (25,4)  (47,44) 
Unique trigger count: 
Variant_0_evicts_0 : 0
Variant_0_evicts_1 : 0
Variant_0_evicts_2 : 0
Variant_0_evicts_3 : 0
Variant_1_evicts_0 : 0
Variant_1_evicts_1 : 0
Variant_1_evicts_2 : 0
Variant_1_evicts_3 : 0
Variant_2_evicts_0 : 0
Variant_2_evicts_1 : 0
Variant_2_evicts_2 : 0
Variant_2_evicts_3 : 0
Variant_3_evicts_0 : 0
Variant_3_evicts_1 : 0
Variant_3_evicts_2 : 0
Variant_3_evicts_3 : 0
BTB PER SET UNIQUE ADDR: 4 7 6 4 3 3 7 9 10 2 5 2 8 5 4 4 6 4 7 8 4 8 7 8 8 11 1 7 6 5 9 10 6 3 7 4 4 6 7 3 7 5 6 9 9 7 6 11 11 6 5 3 13 2 2 7 5 5 8 8 4 10 5 8 6 9 7 7 5 7 6 2 6 4 6 7 6 13 5 4 9 6 7 6 6 7 7 8 8 10 10 8 9 6 6 4 10 7 4 6 8 5 9 9 4 8 6 8 7 5 7 4 4 8 6 11 3 7 6 2 7 8 4 2 6 4 4 6 10 5 10 3 11 4 8 5 5 2 6 7 8 7 6 6 3 10 3 8 10 6 6 11 6 10 4 8 6 8 6 10 9 6 10 5 9 5 3 4 12 5 4 3 7 6 3 2 5 5 9 4 6 6 8 6 6 10 5 5 6 8 5 8 6 6 6 10 10 3 9 5 4 6 9 3 8 4 5 7 6 2 3 6 9 9 6 6 4 9 8 6 6 2 6 6 6 8 13 7 2 9 14 8 4 2 6 8 9 5 3 4 5 3 9 7 14 10 2 5 5 5 8 10 6 6 5 12 4 6 9 5 8 5 7 4 9 14 6 4 7 5 7 6 4 8 10 7 5 3 4 8 7 4 10 5 9 9 7 7 8 4 5 7 4 10 6 4 6 10 5 6 6 6 4 4 6 5 6 4 11 9 6 3 8 3 6 4 9 14 7 3 7 11 5 7 5 5 5 9 3 2 7 2 6 7 10 5 6 6 7 1 5 6 2 8 6 6 4 6 9 4 4 9 8 6 8 6 7 2 7 5 6 9 6 8 10 8 4 3 4 4 7 4 6 5 7 4 11 6 5 10 9 7 6 12 6 4 8 5 5 3 9 5 8 4 7 3 5 5 2 8 6 4 6 5 5 6 7 4 4 3 4 3 9 4 2 5 8 4 2 6 2 5 5 7 9 6 3 2 4 7 3 4 14 5 8 10 6 6 6 3 4 6 8 3 6 8 4 6 5 3 6 3 4 1 9 3 4 6 9 5 5 4 6 10 5 5 10 3 6 6 2 6 8 7 4 3 9 5 2 3 5 2 3 4 3 7 8 3 6 2 9 4 4 8 1 10 4 7 4 4 11 3 3 3 2 5 5 3 2 6 7 3 5 9 4 3 2 10 5 8 6 5 7 4 11 8 4 9 9 7 5 6 4 8 4 7 4 1 6 4 4 8 9 3 8 5 10 12 12 11 5 8 7 7 2 8 8 3 5 3 10 4 8 4 5 5 9 7 9 7 8 3 9 12 7 7 6 10 3 9 12 5 1 6 4 3 3 13 7 5 7 7 3 5 4 5 6 5 4 4 8 5 9 9 7 5 4 9 7 5 8 6 6 5 8 4 7 5 5 7 8 6 9 3 5 9 7 8 4 6 8 7 6 6 7 4 5 4 5 3 10 8 4 5 2 3 6 6 8 6 7 4 10 3 5 2 9 5 7 8 11 3 6 11 7 9 7 5 5 10 7 7 6 6 11 9 6 6 8 6 7 12 8 6 8 8 8 8 8 6 3 7 2 4 4 7 10 7 7 6 3 10 4 5 6 9 3 5 5 6 7 7 6 5 6 7 9 7 1 8 4 3 6 3 4 1 3 9 2 11 7 9 7 2 6 7 6 3 6 4 4 8 5 10 4 3 5 3 5 6 6 3 4 6 2 5 4 11 9 4 4 6 7 8 7 7 14 6 6 4 9 6 0 5 7 5 6 10 3 3 7 5 4 6 10 9 9 6 3 8 3 9 4 6 6 12 11 4 5 4 12 4 8 3 7 6 7 9 4 5 3 4 6 3 4 6 1 5 4 10 6 4 9 4 5 3 5 3 6 7 7 3 7 4 10 5 4 4 6 4 6 4 7 5 4 9 8 5 5 4 8 7 6 8 5 10 7 4 7 5 6 8 4 5 14 5 5 8 9 8 4 7 6 10 8 2 3 5 7 4 5 6 5 6 9 5 7 4 4 7 8 3 5 7 6 3 9 10 4 3 12 9 4 5 7 6 5 11 6 8 9 6 5 3 2 7 4 3 7 6 8 6 9 6 8 8 7 4 5 10 6 4 10 10 5 8 10 10 2 8 8 8 4 4 6 7 9 6 7 3 9 2 14 7 3 5 9 11 7 9 5 6 10 5 3 9 11 8 8 4 2 5 3 8 12 5 7 5 4 7 11 6 4 5 6 6 4 3 8 6 8 7 7 11 4 9 7 11 5 6 3 4 5 5 6 6 7 5 5 4 8 3 9 5 10 4 9 4 3 6 10 6 13 5 
BTB PER SET COUNT: 4 7 6 4 3 3 7 2092 5431 3 5 2 1450 5 4 4 6 4 46 2442 4 9 7 85 4944 2591 1 7 1479 5 4350 1042 1440 4 8 6 2951 6 7 3 26 5 6 2672 2524 7 6 4697 3885 6 5 5 10432 2 2 1440 5 5 969 1957 4 2899 5 37 6 1228 343 22 5 759 758 2 6 4 7 7 484 6836 5 4 944 6 1016 6 962 7 7 182 8060 2075 1702 538 2881 6 8 5 2698 7 4 6 22 5 23 3121 4 25 6 2063 1918 7 1917 5 4 1771 6 4639 3 7 6 2 7 27 4 2 963 5 4 6 7422 6 1956 3 8947 4 2925 5 5 2 6 1972 20 9 7 6 3 905 3 8 1247 2396 6 6756 6 10039 4 951 6 1918 6 1676 4738 6 4512 5 978 2989 3 4 7378 7 4 3 14 104 3 2 5 483 2385 4 6 6 5384 6 6 6901 5 5 2989 44 5 3525 6 6 6 41 1017 3 28 5 4 8 10 6 12 4 5 3816 6 2 3 6 107 12 6 7 4 479 9 6 6 2 6 6 7 1932 5440 3249 2 3928 8230 767 4 2 16 2424 2159 5 3 4 5 3 6337 7 6553 3188 2 5 5 5 17 3987 7 6 5 2752 4 6 1927 5 2396 5 7 4 2227 7019 1000 5 1928 5 1795 6 4 1919 980 760 5 3 4 2402 9 4 1250 5 2555 2878 7 508 26 4 5 7 482 2414 2872 8 7 3869 5 6 6 6 4 6 6 5 6 4 4261 1597 8 3 2115 3 6 7 966 3912 1919 3 9 1448 5 7 7 5 5 1298 4 2 2191 2 6 7 5513 5 1443 6 7 1 6 6 2 2329 962 1011 4 8 270 6 4 1056 8 1001 8 6 10 3 2262 36 8 517 7 1803 1068 1081 5 3 5 4 7 8 8 6 25 4 6316 7 5 2068 2402 2396 6 7391 6 4 44 5 6 3 1524 5 2397 6 7 5 1478 5 2 17 6 4 1440 5 770 6 2953 5 4 2862 4 3 1500 4 1474 5 134 4 3 1438 2 5 5 14 976 6 7 2 4 825 148 4 6592 5 1811 2110 8 6 6 3 4 6 1498 3 8 26 4 1956 5 3 6 3 4 1 1493 3 4 6 726 5 961 4 19 43 27 5 3761 3 6 6 2 23 1957 559 168 3 26051 5 2 3 5 2 3 482 3 96 1747 365 6 2 699 4 4 1273 1 3691 5 26 4 4 2868 7 3 3 2 5 5 4 2 6 20 3 5 24 4 3 2 11273 5 1396 6 1478 7 824 147 1920 4 969 990 21 5 6 4 19 4 964 4 1 8 4 4 1920 40 4 28 5 53 2235 3893 7666 5 4019 9 8 2 11 1003 3 5 3 5418 4 1926 4 5 7 982 11 1919 30 3509 3 2532 5363 1442 1442 6 5344 4 4780 10155 35 1 1916 1478 3 4 6333 19 5 7 2394 3 1001 1991 6 6 5 4 4 1961 7 4781 1196 8 2876 4 2875 7 5 2879 8 6 5 8 4 2598 5 5 7 12 943 4363 3 1791 973 28 1931 8 1439 1443 1480 6 6 7 4 5 4 5 3 7381 772 4 5 2 3 7 6 654 7 7 4 8376 3 5 2 972 5 1441 2874 12638 4 6 6348 7 1447 2963 962 24 1925 963 7 6 8 6585 3000 484 7 2471 7 7 6780 24 962 17681 1454 31 4357 1491 6 3 1203 2 5 4 10 6857 7 8 65 3 2581 4 5 320 4134 3 1478 5 1480 226 7 8 5 962 7 2242 1145 1 1921 4 3 6 3 4 1 3 1050 2 6371 1441 3951 1003 2 7 7 6 4 6 4 4 518 5 8390 4 4 961 3 5 962 6 3 4 516 2 5 4 2456 6451 998 4 6 1004 114 3035 7 9434 6 12 4 280 6 0 183 7 1479 6 2406 3 3 2398 5 4 6 1895 1826 1067 14 412 966 3 1724 4 8 404 6984 2989 4 5 4 4824 5 1728 3 1934 2475 7 25 4 7 3 4 6 520 6 7 2 5 5 3191 7 4 516 677 5 3 999 3 1439 130 759 3 508 4 7826 7 4 4 6 4 485 4 7 1481 4 38 1323 5 5 4 3357 1489 7 10 5 9875 37 4 1441 9 6 9 4 10 8991 1058 7 1931 3354 8 4 8 6 1423 8 2 4 5 8 4 5 6 5 6 2980 7 1443 4 4 7 8 3 5 11 6 3 31 4177 4 3 4973 1800 159 39 771 6 5 3534 6 9 1916 6 5 3 2 7 4 959 4788 1916 36 6 1931 8 1761 1541 8 4 5 1114 6 483 3878 2011 5 969 4882 2889 2 3352 18 14 4 998 6 1442 20 241 7 3 3886 2 7051 7 4 5 1971 8301 19 3353 5 485 7339 5 3 797 57 767 42 4 2 5 3 360 2445 5 1002 5 4 7 2696 6 482 5 6 7 4 3 20 6 2860 9 2397 2947 4 3357 81 5292 10 6 3 4 5 6 11 6 1918 7 5 4 2890 3 7447 357 3171 4 968 5 3 6 1520 8 3411 5 
To predecode: 0
Predecoding something: 0
Predecode request dropped: 0
sizeofblock_0 0
sizeofblock_1 221481
sizeofblock_2 345549
sizeofblock_3 0
sizeofblock_4 0
sizeofblock_5 0
sizeofblock_6 0
sizeofblock_7 0
sizeofblock_8 0
Variant_0 Correct: 0 Incorrect: 0 Accuracy: -nan
Variant_1 Correct: 0 Incorrect: 0 Accuracy: -nan
Variant_2 Correct: 0 Incorrect: 0 Accuracy: -nan
Variant_3 Correct: 0 Incorrect: 0 Accuracy: -nan
