
*** ChampSim Multicore Out-of-Order Simulator ***

Warmup Instructions: 50000000
Simulation Instructions: 50000000
Number of CPUs: 1
LLC sets: 2048
LLC ways: 16
Off-chip DRAM Size: 4096 MB Channels: 1 Width: 64-bit Data Rate: 6400 MT/s
CPU 0 runs ./micro_traces/srv79.trace.gz
.gz
ITLB has LRU replacement policy
DTLB has LRU replacement policy
STLB has LRU replacement policy
FDIP Prefetcher at L1I
L1I has LRU replacement policy
L1D has LRU replacement policy
Initialize SRRIP state for L2C
Initialize DRRIP state for LLC
Heartbeat_Variant_0 : 1070 0.26123 per_variant_size: 0 1070 0 0 0 0 0 0 0 
Heartbeat_Variant_1 : 1248 0.304688 per_variant_size: 0 850 398 0 0 0 0 0 0 
Heartbeat_Variant_2 : 1544 0.376953 per_variant_size: 0 858 474 141 71 0 0 0 0 
Heartbeat_Variant_3 : 0 0 per_variant_size: 0 0 0 0 0 0 0 0 0 
Heartbeat_Variant_0_evicts 0 : 13111 1 : 9083 2 : 11088 3 : 0 
Heartbeat_Variant_1_evicts 0 : 8987 1 : 0 2 : 10962 3 : 0 
Heartbeat_Variant_2_evicts 0 : 11162 1 : 10851 2 : 0 3 : 0 
Heartbeat_Variant_3_evicts 0 : 0 1 : 0 2 : 0 3 : 0 
Heartbeat CPU 0 instructions: 10000003 cycles: 2789612 heartbeat IPC: 3.58473 cumulative IPC: 3.58473 (Simulation time: 0 hr 2 min 4 sec) 
Heartbeat_Variant_0 : 1082 0.26416 per_variant_size: 0 1082 0 0 0 0 0 0 0 
Heartbeat_Variant_1 : 1239 0.30249 per_variant_size: 0 830 409 0 0 0 0 0 0 
Heartbeat_Variant_2 : 1549 0.378174 per_variant_size: 0 869 466 139 75 0 0 0 0 
Heartbeat_Variant_3 : 0 0 per_variant_size: 0 0 0 0 0 0 0 0 0 
Heartbeat_Variant_0_evicts 0 : 12790 1 : 8312 2 : 10204 3 : 0 
Heartbeat_Variant_1_evicts 0 : 8315 1 : 0 2 : 9829 3 : 0 
Heartbeat_Variant_2_evicts 0 : 10191 1 : 9843 2 : 0 3 : 0 
Heartbeat_Variant_3_evicts 0 : 0 1 : 0 2 : 0 3 : 0 
Heartbeat CPU 0 instructions: 20000003 cycles: 5580187 heartbeat IPC: 3.58349 cumulative IPC: 3.58411 (Simulation time: 0 hr 4 min 14 sec) 
Heartbeat_Variant_0 : 1088 0.265625 per_variant_size: 0 1088 0 0 0 0 0 0 0 
Heartbeat_Variant_1 : 1234 0.30127 per_variant_size: 0 828 406 0 0 0 0 0 0 
Heartbeat_Variant_2 : 1560 0.380859 per_variant_size: 0 881 469 145 65 0 0 0 0 
Heartbeat_Variant_3 : 0 0 per_variant_size: 0 0 0 0 0 0 0 0 0 
Heartbeat_Variant_0_evicts 0 : 12555 1 : 8310 2 : 9841 3 : 0 
Heartbeat_Variant_1_evicts 0 : 8272 1 : 0 2 : 9546 3 : 0 
Heartbeat_Variant_2_evicts 0 : 9876 1 : 9516 2 : 0 3 : 0 
Heartbeat_Variant_3_evicts 0 : 0 1 : 0 2 : 0 3 : 0 
Heartbeat CPU 0 instructions: 30000001 cycles: 8371447 heartbeat IPC: 3.58261 cumulative IPC: 3.58361 (Simulation time: 0 hr 6 min 11 sec) 
Heartbeat_Variant_0 : 1071 0.261475 per_variant_size: 0 1071 0 0 0 0 0 0 0 
Heartbeat_Variant_1 : 1243 0.303467 per_variant_size: 0 834 409 0 0 0 0 0 0 
Heartbeat_Variant_2 : 1569 0.383057 per_variant_size: 0 876 467 162 64 0 0 0 0 
Heartbeat_Variant_3 : 0 0 per_variant_size: 0 0 0 0 0 0 0 0 0 
Heartbeat_Variant_0_evicts 0 : 12716 1 : 8488 2 : 10569 3 : 0 
Heartbeat_Variant_1_evicts 0 : 8454 1 : 0 2 : 10129 3 : 0 
Heartbeat_Variant_2_evicts 0 : 10620 1 : 10086 2 : 0 3 : 0 
Heartbeat_Variant_3_evicts 0 : 0 1 : 0 2 : 0 3 : 0 
Heartbeat CPU 0 instructions: 40000003 cycles: 11160919 heartbeat IPC: 3.58491 cumulative IPC: 3.58393 (Simulation time: 0 hr 8 min 9 sec) 
Heartbeat_Variant_0 : 1085 0.264893 per_variant_size: 0 1085 0 0 0 0 0 0 0 
Heartbeat_Variant_1 : 1247 0.304443 per_variant_size: 0 842 405 0 0 0 0 0 0 
Heartbeat_Variant_2 : 1556 0.379883 per_variant_size: 0 888 438 161 69 0 0 0 0 
Heartbeat_Variant_3 : 0 0 per_variant_size: 0 0 0 0 0 0 0 0 0 
Heartbeat_Variant_0_evicts 0 : 12782 1 : 8659 2 : 10597 3 : 0 
Heartbeat_Variant_1_evicts 0 : 8577 1 : 0 2 : 10233 3 : 0 
Heartbeat_Variant_2_evicts 0 : 10665 1 : 10150 2 : 0 3 : 0 
Heartbeat_Variant_3_evicts 0 : 0 1 : 0 2 : 0 3 : 0 
Heartbeat CPU 0 instructions: 50000000 cycles: 13949420 heartbeat IPC: 3.58616 cumulative IPC: 3.58438 (Simulation time: 0 hr 10 min 16 sec) 

Warmup complete CPU 0 instructions: 50000004 cycles: 13949421 (Simulation time: 0 hr 10 min 16 sec) 

Cycle: 20000000 FTQ IN: 56719375 FTQ occupancy: 17.9789 DECODE IN: 56719367 DECODE occupancy: 46.0107 ROB IN: 56719367 ROB occupancy: 278.414 ROB OUT: 56719366
Heartbeat_Variant_0 : 1076 0.262695 per_variant_size: 0 1076 0 0 0 0 0 0 0 
Heartbeat_Variant_1 : 1264 0.308594 per_variant_size: 0 871 393 0 0 0 0 0 0 
Heartbeat_Variant_2 : 1552 0.378906 per_variant_size: 0 875 447 161 69 0 0 0 0 
Heartbeat_Variant_3 : 0 0 per_variant_size: 0 0 0 0 0 0 0 0 0 
Heartbeat_Variant_0_evicts 0 : 13458 1 : 8674 2 : 10749 3 : 0 
Heartbeat_Variant_1_evicts 0 : 8627 1 : 0 2 : 10338 3 : 0 
Heartbeat_Variant_2_evicts 0 : 10805 1 : 10276 2 : 0 3 : 0 
Heartbeat_Variant_3_evicts 0 : 0 1 : 0 2 : 0 3 : 0 
Heartbeat CPU 0 instructions: 60000002 cycles: 22874940 heartbeat IPC: 1.12038 cumulative IPC: 1.12038 (Simulation time: 0 hr 12 min 23 sec) 
Cycle: 30000000 FTQ IN: 11338064 FTQ occupancy: 6.90181 DECODE IN: 11338059 DECODE occupancy: 15.0277 ROB IN: 11338030 ROB occupancy: 125.386 ROB OUT: 11337908
Heartbeat_Variant_0 : 1081 0.263916 per_variant_size: 0 1081 0 0 0 0 0 0 0 
Heartbeat_Variant_1 : 1269 0.309814 per_variant_size: 0 865 404 0 0 0 0 0 0 
Heartbeat_Variant_2 : 1544 0.376953 per_variant_size: 0 854 469 154 67 0 0 0 0 
Heartbeat_Variant_3 : 0 0 per_variant_size: 0 0 0 0 0 0 0 0 0 
Heartbeat_Variant_0_evicts 0 : 12872 1 : 8374 2 : 10178 3 : 0 
Heartbeat_Variant_1_evicts 0 : 8354 1 : 0 2 : 9933 3 : 0 
Heartbeat_Variant_2_evicts 0 : 10193 1 : 9909 2 : 0 3 : 0 
Heartbeat_Variant_3_evicts 0 : 0 1 : 0 2 : 0 3 : 0 
Heartbeat CPU 0 instructions: 70000003 cycles: 31712443 heartbeat IPC: 1.13154 cumulative IPC: 1.12593 (Simulation time: 0 hr 14 min 17 sec) 
Cycle: 40000000 FTQ IN: 11422011 FTQ occupancy: 6.69053 DECODE IN: 11421967 DECODE occupancy: 14.6596 ROB IN: 11421996 ROB occupancy: 123.679 ROB OUT: 11422102
Heartbeat_Variant_0 : 1078 0.263184 per_variant_size: 0 1078 0 0 0 0 0 0 0 
Heartbeat_Variant_1 : 1258 0.307129 per_variant_size: 0 843 415 0 0 0 0 0 0 
Heartbeat_Variant_2 : 1561 0.381104 per_variant_size: 0 858 473 163 67 0 0 0 0 
Heartbeat_Variant_3 : 0 0 per_variant_size: 0 0 0 0 0 0 0 0 0 
Heartbeat_Variant_0_evicts 0 : 12602 1 : 8266 2 : 10466 3 : 0 
Heartbeat_Variant_1_evicts 0 : 8236 1 : 0 2 : 10045 3 : 0 
Heartbeat_Variant_2_evicts 0 : 10500 1 : 10027 2 : 0 3 : 0 
Heartbeat_Variant_3_evicts 0 : 0 1 : 0 2 : 0 3 : 0 
Heartbeat CPU 0 instructions: 80000002 cycles: 40549870 heartbeat IPC: 1.13155 cumulative IPC: 1.1278 (Simulation time: 0 hr 16 min 10 sec) 
Heartbeat_Variant_0 : 1075 0.262451 per_variant_size: 0 1075 0 0 0 0 0 0 0 
Heartbeat_Variant_1 : 1272 0.310547 per_variant_size: 0 868 404 0 0 0 0 0 0 
Heartbeat_Variant_2 : 1550 0.378418 per_variant_size: 0 866 452 162 70 0 0 0 0 
Heartbeat_Variant_3 : 0 0 per_variant_size: 0 0 0 0 0 0 0 0 0 
Heartbeat_Variant_0_evicts 0 : 12595 1 : 8439 2 : 10282 3 : 0 
Heartbeat_Variant_1_evicts 0 : 8454 1 : 0 2 : 9974 3 : 0 
Heartbeat_Variant_2_evicts 0 : 10270 1 : 9975 2 : 0 3 : 0 
Heartbeat_Variant_3_evicts 0 : 0 1 : 0 2 : 0 3 : 0 
Heartbeat CPU 0 instructions: 90000003 cycles: 49267811 heartbeat IPC: 1.14706 cumulative IPC: 1.13255 (Simulation time: 0 hr 18 min 1 sec) 
Cycle: 50000000 FTQ IN: 11362121 FTQ occupancy: 6.89507 DECODE IN: 11362112 DECODE occupancy: 15.146 ROB IN: 11362112 ROB occupancy: 125.762 ROB OUT: 11362083
Heartbeat_Variant_0 : 1090 0.266113 per_variant_size: 0 1090 0 0 0 0 0 0 0 
Heartbeat_Variant_1 : 1241 0.302979 per_variant_size: 0 832 409 0 0 0 0 0 0 
Heartbeat_Variant_2 : 1568 0.382812 per_variant_size: 0 870 462 162 74 0 0 0 0 
Heartbeat_Variant_3 : 0 0 per_variant_size: 0 0 0 0 0 0 0 0 0 
Heartbeat_Variant_0_evicts 0 : 12924 1 : 8806 2 : 10377 3 : 0 
Heartbeat_Variant_1_evicts 0 : 8840 1 : 0 2 : 10225 3 : 0 
Heartbeat_Variant_2_evicts 0 : 10328 1 : 10291 2 : 0 3 : 0 
Heartbeat_Variant_3_evicts 0 : 0 1 : 0 2 : 0 3 : 0 
Heartbeat CPU 0 instructions: 100000003 cycles: 58220277 heartbeat IPC: 1.11701 cumulative IPC: 1.12941 (Simulation time: 0 hr 19 min 22 sec) 
Finished CPU 0 instructions: 50000001 cycles: 44270857 cumulative IPC: 1.12941 (Simulation time: 0 hr 19 min 22 sec) 

ChampSim completed all CPUs

Region of Interest Statistics

CPU 0 cumulative IPC: 1.12941 instructions: 50000001 cycles: 44270857
 Fetch stage stalled: 70.033  Sim cycles: 44270857 fetch stall cycle: 31004202
 Empty decode stage: 61.4519  Sim cycles: 44270857 fetch stall cycle: 27205291
ITLB TOTAL     ACCESS:    5739426  HIT:    5295702  MISS:     443724  HIT %:    92.2688  MISS %:    7.73116   MPKI: 8.87448
ITLB LOAD TRANSLATION INSTRUCTION	ACCESS:    5621826  HIT:    5178102  MISS:     443724  HIT %:    92.1071  MISS %:    7.89288  MPKI: 8.87448
ITLB TRANSLATION FROM L1D PREFETCHER INSTRUCTION	ACCESS:     117600  HIT:     117600  MISS:          0  HIT %:        100  MISS %:          0  MPKI: 0

ITLB AVERAGE MISS LATENCY: 9.06193 cycles
ITLB RQ	ACCESS:    7449419	FORWARD:          0	MERGED:    1313510	TO_CACHE:    6135909

DTLB TOTAL     ACCESS:    9190151  HIT:    8725111  MISS:     465040  HIT %:    94.9398  MISS %:     5.0602   MPKI: 9.3008
DTLB LOAD TRANSLATION DATA	ACCESS:    9190151  HIT:    8725111  MISS:     465040  HIT %:    94.9398  MISS %:     5.0602  MPKI: 9.3008

DTLB AVERAGE MISS LATENCY: 9.40664 cycles
DTLB RQ	ACCESS:   13411374	FORWARD:          0	MERGED:    4185955	TO_CACHE:    9225419

STLB TOTAL     ACCESS:    1210235  HIT:    1207373  MISS:       2862  HIT %:    99.7635  MISS %:   0.236483   MPKI: 0.05724
STLB LOAD TRANSLATION INSTRUCTION	ACCESS:     443724  HIT:     443281  MISS:        443  HIT %:    99.9002  MISS %:  0.0998368  MPKI: 0.00886
STLB LOAD TRANSLATION DATA	ACCESS:     464754  HIT:     462366  MISS:       2388  HIT %:    99.4862  MISS %:    0.51382  MPKI: 0.04776
STLB TRANSLATION FROM L1D PREFETCHER DATA	ACCESS:     301757  HIT:     301726  MISS:         31  HIT %:    99.9897  MISS %:  0.0102732  MPKI: 0.00062

STLB AVERAGE MISS LATENCY: 67.4078 cycles
STLB RQ	ACCESS:    1384977	FORWARD:          0	MERGED:     174664	TO_CACHE:    1210313

STLB Hit, L1D data hit: 0
STLB Hit, L2C data hit: 0
STLB Hit, LLC data hit: 0
STLB Hit, LLC data miss: 0
STLB STLB hints to L2: 0
L1D TOTAL     ACCESS:   13275004  HIT:   12189249  MISS:    1085755  HIT %:    91.8211  MISS %:    8.17894   MPKI: 21.7151
L1D LOAD DATA	ACCESS:    6771265  HIT:    6070456  MISS:     700809  HIT %:    89.6502  MISS %:    10.3498  MPKI: 14.0162
L1D RFO DATA	ACCESS:    6105167  HIT:    5829596  MISS:     275571  HIT %:    95.4863  MISS %:    4.51373  MPKI: 5.51142
L1D PREFETCH DATA	ACCESS:     398572  HIT:     289197  MISS:     109375  HIT %:    72.5583  MISS %:    27.4417  MPKI: 2.1875

L1D PREFETCH  REQUESTED:     952690  ISSUED:     952690  USEFUL:      56228  USELESS:      71241
L1D USEFUL LOAD PREFETCHES:      56228 PREFETCH ISSUED TO LOWER LEVEL:     127554  ACCURACY: 44.0817
 TIMELY PREFETCHES:      56228 LATE PREFETCHES: 18095 DROPPED PREFETCHES: 40
L1D AVERAGE MISS LATENCY: 605803 cycles
L1D RQ	ACCESS:   10821599	FORWARD:          0	MERGED:    3863054	TO_CACHE:    6807135
L1D WQ	ACCESS:    6762968	FORWARD:     151674	MERGED:     158729	TO_CACHE:    6604239
L1D PQ	ACCESS:     476477	FORWARD:          0	MERGED:          0	TO_CACHE:     476213

L1D UNIQUE REGIONS ACCESSED: 0
L1D REGIONS CONFLICTS: 0
L1D Cross Page Prefetch Requests: 10614
L1D Same Page Prefetch Requests: 956588
L1D ROI Sum of L1D PQ occupancy: 6045052
L1D PREFETCHES PUSHED FROM L2C: 0
L1I TOTAL     ACCESS:    6961299  HIT:    4461699  MISS:    2499600  HIT %:    64.0929  MISS %:    35.9071   MPKI: 49.992
L1I LOAD INSTRUCTION	ACCESS:    6426928  HIT:    3927328  MISS:    2499600  HIT %:    61.1074  MISS %:    38.8926  MPKI: 49.992
L1I PREFETCH INSTRUCTION	ACCESS:     534371  HIT:     534371  MISS:          0  HIT %:        100  MISS %:          0  MPKI: 0

L1I PREFETCH  REQUESTED:    1128062  ISSUED:    1128062  USEFUL:          0  USELESS:          0
L1I USEFUL LOAD PREFETCHES:          0 PREFETCH ISSUED TO LOWER LEVEL:          0  ACCURACY: -nan
 TIMELY PREFETCHES:          0 LATE PREFETCHES: 0 DROPPED PREFETCHES: 0
L1I AVERAGE MISS LATENCY: 17.4543 cycles
L1I RQ	ACCESS:    9419944	FORWARD:          0	MERGED:    2767163	TO_CACHE:    6652781
L1I PQ	ACCESS:    1128062	FORWARD:          0	MERGED:     331424	TO_CACHE:     796638

L1BTB TOTAL     ACCESS:    5848397  HIT:    2467182  MISS:    3381215  HIT %:    42.1856  MISS %:    57.8144   MPKI: 67.6243
L1BTB BRANCH_DIRECT_JUMP	ACCESS:     590733  HIT:     199710  MISS:     391023	AVERAGE STALL: 36.2806
L1BTB BRANCH_INDIRECT	ACCESS:     172946  HIT:      57162  MISS:     115784	AVERAGE STALL: 90.9746
L1BTB BRANCH_CONDITIONAL	ACCESS:    3000671  HIT:    1794368  MISS:    1206303	AVERAGE STALL: 37.5861
L1BTB BRANCH_DIRECT_CALL	ACCESS:     882989  HIT:     107924  MISS:     775065	AVERAGE STALL: 37.4693
L1BTB BRANCH_INDIRECT_CALL	ACCESS:     159039  HIT:      20139  MISS:     138900	AVERAGE STALL: 109.729
L1BTB BRANCH_RETURN	ACCESS:    1042019  HIT:     287879  MISS:     754140	AVERAGE STALL: 37.4238
L1BTB BRANCH_OTHER ACCESS:          0  HIT:          0  MISS:          0	AVERAGE STALL: -nan
L1BTB TOTAL ROB OCCUPANCY AT BTB MISS: 12.5265

L2BTB TOTAL     ACCESS:    3355865  HIT:    2932526  MISS:     423339  HIT %:    87.3851  MISS %:    12.6149   MPKI: 8.46678
L2BTB BRANCH_DIRECT_JUMP	ACCESS:     385921  HIT:     341877  MISS:      44044	AVERAGE STALL: 36.2806
L2BTB BRANCH_INDIRECT	ACCESS:     105980  HIT:      98596  MISS:       7384	AVERAGE STALL: 90.9746
L2BTB BRANCH_CONDITIONAL	ACCESS:    1206303  HIT:    1082457  MISS:     123846	AVERAGE STALL: 37.5861
L2BTB BRANCH_DIRECT_CALL	ACCESS:     775065  HIT:     636427  MISS:     138638	AVERAGE STALL: 37.4693
L2BTB BRANCH_INDIRECT_CALL	ACCESS:     129464  HIT:      99314  MISS:      30150	AVERAGE STALL: 109.729
L2BTB BRANCH_RETURN	ACCESS:     753132  HIT:     673855  MISS:      79277	AVERAGE STALL: 37.4238
L2BTB BRANCH_OTHER ACCESS:          0  HIT:          0  MISS:          0	AVERAGE STALL: -nan
L2BTB TOTAL ROB OCCUPANCY AT BTB MISS: 100.049

L2C TOTAL     ACCESS:    4152797  HIT:    3644427  MISS:     508370  HIT %:    87.7584  MISS %:    12.2416   MPKI: 10.1674
L2C LOAD INSTRUCTION	ACCESS:    2499602  HIT:    2244560  MISS:     255042  HIT %:    89.7967  MISS %:    10.2033  MPKI: 5.10084
L2C LOAD TRANSLATION INSTRUCTION	ACCESS:        517  HIT:        243  MISS:        274  HIT %:    47.0019  MISS %:    52.9981  MPKI: 0.00548
L2C LOAD DATA	ACCESS:     682496  HIT:     594343  MISS:      88153  HIT %:    87.0837  MISS %:    12.9163  MPKI: 1.76306
L2C RFO DATA	ACCESS:     275469  HIT:     215291  MISS:      60178  HIT %:    78.1543  MISS %:    21.8457  MPKI: 1.20356
L2C PREFETCH DATA	ACCESS:     212619  HIT:     124107  MISS:      88512  HIT %:    58.3706  MISS %:    41.6294  MPKI: 1.77024
L2C WRITEBACK DATA	ACCESS:     479371  HIT:     465130  MISS:      14241  HIT %:    97.0292  MISS %:    2.97077  MPKI: 0.28482
L2C LOAD TRANSLATION DATA	ACCESS:       2635  HIT:        714  MISS:       1921  HIT %:    27.0968  MISS %:    72.9032  MPKI: 0.03842
L2C TRANSLATION FROM L1D PREFETCHER DATA	ACCESS:         88  HIT:         39  MISS:         49  HIT %:    44.3182  MISS %:    55.6818  MPKI: 0.00098

L2C PREFETCH  REQUESTED:      93349  ISSUED:      93349  USEFUL:       9987  USELESS:      78924
L2C USEFUL LOAD PREFETCHES:       9987 PREFETCH ISSUED TO LOWER LEVEL:      88912  ACCURACY: 11.2325
 TIMELY PREFETCHES:       9987 LATE PREFETCHES: 400 DROPPED PREFETCHES: 0
L2C AVERAGE MISS LATENCY: 41.4832 cycles
L2C RQ	ACCESS:    3461045	FORWARD:          0	MERGED:          0	TO_CACHE:    3460810
L2C WQ	ACCESS:     479371	FORWARD:        236	MERGED:          0	TO_CACHE:     479371
L2C PQ	ACCESS:     220903	FORWARD:          0	MERGED:       3376	TO_CACHE:     217526

L2C Dense regions hint from L2: 0
PSCL5 TOTAL     ACCESS:       5806  HIT:       2903  MISS:       2903  HIT %:         50  MISS %:         50   MPKI: 0.05806
PSCL5 LOAD TRANSLATION INSTRUCTION	ACCESS:       5646  HIT:       2823  MISS:       2823  HIT %:         50  MISS %:         50  MPKI: 0.05646
PSCL5 TRANSLATION FROM L1D PREFETCHER INSTRUCTION	ACCESS:        160  HIT:         80  MISS:         80  HIT %:         50  MISS %:         50  MPKI: 0.0016


PSCL4 TOTAL     ACCESS:       5383  HIT:       2684  MISS:       2699  HIT %:    49.8607  MISS %:    50.1393   MPKI: 0.05398
PSCL4 LOAD TRANSLATION INSTRUCTION	ACCESS:       2762  HIT:       2605  MISS:        157  HIT %:    94.3157  MISS %:    5.68429  MPKI: 0.00314
PSCL4 TRANSLATION FROM L1D PREFETCHER INSTRUCTION	ACCESS:         79  HIT:         79  MISS:          0  HIT %:        100  MISS %:          0  MPKI: 0
PSCL4 LOAD TRANSLATION DATA	ACCESS:       2463  HIT:          0  MISS:       2463  HIT %:          0  MISS %:        100  MPKI: 0.04926
PSCL4 TRANSLATION FROM L1D PREFETCHER DATA	ACCESS:         79  HIT:          0  MISS:         79  HIT %:          0  MISS %:        100  MPKI: 0.00158


PSCL3 TOTAL     ACCESS:       5683  HIT:       2834  MISS:       2849  HIT %:     49.868  MISS %:     50.132   MPKI: 0.05698
PSCL3 LOAD TRANSLATION INSTRUCTION	ACCESS:       2912  HIT:       2755  MISS:        157  HIT %:    94.6085  MISS %:    5.39148  MPKI: 0.00314
PSCL3 TRANSLATION FROM L1D PREFETCHER INSTRUCTION	ACCESS:         79  HIT:         79  MISS:          0  HIT %:        100  MISS %:          0  MPKI: 0
PSCL3 LOAD TRANSLATION DATA	ACCESS:       2613  HIT:          0  MISS:       2613  HIT %:          0  MISS %:        100  MPKI: 0.05226
PSCL3 TRANSLATION FROM L1D PREFETCHER DATA	ACCESS:         79  HIT:          0  MISS:         79  HIT %:          0  MISS %:        100  MPKI: 0.00158


PSCL2 TOTAL     ACCESS:       5492  HIT:       2595  MISS:       2897  HIT %:    47.2505  MISS %:    52.7495   MPKI: 0.05794
PSCL2 LOAD TRANSLATION INSTRUCTION	ACCESS:       2965  HIT:       2523  MISS:        442  HIT %:    85.0927  MISS %:    14.9073  MPKI: 0.00884
PSCL2 TRANSLATION FROM L1D PREFETCHER INSTRUCTION	ACCESS:         72  HIT:         72  MISS:          0  HIT %:        100  MISS %:          0  MPKI: 0
PSCL2 LOAD TRANSLATION DATA	ACCESS:       2383  HIT:          0  MISS:       2383  HIT %:          0  MISS %:        100  MPKI: 0.04766
PSCL2 TRANSLATION FROM L1D PREFETCHER DATA	ACCESS:         72  HIT:          0  MISS:         72  HIT %:          0  MISS %:        100  MPKI: 0.00144


LLC TOTAL     ACCESS:     579121  HIT:     540071  MISS:      39050  HIT %:     93.257  MISS %:    6.74298   MPKI: 0.781
LLC LOAD INSTRUCTION	ACCESS:     255042  HIT:     253763  MISS:       1279  HIT %:    99.4985  MISS %:   0.501486  MPKI: 0.02558
LLC LOAD TRANSLATION INSTRUCTION	ACCESS:        274  HIT:        241  MISS:         33  HIT %:    87.9562  MISS %:    12.0438  MPKI: 0.00066
LLC LOAD DATA	ACCESS:      87772  HIT:      82926  MISS:       4846  HIT %:    94.4789  MISS %:    5.52112  MPKI: 0.09692
LLC RFO DATA	ACCESS:      60154  HIT:      41201  MISS:      18953  HIT %:    68.4925  MISS %:    31.5075  MPKI: 0.37906
LLC PREFETCH DATA	ACCESS:      88909  HIT:      75488  MISS:      13421  HIT %:    84.9048  MISS %:    15.0952  MPKI: 0.26842
LLC WRITEBACK DATA	ACCESS:      85000  HIT:      84612  MISS:        388  HIT %:    99.5435  MISS %:   0.456471  MPKI: 0.00776
LLC LOAD TRANSLATION DATA	ACCESS:       1921  HIT:       1794  MISS:        127  HIT %:    93.3889  MISS %:    6.61114  MPKI: 0.00254
LLC TRANSLATION FROM L1D PREFETCHER DATA	ACCESS:         49  HIT:         46  MISS:          3  HIT %:    93.8776  MISS %:    6.12245  MPKI: 6e-05

LLC AVERAGE MISS LATENCY: 159.42 cycles
LLC RQ	ACCESS:     405217	FORWARD:          0	MERGED:          0	TO_CACHE:     405212
LLC WQ	ACCESS:      85000	FORWARD:          8	MERGED:          0	TO_CACHE:      85000
LLC PQ	ACCESS:      88912	FORWARD:          0	MERGED:          0	TO_CACHE:      88909

LLC Dense regions hint to LLC: 0

RAW hits: 1631182
Loads Generated: 12452783
Loads sent to L1D: 10821599
Stores Generated: 6762961
Stores sent to L1D: 6762968
Major fault: 0 Minor fault: 2610
Allocated PAGES: 2610

stream: 
stream:times selected: 1488885
stream:pref_filled: 128696
stream:pref_useful: 30506
stream:pref_late: 10635
stream:misses: 13159
stream:misses_by_poll: 0

CS: 
CS:times selected: 236835
CS:pref_filled: 86992
CS:pref_useful: 62300
CS:pref_late: 10882
CS:misses: 29051
CS:misses_by_poll: 4

CPLX: 
CPLX:times selected: 1249913
CPLX:pref_filled: 28868
CPLX:pref_useful: 9436
CPLX:pref_late: 5126
CPLX:misses: 150026
CPLX:misses_by_poll: 8

NL_L1: 
NL:times selected: 29025
NL:pref_filled: 2154
NL:pref_useful: 1086
NL:pref_late: 627
NL:misses: 3897
NL:misses_by_poll: 0

total selections: 3004658
total_filled: 109375
total_useful: 56228
total_late: 30567
total_polluted: 12
total_misses_after_warmup: 736680
conflicts: 5343811

test: 175362

DRAM Statistics
 CHANNEL 0
 RQ ROW_BUFFER_HIT:      13775  ROW_BUFFER_MISS:      24885
 DBUS_CONGESTED:          8
 WQ ROW_BUFFER_HIT:       2159  ROW_BUFFER_MISS:      18543  FULL:          0

 AVG_CONGESTED_CYCLE: 5

CPU 0 Branch Prediction Accuracy: 99.7585% MPKI: 0.44248 Average ROB Occupancy at Mispredict: 135.112
Branch types
NOT_BRANCH: 40840191 81.6804%
BRANCH_DIRECT_JUMP: 590733 1.18147%
BRANCH_INDIRECT: 172946 0.345892%
BRANCH_CONDITIONAL: 6311806 12.6236%
BRANCH_DIRECT_CALL: 882989 1.76598%
BRANCH_INDIRECT_CALL: 159039 0.318078%
BRANCH_RETURN: 1042019 2.08404%
BRANCH_OTHER: 0 0%

DRAM PAGES: 1048576
Allocated PAGES: 2610
Average_ROB_Occupancy: 124.324
Average_Decode_Occupancy: 14.7308
Average_FTQ_Occupancy: 6.77536
Indirect max targets: 14 Average targets: 1.17197
Branch_type:  BRANCH_DIRECT_JUMP:  Count Percentage: 10.3882 5.72464 3.62127 9.64658 4.0795 2.24581 1.42889 62.8652 
Branch_type:  BRANCH_INDIRECT:  Count Percentage: 0.0101631 1.16178 9.19758 10.6721 3.53443 2.94497 3.14678 69.3322 
Branch_type:  BRANCH_CONDITIONAL:  Count Percentage: 30.1053 3.09706 1.38659 4.43829 2.04893 1.95797 0.999227 55.9666 
Branch_type:  BRANCH_DIRECT_CALL:  Count Percentage: 0.830483 1.28119 0.595564 4.3629 2.12053 2.19903 1.0544 87.5559 
Branch_type:  BRANCH_INDIRECT_CALL:  Count Percentage: 8.72097 0 2.97619 0.000939355 0 2.18619 3.39326 82.7224 
Branch_type:  BRANCH_RETURN:  Count Percentage: 8.41814 1.20196 1.18069 4.02829 3.56168 3.35822 1.42411 76.8269 
Branch_type:  BRANCH_DIRECT_JUMP:  Total Count: 122305 67399 42635 113574 48030 26441 16823 740143 
Branch_type:  BRANCH_INDIRECT:  Total Count: 35 4001 31675 36753 12172 10142 10837 238769 
Branch_type:  BRANCH_CONDITIONAL:  Total Count: 3795871 390497 174830 559608 258342 246873 125989 7056633 
Branch_type:  BRANCH_DIRECT_CALL:  Total Count: 14717 22704 10554 77315 37578 38969 18685 1551579 
Branch_type:  BRANCH_INDIRECT_CALL:  Total Count: 27852 0 9505 3 0 6982 10837 264189 
Branch_type:  BRANCH_RETURN:  Total Count: 176135 25149 24704 84285 74522 70265 29797 1607470 
Number of unique branch instructions: 10677
Upper 32 bits: 
aaaa
ffff
ffff0000
Unique upper 32 bits: 3
Unique upper 36 bits: 3
Unique upper 40 bits: 5
Unique upper 44 bits: 32
Unique upper 48 bits: 158
Variant_0 : 1090 0.266113
Variant_1 : 1241 0.302979
Variant_2 : 1568 0.382812
Variant_3 : 0 0
Offset_3 4406
Offset_4 261
Offset_5 487
Offset_6 539
Offset_7 638
Offset_8 578
Offset_9 511
Offset_10 404
Offset_11 343
Offset_12 311
Offset_13 246
Offset_14 247
Offset_15 199
Offset_16 228
Offset_17 166
Offset_18 144
Offset_19 258
Offset_20 144
Offset_21 239
Offset_22 410
Offset_23 241
Offset_24 352
Offset_25 117
Offset_47 94
Offset_64 2
decode_dispatch_called: 20460848 46.2174
Dispatch_width: 0 10277201 50.2286 23.2144
Dispatch_width: 1 570611 2.78879 1.28891
Dispatch_width: 2 716525 3.50193 1.6185
Dispatch_width: 3 467616 2.28542 1.05626
Dispatch_width: 4 1823761 8.91342 4.11955
Dispatch_width: 5 332575 1.62542 0.751228
Dispatch_width: 6 6272559 30.6564 14.1686
Empty_decode_cycles: 23810009 53.7826
ROB_full_cycles: 2361204 5.33354
Starvation_cycles_per_kilo_instr: 356.371
Starvation_cycles_per_kilo_instr_3: 334.808
Starvation_cycles_per_kilo_instr_0: 317.26
Branch_type_1  (3,1)  (4,10)  (5,38)  (6,72)  (7,124)  (8,153)  (9,134)  (10,99)  (11,77)  (12,48)  (13,12)  (14,2)  (15,3)  (16,4)  (18,1)  (19,5)  (20,2)  (21,1)  (22,3)  (23,2)  (24,10)  (25,12)  (64,1) 
Branch_type_2  (3,1)  (4,1)  (5,1)  (8,3)  (9,4)  (10,1)  (12,1)  (13,1)  (14,1)  (16,3)  (17,2)  (20,2)  (21,2)  (23,5)  (24,1)  (47,43) 
Branch_type_3  (3,4404)  (4,250)  (5,444)  (6,451)  (7,483)  (8,356)  (9,279)  (10,165)  (11,131)  (12,58)  (13,11)  (64,1) 
Branch_type_4  (6,3)  (7,8)  (8,25)  (9,56)  (10,66)  (11,69)  (12,114)  (13,104)  (14,113)  (15,94)  (16,100)  (17,76)  (18,61)  (19,126)  (20,73)  (21,127)  (22,215)  (23,136)  (24,206)  (25,101) 
Branch_type_5  (8,3)  (9,1)  (10,4)  (11,5)  (12,3)  (13,14)  (14,16)  (15,11)  (16,22)  (17,11)  (18,23)  (19,14)  (20,11)  (21,13)  (22,43)  (23,26)  (24,38) 
Branch_type_6  (5,4)  (6,13)  (7,23)  (8,38)  (9,37)  (10,69)  (11,61)  (12,87)  (13,104)  (14,115)  (15,91)  (16,99)  (17,77)  (18,59)  (19,113)  (20,56)  (21,96)  (22,149)  (23,72)  (24,97)  (25,4)  (47,51) 
Unique trigger count: 
Variant_0_evicts_0 : 0
Variant_0_evicts_1 : 0
Variant_0_evicts_2 : 0
Variant_0_evicts_3 : 0
Variant_1_evicts_0 : 0
Variant_1_evicts_1 : 0
Variant_1_evicts_2 : 0
Variant_1_evicts_3 : 0
Variant_2_evicts_0 : 0
Variant_2_evicts_1 : 0
Variant_2_evicts_2 : 0
Variant_2_evicts_3 : 0
Variant_3_evicts_0 : 0
Variant_3_evicts_1 : 0
Variant_3_evicts_2 : 0
Variant_3_evicts_3 : 0
BTB PER SET UNIQUE ADDR: 2 8 3 8 5 6 7 6 2 7 5 4 2 5 11 8 5 4 5 1 5 9 6 8 5 6 5 4 6 7 7 5 4 6 5 8 5 3 6 8 5 8 4 4 9 6 5 5 6 8 10 6 6 4 2 8 5 3 7 5 4 7 4 8 7 2 6 3 5 8 7 5 5 8 7 8 4 4 6 8 10 7 6 11 7 5 6 3 5 7 7 9 7 8 4 2 6 4 4 8 6 3 4 7 4 6 6 6 7 8 8 2 3 7 2 5 4 6 6 12 6 5 4 4 8 7 2 7 6 2 3 6 5 5 9 5 5 2 7 6 4 5 10 7 4 9 6 5 6 7 3 3 3 11 3 6 6 3 7 5 2 7 5 7 9 2 2 5 8 9 5 6 6 4 5 6 4 6 5 8 5 5 5 9 8 6 4 5 6 6 7 4 7 6 3 7 8 7 6 5 6 7 3 4 2 8 4 4 6 5 2 2 7 6 4 5 5 5 4 5 6 8 6 8 7 10 6 5 8 8 3 6 5 11 4 6 4 7 6 7 5 7 6 6 7 4 3 5 5 7 3 8 5 3 5 4 4 4 6 2 9 6 7 6 4 3 6 5 7 6 7 8 7 5 6 4 4 2 6 12 9 2 5 9 5 5 10 6 10 6 4 3 10 7 7 5 4 4 8 5 13 3 5 10 4 3 7 7 8 2 7 3 8 6 5 5 5 8 7 3 12 8 3 4 9 8 3 5 2 9 4 10 3 5 6 5 7 8 7 8 3 5 5 3 5 4 4 7 1 4 5 7 5 2 7 6 4 5 5 5 14 6 6 8 6 10 6 8 3 2 9 8 10 5 6 3 7 8 6 1 5 5 4 5 9 3 4 7 4 6 6 2 5 8 3 4 6 2 5 4 7 7 7 4 4 10 12 5 9 2 5 5 1 5 6 3 5 4 4 5 6 3 6 6 7 3 5 10 7 6 11 3 3 5 7 1 5 2 2 4 8 5 3 2 6 1 3 5 8 5 11 2 5 4 5 3 7 2 12 4 5 6 4 13 2 11 4 4 2 10 3 7 2 6 4 8 4 2 5 8 4 3 6 5 4 5 5 5 4 7 7 5 7 6 8 4 6 7 3 8 2 3 3 5 7 7 8 3 2 3 7 4 5 3 5 6 9 6 7 4 5 6 9 5 6 11 2 4 5 3 9 7 5 5 4 6 11 9 4 7 4 9 14 13 5 4 9 10 5 3 3 9 2 6 5 8 8 2 6 5 4 3 5 8 8 3 4 5 11 5 5 4 1 6 2 7 10 2 7 5 2 9 2 8 3 4 3 2 5 9 8 5 6 7 5 6 12 9 6 7 9 3 5 2 6 10 8 2 5 5 5 4 5 6 1 5 9 4 9 8 4 5 6 1 8 6 3 5 4 5 6 6 5 5 6 6 2 9 7 11 3 6 5 4 3 7 7 6 5 4 4 5 6 9 5 6 6 4 2 6 4 5 6 9 4 5 5 10 9 5 9 5 7 4 8 4 5 7 4 7 8 9 4 9 9 8 5 9 7 2 6 3 5 6 5 10 5 7 5 11 6 6 4 4 11 4 3 6 9 8 5 2 2 7 5 4 7 7 5 4 5 6 3 9 7 7 7 9 4 9 2 4 10 5 5 2 7 6 4 10 4 8 5 6 5 2 7 4 3 5 5 4 8 4 8 8 9 1 4 8 7 8 5 6 8 8 8 10 6 6 7 5 2 8 6 6 5 8 4 7 7 7 4 6 9 4 7 8 5 10 7 5 6 6 8 7 8 3 5 6 6 6 8 4 7 3 6 3 6 3 6 3 0 6 9 6 11 4 7 5 9 4 4 3 6 6 8 6 10 6 7 6 5 7 5 5 6 5 2 5 1 9 5 4 5 4 4 6 3 5 5 7 4 4 6 6 9 8 4 5 3 6 3 8 6 7 9 8 5 6 5 5 5 5 3 4 4 7 1 7 6 6 6 4 6 4 7 11 4 0 9 4 4 2 6 7 4 8 5 2 8 5 9 7 6 2 5 5 6 10 8 5 5 7 7 8 6 11 9 6 7 2 6 7 3 6 6 7 6 5 3 7 7 5 5 6 6 4 2 6 6 6 4 4 5 4 3 4 6 4 9 7 6 2 13 5 9 5 3 3 5 4 7 5 7 3 7 4 3 3 4 3 4 7 2 4 3 11 5 7 4 7 7 5 8 4 3 5 7 5 4 7 7 12 7 4 5 5 4 4 9 5 8 3 3 5 6 9 5 7 4 9 9 7 6 5 6 7 3 4 6 3 7 8 9 4 6 6 3 5 6 3 6 5 5 8 9 7 2 4 6 4 4 6 7 5 6 6 2 3 4 5 5 5 4 7 10 6 5 3 4 7 5 4 5 7 8 6 9 9 3 5 2 8 10 4 7 5 6 2 8 5 4 5 7 5 4 3 3 10 9 8 6 7 6 4 4 4 4 3 5 11 7 11 3 7 3 7 2 2 6 6 5 5 10 3 7 7 4 5 6 5 5 7 4 8 6 6 3 2 5 5 8 3 4 4 4 7 3 7 9 11 7 3 5 7 3 7 6 5 6 6 1 5 2 3 5 9 7 5 4 2 8 5 3 3 6 9 7 8 9 6 5 4 4 10 4 6 6 6 9 4 9 4 4 4 6 4 7 9 11 9 3 1 7 5 8 5 5 4 7 3 4 3 7 6 5 4 8 2 6 5 6 6 1 6 9 3 9 5 9 3 6 5 6 7 7 6 5 6 6 4 4 3 8 4 3 6 3 4 6 5 6 5 6 6 9 6 2 7 4 7 4 4 6 3 4 4 2 6 3 4 5 3 5 2 7 7 4 9 6 5 10 3 6 5 7 9 8 4 9 5 9 7 6 6 5 7 10 6 7 5 5 9 3 5 7 5 4 6 2 5 5 8 7 5 8 7 9 10 11 8 5 7 12 8 6 5 5 5 3 7 7 6 8 4 6 4 10 11 5 6 4 7 8 4 7 7 6 7 5 6 7 6 9 13 4 6 8 6 4 4 5 5 4 2 7 2 4 6 4 8 7 8 5 2 3 6 6 6 3 6 4 13 10 9 5 4 3 6 1 5 4 6 5 4 6 3 6 2 2 7 8 8 2 8 7 7 4 4 7 5 11 2 2 5 10 8 6 6 3 4 7 6 9 7 3 5 3 6 8 8 5 10 8 10 5 4 3 8 9 3 6 5 10 7 6 9 6 5 8 6 5 2 3 5 8 5 6 4 2 7 3 6 6 4 5 6 11 5 7 4 4 7 10 5 4 7 2 9 5 7 8 1 5 3 6 7 7 11 3 9 5 8 7 4 6 5 6 5 7 7 5 9 6 10 6 4 8 1 7 4 9 8 7 6 10 4 8 3 6 6 10 4 4 6 9 6 6 10 9 2 6 7 7 4 11 6 6 3 4 5 6 4 5 7 7 7 3 8 5 3 6 8 6 6 5 9 4 3 5 7 3 4 4 6 4 8 6 4 4 9 6 6 6 4 5 7 6 7 9 2 7 4 3 6 5 7 5 2 5 6 4 5 3 7 7 5 4 8 7 6 5 7 7 3 3 4 4 7 7 5 6 8 4 5 11 7 8 7 4 8 9 5 2 7 5 5 9 2 4 9 9 8 4 6 3 2 3 4 4 8 9 5 8 6 8 4 5 7 5 6 11 3 6 8 6 6 4 10 11 4 4 5 6 4 3 5 6 4 3 6 3 6 7 6 5 4 2 2 7 4 3 4 7 6 1 5 5 3 8 4 7 2 1 5 6 6 13 2 3 8 4 3 5 4 3 7 5 5 3 4 5 3 5 7 8 5 4 4 1 2 8 5 5 2 4 7 4 5 2 4 3 9 6 5 8 2 4 4 6 4 5 4 4 4 4 4 7 8 4 4 8 5 4 7 4 9 5 7 10 3 3 4 4 6 1 1 3 5 7 10 3 8 4 7 6 5 7 4 3 5 8 9 0 9 4 8 5 9 5 10 3 7 9 8 7 6 3 6 3 8 3 6 4 7 9 5 4 9 5 6 3 4 3 3 4 3 7 2 6 4 7 2 5 4 4 8 2 6 3 4 8 7 7 8 8 4 6 4 4 8 4 3 6 5 6 4 8 8 5 5 3 3 7 5 5 6 3 7 3 5 6 10 5 2 4 8 6 6 2 4 7 4 5 7 4 6 4 3 4 8 3 7 6 4 4 9 5 11 4 6 2 3 7 9 6 8 3 3 3 3 4 5 3 12 1 6 2 5 3 4 3 4 4 6 3 1 3 8 2 5 4 4 4 6 7 3 3 6 6 7 8 2 5 8 1 4 14 4 1 2 9 10 3 7 8 10 7 6 6 5 9 7 8 7 5 2 4 3 5 9 5 8 9 9 4 4 2 7 3 8 5 6 6 7 7 5 6 8 7 5 4 7 6 5 5 7 3 11 3 8 5 12 8 3 5 10 3 5 5 6 3 2 8 7 5 7 4 7 3 5 8 8 4 4 3 3 6 5 1 4 7 9 5 4 6 8 7 6 4 9 6 4 4 7 4 7 11 4 3 12 5 3 9 5 4 15 5 8 4 6 4 6 3 5 6 5 
BTB PER SET COUNT: 2 1478 798 910 39 342 436 695 2 747 717 360 2 931 818 191 458 223 688 1 609 1067 789 292 374 477 196 457 613 634 789 57 222 881 532 515 700 138 394 1628 22 1263 5 10 2443 663 165 287 71 823 2168 555 921 4 2 667 865 1386 930 38 806 826 156 360 139 7 230 3 80 1172 170 243 168 856 613 990 4 262 849 191 791 368 237 1339 670 165 874 3 562 1868 1002 871 632 926 4 49 237 29 325 597 675 3 272 167 23 188 225 441 640 772 309 114 145 1192 2 177 410 23 425 2604 350 478 1693 474 10 1217 5 412 545 2 79 317 35 279 521 448 266 129 810 1274 17 511 1415 601 4 381 15 442 375 501 158 345 3 765 3 1277 227 1094 466 404 2 412 28 539 686 89 5 8 216 830 229 765 350 187 374 325 93 208 49 1043 138 661 206 446 854 471 4 49 22 178 74 9 711 570 3 373 263 1031 932 5 333 455 105 34 72 823 5 597 611 5 46 41 1145 640 255 436 594 249 255 216 189 717 323 906 1089 1191 173 161 171 1540 113 179 204 3529 539 383 4 353 162 933 584 103 614 383 466 341 76 515 225 363 3 556 93 168 423 91 439 277 403 2311 406 492 356 285 138 506 338 649 800 299 316 546 126 400 521 624 8 375 471 643 557 2 347 809 7 501 1575 329 652 14 8 3 1268 557 604 164 14 62 519 359 882 137 1053 725 175 6 477 13 266 2 194 5 668 241 6 380 9 672 317 10 724 437 166 288 1181 336 344 119 2 570 4 1417 148 643 150 277 751 305 243 750 3 221 391 5 720 264 4 848 1 244 345 204 405 3 524 315 362 410 634 180 1727 241 559 762 247 2300 786 1050 3 2 457 511 2323 14 356 200 503 424 290 1 83 812 6 669 834 248 7 472 153 189 272 2 579 329 84 4 1277 2 383 93 451 396 337 225 309 1301 2325 491 854 2 110 405 1 386 772 159 385 418 218 230 219 3 25 556 811 62 269 818 1005 596 1379 40 4 400 846 1 355 3 2 113 1064 22 4 14 88 1 5 26 724 372 1382 286 109 223 465 3 554 3 1163 137 1203 345 44 996 2 1166 236 434 2 711 130 549 2 368 695 156 107 2 139 556 92 47 193 381 20 335 149 306 211 906 371 310 103 492 677 670 825 454 80 598 2 284 3 280 831 403 218 106 2 20 831 202 1426 817 5 497 846 1102 843 561 135 538 1162 8 371 1703 29 5 337 5 1622 637 177 22 5 91 478 537 409 223 256 516 1224 1663 426 1037 1078 1580 617 127 3 1049 1335 332 376 614 1068 2 317 126 1057 9763 455 803 450 6 893 138 2243 472 277 261 1 1122 2 927 1498 2 427 152 6 589 2 547 3 218 187 2 9 1784 681 351 832 1164 207 1393 1120 720 351 449 1005 3 539 118 181 660 1081 2 91 202 412 94 830 296 1 143 1013 278 9043 669 363 393 494 1 827 8 450 174 447 693 431 894 59 703 373 956 2 727 458 1978 3 292 395 8 8 1051 231 180 124 692 632 280 158 890 13 364 281 261 2 55 443 558 342 197 206 646 6 1543 541 838 424 505 570 266 635 321 327 1230 359 739 1066 839 79 1088 788 873 484 838 146 2 250 5 286 360 202 1084 69 844 355 1301 542 1088 9 6 1297 94 5 385 1286 676 334 2 196 676 110 703 409 418 368 231 354 562 660 806 453 944 638 698 879 758 345 230 639 391 8 3 9 597 131 1417 4 991 237 338 215 3 340 138 3 687 467 241 186 408 232 824 807 1 6 619 521 292 238 315 130 235 520 3324 493 6 173 346 2 439 591 940 287 731 415 481 658 81 108 256 615 4 654 530 294 994 390 359 552 9 99 747 98 134 249 152 176 38 772 694 334 4 124 3 211 6 541 4 0 188 1252 502 1823 218 538 277 686 354 86 104 380 966 463 438 1311 323 604 289 145 779 22 180 1221 232 2 429 9 1368 518 531 235 16 147 714 10 685 5 487 48 263 583 84 807 135 266 64 113 411 3 270 364 262 1134 306 624 148 425 201 367 10 3 42 926 960 1 817 343 1025 466 150 45 172 244 1556 67 0 1368 42 153 3 27 712 507 1135 587 212 921 191 717 673 185 191 6 89 390 875 793 225 638 662 603 951 255 628 1090 799 1190 2 166 425 199 30 1097 374 268 390 3 650 1114 442 263 382 203 239 160 1022 914 80 10 5 815 189 4 22 202 4 1090 1011 523 2 2042 312 1358 8 2418 216 615 158 725 333 250 114 434 401 3 268 4 4 200 1133 3 86 132 1164 5 458 383 284 797 36 626 78 3 695 22 224 8 430 750 831 417 10 213 1387 4 10 447 266 533 1586 269 10 399 996 747 267 17 1103 1021 435 393 123 224 1007 5 19 343 285 400 180 669 162 833 748 3 173 633 3 905 431 683 961 511 309 1049 127 360 559 7 358 343 697 752 89 2 3 127 294 178 358 273 19 732 910 273 3 6 729 398 135 504 614 682 795 639 582 3 605 2 1093 824 245 334 299 250 6 1010 5 177 320 307 279 17 60 78 579 993 757 589 172 349 463 231 8 194 3 336 1567 564 1661 271 508 5 220 2 150 154 492 195 985 845 4 75 279 10 219 355 5 447 90 4 571 528 90 3 2 182 387 528 10 496 199 187 505 5 326 776 9556 1098 271 629 14 10 574 33 327 151 419 1 150 2 854 102 863 1189 57 52 2 721 250 453 4 117 422 102 646 869 21 387 353 100 1170 14 171 417 632 888 308 1099 320 276 279 155 266 956 908 1195 879 3 1 1392 107 967 400 555 223 481 45 15 3 718 580 853 4 902 270 611 5 254 1105 1 325 647 63 506 274 732 9 446 41 578 606 640 231 257 265 8 195 440 3 988 254 5 479 131 256 325 440 83 242 8 240 212 10 211 268 436 420 6 1356 473 10 424 105 2 27 4 188 5 3 478 2 317 163 205 691 449 226 990 3 257 469 195 803 514 317 1262 42 197 325 222 350 109 1154 1621 634 270 624 231 1394 17 515 744 177 321 488 2 505 270 524 797 437 560 1023 784 850 650 232 34 363 945 653 134 152 498 199 3 288 16 412 83 16 77 1120 524 1643 395 467 4 684 422 99 215 879 382 276 320 550 152 293 993 1068 115 445 1060 598 81 5 306 160 19 2 487 2 7 342 335 410 589 523 63 2 200 196 366 689 3 160 283 1632 1100 448 446 182 52 600 1 629 289 275 338 230 12 262 297 289 2 109 293 534 2 252 559 48 20 4 826 226 482 35 2 281 885 150 141 460 3 393 640 66 1312 1031 164 344 85 589 1201 356 426 662 299 722 352 33 292 1773 1169 8 438 1633 880 936 1049 636 641 62 524 738 53 52 131 6 508 8 329 11 2 287 3 651 469 5 5 756 830 220 298 4 110 208 1043 321 193 22 3 1441 141 219 946 1 8 6 257 278 563 1121 153 693 342 527 622 607 26 152 13 185 501 271 285 597 349 1476 624 161 266 2 658 267 484 292 1043 546 983 121 927 100 320 424 1855 289 8 791 136 390 686 1437 1287 2 68 986 487 748 1109 575 911 5 496 82 545 136 155 583 144 618 4 1136 7 3 278 222 6 505 389 750 194 6 701 397 187 11 50 294 4 951 108 918 557 954 241 409 401 300 4051 661 467 595 810 3 127 251 3 666 312 1172 132 1091 362 323 41 524 4 686 754 118 143 455 165 380 5 475 398 122 196 336 118 300 322 338 410 621 540 355 762 129 1089 359 9 814 974 272 112 231 7 365 672 2 174 668 636 736 166 540 158 2 3 175 325 395 1477 97 731 600 965 6 215 196 7 671 534 146 754 585 456 816 6 863 453 193 455 195 70 97 506 517 580 650 413 156 6 69 364 11 688 327 2 235 182 270 3 1701 307 377 1 641 5 268 237 4 299 2 1 142 265 483 2919 107 452 830 23 221 200 5 3 730 449 184 28 223 117 3 272 940 1136 110 4 24 1 151 494 467 310 2 4 330 362 487 5 246 12 1594 197 261 348 51 4 284 314 106 71 216 195 618 339 6 431 454 215 78 738 12 127 712 499 1061 291 379 653 3 3 23 133 536 1 1 9 562 372 1033 3 817 244 660 642 494 1258 412 3 7 442 1052 0 465 121 729 169 1590 378 691 4 688 2549 845 439 318 3 848 3 826 3 256 366 452 418 99 6 1074 192 504 3 4 4 5 262 5 571 2 658 379 375 2 162 4 12 584 106 1078 126 269 547 858 293 823 966 144 354 156 124 1142 9 266 147 6 355 604 521 1172 16 423 359 288 352 878 614 614 3 888 37 307 406 937 5 2 294 716 1305 365 2 68 696 232 290 601 76 793 10714 265 193 1299 164 1171 682 4 351 1136 545 1571 411 543 400 3 354 1311 549 621 62 226 10 3 5 1040 4 1244 1 339 480 257 5 239 320 123 272 455 3 1 3 939 2 115 463 553 82 324 367 55 167 1312 165 271 675 2 458 1357 1 158 1105 111 2 53 639 597 132 466 488 1219 261 284 437 363 444 81 1008 374 100 29 376 360 311 1104 258 704 1370 310 221 49 2 720 206 553 898 340 317 1215 552 1643 1025 1188 832 88 135 592 4098 745 293 657 449 1171 3 526 374 1776 13 252 424 912 212 509 359 106 68 2 775 572 380 497 57 427 3 268 180 440 4 235 136 473 513 235 1 110 361 1085 211 61 6 915 399 588 219 1192 16 701 4 651 1710 255 565 10 9 1613 1137 159 406 482 88 2382 109 1255 167 514 493 6 47 284 481 217 
To predecode: 0
Predecoding something: 0
Predecode request dropped: 0
sizeofblock_0 0
sizeofblock_1 441980
sizeofblock_2 121834
sizeofblock_3 23455
sizeofblock_4 8460
sizeofblock_5 0
sizeofblock_6 0
sizeofblock_7 0
sizeofblock_8 0
Variant_0 Correct: 1261061 Incorrect: 0 Accuracy: 1
Variant_1 Correct: 1704557 Incorrect: 0 Accuracy: 1
Variant_2 Correct: 3134769 Incorrect: 0 Accuracy: 1
Variant_3 Correct: 0 Incorrect: 0 Accuracy: -nan
