
*** ChampSim Multicore Out-of-Order Simulator ***

Warmup Instructions: 50000000
Simulation Instructions: 50000000
Number of CPUs: 1
LLC sets: 2048
LLC ways: 16
Off-chip DRAM Size: 4096 MB Channels: 1 Width: 64-bit Data Rate: 6400 MT/s
CPU 0 runs ./micro_traces/srv79.trace.gz
.gz
ITLB has LRU replacement policy
DTLB has LRU replacement policy
STLB has LRU replacement policy
FDIP Prefetcher at L1I
L1I has LRU replacement policy
L1D has LRU replacement policy
Initialize SRRIP state for L2C
Initialize DRRIP state for LLC
Heartbeat CPU 0 instructions: 10000003 cycles: 2789667 heartbeat IPC: 3.58466 cumulative IPC: 3.58466 (Simulation time: 0 hr 1 min 36 sec) 
Heartbeat CPU 0 instructions: 20000003 cycles: 5580354 heartbeat IPC: 3.58335 cumulative IPC: 3.584 (Simulation time: 0 hr 3 min 5 sec) 
Heartbeat CPU 0 instructions: 30000001 cycles: 8371636 heartbeat IPC: 3.58258 cumulative IPC: 3.58353 (Simulation time: 0 hr 4 min 32 sec) 
Heartbeat CPU 0 instructions: 40000003 cycles: 11161268 heartbeat IPC: 3.5847 cumulative IPC: 3.58382 (Simulation time: 0 hr 6 min 0 sec) 
Heartbeat CPU 0 instructions: 50000000 cycles: 13949887 heartbeat IPC: 3.586 cumulative IPC: 3.58426 (Simulation time: 0 hr 7 min 25 sec) 

Warmup complete CPU 0 instructions: 50000004 cycles: 13949888 (Simulation time: 0 hr 7 min 25 sec) 

Cycle: 20000000 FTQ IN: 57262904 FTQ occupancy: 18.4981 DECODE IN: 57262880 DECODE occupancy: 47.5031 ROB IN: 57262860 ROB occupancy: 288.596 ROB OUT: 57262700
Heartbeat CPU 0 instructions: 60000002 cycles: 22237797 heartbeat IPC: 1.20658 cumulative IPC: 1.20658 (Simulation time: 0 hr 8 min 42 sec) 
Cycle: 30000000 FTQ IN: 12231801 FTQ occupancy: 8.79795 DECODE IN: 12231719 DECODE occupancy: 20.4997 ROB IN: 12231679 ROB occupancy: 160.758 ROB OUT: 12231754
Heartbeat CPU 0 instructions: 70000002 cycles: 30435383 heartbeat IPC: 1.21987 cumulative IPC: 1.21319 (Simulation time: 0 hr 10 min 3 sec) 
Heartbeat CPU 0 instructions: 80000002 cycles: 38631664 heartbeat IPC: 1.22007 cumulative IPC: 1.21547 (Simulation time: 0 hr 11 min 18 sec) 
Cycle: 40000000 FTQ IN: 12198938 FTQ occupancy: 8.78534 DECODE IN: 12199027 DECODE occupancy: 20.4537 ROB IN: 12199087 ROB occupancy: 160.648 ROB OUT: 12199011
Heartbeat CPU 0 instructions: 90000003 cycles: 46695381 heartbeat IPC: 1.24012 cumulative IPC: 1.22154 (Simulation time: 0 hr 12 min 39 sec) 
Cycle: 50000000 FTQ IN: 12385426 FTQ occupancy: 8.64037 DECODE IN: 12385443 DECODE occupancy: 20.2098 ROB IN: 12385443 ROB occupancy: 160.385 ROB OUT: 12385584
Heartbeat CPU 0 instructions: 100000002 cycles: 55017507 heartbeat IPC: 1.20162 cumulative IPC: 1.2175 (Simulation time: 0 hr 13 min 41 sec) 
Finished CPU 0 instructions: 50000002 cycles: 41067620 cumulative IPC: 1.2175 (Simulation time: 0 hr 13 min 41 sec) 

ChampSim completed all CPUs

Region of Interest Statistics

CPU 0 cumulative IPC: 1.2175 instructions: 50000002 cycles: 41067620
 Fetch stage stalled: 64.7059  Sim cycles: 41067620 fetch stall cycle: 26573155
 Empty decode stage: 52.8831  Sim cycles: 41067620 fetch stall cycle: 21717835
ITLB TOTAL     ACCESS:    5653344  HIT:    5209640  MISS:     443704  HIT %:    92.1515  MISS %:    7.84852   MPKI: 8.87408
ITLB LOAD TRANSLATION INSTRUCTION	ACCESS:    5525168  HIT:    5081464  MISS:     443704  HIT %:    91.9694  MISS %:     8.0306  MPKI: 8.87408
ITLB TRANSLATION FROM L1D PREFETCHER INSTRUCTION	ACCESS:     128176  HIT:     128176  MISS:          0  HIT %:        100  MISS %:          0  MPKI: 0

ITLB AVERAGE MISS LATENCY: 9.07794 cycles
ITLB RQ	ACCESS:    7415425	FORWARD:          0	MERGED:    1323531	TO_CACHE:    6091894

DTLB TOTAL     ACCESS:    9043999  HIT:    8579007  MISS:     464992  HIT %:    94.8586  MISS %:    5.14144   MPKI: 9.29984
DTLB LOAD TRANSLATION DATA	ACCESS:    9043999  HIT:    8579007  MISS:     464992  HIT %:    94.8586  MISS %:    5.14144  MPKI: 9.29984

DTLB AVERAGE MISS LATENCY: 9.41697 cycles
DTLB RQ	ACCESS:   13299717	FORWARD:          0	MERGED:    4218189	TO_CACHE:    9081528

STLB TOTAL     ACCESS:    1209213  HIT:    1206348  MISS:       2865  HIT %:    99.7631  MISS %:   0.236931   MPKI: 0.0573
STLB LOAD TRANSLATION INSTRUCTION	ACCESS:     443704  HIT:     443260  MISS:        444  HIT %:    99.8999  MISS %:   0.100067  MPKI: 0.00888
STLB LOAD TRANSLATION DATA	ACCESS:     464755  HIT:     462362  MISS:       2393  HIT %:    99.4851  MISS %:   0.514895  MPKI: 0.04786
STLB TRANSLATION FROM L1D PREFETCHER DATA	ACCESS:     300754  HIT:     300726  MISS:         28  HIT %:    99.9907  MISS %: 0.00930993  MPKI: 0.00056

STLB AVERAGE MISS LATENCY: 69.7668 cycles
STLB RQ	ACCESS:    1383833	FORWARD:          0	MERGED:     174534	TO_CACHE:    1209299

STLB Hit, L1D data hit: 0
STLB Hit, L2C data hit: 0
STLB Hit, LLC data hit: 0
STLB Hit, LLC data miss: 0
STLB STLB hints to L2: 0
L1D TOTAL     ACCESS:   13156871  HIT:   12070985  MISS:    1085886  HIT %:    91.7466  MISS %:    8.25338   MPKI: 21.7177
L1D LOAD DATA	ACCESS:    6665181  HIT:    5964460  MISS:     700721  HIT %:    89.4868  MISS %:    10.5132  MPKI: 14.0144
L1D RFO DATA	ACCESS:    6093935  HIT:    5818690  MISS:     275245  HIT %:    95.4833  MISS %:     4.5167  MPKI: 5.5049
L1D PREFETCH DATA	ACCESS:     397755  HIT:     287835  MISS:     109920  HIT %:    72.3649  MISS %:    27.6351  MPKI: 2.1984

L1D PREFETCH  REQUESTED:     950580  ISSUED:     950580  USEFUL:      56641  USELESS:      71313
L1D USEFUL LOAD PREFETCHES:      56641 PREFETCH ISSUED TO LOWER LEVEL:     127988  ACCURACY: 44.2549
 TIMELY PREFETCHES:      56641 LATE PREFETCHES: 18022 DROPPED PREFETCHES: 45
L1D AVERAGE MISS LATENCY: 575885 cycles
L1D RQ	ACCESS:   10741974	FORWARD:          0	MERGED:    3889620	TO_CACHE:    6702685
L1D WQ	ACCESS:    6762969	FORWARD:     149975	MERGED:     165937	TO_CACHE:    6597032
L1D PQ	ACCESS:     475443	FORWARD:          0	MERGED:          0	TO_CACHE:     475137

L1D UNIQUE REGIONS ACCESSED: 0
L1D REGIONS CONFLICTS: 0
L1D Cross Page Prefetch Requests: 10521
L1D Same Page Prefetch Requests: 955358
L1D ROI Sum of L1D PQ occupancy: 6026468
L1D PREFETCHES PUSHED FROM L2C: 0
L1I TOTAL     ACCESS:    6906279  HIT:    4407344  MISS:    2498935  HIT %:    63.8165  MISS %:    36.1835   MPKI: 49.9787
L1I LOAD INSTRUCTION	ACCESS:    6330106  HIT:    3831171  MISS:    2498935  HIT %:     60.523  MISS %:     39.477  MPKI: 49.9787
L1I PREFETCH INSTRUCTION	ACCESS:     576173  HIT:     576173  MISS:          0  HIT %:        100  MISS %:          0  MPKI: 0

L1I PREFETCH  REQUESTED:    1220602  ISSUED:    1220602  USEFUL:          0  USELESS:          0
L1I USEFUL LOAD PREFETCHES:          0 PREFETCH ISSUED TO LOWER LEVEL:          0  ACCURACY: -nan
 TIMELY PREFETCHES:          0 LATE PREFETCHES: 0 DROPPED PREFETCHES: 0
L1I AVERAGE MISS LATENCY: 17.8677 cycles
L1I RQ	ACCESS:    9455790	FORWARD:          0	MERGED:    2903530	TO_CACHE:    6552260
L1I PQ	ACCESS:    1220602	FORWARD:          0	MERGED:     357437	TO_CACHE:     863165

L1BTB TOTAL     ACCESS:    5848790  HIT:    2467545  MISS:    3381245  HIT %:     42.189  MISS %:     57.811   MPKI: 67.6249
L1BTB BRANCH_DIRECT_JUMP	ACCESS:     590734 HIT:     199706 MISS:     391028 AVERAGE STALL: 38.9054 AVERAGE FETCH STALL: 18.4607 AVERAGE FETCH QUEUE STALL: 9.77231 AVERAGE DECODE STALL: 9.79616 AVERAGE EXECUTE STALL: 3.98151e+14
L1BTB BRANCH_INDIRECT	ACCESS:     172946 HIT:      57154 MISS:     115792 AVERAGE STALL: 96.0992 AVERAGE FETCH STALL: 12.4883 AVERAGE FETCH QUEUE STALL: 10.6633 AVERAGE DECODE STALL: 9.1412 AVERAGE EXECUTE STALL: 62.8679
L1BTB BRANCH_CONDITIONAL	ACCESS:    3001062 HIT:    1794752 MISS:    1206310 AVERAGE STALL: 40.1848 AVERAGE FETCH STALL: 21.7668 AVERAGE FETCH QUEUE STALL: 9.52343 AVERAGE DECODE STALL: 8.13483 AVERAGE EXECUTE STALL: 1.59313e+14
L1BTB BRANCH_DIRECT_CALL	ACCESS:     882989 HIT:     107924 MISS:     775065 AVERAGE STALL: 43.1128 AVERAGE FETCH STALL: 22.4263 AVERAGE FETCH QUEUE STALL: 10.7203 AVERAGE DECODE STALL: 9.19831 AVERAGE EXECUTE STALL: 1.95307e+14
L1BTB BRANCH_INDIRECT_CALL	ACCESS:     159039 HIT:      20139 MISS:     138900 AVERAGE STALL: 114.023 AVERAGE FETCH STALL: 15.5427 AVERAGE FETCH QUEUE STALL: 7.97638 AVERAGE DECODE STALL: 7.28431 AVERAGE EXECUTE STALL: 82.7293
L1BTB BRANCH_RETURN	ACCESS:    1042020 HIT:     287870 MISS:     754150 AVERAGE STALL: 40.0916 AVERAGE FETCH STALL: 19.8449 AVERAGE FETCH QUEUE STALL: 6.97171 AVERAGE DECODE STALL: 6.86415 AVERAGE EXECUTE STALL: 2.40079e+14
L1BTB BRANCH_OTHER ACCESS:          0 HIT:          0 MISS:          0 AVERAGE STALL: -nan AVERAGE FETCH STALL: -nan AVERAGE FETCH QUEUE STALL: -nan AVERAGE DECODE STALL: -nan AVERAGE EXECUTE STALL: -nan
L1BTB TOTAL ROB OCCUPANCY AT BTB MISS: 12.7614

L2BTB TOTAL     ACCESS:    3355917  HIT:    3003927  MISS:     351990  HIT %:    89.5114  MISS %:    10.4886   MPKI: 7.0398
L2BTB BRANCH_DIRECT_JUMP	ACCESS:     385926 HIT:     344686 MISS:      41240 AVERAGE STALL: 38.9054 AVERAGE FETCH STALL: 18.4607 AVERAGE FETCH QUEUE STALL: 9.77231 AVERAGE DECODE STALL: 9.79616 AVERAGE EXECUTE STALL: 3.98151e+14
L2BTB BRANCH_INDIRECT	ACCESS:     106006 HIT:     101748 MISS:       4258 AVERAGE STALL: 96.0992 AVERAGE FETCH STALL: 12.4883 AVERAGE FETCH QUEUE STALL: 10.6633 AVERAGE DECODE STALL: 9.1412 AVERAGE EXECUTE STALL: 62.8679
L2BTB BRANCH_CONDITIONAL	ACCESS:    1206310 HIT:    1089365 MISS:     116945 AVERAGE STALL: 40.1848 AVERAGE FETCH STALL: 21.7668 AVERAGE FETCH QUEUE STALL: 9.52343 AVERAGE DECODE STALL: 8.13483 AVERAGE EXECUTE STALL: 1.59313e+14
L2BTB BRANCH_DIRECT_CALL	ACCESS:     775065 HIT:     680598 MISS:      94467 AVERAGE STALL: 43.1128 AVERAGE FETCH STALL: 22.4263 AVERAGE FETCH QUEUE STALL: 10.7203 AVERAGE DECODE STALL: 9.19831 AVERAGE EXECUTE STALL: 1.95307e+14
L2BTB BRANCH_INDIRECT_CALL	ACCESS:     129468 HIT:     110234 MISS:      19234 AVERAGE STALL: 114.023 AVERAGE FETCH STALL: 15.5427 AVERAGE FETCH QUEUE STALL: 7.97638 AVERAGE DECODE STALL: 7.28431 AVERAGE EXECUTE STALL: 82.7293
L2BTB BRANCH_RETURN	ACCESS:     753142 HIT:     677296 MISS:      75846 AVERAGE STALL: 40.0916 AVERAGE FETCH STALL: 19.8449 AVERAGE FETCH QUEUE STALL: 6.97171 AVERAGE DECODE STALL: 6.86415 AVERAGE EXECUTE STALL: 2.40079e+14
L2BTB BRANCH_OTHER ACCESS:          0 HIT:          0 MISS:          0 AVERAGE STALL: -nan AVERAGE FETCH STALL: -nan AVERAGE FETCH QUEUE STALL: -nan AVERAGE DECODE STALL: -nan AVERAGE EXECUTE STALL: -nan
L2BTB TOTAL ROB OCCUPANCY AT BTB MISS: 122.587

L2C TOTAL     ACCESS:    4156528  HIT:    3617844  MISS:     538684  HIT %:      87.04  MISS %:      12.96   MPKI: 10.7737
L2C LOAD INSTRUCTION	ACCESS:    2498935  HIT:    2215784  MISS:     283151  HIT %:    88.6691  MISS %:    11.3309  MPKI: 5.66302
L2C LOAD TRANSLATION INSTRUCTION	ACCESS:        518  HIT:        164  MISS:        354  HIT %:    31.6602  MISS %:    68.3398  MPKI: 0.00708
L2C LOAD DATA	ACCESS:     682511  HIT:     588872  MISS:      93639  HIT %:    86.2802  MISS %:    13.7198  MPKI: 1.87278
L2C RFO DATA	ACCESS:     275181  HIT:     216998  MISS:      58183  HIT %:    78.8565  MISS %:    21.1435  MPKI: 1.16366
L2C PREFETCH DATA	ACCESS:     217437  HIT:     128932  MISS:      88505  HIT %:    59.2963  MISS %:    40.7037  MPKI: 1.7701
L2C WRITEBACK DATA	ACCESS:     479213  HIT:     466386  MISS:      12827  HIT %:    97.3233  MISS %:    2.67668  MPKI: 0.25654
L2C LOAD TRANSLATION DATA	ACCESS:       2636  HIT:        677  MISS:       1959  HIT %:    25.6829  MISS %:    74.3171  MPKI: 0.03918
L2C TRANSLATION FROM L1D PREFETCHER DATA	ACCESS:         97  HIT:         31  MISS:         66  HIT %:    31.9588  MISS %:    68.0412  MPKI: 0.00132

L2C PREFETCH  REQUESTED:      99063  ISSUED:      99063  USEFUL:      11388  USELESS:      77748
L2C USEFUL LOAD PREFETCHES:      11388 PREFETCH ISSUED TO LOWER LEVEL:      89138  ACCURACY: 12.7757
 TIMELY PREFETCHES:      11388 LATE PREFETCHES: 633 DROPPED PREFETCHES: 0
L2C AVERAGE MISS LATENCY: 40.9781 cycles
L2C RQ	ACCESS:    3460087	FORWARD:          0	MERGED:          0	TO_CACHE:    3459881
L2C WQ	ACCESS:     479213	FORWARD:        210	MERGED:          0	TO_CACHE:     479213
L2C PQ	ACCESS:     227051	FORWARD:          0	MERGED:       3480	TO_CACHE:     223567

L2C Dense regions hint from L2: 0
PSCL5 TOTAL     ACCESS:       5824  HIT:       2912  MISS:       2912  HIT %:         50  MISS %:         50   MPKI: 0.05824
PSCL5 LOAD TRANSLATION INSTRUCTION	ACCESS:       5650  HIT:       2825  MISS:       2825  HIT %:         50  MISS %:         50  MPKI: 0.0565
PSCL5 TRANSLATION FROM L1D PREFETCHER INSTRUCTION	ACCESS:        174  HIT:         87  MISS:         87  HIT %:         50  MISS %:         50  MPKI: 0.00174


PSCL4 TOTAL     ACCESS:       5397  HIT:       2691  MISS:       2706  HIT %:     49.861  MISS %:     50.139   MPKI: 0.05412
PSCL4 LOAD TRANSLATION INSTRUCTION	ACCESS:       2764  HIT:       2606  MISS:        158  HIT %:    94.2836  MISS %:    5.71635  MPKI: 0.00316
PSCL4 TRANSLATION FROM L1D PREFETCHER INSTRUCTION	ACCESS:         85  HIT:         85  MISS:          0  HIT %:        100  MISS %:          0  MPKI: 0
PSCL4 LOAD TRANSLATION DATA	ACCESS:       2463  HIT:          0  MISS:       2463  HIT %:          0  MISS %:        100  MPKI: 0.04926
PSCL4 TRANSLATION FROM L1D PREFETCHER DATA	ACCESS:         85  HIT:          0  MISS:         85  HIT %:          0  MISS %:        100  MPKI: 0.0017


PSCL3 TOTAL     ACCESS:       5701  HIT:       2843  MISS:       2858  HIT %:    49.8684  MISS %:    50.1316   MPKI: 0.05716
PSCL3 LOAD TRANSLATION INSTRUCTION	ACCESS:       2915  HIT:       2757  MISS:        158  HIT %:    94.5798  MISS %:    5.42024  MPKI: 0.00316
PSCL3 TRANSLATION FROM L1D PREFETCHER INSTRUCTION	ACCESS:         86  HIT:         86  MISS:          0  HIT %:        100  MISS %:          0  MPKI: 0
PSCL3 LOAD TRANSLATION DATA	ACCESS:       2614  HIT:          0  MISS:       2614  HIT %:          0  MISS %:        100  MPKI: 0.05228
PSCL3 TRANSLATION FROM L1D PREFETCHER DATA	ACCESS:         86  HIT:          0  MISS:         86  HIT %:          0  MISS %:        100  MPKI: 0.00172


PSCL2 TOTAL     ACCESS:       5506  HIT:       2602  MISS:       2904  HIT %:    47.2575  MISS %:    52.7425   MPKI: 0.05808
PSCL2 LOAD TRANSLATION INSTRUCTION	ACCESS:       2968  HIT:       2525  MISS:        443  HIT %:    85.0741  MISS %:    14.9259  MPKI: 0.00886
PSCL2 TRANSLATION FROM L1D PREFETCHER INSTRUCTION	ACCESS:         77  HIT:         77  MISS:          0  HIT %:        100  MISS %:          0  MPKI: 0
PSCL2 LOAD TRANSLATION DATA	ACCESS:       2384  HIT:          0  MISS:       2384  HIT %:          0  MISS %:        100  MPKI: 0.04768
PSCL2 TRANSLATION FROM L1D PREFETCHER DATA	ACCESS:         77  HIT:          0  MISS:         77  HIT %:          0  MISS %:        100  MPKI: 0.00154


LLC TOTAL     ACCESS:     609732  HIT:     570614  MISS:      39118  HIT %:    93.5844  MISS %:    6.41561   MPKI: 0.78236
LLC LOAD INSTRUCTION	ACCESS:     283153  HIT:     281825  MISS:       1328  HIT %:     99.531  MISS %:   0.469004  MPKI: 0.02656
LLC LOAD TRANSLATION INSTRUCTION	ACCESS:        354  HIT:        320  MISS:         34  HIT %:    90.3955  MISS %:    9.60452  MPKI: 0.00068
LLC LOAD DATA	ACCESS:      93024  HIT:      88196  MISS:       4828  HIT %:    94.8099  MISS %:    5.19006  MPKI: 0.09656
LLC RFO DATA	ACCESS:      58161  HIT:      39198  MISS:      18963  HIT %:    67.3957  MISS %:    32.6043  MPKI: 0.37926
LLC PREFETCH DATA	ACCESS:      89137  HIT:      75686  MISS:      13451  HIT %:    84.9097  MISS %:    15.0903  MPKI: 0.26902
LLC WRITEBACK DATA	ACCESS:      83878  HIT:      83493  MISS:        385  HIT %:     99.541  MISS %:      0.459  MPKI: 0.0077
LLC LOAD TRANSLATION DATA	ACCESS:       1959  HIT:       1832  MISS:        127  HIT %:    93.5171  MISS %:     6.4829  MPKI: 0.00254
LLC TRANSLATION FROM L1D PREFETCHER DATA	ACCESS:         66  HIT:         64  MISS:          2  HIT %:    96.9697  MISS %:     3.0303  MPKI: 4e-05

LLC AVERAGE MISS LATENCY: 160.104 cycles
LLC RQ	ACCESS:     436721	FORWARD:          0	MERGED:          0	TO_CACHE:     436717
LLC WQ	ACCESS:      83878	FORWARD:          5	MERGED:          0	TO_CACHE:      83878
LLC PQ	ACCESS:      89138	FORWARD:          0	MERGED:          0	TO_CACHE:      89137

LLC Dense regions hint to LLC: 0

RAW hits: 1710811
Loads Generated: 12452785
Loads sent to L1D: 10741974
Stores Generated: 6762963
Stores sent to L1D: 6762969
Major fault: 0 Minor fault: 2610
Allocated PAGES: 2610

stream: 
stream:times selected: 1490783
stream:pref_filled: 129264
stream:pref_useful: 30705
stream:pref_late: 10829
stream:misses: 13312
stream:misses_by_poll: 0

CS: 
CS:times selected: 239225
CS:pref_filled: 86924
CS:pref_useful: 62475
CS:pref_late: 10798
CS:misses: 28979
CS:misses_by_poll: 6

CPLX: 
CPLX:times selected: 1249454
CPLX:pref_filled: 29054
CPLX:pref_useful: 9619
CPLX:pref_late: 5098
CPLX:misses: 149661
CPLX:misses_by_poll: 5

NL_L1: 
NL:times selected: 29098
NL:pref_filled: 2064
NL:pref_useful: 1073
NL:pref_late: 664
NL:misses: 3843
NL:misses_by_poll: 0

total selections: 3008560
total_filled: 109920
total_useful: 56641
total_late: 30406
total_polluted: 11
total_misses_after_warmup: 738228
conflicts: 5294171

test: 175585

DRAM Statistics
 CHANNEL 0
 RQ ROW_BUFFER_HIT:      13805  ROW_BUFFER_MISS:      24924
 DBUS_CONGESTED:         13
 WQ ROW_BUFFER_HIT:       2219  ROW_BUFFER_MISS:      18250  FULL:          0

 AVG_CONGESTED_CYCLE: 4

CPU 0 Branch Prediction Accuracy: 99.7585% MPKI: 0.44248 Average ROB Occupancy at Mispredict: 153.922
Branch types
NOT_BRANCH: 40840208 81.6804%
BRANCH_DIRECT_JUMP: 590734 1.18147%
BRANCH_INDIRECT: 172946 0.345892%
BRANCH_CONDITIONAL: 6311811 12.6236%
BRANCH_DIRECT_CALL: 882989 1.76598%
BRANCH_INDIRECT_CALL: 159039 0.318078%
BRANCH_RETURN: 1042020 2.08404%
BRANCH_OTHER: 0 0%

DRAM PAGES: 1048576
Allocated PAGES: 2610
Average_ROB_Occupancy: 159.193
Average_Decode_Occupancy: 20.0016
Average_FTQ_Occupancy: 8.63542
Indirect max targets: 14 Average targets: 1.17197
Branch_type:  BRANCH_DIRECT_JUMP:  Count Percentage: 10.3882 5.72463 3.62127 9.64657 4.0795 2.2458 1.42889 62.8652 
Branch_type:  BRANCH_INDIRECT:  Count Percentage: 0.0101631 1.16178 9.19758 10.6721 3.53443 2.94497 3.14678 69.3322 
Branch_type:  BRANCH_CONDITIONAL:  Count Percentage: 30.1053 3.09706 1.38659 4.43829 2.04893 1.95797 0.999227 55.9667 
Branch_type:  BRANCH_DIRECT_CALL:  Count Percentage: 0.830483 1.28119 0.595564 4.3629 2.12053 2.19903 1.0544 87.5559 
Branch_type:  BRANCH_INDIRECT_CALL:  Count Percentage: 8.72097 0 2.97619 0.000939355 0 2.18619 3.39326 82.7224 
Branch_type:  BRANCH_RETURN:  Count Percentage: 8.41814 1.20196 1.18069 4.02829 3.56168 3.35822 1.42411 76.8269 
Branch_type:  BRANCH_DIRECT_JUMP:  Total Count: 122305 67399 42635 113574 48030 26441 16823 740144 
Branch_type:  BRANCH_INDIRECT:  Total Count: 35 4001 31675 36753 12172 10142 10837 238769 
Branch_type:  BRANCH_CONDITIONAL:  Total Count: 3795871 390497 174830 559608 258342 246873 125989 7056638 
Branch_type:  BRANCH_DIRECT_CALL:  Total Count: 14717 22704 10554 77315 37578 38969 18685 1551579 
Branch_type:  BRANCH_INDIRECT_CALL:  Total Count: 27852 0 9505 3 0 6982 10837 264189 
Branch_type:  BRANCH_RETURN:  Total Count: 176135 25149 24704 84285 74522 70265 29797 1607471 
Number of unique branch instructions: 10677
Upper 32 bits: 
aaaa
ffff
ffff0000
Unique upper 32 bits: 3
Unique upper 36 bits: 3
Unique upper 40 bits: 5
Unique upper 44 bits: 32
Unique upper 48 bits: 158
Offset_3 4406
Offset_4 261
Offset_5 487
Offset_6 539
Offset_7 638
Offset_8 578
Offset_9 511
Offset_10 404
Offset_11 343
Offset_12 311
Offset_13 246
Offset_14 247
Offset_15 199
Offset_16 228
Offset_17 166
Offset_18 144
Offset_19 258
Offset_20 144
Offset_21 239
Offset_22 410
Offset_23 241
Offset_24 352
Offset_25 117
Offset_47 94
Offset_64 2
decode_dispatch_called: 21316031 51.9047
Dispatch_width: 0 10795744 50.6461 26.2877
Dispatch_width: 1 648237 3.04108 1.57846
Dispatch_width: 2 714355 3.35126 1.73946
Dispatch_width: 3 445467 2.08982 1.08472
Dispatch_width: 4 2717553 12.7489 6.61726
Dispatch_width: 5 251750 1.18104 0.613013
Dispatch_width: 6 5742925 26.9418 13.9841
Empty_decode_cycles: 19751589 48.0953
ROB_full_cycles: 4006726 9.75641
Starvation_cycles_per_kilo_instr: 313.18
Starvation_cycles_per_kilo_instr_3: 283.487
Starvation_cycles_per_kilo_instr_0: 265.406
Branch_type_1  (3,1)  (4,10)  (5,38)  (6,72)  (7,124)  (8,153)  (9,134)  (10,99)  (11,77)  (12,48)  (13,12)  (14,2)  (15,3)  (16,4)  (18,1)  (19,5)  (20,2)  (21,1)  (22,3)  (23,2)  (24,10)  (25,12)  (64,1) 
Branch_type_2  (3,1)  (4,1)  (5,1)  (8,3)  (9,4)  (10,1)  (12,1)  (13,1)  (14,1)  (16,3)  (17,2)  (20,2)  (21,2)  (23,5)  (24,1)  (47,43) 
Branch_type_3  (3,4404)  (4,250)  (5,444)  (6,451)  (7,483)  (8,356)  (9,279)  (10,165)  (11,131)  (12,58)  (13,11)  (64,1) 
Branch_type_4  (6,3)  (7,8)  (8,25)  (9,56)  (10,66)  (11,69)  (12,114)  (13,104)  (14,113)  (15,94)  (16,100)  (17,76)  (18,61)  (19,126)  (20,73)  (21,127)  (22,215)  (23,136)  (24,206)  (25,101) 
Branch_type_5  (8,3)  (9,1)  (10,4)  (11,5)  (12,3)  (13,14)  (14,16)  (15,11)  (16,22)  (17,11)  (18,23)  (19,14)  (20,11)  (21,13)  (22,43)  (23,26)  (24,38) 
Branch_type_6  (5,4)  (6,13)  (7,23)  (8,38)  (9,37)  (10,69)  (11,61)  (12,87)  (13,104)  (14,115)  (15,91)  (16,99)  (17,77)  (18,59)  (19,113)  (20,56)  (21,96)  (22,149)  (23,72)  (24,97)  (25,4)  (47,51) 
aaaaab1fc620: 2ac9e77e 2aca717c 2aca8eff 2acaf6bc 2acaf9aa 2acaf9f1 2acb1abc 2acb1b7f 2acd4e22 2acdb712 2acf5f9e 2ad0ef44 2ad3f15c 2ad414e6 2ad60e42 2ad8609c 2ad99830 2ada35cc 2ada4676 2ada6612 2adf183e 2adf30e5 2adf5602 2adf785c 2ae11572 2aeb2dcf 2aee101b 2aee1ae1 2aee9456 2b156a8c 2b156b61 2b156bea 2b167f35 2b177656 2b17feec 2b1a3e5a 
aaaaab1fc640: 2ac9ec07 2aca656e 2aca801d 2acaea11 2acaee73 2acb13ee 2acb1470 2acd462b 2ad0ef5d 2ad3f3fe 2ad86e9b 2ada1641 2ada4115 2ada6638 2adf30d4 2ae12e57 2aee1033 2b1693ab 2b16948c 2b169491 2b17d915 2b17fa85 2b17fccd 
aaaaab1fc740: 2aca1fb0 2aca45b3 2aca5aa1 2aca5c69 2aca66f9 2aca9426 2acaeecb 2acf3d2d 2acf3d64 2acf6089 2ad017ea 2ad5e7ef 2ad61064 2ad87373 2ad9bf84 2ad9c093 2ae9b606 2aea9ffa 2aee99f5 2aee9a2c 2aeece4b 
aaaaab1fcb00: 2acf2d72 2acf3734 2acf604c 2acfa5b7 2ad397b5 2ad3b800 2ae8af7d 2ae8aff0 2ae9aaba 2aea9fc6 2aeaa358 2aee910b 2aee91cf 2aee928e 2aee92e4 2aee99de 2af6fe87 2af70dfe 2b16850c 2b16c4a2 2b1765f4 2b178094 2b17d925 2b17db06 2b17ec8f 
aaaaab1fcb10: 2acf2d95 2acf3758 2acf6052 2acfa5f4 2ad397c3 2ad3b81c 2ae8af88 2ae8affe 2ae9aacf 2aeaa017 2aeaa36d 2aee9114 2aee91d8 2aee934d 2aee9353 2aee9a14 2af6fe8c 2af70e22 2b168526 2b16c542 2b176609 2b1780a3 2b17d95d 2b17db44 2b17ecac 
aaaaac68f310: 2ac9ec8c 2ac9fb44 2ac9fbd2 2aca59ab 2acac04c 2acaf6e0 2acaf6ec 2acaf6f9 2acaf700 2acaf708 2acf2d90 2ad3cfbd 2ad3cfc4 2ad3d000 2ad3f35f 2ad4955d 2ad49571 2ad4f3f2 2ad4f400 2ad5f240 2ad5f37c 2ad5f86a 2ad5f86f 2ad5f880 2ad5fc0d 2ad5fc14 2ad5fc21 2ad5fe1b 2ad873bb 2ad873e3 2ad8a6b2 2ad9086e 2ad93096 2ad9bbb2 2ada152c 2ada1554 2ada3332 2ada5522 2adf3130 2adf313c 2adf3a3f 2adf3bd9 2adf5788 2adf7a8d 2ae07f6b 2ae0857a 2ae0857e 2ae08630 2ae08634 2ae08637 2ae08642 2ae0866f 2ae086e4 2ae086ec 2ae08717 2ae0871b 2aee0170 2aee1d38 2aee75f4 2aee7662 2aee85ca 2aee85e4 2aee8eef 2aee9a0a 2af70b84 2af74e8f 2b17d843 
aaaaac690ef0: 2aca598b 2acb111b 2acb175f 2acb1772 2acbfaf4 2acbfb00 2acf374f 2acf6d43 2acfa5c8 2ad3baf1 2ad3d4ac 2ad3d4b8 2ad3f1cf 2ad486b2 2ad5a59b 2ad5fc64 2ad5fcf9 2ad6121c 2ad906e9 2ad907bf 2ad9bada 2ada16ce 2ada1ad5 2ada43df 2ada64c0 2ada72ee 2adeb71a 2adf3bcb 2adf7a38 2adf7c6a 2adf8872 2adf8880 2adf9959 2adf9abe 2ae07f78 2ae08503 2ae08754 2ae12e80 2aea3bea 2aecb509 2aee00b0 2aee2bdd 2aee5467 2aee5601 2aee8f20 2af703fd 2af7048b 2af74e74 2dfba627 
Unique trigger count: 
1 10166
2 553
3 96
4 32
5 16
6 9
7 7
8 2
9 3
10 2
11 1
12 1
13 2
14 2
16 2
19 1
21 1
23 1
25 2
36 1
49 1
67 1
BTB PER SET UNIQUE ADDR: 3 5 3 3 1 1 3 2 4 0 1 0 5 3 1 3 4 2 3 5 3 4 2 4 4 6 1 4 3 2 6 5 4 3 5 3 1 7 5 2 4 4 4 6 6 4 4 4 6 3 3 2 3 1 0 3 4 3 3 3 1 4 2 3 1 4 5 4 3 5 5 1 1 4 2 3 3 6 1 4 2 2 2 4 3 3 2 4 3 2 6 5 3 5 2 0 3 4 2 3 4 4 2 3 3 2 1 2 4 2 2 2 4 5 2 6 2 3 4 1 6 4 2 0 1 2 2 2 6 4 6 2 4 1 6 4 2 2 3 3 4 5 4 2 3 5 3 5 5 4 2 9 3 5 4 1 4 4 4 3 5 6 4 4 6 5 2 3 9 3 3 3 6 3 1 2 4 5 5 1 3 4 7 4 7 6 4 1 2 4 5 2 3 4 4 4 3 3 3 5 3 2 4 2 3 3 2 5 3 1 2 4 5 4 4 2 3 5 4 0 1 3 2 4 4 2 4 3 0 4 8 4 3 4 4 4 5 2 3 3 1 0 7 4 11 8 1 4 4 4 2 2 1 4 2 6 3 5 4 3 4 4 4 2 3 7 3 2 4 2 3 2 2 4 4 3 1 2 3 3 4 3 6 2 5 5 4 3 1 1 0 3 1 7 2 1 5 3 2 2 3 3 2 2 3 2 4 2 8 5 4 1 3 2 5 2 7 6 2 4 4 6 3 4 2 3 2 6 1 2 5 0 2 5 5 2 3 3 6 0 3 0 1 5 4 3 1 3 3 4 3 7 6 3 5 3 2 0 5 1 2 5 2 4 7 5 1 1 2 1 3 2 2 4 4 4 3 5 4 4 5 2 1 4 3 3 4 2 6 2 5 4 4 2 3 1 5 1 1 3 4 2 5 2 2 4 5 3 1 1 0 3 5 4 2 3 6 3 2 3 1 1 5 5 4 6 3 0 2 5 2 2 9 3 5 6 3 3 4 0 3 4 5 4 5 6 2 4 3 3 4 3 1 3 5 1 1 4 7 3 3 3 4 6 1 3 4 2 3 3 0 4 5 2 2 1 3 5 2 1 2 1 3 2 0 4 3 1 6 1 5 2 3 4 1 7 3 3 3 2 5 1 1 1 1 2 2 2 2 3 3 2 5 8 2 1 2 5 4 6 4 5 5 3 6 6 1 7 6 4 5 3 4 6 3 5 2 1 4 1 2 6 6 3 6 2 8 4 7 10 4 6 3 6 1 3 3 1 4 4 8 4 5 3 2 1 4 3 3 6 4 2 3 8 3 2 3 4 2 4 5 3 2 0 1 0 0 9 5 3 6 8 2 2 3 3 6 2 4 2 6 2 6 8 2 5 4 4 3 3 6 3 3 2 2 3 2 0 3 2 5 4 8 3 2 4 3 5 2 2 5 4 3 3 5 5 3 5 3 3 8 2 4 4 2 0 4 4 3 4 4 2 5 2 3 0 5 3 2 3 6 2 5 4 6 4 5 3 2 4 5 5 4 4 6 6 3 3 2 3 3 2 5 2 4 3 5 3 4 3 1 5 2 3 3 3 6 4 5 5 0 6 1 3 3 3 3 1 3 1 3 3 3 1 2 1 8 2 0 3 2 0 1 1 1 3 1 4 2 4 6 4 2 1 3 4 8 3 2 2 2 3 2 4 2 2 4 2 3 2 0 2 1 4 2 2 3 6 4 1 3 3 1 5 4 4 8 2 2 4 4 3 0 5 3 4 5 2 1 3 3 4 0 3 8 6 3 4 0 3 2 4 2 1 3 7 7 2 2 2 5 3 4 3 4 3 3 4 2 3 1 3 4 0 5 3 1 2 0 4 5 2 4 2 2 1 3 2 4 4 3 1 3 2 5 2 2 2 5 3 3 2 3 5 2 4 7 5 5 2 6 3 5 4 5 4 3 2 4 4 3 6 2 1 9 3 3 4 5 3 1 3 3 6 3 0 2 1 6 4 3 6 4 5 6 3 1 3 3 4 5 2 3 4 3 2 6 4 2 1 5 2 2 4 5 5 4 5 3 6 5 4 1 3 0 4 0 2 6 2 6 5 5 3 4 1 3 2 5 8 5 4 9 7 6 4 6 5 2 6 4 3 1 4 4 6 5 5 4 4 5 2 5 4 2 4 6 7 4 2 3 2 3 5 3 6 8 5 6 2 3 3 0 5 6 1 7 4 1 3 7 4 3 5 2 1 2 4 4 2 5 4 2 7 4 5 4 5 3 4 3 3 5 2 2 5 4 3 3 3 6 3 4 3 6 2 5 3 2 5 5 2 10 4 3 3 3 2 2 3 4 7 6 2 3 2 3 2 3 1 3 3 4 4 2 4 6 6 4 6 0 3 3 4 4 5 2 1 3 2 3 1 2 1 4 1 3 3 3 5 2 8 5 3 2 1 10 1 2 4 1 2 6 5 3 7 3 5 5 5 3 5 3 2 1 1 5 1 4 4 3 8 4 1 7 4 6 2 4 5 5 4 5 8 4 4 6 1 4 5 7 4 3 3 4 4 6 6 2 6 6 6 4 4 4 5 1 2 4 5 1 2 2 1 4 5 2 3 5 2 2 5 4 2 6 1 7 3 3 2 3 1 3 5 3 4 3 5 2 6 2 4 7 3 4 5 3 5 2 8 3 5 3 8 6 2 6 1 5 2 1 2 4 4 3 1 3 4 3 1 2 3 4 4 3 3 3 4 2 6 2 5 4 5 0 5 3 3 2 6 8 1 8 0 1 4 5 2 5 1 3 3 4 1 1 1 4 5 2 4 1 4 4 6 5 1 4 3 2 6 10 4 3 8 6 7 2 1 4 6 7 4 2 3 4 3 4 4 5 3 1 4 2 3 5 7 5 3 3 6 1 2 6 3 4 1 3 2 6 8 3 3 3 3 4 5 2 6 6 6 5 2 1 5 4 2 4 3 5 4 4 5 7 3 5 4 3 5 5 3 1 8 4 4 3 4 3 2 4 5 2 2 5 5 3 3 5 2 1 3 3 8 5 2 3 4 2 4 3 3 4 3 2 1 4 2 4 2 5 3 4 4 2 1 2 6 1 4 2 4 2 4 6 2 1 5 4 4 3 3 5 2 3 4 5 5 4 4 4 3 3 3 2 3 5 2 4 1 4 0 8 3 3 6 4 4 5 7 3 2 3 3 2 3 4 1 4 2 4 2 0 6 1 6 3 3 3 4 3 2 5 3 4 2 4 1 6 3 0 3 3 1 1 4 1 6 3 3 6 4 2 2 2 3 2 2 6 1 3 5 3 3 3 3 2 2 5 0 2 3 4 3 2 1 2 0 2 0 4 2 4 3 2 3 2 1 2 5 4 2 6 1 3 3 2 2 5 5 2 2 6 0 1 2 3 2 1 2 3 3 5 3 1 1 7 2 1 4 1 6 1 4 2 3 6 2 3 2 1 3 3 1 2 3 4 2 2 3 1 3 0 6 3 4 3 0 4 2 4 4 5 3 4 4 2 3 2 2 2 3 6 0 2 3 4 3 3 2 3 3 2 8 7 2 3 2 4 1 1 3 7 2 3 0 3 2 4 3 4 5 6 5 10 0 4 1 8 4 4 5 3 8 3 4 8 3 0 6 4 3 3 5 3 3 3 1 2 5 1 2 3 3 2 3 6 3 5 4 6 1 1 5 4 3 3 5 5 3 6 2 5 4 2 6 4 2 3 1 3 6 5 3 1 3 3 3 4 4 2 2 3 2 3 1 3 7 0 2 2 3 3 3 5 3 4 2 5 1 2 1 5 2 4 5 6 1 1 7 1 4 2 3 4 7 2 3 2 5 5 3 5 3 5 3 5 10 4 4 3 5 2 5 4 4 2 3 0 2 2 4 4 3 2 4 3 6 4 2 3 9 0 3 2 4 3 4 2 4 3 6 3 3 1 5 3 3 4 3 3 0 2 4 1 7 2 7 6 1 4 3 2 0 4 2 3 5 3 6 2 3 2 2 3 5 6 1 4 2 0 3 2 4 5 3 2 3 5 3 3 2 6 4 3 1 5 3 0 2 4 1 1 8 2 0 4 2 4 3 3 3 6 2 3 7 2 6 4 6 2 6 5 3 3 2 7 1 3 1 3 3 4 4 2 4 2 1 3 5 0 3 0 4 4 5 2 2 5 1 3 3 3 1 2 3 4 2 4 2 6 3 3 3 1 3 3 3 4 2 3 5 2 1 1 2 2 5 1 5 1 7 4 3 3 1 5 0 2 3 5 4 3 4 5 6 4 3 3 4 3 2 0 3 2 0 2 1 2 2 4 2 5 2 2 3 4 1 2 4 3 2 3 8 3 2 8 7 4 2 3 2 3 5 3 4 5 3 4 1 2 4 5 4 2 4 3 3 4 3 5 7 4 3 0 4 1 0 2 3 0 4 4 5 1 3 4 6 5 0 2 2 5 1 5 2 3 3 8 3 2 2 3 7 1 7 3 4 7 1 1 3 1 4 4 2 0 2 4 4 6 4 1 0 3 4 6 1 1 1 3 6 2 1 5 5 3 3 5 4 1 6 2 6 2 1 2 3 2 2 6 1 3 3 3 3 4 1 5 2 4 3 4 2 1 3 5 4 4 0 
BTB PER SET COUNT: 3 121 3 3 1 1 3 2 4 0 1 0 3335 3 1 3 4 4 3 1097 3 4 2 4 4 719 1 4 1050 2 3680 27 5 3 10 3 2715 567 559 3 4 5 7 1535 3822 4 4 4 1214 4 3 2 3 1 0 3 5 4 3 3 1 4 2 3 1 272 474 4 3 751 557 1 1 4 3 3 361 571 1 5 2 2 2 5 3 3 3 5 3 2 2121 351 3 2761 2 0 3 4 2 4 4 4 4 3 3 2 1 2 4 2 2 2 5 557 2 1344 2 3 4 16 133 4 2 0 1 2 3 2 1651 6 1726 4 4 1 701 4 2 2 3 3 5 6 4 2 3 9 3 3137 8 4 2 4868 3 1998 5 1 4 4 4 3 8 743 4 4 9 1388 2 4 7016 3 3 3 92 3 1 2 4 8 697 1 3 4 6455 4 10 10 4 1 2 4 19 2 3 4 4 6 4 3 3 6 3 4 4 2 5 4 2 1097 3 1 3 5 18 4 4 2 3 9 4 0 1 3 2 4 5 2 4 33 0 4 6014 4 3 4 4 4 7 2 3 3 1 0 2195 4 8209 1398 1 4 4 4 2 2 1 5 2 1392 5 7 4 3 4 4 4 2 1092 1065 3 2 4 2 3 2 2 4 4 4 1 2 3 3 5 3 1403 2 558 3337 4 3 1 1 0 3 1 996 2 1 19 3 2 2 3 4 2 2 3 2 4 2 1407 742 4 1 4 3 741 6 1934 938 2 7 4 1700 4 4 2 3 2 21 1 2 1340 0 2 18 1079 3 1337 3 29 0 3 0 1 1342 1337 3 1 3 4 6 3 137 9 3 24 4 2 0 6 1 2 9 2 4 1892 1308 1 1 2 1 3 2 2 5 8 4 3 7 4 4 22 2 1 6 3 3 4 103 9 4 21 4 4 2 3 1 2425 5 1 3 4 2 5 2 2 5 1095 4 1 690 0 6 5 4 691 4 131 3 3 52 1 1 7 9 4 10 7 0 2 7 108 2 2404 3 724 6120 3 3 4 0 4 4 925 4 10 766 2 4 3 3 4 3 1 3 1441 1 1 4 1176 5 3 41 4 1459 1 4 5 2 3 3 0 4 53 401 2 1 3 741 3 1 2 1 30 342 0 5 4 1 32 1 6 2 3 4 1 179 3 3 3 2 1390 9 1 1 1 2 2 2 2 3 3 2 6 48 2 1 2 2190 4 349 4 1102 1043 3 21 1409 1 1372 3410 6 7 3 4 28 3 3789 3 1 7 1 2 3844 180 8 17 2 68 4 726 9181 5 1055 5 2121 1 3 7 1 4 5 5149 4 1447 3 3 1 4 3 3 1407 4 2 3 3830 3 2 3 4 2 4 8 54 2 0 1 0 0 4379 7 4 1394 3722 3 2 692 4 8 2 4 2 9 3 10 1901 2 253 4 4 4 3 4093 3 3 2 2 3 691 0 3 4 14 364 2840 1129 2 4 3 16 2 2 2822 1093 4 7 799 6 3 8 3 3 2295 2 4 4 2 0 4 4 4 5 4 2 7 2 3 0 7 3 2 4 8752 2 32 5 1585 4 2196 1336 2 5 559 8 4 4 3492 2848 3 4 2 3 3 2 5 1335 4 3 31 1092 6 3 2 1341 3 3 3 3 1410 4 16 42 0 2196 1 3 3 1336 3 1 3 1 3 4 6 1 1335 1 2044 2 0 3 2 0 1 1 1 3 1 5 3 4 1046 4 691 1 4 4 12 3 2 2 2 4 3 4 2 2 404 2 3 695 0 2 1 5 2 2 3 1228 4 1 3 3 1 20 4 4 4358 2 4 4 4 4 0 102 3 4 2073 2 1 3 3 5 0 3 3460 3464 5 4 0 3 3 61 2 2 3 2179 1416 2 2 2 16 5 4 5 2671 3 6 6 2 7 1 3 4 0 6 4 2 2 0 4 8 3 4 2 2 1 3 4 4 124 3 2 3 2 1597 3 2 3 296 3 3 2 3 1055 2 8 1320 10 9 3 1962 4 1428 6 8 4 3 2 4 4 3 3495 3 1 2905 692 3 4 1469 3 1 3 3 1739 3 0 3 1 262 4 3 3443 5 8 64 5 1 5 3 4 6 2 3 4 4 2 578 17 3 1 1258 2 2 107 13 1718 4 741 3 102 45 4 1 3 0 5 0 2 753 2 44 8 1043 3 24 1 3 2 1441 128 8 362 4228 2735 1175 4 1471 12 2 34 4 3 1 693 4 1738 49 1025 4 4 38 2 245 7 3 4 982 1797 4 2 3 402 4 3350 5 24 895 9 2677 2 3 3 0 275 34 1 5065 4 1 3 1588 5 361 13 2 1 2 4 7 2 191 4 2 2881 5 7 4 1389 3 43 3 3 31 2 2 19 4 3 3 3 3021 3 1741 271 1251 3 27 6 2 7 1380 2 5288 4 3 3 3 2 2 3 4 2087 1407 6 3 2 3 2 3 1 3 3 5 4 2 4 16 1636 4 1053 0 3 4 4 1093 299 2 2 3 4 3 1 3 1 7 1 4 3 3 8 2 4095 2002 3 2 2 8258 1 2 4 3 2 1391 78 3 3752 4 22 8 1898 3 32 4 2 1 1 37 1 5 4 3 3001 4 1 1472 4 1742 2 362 23 18 4 1735 1269 4 5 1759 1 7 6 3779 4 3 3 4 4 2013 1378 2 2696 1047 1526 4 4 4 9 1 3 4 1585 2 2 2 1 4 7 2 3 419 2 2 25 4 2 24 1 3974 3 3 2 3 1 4 7 3 5 5 11 2 29 2 4 1972 3 4 6 3 1163 2 4971 3 871 4 5097 5498 2 3802 1 25 2 1 2 410 5 3 1 5 82 3 1 3 361 5 4 3 3 3 5 2 1097 2 8 5 15 0 1389 3 3 2 50 5463 1 45 0 1 4 8 2 26 1 3 696 4 1 1 1 4 16 2 4 1 4 4 5222 23 1 4 3 2 2131 9832 1403 3 5860 31 1749 2 1 4 1461 2105 5 2 3 5 3 4 4 18 3 1 4 2 3 20 3427 2762 3 3 1050 1 2 28 3 5 1 4 3 3993 4673 692 3 3 3 4 17 2 1441 1453 1590 7 2 1 26 4 2 4 3 36 4 5 24 1458 3 1389 103 342 1441 1980 8 1 3838 4 4 3 16 3 2 20 14 7 3 18 512 4 3 752 2 1 4 3 3402 55 2 3 4 2 4 3 3 5 4 5 3 4 2 5 3 23 3 7 4 2 1 2 760 1 4 3 4 2 5 342 2 1 6 4 693 3 3 3044 5 3 70 7 22 6 4 4 4 5 3 3 4 2649 2 4 2 4 0 4154 3 3 2082 6 4 1735 5492 3 2 3 3 2 3 4 2 4 3 4 4 0 3987 2 12 3 3 3 4 5 3 1095 3 4 960 5 1 378 3 0 3 3 1 10 962 1 716 3 3 1396 4 2 2 2 3 2 2 1738 1 3 8 5 3 3 4 2 2 7 0 5 3 4 693 2 1 2 0 2 0 4 2 11 3 2 3 695 1 17 9 37 2 3017 1 14 3 2 2 14 13 133 2 19719 0 1 2 3 2 1 2 3 4 1456 496 1 1 1120 2 1 4 1 1951 1 4 2 3 2270 3 3 2 1 3 3 1 2 3 4 2 2 3 1 3 0 4147 3 4 4 0 5 2 4 4 7 3 5 4 2 3 2 2 2 3 8 0 2 3 4 3 3 3 3 4 2 3895 4005 2 3 2 4 1 1 3 1271 2 3 0 3 3 4 3 4 7 1736 23 6039 0 7 1 1581 6 4 22 3 2885 12 6 6106 3 0 2485 1093 3 6 7 3 3 3 1 2 694 1 2 3 3 2 3 1268 6 1375 4 752 4002 1 893 4 3 3 8 8 3 2523 2 1162 4 2 1397 6 2 271 1 1092 1422 20 186 1 3 3 5 4 4 2 2 5 2 3 1 4 1866 0 2 2 18 3 3 361 3 4 2 2764 1 2 1 1043 3 1678 2641 4000 1 1 4515 1 1338 2 5 4 1578 402 3 2 5 1043 3 346 3 2763 3 6 6545 4 5 10904 2898 3 1389 1093 5 2 3 0 2 2 5 4 3 2 43 3 10 4 2 3 4031 0 1093 2 1093 182 4 3 4 3 1659 4 3 1 2138 3 3 4 3 3 0 2 4 2 3806 3 861 1826 1 4 3 2 0 4 2 3 1709 5 3442 2 3 2 2 3 13 6279 1 4 2 0 3 2 4 1389 692 2 7 1386 3 4 2 1228 4 3 1 23 3 0 2 5 1090 1 5280 2 0 4 2 4 3 5 3 3278 5 603 1894 3 1736 4 1393 2 1443 64 3 3 2 2892 3 5 1 3 1093 4 4 2 4 2 3 3 350 0 3 0 4 4 567 2 2 580 1 3 4 692 1 2 3 4 2 4 2 143 3 3 3 1 3 169 3 5 2 3 8 2 1 1 2 2 1081 1 8 1 5191 4 3 3 1 8 0 2 3 13 4 3 698 7 701 4 3 3 5 3 2 0 3 5 0 2 1 2 2 4 3 2190 2 2 3 4 1 3 4 3 2 3 2212 5 2 3959 1725 88 2 3 2 3 28 3 4 9 3 6 1 2 4 6 696 2 4 3 3 4 3 6 1929 4 4 0 4 1 0 2 3 0 4 1094 25 1 3 4 1672 6 0 2 2 77 1 7 2 5 3 2755 3 2 2 3 2171 1 2887 3 4 3621 1 1 3 1 4 5 2 0 2 4 4 33 4 1 0 3 4 1046 1 1 1 3 3338 2 1 22 8 3 3 1389 4 1 1761 2 1394 9 1 2 3 2 2 8 1 3 3 5 4 4 1 16 2 9 3 4 2 1 3 1069 4 5 0 
