
*** ChampSim Multicore Out-of-Order Simulator ***

Warmup Instructions: 50000000
Simulation Instructions: 50000000
Number of CPUs: 1
LLC sets: 2048
LLC ways: 16
Off-chip DRAM Size: 4096 MB Channels: 1 Width: 64-bit Data Rate: 6400 MT/s
CPU 0 runs ./micro_traces/srv769.trace.gz
.gz
ITLB has LRU replacement policy
DTLB has LRU replacement policy
STLB has LRU replacement policy
FDIP Prefetcher at L1I
L1I has LRU replacement policy
L1D has LRU replacement policy
Initialize SRRIP state for L2C
Initialize DRRIP state for LLC
Heartbeat_Variant_0 : 1347 0.328857 per_variant_size: 0 1347 0 0 0 0 0 0 0 
Heartbeat_Variant_1 : 2574 0.628418 per_variant_size: 0 511 2063 0 0 0 0 0 0 
Heartbeat_Variant_2 : 0 0 per_variant_size: 0 0 0 0 0 0 0 0 0 
Heartbeat_Variant_3 : 0 0 per_variant_size: 0 0 0 0 0 0 0 0 0 
Heartbeat_Variant_0_evicts 0 : 5786 1 : 545 2 : 0 3 : 0 
Heartbeat_Variant_1_evicts 0 : 501 1 : 0 2 : 0 3 : 0 
Heartbeat_Variant_2_evicts 0 : 0 1 : 0 2 : 0 3 : 0 
Heartbeat_Variant_3_evicts 0 : 0 1 : 0 2 : 0 3 : 0 
Heartbeat CPU 0 instructions: 10000003 cycles: 2799712 heartbeat IPC: 3.5718 cumulative IPC: 3.5718 (Simulation time: 0 hr 2 min 37 sec) 
Heartbeat_Variant_0 : 1358 0.331543 per_variant_size: 0 1358 0 0 0 0 0 0 0 
Heartbeat_Variant_1 : 2599 0.634521 per_variant_size: 0 497 2102 0 0 0 0 0 0 
Heartbeat_Variant_2 : 0 0 per_variant_size: 0 0 0 0 0 0 0 0 0 
Heartbeat_Variant_3 : 0 0 per_variant_size: 0 0 0 0 0 0 0 0 0 
Heartbeat_Variant_0_evicts 0 : 5638 1 : 100 2 : 0 3 : 0 
Heartbeat_Variant_1_evicts 0 : 98 1 : 0 2 : 0 3 : 0 
Heartbeat_Variant_2_evicts 0 : 0 1 : 0 2 : 0 3 : 0 
Heartbeat_Variant_3_evicts 0 : 0 1 : 0 2 : 0 3 : 0 
Heartbeat CPU 0 instructions: 20000002 cycles: 5597510 heartbeat IPC: 3.57424 cumulative IPC: 3.57302 (Simulation time: 0 hr 4 min 22 sec) 
Heartbeat_Variant_0 : 1377 0.336182 per_variant_size: 0 1377 0 0 0 0 0 0 0 
Heartbeat_Variant_1 : 2635 0.643311 per_variant_size: 0 486 2149 0 0 0 0 0 0 
Heartbeat_Variant_2 : 0 0 per_variant_size: 0 0 0 0 0 0 0 0 0 
Heartbeat_Variant_3 : 0 0 per_variant_size: 0 0 0 0 0 0 0 0 0 
Heartbeat_Variant_0_evicts 0 : 5650 1 : 340 2 : 0 3 : 0 
Heartbeat_Variant_1_evicts 0 : 333 1 : 0 2 : 0 3 : 0 
Heartbeat_Variant_2_evicts 0 : 0 1 : 0 2 : 0 3 : 0 
Heartbeat_Variant_3_evicts 0 : 0 1 : 0 2 : 0 3 : 0 
Heartbeat CPU 0 instructions: 30000001 cycles: 8397403 heartbeat IPC: 3.57156 cumulative IPC: 3.57253 (Simulation time: 0 hr 6 min 6 sec) 
Heartbeat_Variant_0 : 1382 0.337402 per_variant_size: 0 1382 0 0 0 0 0 0 0 
Heartbeat_Variant_1 : 2637 0.643799 per_variant_size: 0 480 2157 0 0 0 0 0 0 
Heartbeat_Variant_2 : 0 0 per_variant_size: 0 0 0 0 0 0 0 0 0 
Heartbeat_Variant_3 : 0 0 per_variant_size: 0 0 0 0 0 0 0 0 0 
Heartbeat_Variant_0_evicts 0 : 5578 1 : 148 2 : 0 3 : 0 
Heartbeat_Variant_1_evicts 0 : 144 1 : 0 2 : 0 3 : 0 
Heartbeat_Variant_2_evicts 0 : 0 1 : 0 2 : 0 3 : 0 
Heartbeat_Variant_3_evicts 0 : 0 1 : 0 2 : 0 3 : 0 
Heartbeat CPU 0 instructions: 40000003 cycles: 11196357 heartbeat IPC: 3.57276 cumulative IPC: 3.57259 (Simulation time: 0 hr 7 min 50 sec) 
Heartbeat_Variant_0 : 1381 0.337158 per_variant_size: 0 1381 0 0 0 0 0 0 0 
Heartbeat_Variant_1 : 2639 0.644287 per_variant_size: 0 478 2161 0 0 0 0 0 0 
Heartbeat_Variant_2 : 0 0 per_variant_size: 0 0 0 0 0 0 0 0 0 
Heartbeat_Variant_3 : 0 0 per_variant_size: 0 0 0 0 0 0 0 0 0 
Heartbeat_Variant_0_evicts 0 : 5539 1 : 15 2 : 0 3 : 0 
Heartbeat_Variant_1_evicts 0 : 16 1 : 0 2 : 0 3 : 0 
Heartbeat_Variant_2_evicts 0 : 0 1 : 0 2 : 0 3 : 0 
Heartbeat_Variant_3_evicts 0 : 0 1 : 0 2 : 0 3 : 0 
Heartbeat CPU 0 instructions: 50000001 cycles: 13994358 heartbeat IPC: 3.57398 cumulative IPC: 3.57287 (Simulation time: 0 hr 9 min 39 sec) 

Warmup complete CPU 0 instructions: 50000001 cycles: 13994358 (Simulation time: 0 hr 9 min 39 sec) 

Cycle: 20000000 FTQ IN: 58153899 FTQ occupancy: 20.528 DECODE IN: 58153899 DECODE occupancy: 53.0361 ROB IN: 58153899 ROB occupancy: 317.425 ROB OUT: 58153880
Heartbeat_Variant_0 : 1387 0.338623 per_variant_size: 0 1387 0 0 0 0 0 0 0 
Heartbeat_Variant_1 : 2648 0.646484 per_variant_size: 0 467 2181 0 0 0 0 0 0 
Heartbeat_Variant_2 : 0 0 per_variant_size: 0 0 0 0 0 0 0 0 0 
Heartbeat_Variant_3 : 0 0 per_variant_size: 0 0 0 0 0 0 0 0 0 
Heartbeat_Variant_0_evicts 0 : 5634 1 : 258 2 : 0 3 : 0 
Heartbeat_Variant_1_evicts 0 : 255 1 : 0 2 : 0 3 : 0 
Heartbeat_Variant_2_evicts 0 : 0 1 : 0 2 : 0 3 : 0 
Heartbeat_Variant_3_evicts 0 : 0 1 : 0 2 : 0 3 : 0 
Heartbeat CPU 0 instructions: 60000002 cycles: 21328104 heartbeat IPC: 1.36356 cumulative IPC: 1.36356 (Simulation time: 0 hr 11 min 59 sec) 
Heartbeat_Variant_0 : 1391 0.3396 per_variant_size: 0 1391 0 0 0 0 0 0 0 
Heartbeat_Variant_1 : 2649 0.646729 per_variant_size: 0 468 2181 0 0 0 0 0 0 
Heartbeat_Variant_2 : 0 0 per_variant_size: 0 0 0 0 0 0 0 0 0 
Heartbeat_Variant_3 : 0 0 per_variant_size: 0 0 0 0 0 0 0 0 0 
Heartbeat_Variant_0_evicts 0 : 5610 1 : 42 2 : 0 3 : 0 
Heartbeat_Variant_1_evicts 0 : 39 1 : 0 2 : 0 3 : 0 
Heartbeat_Variant_2_evicts 0 : 0 1 : 0 2 : 0 3 : 0 
Heartbeat_Variant_3_evicts 0 : 0 1 : 0 2 : 0 3 : 0 
Heartbeat CPU 0 instructions: 70000003 cycles: 28516610 heartbeat IPC: 1.39111 cumulative IPC: 1.3772 (Simulation time: 0 hr 14 min 19 sec) 
Cycle: 30000000 FTQ IN: 13924751 FTQ occupancy: 14.9913 DECODE IN: 13924744 DECODE occupancy: 37.5756 ROB IN: 13924732 ROB occupancy: 248.337 ROB OUT: 13924457
Heartbeat_Variant_0 : 1391 0.3396 per_variant_size: 0 1391 0 0 0 0 0 0 0 
Heartbeat_Variant_1 : 2658 0.648926 per_variant_size: 0 466 2192 0 0 0 0 0 0 
Heartbeat_Variant_2 : 0 0 per_variant_size: 0 0 0 0 0 0 0 0 0 
Heartbeat_Variant_3 : 0 0 per_variant_size: 0 0 0 0 0 0 0 0 0 
Heartbeat_Variant_0_evicts 0 : 5701 1 : 210 2 : 0 3 : 0 
Heartbeat_Variant_1_evicts 0 : 211 1 : 0 2 : 0 3 : 0 
Heartbeat_Variant_2_evicts 0 : 0 1 : 0 2 : 0 3 : 0 
Heartbeat_Variant_3_evicts 0 : 0 1 : 0 2 : 0 3 : 0 
Heartbeat CPU 0 instructions: 80000000 cycles: 35814374 heartbeat IPC: 1.37028 cumulative IPC: 1.37488 (Simulation time: 0 hr 16 min 28 sec) 
Cycle: 40000000 FTQ IN: 13798811 FTQ occupancy: 14.8666 DECODE IN: 13798746 DECODE occupancy: 36.9488 ROB IN: 13798698 ROB occupancy: 244.902 ROB OUT: 13798644
Heartbeat_Variant_0 : 1391 0.3396 per_variant_size: 0 1391 0 0 0 0 0 0 0 
Heartbeat_Variant_1 : 2658 0.648926 per_variant_size: 0 455 2203 0 0 0 0 0 0 
Heartbeat_Variant_2 : 0 0 per_variant_size: 0 0 0 0 0 0 0 0 0 
Heartbeat_Variant_3 : 0 0 per_variant_size: 0 0 0 0 0 0 0 0 0 
Heartbeat_Variant_0_evicts 0 : 5662 1 : 3 2 : 0 3 : 0 
Heartbeat_Variant_1_evicts 0 : 3 1 : 0 2 : 0 3 : 0 
Heartbeat_Variant_2_evicts 0 : 0 1 : 0 2 : 0 3 : 0 
Heartbeat_Variant_3_evicts 0 : 0 1 : 0 2 : 0 3 : 0 
Heartbeat CPU 0 instructions: 90000001 cycles: 42960092 heartbeat IPC: 1.39944 cumulative IPC: 1.38094 (Simulation time: 0 hr 18 min 46 sec) 
Cycle: 50000000 FTQ IN: 13810195 FTQ occupancy: 14.9963 DECODE IN: 13810249 DECODE occupancy: 37.4248 ROB IN: 13810249 ROB occupancy: 249.008 ROB OUT: 13810245
Heartbeat_Variant_0 : 1382 0.337402 per_variant_size: 0 1382 0 0 0 0 0 0 0 
Heartbeat_Variant_1 : 2670 0.651855 per_variant_size: 0 456 2214 0 0 0 0 0 0 
Heartbeat_Variant_2 : 0 0 per_variant_size: 0 0 0 0 0 0 0 0 0 
Heartbeat_Variant_3 : 0 0 per_variant_size: 0 0 0 0 0 0 0 0 0 
Heartbeat_Variant_0_evicts 0 : 5583 1 : 99 2 : 0 3 : 0 
Heartbeat_Variant_1_evicts 0 : 108 1 : 0 2 : 0 3 : 0 
Heartbeat_Variant_2_evicts 0 : 0 1 : 0 2 : 0 3 : 0 
Heartbeat_Variant_3_evicts 0 : 0 1 : 0 2 : 0 3 : 0 
Heartbeat CPU 0 instructions: 100000001 cycles: 50231870 heartbeat IPC: 1.37518 cumulative IPC: 1.37979 (Simulation time: 0 hr 20 min 57 sec) 
Finished CPU 0 instructions: 50000000 cycles: 36237512 cumulative IPC: 1.37979 (Simulation time: 0 hr 20 min 57 sec) 

ChampSim completed all CPUs

Region of Interest Statistics

CPU 0 cumulative IPC: 1.37979 instructions: 50000000 cycles: 36237512
 Fetch stage stalled: 46.438  Sim cycles: 36237512 fetch stall cycle: 16827990
 Empty decode stage: 27.1359  Sim cycles: 36237512 fetch stall cycle: 9833365
ITLB TOTAL     ACCESS:    5834955  HIT:    5345310  MISS:     489645  HIT %:    91.6084  MISS %:    8.39158   MPKI: 9.7929
ITLB LOAD TRANSLATION INSTRUCTION	ACCESS:    5695598  HIT:    5205953  MISS:     489645  HIT %:    91.4031  MISS %:     8.5969  MPKI: 9.7929
ITLB TRANSLATION FROM L1D PREFETCHER INSTRUCTION	ACCESS:     139357  HIT:     139357  MISS:          0  HIT %:        100  MISS %:          0  MPKI: 0

ITLB AVERAGE MISS LATENCY: 9.05098 cycles
ITLB RQ	ACCESS:    7930153	FORWARD:          0	MERGED:    1615456	TO_CACHE:    6314697

DTLB TOTAL     ACCESS:    8927807  HIT:    8452296  MISS:     475511  HIT %:    94.6738  MISS %:    5.32618   MPKI: 9.51022
DTLB LOAD TRANSLATION DATA	ACCESS:    8927807  HIT:    8452296  MISS:     475511  HIT %:    94.6738  MISS %:    5.32618  MPKI: 9.51022

DTLB AVERAGE MISS LATENCY: 9.33236 cycles
DTLB RQ	ACCESS:   13290532	FORWARD:          0	MERGED:    4325925	TO_CACHE:    8964607

STLB TOTAL     ACCESS:    1221738  HIT:    1219599  MISS:       2139  HIT %:    99.8249  MISS %:   0.175078   MPKI: 0.04278
STLB LOAD TRANSLATION INSTRUCTION	ACCESS:     489645  HIT:     489402  MISS:        243  HIT %:    99.9504  MISS %:  0.0496278  MPKI: 0.00486
STLB LOAD TRANSLATION DATA	ACCESS:     475511  HIT:     473625  MISS:       1886  HIT %:    99.6034  MISS %:   0.396626  MPKI: 0.03772
STLB TRANSLATION FROM L1D PREFETCHER DATA	ACCESS:     256582  HIT:     256572  MISS:         10  HIT %:    99.9961  MISS %: 0.00389739  MPKI: 0.0002

STLB AVERAGE MISS LATENCY: 71.7943 cycles
STLB RQ	ACCESS:    1363680	FORWARD:          0	MERGED:     141904	TO_CACHE:    1221776

STLB Hit, L1D data hit: 0
STLB Hit, L2C data hit: 0
STLB Hit, LLC data hit: 0
STLB Hit, LLC data miss: 0
STLB STLB hints to L2: 0
L1D TOTAL     ACCESS:   13038953  HIT:   11884257  MISS:    1154696  HIT %:    91.1443  MISS %:    8.85574   MPKI: 23.0939
L1D LOAD DATA	ACCESS:    6541793  HIT:    5781432  MISS:     760361  HIT %:    88.3769  MISS %:    11.6231  MPKI: 15.2072
L1D RFO DATA	ACCESS:    6159961  HIT:    5870114  MISS:     289847  HIT %:    95.2947  MISS %:    4.70534  MPKI: 5.79694
L1D PREFETCH DATA	ACCESS:     337199  HIT:     232711  MISS:     104488  HIT %:     69.013  MISS %:     30.987  MPKI: 2.08976

L1D PREFETCH  REQUESTED:     797383  ISSUED:     797383  USEFUL:      48094  USELESS:      68764
L1D USEFUL LOAD PREFETCHES:      48094 PREFETCH ISSUED TO LOWER LEVEL:     116917  ACCURACY: 41.1352
 TIMELY PREFETCHES:      48094 LATE PREFETCHES: 12376 DROPPED PREFETCHES: 2
L1D AVERAGE MISS LATENCY: 343874 cycles
L1D RQ	ACCESS:   10678982	FORWARD:          0	MERGED:    3939906	TO_CACHE:    6578485
L1D WQ	ACCESS:    6908677	FORWARD:     160926	MERGED:     196630	TO_CACHE:    6712047
L1D PQ	ACCESS:     398859	FORWARD:          0	MERGED:          0	TO_CACHE:     398524

L1D UNIQUE REGIONS ACCESSED: 0
L1D REGIONS CONFLICTS: 0
L1D Cross Page Prefetch Requests: 6506
L1D Same Page Prefetch Requests: 798135
L1D ROI Sum of L1D PQ occupancy: 5057231
L1D PREFETCHES PUSHED FROM L2C: 0
L1I TOTAL     ACCESS:    6519804  HIT:    2024766  MISS:    4495038  HIT %:    31.0556  MISS %:    68.9444   MPKI: 89.9008
L1I LOAD INSTRUCTION	ACCESS:    6189847  HIT:    1710791  MISS:    4479056  HIT %:    27.6387  MISS %:    72.3613  MPKI: 89.5811
L1I PREFETCH INSTRUCTION	ACCESS:     329957  HIT:     313975  MISS:      15982  HIT %:    95.1563  MISS %:    4.84366  MPKI: 0.31964

L1I PREFETCH  REQUESTED:    1618093  ISSUED:    1618093  USEFUL:       9062  USELESS:      15980
L1I USEFUL LOAD PREFETCHES:       9062 PREFETCH ISSUED TO LOWER LEVEL:      25044  ACCURACY: 36.1843
 TIMELY PREFETCHES:       9062 LATE PREFETCHES: 9062 DROPPED PREFETCHES: 0
L1I AVERAGE MISS LATENCY: 65934.9 cycles
L1I RQ	ACCESS:    9569427	FORWARD:          0	MERGED:    2826928	TO_CACHE:    6742499
L1I PQ	ACCESS:    1618093	FORWARD:          0	MERGED:     430439	TO_CACHE:    1187654

L1BTB TOTAL     ACCESS:    5680079  HIT:    2079878  MISS:    3600201  HIT %:    36.6171  MISS %:    63.3829   MPKI: 72.004
L1BTB BRANCH_DIRECT_JUMP	ACCESS:     545323 HIT:     144875 MISS:     400448 AVERAGE STALL: 57.8413 AVERAGE FETCH STALL: 22.1732 AVERAGE FETCH QUEUE STALL: 16.7278 AVERAGE DECODE STALL: 18.0054 AVERAGE EXECUTE STALL: 2.10291e+15
L1BTB BRANCH_INDIRECT	ACCESS:     182083 HIT:      65785 MISS:     116298 AVERAGE STALL: 118.003 AVERAGE FETCH STALL: 11.5708 AVERAGE FETCH QUEUE STALL: 21.6222 AVERAGE DECODE STALL: 13.2912 AVERAGE EXECUTE STALL: 70.5574
L1BTB BRANCH_CONDITIONAL	ACCESS:    2736419 HIT:    1453721 MISS:    1282698 AVERAGE STALL: 65.8815 AVERAGE FETCH STALL: 25.9308 AVERAGE FETCH QUEUE STALL: 23.1759 AVERAGE DECODE STALL: 15.9977 AVERAGE EXECUTE STALL: 2.70838e+15
L1BTB BRANCH_DIRECT_CALL	ACCESS:     937657 HIT:     105113 MISS:     832544 AVERAGE STALL: 77.3515 AVERAGE FETCH STALL: 24.7861 AVERAGE FETCH QUEUE STALL: 30.0699 AVERAGE DECODE STALL: 21.677 AVERAGE EXECUTE STALL: 7.85971e+15
L1BTB BRANCH_INDIRECT_CALL	ACCESS:     170468 HIT:      21226 MISS:     149242 AVERAGE STALL: 144.189 AVERAGE FETCH STALL: 12.8361 AVERAGE FETCH QUEUE STALL: 20.3423 AVERAGE DECODE STALL: 11.7025 AVERAGE EXECUTE STALL: 98.82
L1BTB BRANCH_RETURN	ACCESS:    1108129 HIT:     289158 MISS:     818971 AVERAGE STALL: 52.2259 AVERAGE FETCH STALL: 19.1166 AVERAGE FETCH QUEUE STALL: 5.73108 AVERAGE DECODE STALL: 6.16062 AVERAGE EXECUTE STALL: 4.38957e+14
L1BTB BRANCH_OTHER ACCESS:          0 HIT:          0 MISS:          0 AVERAGE STALL: -nan AVERAGE FETCH STALL: -nan AVERAGE FETCH QUEUE STALL: -nan AVERAGE DECODE STALL: -nan AVERAGE EXECUTE STALL: -nan
L1BTB TOTAL ROB OCCUPANCY AT BTB MISS: 2.89189

L2BTB TOTAL     ACCESS:    3574945  HIT:    3507578  MISS:      67367  HIT %:    98.1156  MISS %:    1.88442   MPKI: 1.34734
L2BTB BRANCH_DIRECT_JUMP	ACCESS:     396277 HIT:     391662 MISS:       4615 AVERAGE STALL: 57.8413 AVERAGE FETCH STALL: 22.1732 AVERAGE FETCH QUEUE STALL: 16.7278 AVERAGE DECODE STALL: 18.0054 AVERAGE EXECUTE STALL: 2.10291e+15
L2BTB BRANCH_INDIRECT	ACCESS:     106120 HIT:     103466 MISS:       2654 AVERAGE STALL: 118.003 AVERAGE FETCH STALL: 11.5708 AVERAGE FETCH QUEUE STALL: 21.6222 AVERAGE DECODE STALL: 13.2912 AVERAGE EXECUTE STALL: 70.5574
L2BTB BRANCH_CONDITIONAL	ACCESS:    1282698 HIT:    1275813 MISS:       6885 AVERAGE STALL: 65.8815 AVERAGE FETCH STALL: 25.9308 AVERAGE FETCH QUEUE STALL: 23.1759 AVERAGE DECODE STALL: 15.9977 AVERAGE EXECUTE STALL: 2.70838e+15
L2BTB BRANCH_DIRECT_CALL	ACCESS:     832544 HIT:     830170 MISS:       2374 AVERAGE STALL: 77.3515 AVERAGE FETCH STALL: 24.7861 AVERAGE FETCH QUEUE STALL: 30.0699 AVERAGE DECODE STALL: 21.677 AVERAGE EXECUTE STALL: 7.85971e+15
L2BTB BRANCH_INDIRECT_CALL	ACCESS:     139729 HIT:     129543 MISS:      10186 AVERAGE STALL: 144.189 AVERAGE FETCH STALL: 12.8361 AVERAGE FETCH QUEUE STALL: 20.3423 AVERAGE DECODE STALL: 11.7025 AVERAGE EXECUTE STALL: 98.82
L2BTB BRANCH_RETURN	ACCESS:     817577 HIT:     776924 MISS:      40653 AVERAGE STALL: 52.2259 AVERAGE FETCH STALL: 19.1166 AVERAGE FETCH QUEUE STALL: 5.73108 AVERAGE DECODE STALL: 6.16062 AVERAGE EXECUTE STALL: 4.38957e+14
L2BTB BRANCH_OTHER ACCESS:          0 HIT:          0 MISS:          0 AVERAGE STALL: -nan AVERAGE FETCH STALL: -nan AVERAGE FETCH QUEUE STALL: -nan AVERAGE DECODE STALL: -nan AVERAGE EXECUTE STALL: -nan
L2BTB TOTAL ROB OCCUPANCY AT BTB MISS: 154.547

L2C TOTAL     ACCESS:    6289608  HIT:    5807210  MISS:     482398  HIT %:    92.3302  MISS %:    7.66976   MPKI: 9.64796
L2C LOAD INSTRUCTION	ACCESS:    4469995  HIT:    4215773  MISS:     254222  HIT %:    94.3127  MISS %:     5.6873  MPKI: 5.08444
L2C PREFETCH INSTRUCTION	ACCESS:      25044  HIT:      25044  MISS:          0  HIT %:        100  MISS %:          0  MPKI: 0
L2C LOAD TRANSLATION INSTRUCTION	ACCESS:        283  HIT:         71  MISS:        212  HIT %:    25.0883  MISS %:    74.9117  MPKI: 0.00424
L2C LOAD DATA	ACCESS:     747791  HIT:     662939  MISS:      84852  HIT %:     88.653  MISS %:     11.347  MPKI: 1.69704
L2C RFO DATA	ACCESS:     289776  HIT:     239282  MISS:      50494  HIT %:    82.5748  MISS %:    17.4252  MPKI: 1.00988
L2C PREFETCH DATA	ACCESS:     228199  HIT:     150262  MISS:      77937  HIT %:    65.8469  MISS %:    34.1531  MPKI: 1.55874
L2C WRITEBACK DATA	ACCESS:     526520  HIT:     513230  MISS:      13290  HIT %:    97.4759  MISS %:    2.52412  MPKI: 0.2658
L2C LOAD TRANSLATION DATA	ACCESS:       1979  HIT:        598  MISS:       1381  HIT %:    30.2173  MISS %:    69.7827  MPKI: 0.02762
L2C TRANSLATION FROM L1D PREFETCHER DATA	ACCESS:         21  HIT:         11  MISS:         10  HIT %:     52.381  MISS %:     47.619  MPKI: 0.0002

L2C PREFETCH  REQUESTED:     120540  ISSUED:     120540  USEFUL:       9379  USELESS:      69403
L2C USEFUL LOAD PREFETCHES:       9379 PREFETCH ISSUED TO LOWER LEVEL:      78618  ACCURACY: 11.9298
 TIMELY PREFETCHES:       9379 LATE PREFETCHES: 681 DROPPED PREFETCHES: 0
L2C AVERAGE MISS LATENCY: 39.4898 cycles
L2C RQ	ACCESS:    5510058	FORWARD:          0	MERGED:        174	TO_CACHE:    5509846
L2C WQ	ACCESS:     526520	FORWARD:         38	MERGED:          0	TO_CACHE:     526520
L2C PQ	ACCESS:     262501	FORWARD:          0	MERGED:       4172	TO_CACHE:     258329

L2C Dense regions hint from L2: 0
PSCL5 TOTAL     ACCESS:       4286  HIT:       2143  MISS:       2143  HIT %:         50  MISS %:         50   MPKI: 0.04286
PSCL5 LOAD TRANSLATION INSTRUCTION	ACCESS:       4244  HIT:       2122  MISS:       2122  HIT %:         50  MISS %:         50  MPKI: 0.04244
PSCL5 TRANSLATION FROM L1D PREFETCHER INSTRUCTION	ACCESS:         42  HIT:         21  MISS:         21  HIT %:         50  MISS %:         50  MPKI: 0.00042


PSCL4 TOTAL     ACCESS:       4101  HIT:       2044  MISS:       2057  HIT %:    49.8415  MISS %:    50.1585   MPKI: 0.04114
PSCL4 LOAD TRANSLATION INSTRUCTION	ACCESS:       2693  HIT:       2023  MISS:        670  HIT %:    75.1207  MISS %:    24.8793  MPKI: 0.0134
PSCL4 TRANSLATION FROM L1D PREFETCHER INSTRUCTION	ACCESS:         32  HIT:         21  MISS:         11  HIT %:     65.625  MISS %:     34.375  MPKI: 0.00022
PSCL4 LOAD TRANSLATION DATA	ACCESS:       1366  HIT:          0  MISS:       1366  HIT %:          0  MISS %:        100  MPKI: 0.02732
PSCL4 TRANSLATION FROM L1D PREFETCHER DATA	ACCESS:         10  HIT:          0  MISS:         10  HIT %:          0  MISS %:        100  MPKI: 0.0002


PSCL3 TOTAL     ACCESS:       4159  HIT:       2073  MISS:       2086  HIT %:    49.8437  MISS %:    50.1563   MPKI: 0.04172
PSCL3 LOAD TRANSLATION INSTRUCTION	ACCESS:       2722  HIT:       2052  MISS:        670  HIT %:    75.3857  MISS %:    24.6143  MPKI: 0.0134
PSCL3 TRANSLATION FROM L1D PREFETCHER INSTRUCTION	ACCESS:         32  HIT:         21  MISS:         11  HIT %:     65.625  MISS %:     34.375  MPKI: 0.00022
PSCL3 LOAD TRANSLATION DATA	ACCESS:       1395  HIT:          0  MISS:       1395  HIT %:          0  MISS %:        100  MPKI: 0.0279
PSCL3 TRANSLATION FROM L1D PREFETCHER DATA	ACCESS:         10  HIT:          0  MISS:         10  HIT %:          0  MISS %:        100  MPKI: 0.0002


PSCL2 TOTAL     ACCESS:       4172  HIT:       2029  MISS:       2143  HIT %:    48.6337  MISS %:    51.3663   MPKI: 0.04286
PSCL2 LOAD TRANSLATION INSTRUCTION	ACCESS:       2251  HIT:       2008  MISS:        243  HIT %:    89.2048  MISS %:    10.7952  MPKI: 0.00486
PSCL2 TRANSLATION FROM L1D PREFETCHER INSTRUCTION	ACCESS:         21  HIT:         21  MISS:          0  HIT %:        100  MISS %:          0  MPKI: 0
PSCL2 LOAD TRANSLATION DATA	ACCESS:       1879  HIT:          0  MISS:       1879  HIT %:          0  MISS %:        100  MPKI: 0.03758
PSCL2 TRANSLATION FROM L1D PREFETCHER DATA	ACCESS:         21  HIT:          0  MISS:         21  HIT %:          0  MISS %:        100  MPKI: 0.00042


LLC TOTAL     ACCESS:     543285  HIT:     512137  MISS:      31148  HIT %:    94.2667  MISS %:    5.73327   MPKI: 0.62296
LLC LOAD INSTRUCTION	ACCESS:     254065  HIT:     252966  MISS:       1099  HIT %:    99.5674  MISS %:   0.432566  MPKI: 0.02198
LLC LOAD TRANSLATION INSTRUCTION	ACCESS:        212  HIT:        180  MISS:         32  HIT %:    84.9057  MISS %:    15.0943  MPKI: 0.00064
LLC LOAD DATA	ACCESS:      84365  HIT:      80781  MISS:       3584  HIT %:    95.7518  MISS %:    4.24821  MPKI: 0.07168
LLC RFO DATA	ACCESS:      50451  HIT:      34897  MISS:      15554  HIT %:    69.1701  MISS %:    30.8299  MPKI: 0.31108
LLC PREFETCH DATA	ACCESS:      78618  HIT:      68290  MISS:      10328  HIT %:    86.8631  MISS %:    13.1369  MPKI: 0.20656
LLC WRITEBACK DATA	ACCESS:      74183  HIT:      73710  MISS:        473  HIT %:    99.3624  MISS %:   0.637612  MPKI: 0.00946
LLC LOAD TRANSLATION DATA	ACCESS:       1381  HIT:       1303  MISS:         78  HIT %:    94.3519  MISS %:    5.64808  MPKI: 0.00156
LLC TRANSLATION FROM L1D PREFETCHER DATA	ACCESS:         10  HIT:         10  MISS:          0  HIT %:        100  MISS %:          0  MPKI: 0

LLC AVERAGE MISS LATENCY: 158.229 cycles
LLC RQ	ACCESS:     390490	FORWARD:          0	MERGED:          0	TO_CACHE:     390484
LLC WQ	ACCESS:      74183	FORWARD:          6	MERGED:          0	TO_CACHE:      74183
LLC PQ	ACCESS:      78618	FORWARD:          0	MERGED:          0	TO_CACHE:      78618

LLC Dense regions hint to LLC: 0

RAW hits: 1934804
Loads Generated: 12613786
Loads sent to L1D: 10678982
Stores Generated: 6908661
Stores sent to L1D: 6908677
Major fault: 0 Minor fault: 2570
Allocated PAGES: 2570

stream: 
stream:times selected: 1240226
stream:pref_filled: 125278
stream:pref_useful: 27883
stream:pref_late: 10135
stream:misses: 10667
stream:misses_by_poll: 0

CS: 
CS:times selected: 193204
CS:pref_filled: 66520
CS:pref_useful: 45378
CS:pref_late: 13789
CS:misses: 27681
CS:misses_by_poll: 26

CPLX: 
CPLX:times selected: 1045928
CPLX:pref_filled: 24207
CPLX:pref_useful: 7323
CPLX:pref_late: 3883
CPLX:misses: 129105
CPLX:misses_by_poll: 3

NL_L1: 
NL:times selected: 13383
NL:pref_filled: 1549
NL:pref_useful: 135
NL:pref_late: 624
NL:misses: 1676
NL:misses_by_poll: 0

total selections: 2492741
total_filled: 104488
total_useful: 48094
total_late: 30801
total_polluted: 29
total_misses_after_warmup: 797054
conflicts: 5495065

test: 119367

DRAM Statistics
 CHANNEL 0
 RQ ROW_BUFFER_HIT:      11469  ROW_BUFFER_MISS:      19197
 DBUS_CONGESTED:          9
 WQ ROW_BUFFER_HIT:       1486  ROW_BUFFER_MISS:      12946  FULL:          0

 AVG_CONGESTED_CYCLE: 5

CPU 0 Branch Prediction Accuracy: 99.8199% MPKI: 0.32972 Average ROB Occupancy at Mispredict: 189.574
Branch types
NOT_BRANCH: 40847115 81.6942%
BRANCH_DIRECT_JUMP: 545323 1.09065%
BRANCH_INDIRECT: 182083 0.364166%
BRANCH_CONDITIONAL: 6209198 12.4184%
BRANCH_DIRECT_CALL: 937657 1.87531%
BRANCH_INDIRECT_CALL: 170468 0.340936%
BRANCH_RETURN: 1108129 2.21626%
BRANCH_OTHER: 0 0%

DRAM PAGES: 1048576
Allocated PAGES: 2570
Average_ROB_Occupancy: 248.079
Average_Decode_Occupancy: 37.1744
Average_FTQ_Occupancy: 14.907
Indirect max targets: 14 Average targets: 1.15203
Branch_type:  BRANCH_DIRECT_JUMP:  Count Percentage: 2.35948 7.00097 8.80875 3.52623 4.02204 6.01203 7.63153 60.639 
Branch_type:  BRANCH_INDIRECT:  Count Percentage: 11.7714 11.0834 10.216 3.75038 1.33781 17.7091 16.4197 27.7122 
Branch_type:  BRANCH_CONDITIONAL:  Count Percentage: 26.4409 3.87116 2.70042 6.22202 2.01535 5.19835 5.26561 48.2862 
Branch_type:  BRANCH_DIRECT_CALL:  Count Percentage: 0.388977 1.96547 1.14688 2.45343 3.23197 3.6444 5.8429 81.326 
Branch_type:  BRANCH_INDIRECT_CALL:  Count Percentage: 9.52249 0 2.98541 10.6518 0 2.84391 2.84654 71.1498 
Branch_type:  BRANCH_RETURN:  Count Percentage: 7.99748 3.25614 2.74101 7.80615 3.08488 7.20024 6.04609 61.868 
Branch_type:  BRANCH_DIRECT_JUMP:  Total Count: 25703 76265 95958 38413 43814 65492 83134 660570 
Branch_type:  BRANCH_INDIRECT:  Total Count: 42737 40239 37090 13616 4857 64294 59613 100611 
Branch_type:  BRANCH_CONDITIONAL:  Total Count: 3281680 480465 335160 772239 250133 645188 653536 5992992 
Branch_type:  BRANCH_DIRECT_CALL:  Total Count: 7313 36952 21562 46126 60763 68517 109850 1528977 
Branch_type:  BRANCH_INDIRECT_CALL:  Total Count: 32573 0 10212 36436 0 9728 9737 243378 
Branch_type:  BRANCH_RETURN:  Total Count: 177779 72382 60931 173526 68575 160057 134401 1375288 
Number of unique branch instructions: 10200
Upper 32 bits: 
aaaa
ffff
ffff0000
Unique upper 32 bits: 3
Unique upper 36 bits: 3
Unique upper 40 bits: 5
Unique upper 44 bits: 32
Unique upper 48 bits: 153
Variant_0 : 1382 0.337402
Variant_1 : 2670 0.651855
Variant_2 : 0 0
Variant_3 : 0 0
Offset_3 4226
Offset_4 259
Offset_5 466
Offset_6 521
Offset_7 604
Offset_8 541
Offset_9 477
Offset_10 399
Offset_11 335
Offset_12 281
Offset_13 211
Offset_14 227
Offset_15 193
Offset_16 223
Offset_17 159
Offset_18 130
Offset_19 240
Offset_20 139
Offset_21 235
Offset_22 402
Offset_23 247
Offset_24 337
Offset_25 88
Offset_47 84
Offset_64 5
decode_dispatch_called: 26228552 72.3796
Dispatch_width: 0 14153361 53.9617 39.0572
Dispatch_width: 1 1018002 3.88127 2.80925
Dispatch_width: 2 828397 3.15838 2.28602
Dispatch_width: 3 504198 1.92232 1.39137
Dispatch_width: 4 6209863 23.676 17.1366
Dispatch_width: 5 115228 0.439323 0.31798
Dispatch_width: 6 3399503 12.9611 9.38117
Empty_decode_cycles: 10008960 27.6204
ROB_full_cycles: 9953730 27.468
Starvation_cycles_per_kilo_instr: 228.843
Starvation_cycles_per_kilo_instr_3: 165.592
Starvation_cycles_per_kilo_instr_0: 142.086
Branch_type_1  (3,1)  (4,9)  (5,36)  (6,71)  (7,120)  (8,136)  (9,127)  (10,103)  (11,76)  (12,44)  (13,5)  (14,2)  (15,3)  (16,4)  (18,1)  (19,4)  (20,2)  (21,1)  (22,3)  (23,2)  (24,10)  (25,12) 
Branch_type_2  (3,1)  (5,1)  (8,3)  (9,3)  (12,1)  (13,1)  (14,1)  (16,3)  (17,2)  (20,2)  (21,2)  (23,5)  (24,1)  (47,39) 
Branch_type_3  (3,4224)  (4,250)  (5,425)  (6,433)  (7,451)  (8,337)  (9,259)  (10,163)  (11,140)  (12,53)  (13,4)  (64,2) 
Branch_type_4  (6,4)  (7,8)  (8,31)  (9,51)  (10,64)  (11,60)  (12,102)  (13,92)  (14,99)  (15,92)  (16,100)  (17,74)  (18,60)  (19,117)  (20,71)  (21,124)  (22,214)  (23,139)  (24,198)  (25,72)  (64,2) 
Branch_type_5  (8,2)  (9,1)  (10,3)  (11,5)  (12,3)  (13,14)  (14,16)  (15,11)  (16,20)  (17,11)  (18,16)  (19,12)  (20,11)  (21,13)  (22,42)  (23,26)  (24,36) 
Branch_type_6  (5,4)  (6,13)  (7,25)  (8,32)  (9,36)  (10,66)  (11,54)  (12,78)  (13,95)  (14,109)  (15,87)  (16,96)  (17,72)  (18,53)  (19,107)  (20,53)  (21,95)  (22,143)  (23,75)  (24,92)  (25,4)  (47,45)  (64,1) 
Unique trigger count: 
Variant_0_evicts_0 : 0
Variant_0_evicts_1 : 0
Variant_0_evicts_2 : 0
Variant_0_evicts_3 : 0
Variant_1_evicts_0 : 0
Variant_1_evicts_1 : 0
Variant_1_evicts_2 : 0
Variant_1_evicts_3 : 0
Variant_2_evicts_0 : 0
Variant_2_evicts_1 : 0
Variant_2_evicts_2 : 0
Variant_2_evicts_3 : 0
Variant_3_evicts_0 : 0
Variant_3_evicts_1 : 0
Variant_3_evicts_2 : 0
Variant_3_evicts_3 : 0
BTB PER SET UNIQUE ADDR: 8 14 9 12 10 8 8 10 10 11 12 11 8 11 12 9 10 12 8 9 9 10 13 12 9 11 10 10 11 10 12 12 11 8 8 13 7 13 8 9 10 9 12 15 11 12 11 9 12 11 13 9 9 10 10 9 12 8 10 16 14 10 11 14 10 10 11 11 9 8 11 12 10 9 12 9 10 13 6 13 9 9 10 16 9 10 14 9 7 13 9 8 12 11 9 15 9 6 11 11 17 11 11 9 10 8 10 10 9 6 8 13 13 12 14 7 10 8 11 15 14 10 9 10 9 12 5 10 13 11 8 10 10 16 9 9 8 9 10 15 10 11 9 6 11 15 14 13 8 15 10 10 6 8 10 12 12 12 10 12 10 8 9 9 13 11 13 10 10 8 9 9 10 13 10 10 9 10 12 10 9 7 12 11 14 11 5 10 11 11 12 10 13 10 10 10 7 9 10 11 12 11 8 9 10 9 13 10 10 11 10 10 12 12 9 7 13 12 9 12 5 13 6 11 8 9 13 13 7 14 11 8 10 13 9 9 17 12 13 9 10 11 15 14 9 10 9 11 11 15 14 12 12 5 10 17 9 11 9 9 11 8 3 14 8 10 8 9 6 9 10 8 11 8 8 10 9 9 11 6 12 9 12 6 9 7 11 15 12 8 9 10 8 14 5 11 9 10 10 9 7 13 9 19 9 12 9 7 13 13 9 16 6 13 9 10 13 9 9 13 6 14 11 11 14 13 7 12 9 8 14 17 11 11 11 11 11 11 7 14 10 11 7 9 12 12 11 8 13 13 14 11 9 13 9 12 8 12 8 10 9 9 12 15 7 11 9 12 14 9 12 8 12 10 14 12 11 13 11 14 10 8 10 7 7 11 12 14 12 11 9 10 9 13 10 12 9 9 13 12 12 10 12 11 12 12 9 13 10 8 10 10 10 14 10 8 10 11 15 15 9 14 11 16 13 7 15 9 11 7 14 11 11 15 10 15 12 11 12 13 15 9 8 14 17 9 10 11 13 14 11 12 10 7 14 13 17 12 10 17 10 9 11 12 20 6 12 8 10 11 14 11 13 12 13 15 7 14 9 13 14 12 12 13 10 10 14 10 10 11 9 10 11 10 10 7 14 12 8 10 11 9 9 12 13 6 6 16 10 11 10 15 10 9 11 15 9 8 10 9 7 10 10 13 12 15 13 8 7 14 10 14 10 7 12 13 9 10 11 8 9 13 10 12 13 12 11 10 12 7 11 13 10 9 8 10 10 12 13 15 10 11 12 11 9 15 13 9 6 13 5 10 11 14 7 9 12 12 10 8 10 11 6 9 13 12 9 9 14 9 8 12 11 11 9 10 8 11 12 13 10 11 11 11 9 8 16 12 10 9 12 16 10 10 8 11 10 11 8 11 12 10 8 11 13 13 10 13 11 11 8 14 10 12 12 8 11 17 9 16 6 10 9 12 8 11 11 15 14 8 12 13 6 13 12 10 12 12 10 12 7 7 7 13 11 11 11 11 12 12 11 7 9 10 15 8 17 13 8 17 9 12 8 10 11 12 8 15 11 9 10 12 7 8 10 9 12 14 9 9 11 13 9 11 7 15 11 10 10 9 9 12 10 13 8 12 14 8 7 15 11 15 9 12 8 11 9 12 8 11 14 9 13 10 7 11 13 11 19 12 11 9 10 15 10 12 11 12 11 10 9 10 8 8 8 13 14 12 10 9 14 9 10 12 7 17 6 13 9 12 11 11 13 9 11 13 13 11 12 12 9 11 12 8 9 11 10 11 8 10 6 7 12 13 12 10 8 7 11 11 12 14 10 13 12 7 14 9 12 13 11 18 11 9 11 13 14 14 6 15 7 17 9 14 15 11 11 9 7 12 14 13 15 9 14 12 12 8 10 11 16 12 8 10 9 15 10 13 11 13 12 11 10 9 12 11 12 10 9 14 12 8 13 7 14 10 9 9 9 12 11 17 12 9 9 9 14 11 7 13 10 7 8 13 15 10 14 9 8 12 12 7 11 11 9 10 19 13 8 8 12 12 12 12 6 15 8 12 12 11 9 9 9 12 15 9 14 17 10 9 7 7 14 10 11 11 7 9 9 8 13 12 11 10 12 14 9 9 10 17 7 11 10 12 9 8 12 14 13 11 12 11 10 8 9 12 8 11 14 9 9 11 11 10 9 11 11 11 10 12 11 14 10 11 14 7 12 14 11 15 11 11 11 12 9 14 14 10 13 12 17 9 9 9 12 11 7 11 13 10 14 9 8 9 12 12 12 10 10 13 13 12 8 12 16 13 8 9 8 10 9 14 10 12 
BTB PER SET COUNT: 976 22 1488 14 11 10 9 157 1119 14 18 519 8 30 16 11 1942 16 15 28 21 15 783 34 19 14 13 13 15 1137 446 75 12 8 10 422 8 16 11 11 15 14 14 592 478 14 27 10 109 12 19 14 9 51 13 363 27 10 487 23 20 11 123 15 11 77 15 2442 9 11 18 16 13 10 16 13 15 16 6 14 18 12 19 23 11 11 14 19 7 23 13 885 247 580 18 17 9 981 19 14 24 15 14 10 3214 12 12 13 1687 2102 11 34 1470 14 17 14 17 8 423 542 20 12 14 12 9 115 5 1948 18 751 20 12 11 21 14 16 468 11 15 18 12 18 11 6 14 220 1476 21 9 72 18 10 6 8 13 16 121 16 15 15 13 10 9 13 45 1173 14 10 12 1819 13 13 12 15 12 10 12 11 17 496 100 194 17 18 21 17 6 15 175 478 15 12 15 10 10 11 7 11 20 16 18 72 9 11 11 9 16 15 12 267 13 18 16 16 11 981 13 12 2247 14 7 15 6 14 8 20 16 54 8 19 15 9 13 26 719 15954 31 301 26 9 13 16 533 485 15 14 1460 13 13 25 17 19 13 5 14 24 62 17 11 13 527 8 3 503 10 14 10 9 10 10 10 8 390 12 8 11 13 10 14 13 21 10 23 6 9 7 14 18 18 9 10 17 12 1451 5 11 9 14 11 702 7 15 11 34 9 14 9 143 16 22 17 24 6 18 9 22 17 12 13 23 7 3815 18 13 14 1464 512 14 14 9 23 23 24 16 16 11 14 13 7 19 13 182 8 9 43 29 12 11 19 147 496 11 14 15 13 13 11 15 9 11 15 20 13 17 7 2587 12 15 15 9 22 21 14 14 526 292 16 17 13 1476 12 9 23 7 7 13 306 16 15 1073 11 10 15 14 14 13 12 9 25 1291 13 15 19 16 19 14 9 494 11 16 11 12 10 20 13 8 14 16 17 24 10 17 16 21 18 8 1735 11 23 7 22 16 12 20 122 25 19 214 19 15 17 11 50 16 26 11 1056 13 15 16 127 19 18 7 499 84 24 15 10 27 21 10 14 14 33 6 4653 11 12 12 16 13 17 13 20 18 7 20 12 24 23 571 14 17 10 11 503 11 14 24 942 12 13 19 11 7 1477 957 8 13 42 10 11 19 19 6 9 30 14 14 13 36 1466 749 16 17 9 13 11 9 7 12 11 16 17 25 417 9 13 357 12 17 10 9 16 19 10 981 13 9 10 13 37 14 13 15 13 13 20 1869 13 20 14 21 10 12 29 12 19 16 17 22 13 15 239 19 147 12 6 19 5 10 15 19 1467 12 14 16 10 11 12 14 6 836 15 18 9 10 19 13 11 15 14 12 13 15 9 1119 234 18 12 18 14 16 9 13 22 2919 12 11 12 18 66 12 10 28 440 13 10 11 18 11 10 54 16 18 16 17 1014 14 8 28 980 17 14 13 16 21 10 22 7 16 12 14 8 21 359 18 23 8 14 18 6 15 21 494 17 14 13 1010 10 7 8 14 4491 23 14 987 26 21 23 7 35 14 82 13 25 19 8 23 10 17 1466 10 469 12 12 23 344 11 13 13 10 9 2406 11 543 207 13 12 887 18 1468 15 9 257 14 11 12 11 191 26 981 15 9 58 385 10 7 17 13 397 9 165 10 18 9 15 968 2855 166 10458 20 12 15 1959 439 15 25 17 486 10 201 30 470 16 19 12 13 15 1475 15 8 1467 1465 13 18 13 14 9 18 11 11 16 2909 28 7 756 13 192 14 15 18 15 21 14 15 12 32 13 1608 13 269 8 9 13 13 12 12 19 7 467 16 17 1339 14 179 14 12 1337 18 21 547 187 532 9 22 11 17 64 11 7784 14 12 12 1068 18 2477 10 2941 8 1192 13 24 825 33 19 10 8 19 16 161 17 9 58 1490 16 12 18 12 19 1104 9 18 699 22 89 17 11 21 13 584 10 12 48 14 19 15 10 16 16 1320 15 10 19 12 12 14 13 14 40 37 13 9 13 10 18 13 7 19 10 11 105 18 142 12 17 9 10 33 20 7 519 68 9 14 24 21 10 10 15 13 12 55 9 21 9 15 23 13 11 10 15 19 28 11 995 257 11 12 8 978 19 1466 12 15 9 13 10 47 15 15 428 11 14 21 9 9 14 21 9 24 11 13 12 9 104 19 35 12 458 55 19 12 14 16 8 15 16 10 222 15 955 13 9 20 14 14 85 14 66 175 13 13 365 8 21 16 238 19 992 15 11 18 16 25 15 13 22 18 29 11 19 11 16 13 10 329 31 12 19 341 8 10 15 15 15 14 15 17 588 641 14 19 22 18 11 350 11 15 13 18 10 17 
To predecode: 0
Predecoding something: 0
Predecode request dropped: 0
sizeofblock_0 0
sizeofblock_1 54429
sizeofblock_2 86912
sizeofblock_3 0
sizeofblock_4 0
sizeofblock_5 0
sizeofblock_6 0
sizeofblock_7 0
sizeofblock_8 0
Variant_0 Correct: 1604177 Incorrect: 0 Accuracy: 1
Variant_1 Correct: 5700743 Incorrect: 0 Accuracy: 1
Variant_2 Correct: 0 Incorrect: 0 Accuracy: -nan
Variant_3 Correct: 0 Incorrect: 0 Accuracy: -nan
