
*** ChampSim Multicore Out-of-Order Simulator ***

Warmup Instructions: 50000000
Simulation Instructions: 50000000
Number of CPUs: 1
LLC sets: 2048
LLC ways: 16
Off-chip DRAM Size: 4096 MB Channels: 1 Width: 64-bit Data Rate: 6400 MT/s
CPU 0 runs ./micro_traces/srv729.trace.gz
.gz
ITLB has LRU replacement policy
DTLB has LRU replacement policy
STLB has LRU replacement policy
FDIP Prefetcher at L1I
L1I has LRU replacement policy
L1D has LRU replacement policy
Initialize SRRIP state for L2C
Initialize DRRIP state for LLC
Heartbeat CPU 0 instructions: 10000002 cycles: 2799008 heartbeat IPC: 3.5727 cumulative IPC: 3.5727 (Simulation time: 0 hr 1 min 26 sec) 
Heartbeat CPU 0 instructions: 20000002 cycles: 5595667 heartbeat IPC: 3.5757 cumulative IPC: 3.57419 (Simulation time: 0 hr 2 min 48 sec) 
Heartbeat CPU 0 instructions: 30000003 cycles: 8393909 heartbeat IPC: 3.57367 cumulative IPC: 3.57402 (Simulation time: 0 hr 4 min 14 sec) 
Heartbeat CPU 0 instructions: 40000001 cycles: 11190188 heartbeat IPC: 3.57618 cumulative IPC: 3.57456 (Simulation time: 0 hr 5 min 35 sec) 
Heartbeat CPU 0 instructions: 50000000 cycles: 13986349 heartbeat IPC: 3.57633 cumulative IPC: 3.57491 (Simulation time: 0 hr 7 min 12 sec) 

Warmup complete CPU 0 instructions: 50000004 cycles: 13986350 (Simulation time: 0 hr 7 min 12 sec) 

Cycle: 20000000 FTQ IN: 54821742 FTQ occupancy: 15.4936 DECODE IN: 54821726 DECODE occupancy: 9.33803 ROB IN: 54821714 ROB occupancy: 258.65 ROB OUT: 54821476
Heartbeat CPU 0 instructions: 60000000 cycles: 26310060 heartbeat IPC: 0.811444 cumulative IPC: 0.811444 (Simulation time: 0 hr 8 min 45 sec) 
Cycle: 30000000 FTQ IN: 8211079 FTQ occupancy: 13.5764 DECODE IN: 8211077 DECODE occupancy: 4.38949 ROB IN: 8211089 ROB occupancy: 47.3468 ROB OUT: 8211312
Heartbeat CPU 0 instructions: 70000000 cycles: 38473600 heartbeat IPC: 0.822129 cumulative IPC: 0.816751 (Simulation time: 0 hr 10 min 14 sec) 
Cycle: 40000000 FTQ IN: 8229478 FTQ occupancy: 13.5586 DECODE IN: 8229488 DECODE occupancy: 4.39813 ROB IN: 8229477 ROB occupancy: 48.11 ROB OUT: 8229427
Cycle: 50000000 FTQ IN: 8082925 FTQ occupancy: 13.5779 DECODE IN: 8082915 DECODE occupancy: 4.386 ROB IN: 8082926 ROB occupancy: 49.6753 ROB OUT: 8082986
Heartbeat CPU 0 instructions: 80000002 cycles: 50787381 heartbeat IPC: 0.812098 cumulative IPC: 0.815194 (Simulation time: 0 hr 11 min 34 sec) 
Cycle: 60000000 FTQ IN: 8228572 FTQ occupancy: 13.5863 DECODE IN: 8228572 DECODE occupancy: 4.39447 ROB IN: 8228572 ROB occupancy: 47.4249 ROB OUT: 8228543
Heartbeat CPU 0 instructions: 90000002 cycles: 62935714 heartbeat IPC: 0.823158 cumulative IPC: 0.817171 (Simulation time: 0 hr 13 min 21 sec) 
Cycle: 70000000 FTQ IN: 8127351 FTQ occupancy: 13.5539 DECODE IN: 8127369 DECODE occupancy: 4.39814 ROB IN: 8127369 ROB occupancy: 50.0896 ROB OUT: 8127399
Heartbeat CPU 0 instructions: 100000001 cycles: 75247526 heartbeat IPC: 0.812228 cumulative IPC: 0.816178 (Simulation time: 0 hr 14 min 24 sec) 
Finished CPU 0 instructions: 50000001 cycles: 61261177 cumulative IPC: 0.816178 (Simulation time: 0 hr 14 min 24 sec) 

ChampSim completed all CPUs

Region of Interest Statistics

CPU 0 cumulative IPC: 0.816178 instructions: 50000001 cycles: 61261177
 Fetch stage stalled: 35.2982  Sim cycles: 61261177 fetch stall cycle: 21624070
 Empty decode stage: 68.3331  Sim cycles: 61261177 fetch stall cycle: 41861655
ITLB TOTAL     ACCESS:    7208969  HIT:    6715685  MISS:     493284  HIT %:    93.1574  MISS %:    6.84264   MPKI: 9.86568
ITLB LOAD TRANSLATION INSTRUCTION	ACCESS:    7208969  HIT:    6715685  MISS:     493284  HIT %:    93.1574  MISS %:    6.84264  MPKI: 9.86568

ITLB AVERAGE MISS LATENCY: 9.03714 cycles
ITLB RQ	ACCESS:    8292518	FORWARD:          0	MERGED:     880710	TO_CACHE:    7411808

DTLB TOTAL     ACCESS:   10423256  HIT:    9951061  MISS:     472195  HIT %:    95.4698  MISS %:    4.53021   MPKI: 9.4439
DTLB LOAD TRANSLATION DATA	ACCESS:   10423256  HIT:    9951061  MISS:     472195  HIT %:    95.4698  MISS %:    4.53021  MPKI: 9.4439

DTLB AVERAGE MISS LATENCY: 9.29089 cycles
DTLB RQ	ACCESS:   14491087	FORWARD:          0	MERGED:    4039860	TO_CACHE:   10451227

STLB TOTAL     ACCESS:    1226460  HIT:    1224418  MISS:       2042  HIT %:    99.8335  MISS %:   0.166495   MPKI: 0.04084
STLB LOAD TRANSLATION INSTRUCTION	ACCESS:     493284  HIT:     493017  MISS:        267  HIT %:    99.9459  MISS %:   0.054127  MPKI: 0.00534
STLB LOAD TRANSLATION DATA	ACCESS:     472183  HIT:     470429  MISS:       1754  HIT %:    99.6285  MISS %:   0.371466  MPKI: 0.03508
STLB TRANSLATION FROM L1D PREFETCHER DATA	ACCESS:     260993  HIT:     260972  MISS:         21  HIT %:     99.992  MISS %: 0.00804619  MPKI: 0.00042

STLB AVERAGE MISS LATENCY: 67.9838 cycles
STLB RQ	ACCESS:    1345026	FORWARD:          0	MERGED:     118529	TO_CACHE:    1226497

STLB Hit, L1D data hit: 0
STLB Hit, L2C data hit: 0
STLB Hit, LLC data hit: 0
STLB Hit, LLC data miss: 0
STLB STLB hints to L2: 0
L1D TOTAL     ACCESS:   14278902  HIT:   13165055  MISS:    1113847  HIT %:    92.1994  MISS %:    7.80065   MPKI: 22.2769
L1D LOAD DATA	ACCESS:    7632754  HIT:    6901589  MISS:     731165  HIT %:    90.4207  MISS %:    9.57931  MPKI: 14.6233
L1D RFO DATA	ACCESS:    6308365  HIT:    6020694  MISS:     287671  HIT %:    95.4398  MISS %:    4.56015  MPKI: 5.75342
L1D PREFETCH DATA	ACCESS:     337783  HIT:     242772  MISS:      95011  HIT %:    71.8722  MISS %:    28.1278  MPKI: 1.90022

L1D PREFETCH  REQUESTED:     759194  ISSUED:     759194  USEFUL:      37029  USELESS:      68045
L1D USEFUL LOAD PREFETCHES:      37029 PREFETCH ISSUED TO LOWER LEVEL:     105081  ACCURACY: 35.2385
 TIMELY PREFETCHES:      37029 LATE PREFETCHES: 10041 DROPPED PREFETCHES: 11
L1D AVERAGE MISS LATENCY: 401998 cycles
L1D RQ	ACCESS:   11470118	FORWARD:          0	MERGED:    3649641	TO_CACHE:    7664114
L1D WQ	ACCESS:    6945027	FORWARD:     156463	MERGED:     118054	TO_CACHE:    6826973
L1D PQ	ACCESS:     379647	FORWARD:          0	MERGED:          0	TO_CACHE:     379547

L1D UNIQUE REGIONS ACCESSED: 0
L1D REGIONS CONFLICTS: 0
L1D Cross Page Prefetch Requests: 6825
L1D Same Page Prefetch Requests: 761376
L1D ROI Sum of L1D PQ occupancy: 4829440
L1D PREFETCHES PUSHED FROM L2C: 0
L1I TOTAL     ACCESS:    7886581  HIT:    5129394  MISS:    2757187  HIT %:    65.0395  MISS %:    34.9605   MPKI: 55.1437
L1I LOAD INSTRUCTION	ACCESS:    7886581  HIT:    5129394  MISS:    2757187  HIT %:    65.0395  MISS %:    34.9605  MPKI: 55.1437

L1I AVERAGE MISS LATENCY: 17.5325 cycles
L1I RQ	ACCESS:   15482886	FORWARD:          0	MERGED:    7190368	TO_CACHE:    8292518

L1BTB TOTAL     ACCESS:    5668308  HIT:    2046583  MISS:    3621725  HIT %:    36.1057  MISS %:    63.8943   MPKI: 72.4345
L1BTB BRANCH_DIRECT_JUMP	ACCESS:     548488 HIT:     145196 MISS:     403292 AVERAGE STALL: 25.3951 AVERAGE FETCH STALL: 15.7414 AVERAGE FETCH QUEUE STALL: 3.74449 AVERAGE DECODE STALL: 4.9092 AVERAGE EXECUTE STALL: 3.4896e+14
L1BTB BRANCH_INDIRECT	ACCESS:     182826 HIT:      66055 MISS:     116771 AVERAGE STALL: 54.6714 AVERAGE FETCH STALL: 12.2486 AVERAGE FETCH QUEUE STALL: 5.20923 AVERAGE DECODE STALL: 4.10384 AVERAGE EXECUTE STALL: 32.1098
L1BTB BRANCH_CONDITIONAL	ACCESS:    2706426 HIT:    1415961 MISS:    1290465 AVERAGE STALL: 26.2191 AVERAGE FETCH STALL: 18.0055 AVERAGE FETCH QUEUE STALL: 2.88643 AVERAGE DECODE STALL: 4.32577 AVERAGE EXECUTE STALL: 1.30352e+14
L1BTB BRANCH_DIRECT_CALL	ACCESS:     943392 HIT:     106501 MISS:     836891 AVERAGE STALL: 28.6113 AVERAGE FETCH STALL: 19.2774 AVERAGE FETCH QUEUE STALL: 3.56707 AVERAGE DECODE STALL: 4.76684 AVERAGE EXECUTE STALL: 1.59111e+14
L1BTB BRANCH_INDIRECT_CALL	ACCESS:     171893 HIT:      21766 MISS:     150127 AVERAGE STALL: 69.3883 AVERAGE FETCH STALL: 14.4651 AVERAGE FETCH QUEUE STALL: 3.10592 AVERAGE DECODE STALL: 4.73637 AVERAGE EXECUTE STALL: 46.0809
L1BTB BRANCH_RETURN	ACCESS:    1115283 HIT:     291104 MISS:     824179 AVERAGE STALL: 29.0032 AVERAGE FETCH STALL: 15.9518 AVERAGE FETCH QUEUE STALL: 3.20012 AVERAGE DECODE STALL: 4.49053 AVERAGE EXECUTE STALL: 1.82784e+14
L1BTB BRANCH_OTHER ACCESS:          0 HIT:          0 MISS:          0 AVERAGE STALL: -nan AVERAGE FETCH STALL: -nan AVERAGE FETCH QUEUE STALL: -nan AVERAGE DECODE STALL: -nan AVERAGE EXECUTE STALL: -nan
L1BTB TOTAL ROB OCCUPANCY AT BTB MISS: 4.59264

L2BTB TOTAL     ACCESS:    3596288  HIT:    3163161  MISS:     433127  HIT %:    87.9563  MISS %:    12.0437   MPKI: 8.66254
L2BTB BRANCH_DIRECT_JUMP	ACCESS:     399110 HIT:     350428 MISS:      48682 AVERAGE STALL: 25.3951 AVERAGE FETCH STALL: 15.7414 AVERAGE FETCH QUEUE STALL: 3.74449 AVERAGE DECODE STALL: 4.9092 AVERAGE EXECUTE STALL: 3.4896e+14
L2BTB BRANCH_INDIRECT	ACCESS:     106477 HIT:     101342 MISS:       5135 AVERAGE STALL: 54.6714 AVERAGE FETCH STALL: 12.2486 AVERAGE FETCH QUEUE STALL: 5.20923 AVERAGE DECODE STALL: 4.10384 AVERAGE EXECUTE STALL: 32.1098
L2BTB BRANCH_CONDITIONAL	ACCESS:    1290464 HIT:    1148159 MISS:     142305 AVERAGE STALL: 26.2191 AVERAGE FETCH STALL: 18.0055 AVERAGE FETCH QUEUE STALL: 2.88643 AVERAGE DECODE STALL: 4.32577 AVERAGE EXECUTE STALL: 1.30352e+14
L2BTB BRANCH_DIRECT_CALL	ACCESS:     836891 HIT:     720943 MISS:     115948 AVERAGE STALL: 28.6113 AVERAGE FETCH STALL: 19.2774 AVERAGE FETCH QUEUE STALL: 3.56707 AVERAGE DECODE STALL: 4.76684 AVERAGE EXECUTE STALL: 1.59111e+14
L2BTB BRANCH_INDIRECT_CALL	ACCESS:     140566 HIT:     119053 MISS:      21513 AVERAGE STALL: 69.3883 AVERAGE FETCH STALL: 14.4651 AVERAGE FETCH QUEUE STALL: 3.10592 AVERAGE DECODE STALL: 4.73637 AVERAGE EXECUTE STALL: 46.0809
L2BTB BRANCH_RETURN	ACCESS:     822780 HIT:     723236 MISS:      99544 AVERAGE STALL: 29.0032 AVERAGE FETCH STALL: 15.9518 AVERAGE FETCH QUEUE STALL: 3.20012 AVERAGE DECODE STALL: 4.49053 AVERAGE EXECUTE STALL: 1.82784e+14
L2BTB BRANCH_OTHER ACCESS:          0 HIT:          0 MISS:          0 AVERAGE STALL: -nan AVERAGE FETCH STALL: -nan AVERAGE FETCH QUEUE STALL: -nan AVERAGE DECODE STALL: -nan AVERAGE EXECUTE STALL: -nan
L2BTB TOTAL ROB OCCUPANCY AT BTB MISS: 38.4027

L2C TOTAL     ACCESS:    4487989  HIT:    3929013  MISS:     558976  HIT %:    87.5451  MISS %:    12.4549   MPKI: 11.1795
L2C LOAD INSTRUCTION	ACCESS:    2757187  HIT:    2450480  MISS:     306707  HIT %:    88.8761  MISS %:    11.1239  MPKI: 6.13414
L2C LOAD TRANSLATION INSTRUCTION	ACCESS:        302  HIT:         87  MISS:        215  HIT %:    28.8079  MISS %:    71.1921  MPKI: 0.0043
L2C LOAD DATA	ACCESS:     721102  HIT:     635226  MISS:      85876  HIT %:     88.091  MISS %:     11.909  MPKI: 1.71752
L2C RFO DATA	ACCESS:     287624  HIT:     222664  MISS:      64960  HIT %:     77.415  MISS %:     22.585  MPKI: 1.2992
L2C PREFETCH DATA	ACCESS:     199224  HIT:     120098  MISS:      79126  HIT %:    60.2829  MISS %:    39.7171  MPKI: 1.58252
L2C WRITEBACK DATA	ACCESS:     520675  HIT:     499905  MISS:      20770  HIT %:    96.0109  MISS %:    3.98905  MPKI: 0.4154
L2C LOAD TRANSLATION DATA	ACCESS:       1834  HIT:        519  MISS:       1315  HIT %:    28.2988  MISS %:    71.7012  MPKI: 0.0263
L2C TRANSLATION FROM L1D PREFETCHER DATA	ACCESS:         41  HIT:         34  MISS:          7  HIT %:    82.9268  MISS %:    17.0732  MPKI: 0.00014

L2C PREFETCH  REQUESTED:     102895  ISSUED:     102895  USEFUL:       9196  USELESS:      70705
L2C USEFUL LOAD PREFETCHES:       9196 PREFETCH ISSUED TO LOWER LEVEL:      79824  ACCURACY: 11.5203
 TIMELY PREFETCHES:       9196 LATE PREFETCHES: 698 DROPPED PREFETCHES: 0
L2C AVERAGE MISS LATENCY: 37.2373 cycles
L2C RQ	ACCESS:    3768132	FORWARD:          0	MERGED:          0	TO_CACHE:    3768092
L2C WQ	ACCESS:     520675	FORWARD:         40	MERGED:          0	TO_CACHE:     520675
L2C PQ	ACCESS:     207976	FORWARD:          0	MERGED:       4280	TO_CACHE:     203696

L2C Dense regions hint from L2: 0
PSCL5 TOTAL     ACCESS:       4108  HIT:       2054  MISS:       2054  HIT %:         50  MISS %:         50   MPKI: 0.04108
PSCL5 LOAD TRANSLATION INSTRUCTION	ACCESS:       4026  HIT:       2013  MISS:       2013  HIT %:         50  MISS %:         50  MPKI: 0.04026
PSCL5 TRANSLATION FROM L1D PREFETCHER INSTRUCTION	ACCESS:         82  HIT:         41  MISS:         41  HIT %:         50  MISS %:         50  MPKI: 0.00082


PSCL4 TOTAL     ACCESS:       3905  HIT:       1947  MISS:       1958  HIT %:    49.8592  MISS %:    50.1408   MPKI: 0.03916
PSCL4 LOAD TRANSLATION INSTRUCTION	ACCESS:       2103  HIT:       1910  MISS:        193  HIT %:    90.8226  MISS %:    9.17737  MPKI: 0.00386
PSCL4 TRANSLATION FROM L1D PREFETCHER INSTRUCTION	ACCESS:         40  HIT:         37  MISS:          3  HIT %:       92.5  MISS %:        7.5  MPKI: 6e-05
PSCL4 LOAD TRANSLATION DATA	ACCESS:       1728  HIT:          0  MISS:       1728  HIT %:          0  MISS %:        100  MPKI: 0.03456
PSCL4 TRANSLATION FROM L1D PREFETCHER DATA	ACCESS:         34  HIT:          0  MISS:         34  HIT %:          0  MISS %:        100  MPKI: 0.00068


PSCL3 TOTAL     ACCESS:       3951  HIT:       1970  MISS:       1981  HIT %:    49.8608  MISS %:    50.1392   MPKI: 0.03962
PSCL3 LOAD TRANSLATION INSTRUCTION	ACCESS:       2126  HIT:       1933  MISS:        193  HIT %:    90.9219  MISS %:    9.07808  MPKI: 0.00386
PSCL3 TRANSLATION FROM L1D PREFETCHER INSTRUCTION	ACCESS:         40  HIT:         37  MISS:          3  HIT %:       92.5  MISS %:        7.5  MPKI: 6e-05
PSCL3 LOAD TRANSLATION DATA	ACCESS:       1751  HIT:          0  MISS:       1751  HIT %:          0  MISS %:        100  MPKI: 0.03502
PSCL3 TRANSLATION FROM L1D PREFETCHER DATA	ACCESS:         34  HIT:          0  MISS:         34  HIT %:          0  MISS %:        100  MPKI: 0.00068


PSCL2 TOTAL     ACCESS:       4006  HIT:       1952  MISS:       2054  HIT %:    48.7269  MISS %:    51.2731   MPKI: 0.04108
PSCL2 LOAD TRANSLATION INSTRUCTION	ACCESS:       2177  HIT:       1911  MISS:        266  HIT %:    87.7814  MISS %:    12.2186  MPKI: 0.00532
PSCL2 TRANSLATION FROM L1D PREFETCHER INSTRUCTION	ACCESS:         41  HIT:         41  MISS:          0  HIT %:        100  MISS %:          0  MPKI: 0
PSCL2 LOAD TRANSLATION DATA	ACCESS:       1747  HIT:          0  MISS:       1747  HIT %:          0  MISS %:        100  MPKI: 0.03494
PSCL2 TRANSLATION FROM L1D PREFETCHER DATA	ACCESS:         41  HIT:          0  MISS:         41  HIT %:          0  MISS %:        100  MPKI: 0.00082


LLC TOTAL     ACCESS:     628704  HIT:     599164  MISS:      29540  HIT %:    95.3014  MISS %:    4.69855   MPKI: 0.5908
LLC LOAD INSTRUCTION	ACCESS:     306707  HIT:     305767  MISS:        940  HIT %:    99.6935  MISS %:   0.306481  MPKI: 0.0188
LLC LOAD TRANSLATION INSTRUCTION	ACCESS:        215  HIT:        200  MISS:         15  HIT %:    93.0233  MISS %:    6.97674  MPKI: 0.0003
LLC LOAD DATA	ACCESS:      85206  HIT:      81827  MISS:       3379  HIT %:    96.0343  MISS %:    3.96568  MPKI: 0.06758
LLC RFO DATA	ACCESS:      64931  HIT:      49689  MISS:      15242  HIT %:    76.5259  MISS %:    23.4741  MPKI: 0.30484
LLC PREFETCH DATA	ACCESS:      79824  HIT:      70307  MISS:       9517  HIT %:    88.0775  MISS %:    11.9225  MPKI: 0.19034
LLC WRITEBACK DATA	ACCESS:      90499  HIT:      90120  MISS:        379  HIT %:    99.5812  MISS %:   0.418789  MPKI: 0.00758
LLC LOAD TRANSLATION DATA	ACCESS:       1315  HIT:       1248  MISS:         67  HIT %:    94.9049  MISS %:    5.09506  MPKI: 0.00134
LLC TRANSLATION FROM L1D PREFETCHER DATA	ACCESS:          7  HIT:          6  MISS:          1  HIT %:    85.7143  MISS %:    14.2857  MPKI: 2e-05

LLC AVERAGE MISS LATENCY: 156.612 cycles
LLC RQ	ACCESS:     458382	FORWARD:          0	MERGED:          0	TO_CACHE:     458381
LLC WQ	ACCESS:      90499	FORWARD:          1	MERGED:          0	TO_CACHE:      90499
LLC PQ	ACCESS:      79824	FORWARD:          0	MERGED:          0	TO_CACHE:      79824

LLC Dense regions hint to LLC: 0

RAW hits: 1167002
Loads Generated: 12637120
Loads sent to L1D: 11470118
Stores Generated: 6945025
Stores sent to L1D: 6945027
Major fault: 0 Minor fault: 2673
Allocated PAGES: 2673

stream: 
stream:times selected: 1191663
stream:pref_filled: 120012
stream:pref_useful: 24979
stream:pref_late: 6956
stream:misses: 7246
stream:misses_by_poll: 0

CS: 
CS:times selected: 182205
CS:pref_filled: 59669
CS:pref_useful: 36228
CS:pref_late: 8396
CS:misses: 18257
CS:misses_by_poll: 7

CPLX: 
CPLX:times selected: 1008353
CPLX:pref_filled: 22118
CPLX:pref_useful: 5292
CPLX:pref_late: 3066
CPLX:misses: 92447
CPLX:misses_by_poll: 1

NL_L1: 
NL:times selected: 20155
NL:pref_filled: 628
NL:pref_useful: 288
NL:pref_late: 375
NL:misses: 1482
NL:misses_by_poll: 0

total selections: 2402376
total_filled: 95011
total_useful: 37029
total_late: 20284
total_polluted: 8
total_misses_after_warmup: 762527
conflicts: 6008188

test: 119539

DRAM Statistics
 CHANNEL 0
 RQ ROW_BUFFER_HIT:      11164  ROW_BUFFER_MISS:      17986
 DBUS_CONGESTED:          5
 WQ ROW_BUFFER_HIT:       1403  ROW_BUFFER_MISS:      12893  FULL:          0

 AVG_CONGESTED_CYCLE: 3

CPU 0 Branch Prediction Accuracy: 99.8276% MPKI: 0.31528 Average ROB Occupancy at Mispredict: 73.471
Branch types
NOT_BRANCH: 40857670 81.7153%
BRANCH_DIRECT_JUMP: 548488 1.09698%
BRANCH_INDIRECT: 182826 0.365652%
BRANCH_CONDITIONAL: 6180104 12.3602%
BRANCH_DIRECT_CALL: 943392 1.88678%
BRANCH_INDIRECT_CALL: 171893 0.343786%
BRANCH_RETURN: 1115283 2.23057%
BRANCH_OTHER: 0 0%

DRAM PAGES: 1048576
Allocated PAGES: 2673
Average_ROB_Occupancy: 49.4435
Average_Decode_Occupancy: 4.38993
Average_FTQ_Occupancy: 13.5703
Indirect max targets: 14 Average targets: 1.17647
Branch_type:  BRANCH_DIRECT_JUMP:  Count Percentage: 2.73025 6.50101 4.23371 4.85486 2.93806 11.564 1.60184 65.5763 
Branch_type:  BRANCH_INDIRECT:  Count Percentage: 11.7402 3.46991 2.57194 13.4136 1.3337 8.04623 18.5563 40.8682 
Branch_type:  BRANCH_CONDITIONAL:  Count Percentage: 21.1061 3.42207 1.53612 7.6027 1.86597 6.53401 3.49883 54.4342 
Branch_type:  BRANCH_DIRECT_CALL:  Count Percentage: 0.887929 1.48017 1.16018 3.30499 2.87487 4.94685 4.27944 81.0656 
Branch_type:  BRANCH_INDIRECT_CALL:  Count Percentage: 9.5238 0 2.98499 10.6807 1.19656 1.7085 5.12055 68.7849 
Branch_type:  BRANCH_RETURN:  Count Percentage: 5.22711 1.46269 1.49181 10.2361 2.83112 7.14974 4.49096 67.1105 
Branch_type:  BRANCH_DIRECT_JUMP:  Total Count: 29942 71295 46430 53242 32221 126819 17567 719159 
Branch_type:  BRANCH_INDIRECT:  Total Count: 42922 12686 9403 49040 4876 29417 67842 149414 
Branch_type:  BRANCH_CONDITIONAL:  Total Count: 2608278 422897 189833 939538 230595 807469 432383 6726954 
Branch_type:  BRANCH_DIRECT_CALL:  Total Count: 16738 27902 21870 62301 54193 93251 80670 1528135 
Branch_type:  BRANCH_INDIRECT_CALL:  Total Count: 32649 0 10233 36615 4102 5857 17554 235805 
Branch_type:  BRANCH_RETURN:  Total Count: 116500 32600 33249 228138 63099 159351 100093 1495737 
Number of unique branch instructions: 10971
Upper 32 bits: 
aaaa
ffff
ffff0000
Unique upper 32 bits: 3
Unique upper 36 bits: 3
Unique upper 40 bits: 5
Unique upper 44 bits: 32
Unique upper 48 bits: 160
Offset_3 4540
Offset_4 284
Offset_5 492
Offset_6 548
Offset_7 649
Offset_8 599
Offset_9 537
Offset_10 425
Offset_11 350
Offset_12 315
Offset_13 243
Offset_14 247
Offset_15 194
Offset_16 230
Offset_17 175
Offset_18 144
Offset_19 262
Offset_20 143
Offset_21 262
Offset_22 408
Offset_23 247
Offset_24 366
Offset_25 117
Offset_47 100
Offset_64 5
decode_dispatch_called: 29732789 48.5345
Dispatch_width: 0 17628620 59.2902 28.7762
Dispatch_width: 1 2142313 7.20522 3.49702
Dispatch_width: 2 1250718 4.20653 2.04162
Dispatch_width: 3 1133826 3.81339 1.85081
Dispatch_width: 4 1162047 3.9083 1.89687
Dispatch_width: 5 1185347 3.98667 1.93491
Dispatch_width: 6 5229918 17.5897 8.53708
Empty_decode_cycles: 31528388 51.4655
ROB_full_cycles: 523319 0.854242
Starvation_cycles_per_kilo_instr: 555.079
Starvation_cycles_per_kilo_instr_3: 531.605
Starvation_cycles_per_kilo_instr_0: 486.337
Branch_type_1  (3,1)  (4,10)  (5,41)  (6,73)  (7,125)  (8,159)  (9,142)  (10,111)  (11,78)  (12,47)  (13,11)  (14,2)  (15,3)  (16,4)  (18,1)  (19,5)  (20,2)  (21,1)  (22,3)  (23,2)  (24,10)  (25,12) 
Branch_type_2  (3,1)  (4,1)  (5,1)  (8,4)  (9,4)  (10,1)  (12,1)  (13,1)  (14,1)  (16,3)  (17,2)  (20,2)  (21,2)  (23,5)  (24,1)  (47,46) 
Branch_type_3  (3,4538)  (4,273)  (5,446)  (6,458)  (7,492)  (8,366)  (9,294)  (10,171)  (11,133)  (12,54)  (13,10)  (21,1)  (64,4) 
Branch_type_4  (6,3)  (7,8)  (8,29)  (9,57)  (10,68)  (11,72)  (12,118)  (13,104)  (14,111)  (15,92)  (16,101)  (17,83)  (18,61)  (19,127)  (20,72)  (21,141)  (22,214)  (23,139)  (24,213)  (25,101)  (64,1) 
Branch_type_5  (8,3)  (9,1)  (10,4)  (11,5)  (12,3)  (13,14)  (14,16)  (15,11)  (16,22)  (17,11)  (18,23)  (19,15)  (20,12)  (21,13)  (22,43)  (23,26)  (24,42) 
Branch_type_6  (5,4)  (6,14)  (7,24)  (8,38)  (9,39)  (10,70)  (11,62)  (12,92)  (13,103)  (14,117)  (15,88)  (16,100)  (17,79)  (18,59)  (19,115)  (20,55)  (21,104)  (22,148)  (23,75)  (24,100)  (25,4)  (47,54) 
aaaaab1fc620: 2ac9e77e 2aca717c 2aca8eff 2acaf6bc 2acaf9aa 2acaf9f1 2acb1abc 2acb1b7f 2acd4e22 2acdb712 2acf5f9e 2ad0ef44 2ad3f15c 2ad414e6 2ad60e42 2ad8609c 2ad99830 2ada35cc 2ada4676 2ada6612 2adf183e 2adf30e5 2adf5602 2adf785c 2ae11572 2aeb2dcf 2aee101b 2aee1ae1 2aee9456 2b156a8c 2b156b61 2b156bea 2b167f35 2b177656 2b17feec 2b1a3e5a 
aaaaab1fc640: 2ac9ec07 2aca656e 2aca801d 2acaea11 2acaee73 2acb13ee 2acb1470 2acd462b 2ad0ef5d 2ad3f3fe 2ad86e9b 2ada1641 2ada4115 2ada6638 2adf30d4 2ae12e57 2aee1033 2b1693ab 2b16948c 2b169491 2b17d915 2b17fa85 2b17fccd 
aaaaab1fc740: 2aca1fb0 2aca45b3 2aca5aa1 2aca5c69 2aca66f9 2aca9426 2acaeecb 2acf3d2d 2acf3d64 2acf6089 2ad017ea 2ad5e7ef 2ad61064 2ad87373 2ad9bf84 2ad9c093 2ae9b606 2aea9ffa 2aee99f5 2aee9a2c 2aeece4b 
aaaaab1fcb00: 2acf2d72 2acf3734 2acf604c 2acfa5b7 2ad397b5 2ad3b800 2ae8af7d 2ae8aff0 2ae9aaba 2aea9fc6 2aeaa358 2aee910b 2aee91cf 2aee928e 2aee92e4 2aee99de 2af6fe87 2af70dfe 2b16850c 2b16c4a2 2b1765f4 2b178094 2b17d925 2b17db06 2b17ec8f 
aaaaab1fcb10: 2acf2d95 2acf3758 2acf6052 2acfa5f4 2ad397c3 2ad3b81c 2ae8af88 2ae8affe 2ae9aacf 2aeaa017 2aeaa36d 2aee9114 2aee91d8 2aee934d 2aee9353 2aee9a14 2af6fe8c 2af70e22 2b168526 2b16c542 2b176609 2b1780a3 2b17d95d 2b17db44 2b17ecac 
aaaaac68f310: 2ac9ec8c 2ac9fb44 2ac9fbd2 2aca59ab 2acac04c 2acaf6e0 2acaf6ec 2acaf6f9 2acaf700 2acaf708 2acf2d90 2ad3cfbd 2ad3cfc4 2ad3d000 2ad3f35f 2ad4955d 2ad49571 2ad4f3f2 2ad4f400 2ad5f240 2ad5f37c 2ad5f86a 2ad5f86f 2ad5f880 2ad5fc0d 2ad5fc14 2ad5fc21 2ad5fe1b 2ad873bb 2ad873e3 2ad8a6b2 2ad9086e 2ad93096 2ad9bbb2 2ada152c 2ada1554 2ada3332 2ada5522 2adf3130 2adf313c 2adf3a3f 2adf3bd9 2adf5788 2adf7a8d 2ae07f6b 2ae0857a 2ae0857e 2ae08630 2ae08634 2ae08637 2ae08642 2ae0866f 2ae086e4 2ae086ec 2ae08717 2ae0871b 2aee0170 2aee1d38 2aee75f4 2aee7662 2aee85ca 2aee85e4 2aee8eef 2aee9a0a 2af70b84 2af74e8f 2b17d843 
aaaaac690ef0: 2aca598b 2acb111b 2acb175f 2acb1772 2acbfaf4 2acbfb00 2acf374f 2acf6d43 2acfa5c8 2ad3baf1 2ad3d4ac 2ad3d4b8 2ad3f1cf 2ad486b2 2ad5a59b 2ad5fc64 2ad5fcf9 2ad6121c 2ad906e9 2ad907bf 2ad9bada 2ada16ce 2ada1ad5 2ada43df 2ada64c0 2ada72ee 2adeb71a 2adf3bcb 2adf7a38 2adf7c6a 2adf8872 2adf8880 2adf9959 2adf9abe 2ae07f78 2ae08503 2ae08754 2ae12e80 2aea3bea 2aecb509 2aee00b0 2aee2bdd 2aee5467 2aee5601 2aee8f20 2af703fd 2af7048b 2af74e74 2dfba627 
Unique trigger count: 
1 10453
2 567
3 95
4 32
5 16
6 12
7 8
8 2
9 3
10 2
11 1
12 1
13 1
14 3
16 2
19 1
21 1
23 1
25 2
36 1
49 1
67 1
BTB PER SET UNIQUE ADDR: 3 4 4 3 2 2 3 2 4 0 3 1 5 3 2 3 3 2 3 5 3 4 2 4 4 5 1 4 3 2 6 6 4 3 6 2 1 6 6 3 4 4 4 7 6 4 4 5 6 4 4 3 3 2 2 5 4 3 3 3 1 5 2 3 1 5 6 4 3 5 5 1 1 4 2 3 3 6 1 4 2 3 1 4 3 4 2 5 3 3 6 5 3 5 2 0 3 4 2 4 4 4 3 3 3 2 1 3 3 2 2 2 3 6 2 6 2 4 4 1 5 5 2 0 1 2 3 2 7 4 6 2 4 2 6 5 2 2 3 3 5 4 4 2 3 5 3 5 5 5 3 9 3 5 4 1 4 4 4 3 5 6 5 4 6 5 2 2 9 3 3 3 5 3 1 2 4 4 6 1 3 4 7 4 7 6 4 1 2 3 5 3 3 4 4 5 4 3 3 6 3 2 4 2 3 3 2 5 3 1 2 4 5 4 4 2 4 5 4 0 1 3 2 4 3 2 4 3 0 4 8 4 3 4 4 4 6 2 2 3 1 0 6 4 11 8 1 3 4 4 2 2 1 4 2 7 3 5 4 3 4 4 4 2 3 7 3 2 4 2 3 2 2 4 4 2 1 2 3 3 4 3 6 2 6 5 3 3 1 1 0 3 1 6 2 1 5 3 2 2 3 3 2 2 3 2 4 2 8 5 4 1 3 2 5 2 7 6 2 4 4 7 3 4 2 4 3 7 2 2 5 0 2 5 5 2 3 3 6 0 3 0 1 5 6 3 1 3 4 6 4 7 6 3 5 3 2 0 5 1 3 5 2 4 7 5 1 1 2 1 3 2 2 5 4 4 3 5 4 4 5 3 3 5 3 3 5 2 6 1 5 4 4 2 3 1 5 0 1 3 4 2 5 2 2 4 4 3 1 1 2 3 6 4 2 3 6 3 1 3 1 1 4 4 4 6 2 0 2 5 2 2 9 4 5 5 3 3 4 1 3 5 5 4 5 6 2 4 3 2 4 3 1 4 5 1 1 4 7 3 3 4 4 6 1 3 5 2 3 4 0 4 5 2 2 1 4 5 2 1 2 2 3 2 1 4 3 1 6 1 5 2 4 5 0 6 4 4 3 1 5 2 1 1 1 2 2 2 2 3 3 2 5 8 2 1 2 5 4 6 4 5 4 3 6 6 1 7 6 4 5 3 4 6 3 4 2 2 4 1 2 5 6 3 6 2 8 3 7 9 4 6 3 6 1 3 3 1 4 4 7 3 5 3 2 1 4 3 3 7 4 2 3 8 3 2 3 4 1 5 5 2 2 0 1 0 0 9 5 3 6 8 2 2 3 3 6 2 4 2 6 2 6 7 2 4 3 4 3 2 5 3 3 2 2 3 2 0 3 1 5 3 8 2 2 4 3 5 2 3 5 4 3 3 5 5 3 5 3 3 8 1 4 4 1 0 4 4 3 4 3 2 5 2 3 0 5 3 2 3 6 2 6 4 6 4 5 3 2 4 5 5 4 3 6 6 3 3 3 3 3 2 6 3 5 4 5 3 4 3 1 5 2 3 3 4 6 4 5 6 0 6 0 3 3 3 3 1 3 1 3 3 3 1 2 1 8 2 0 3 2 0 1 1 1 3 1 4 2 4 6 4 2 1 3 4 8 3 2 2 2 3 2 4 2 3 4 2 3 2 0 2 1 4 2 2 3 6 4 1 3 3 1 5 4 4 8 2 2 2 4 3 0 3 3 4 5 2 1 3 4 4 0 3 8 6 3 4 0 3 2 4 1 1 5 7 7 2 2 3 5 3 5 3 4 3 3 5 1 2 1 3 4 1 5 3 1 2 0 4 5 2 5 2 2 2 4 2 4 4 3 1 3 2 5 2 2 2 5 3 2 2 3 4 2 4 7 5 5 2 6 3 5 4 6 5 3 2 4 4 2 6 2 1 9 3 3 4 5 3 1 3 3 6 4 0 2 3 5 4 3 6 5 5 6 3 2 3 3 4 5 2 4 4 3 2 7 4 3 2 5 2 2 4 5 5 5 5 3 5 5 4 1 3 1 5 0 2 6 2 6 5 5 3 4 1 3 2 5 8 5 4 9 7 6 4 6 6 2 6 4 2 1 4 4 6 5 5 4 4 7 2 5 4 2 4 6 6 4 2 3 2 4 5 2 6 9 5 6 3 3 3 0 5 6 1 7 5 1 3 7 5 3 5 2 1 2 6 4 2 5 5 2 7 4 5 4 5 3 5 3 3 4 2 3 5 4 3 3 4 5 3 4 4 6 2 5 3 2 5 5 2 10 5 3 3 3 3 2 3 5 8 6 2 3 2 3 3 4 1 3 2 4 4 2 4 6 5 4 6 0 3 3 4 5 4 2 1 3 2 3 2 2 1 4 1 3 3 3 5 2 8 5 3 2 1 10 1 2 4 1 2 6 6 3 8 3 5 5 6 3 5 3 2 1 1 5 1 4 4 3 9 4 1 7 5 7 2 4 4 5 4 5 7 4 4 6 1 4 5 7 4 3 3 4 3 6 6 3 6 7 6 4 3 5 5 1 2 5 5 1 3 2 1 3 5 2 3 5 2 2 5 4 2 5 1 7 3 3 3 3 1 3 5 3 4 3 4 2 6 2 3 7 3 4 5 3 5 2 8 3 5 3 8 6 2 6 1 5 2 1 2 5 4 3 1 3 4 3 1 2 3 4 4 3 3 3 4 2 5 2 5 5 6 0 5 3 3 2 6 8 1 8 0 1 4 5 2 5 1 3 3 4 1 1 2 4 5 3 4 1 4 5 6 5 1 4 3 3 6 10 4 3 7 6 5 1 1 3 5 6 3 2 2 4 3 4 5 5 3 1 4 2 3 6 8 5 4 3 6 1 2 6 3 4 1 3 2 6 8 3 3 3 3 4 5 2 5 6 7 5 2 1 5 4 3 4 3 4 4 4 4 8 3 6 4 3 5 5 4 1 7 4 4 3 3 3 2 3 3 2 2 5 4 3 3 5 2 1 3 3 8 5 2 3 4 2 4 3 3 4 3 2 1 4 2 4 2 5 3 4 4 2 1 2 6 1 5 2 4 2 4 7 2 2 5 4 4 3 3 5 3 3 4 5 5 4 4 5 3 3 3 2 3 5 2 4 1 4 0 8 3 3 6 4 4 5 7 3 2 3 3 2 3 5 1 4 2 4 2 1 6 1 6 3 3 3 4 3 2 5 3 4 2 4 1 6 3 0 3 3 1 1 4 1 5 3 3 7 3 2 2 2 3 2 2 7 2 3 6 3 3 3 3 2 2 5 0 2 3 4 3 3 1 2 1 4 1 4 3 4 4 2 3 2 1 2 5 4 2 6 1 3 4 2 2 5 5 3 2 7 0 1 2 3 1 1 2 3 3 7 3 1 1 7 2 1 4 1 6 1 4 2 3 6 2 3 2 1 3 3 1 2 4 4 2 3 3 1 3 0 6 3 4 3 0 4 3 5 5 5 3 3 4 3 3 2 3 2 3 5 0 2 3 3 3 4 1 3 3 3 9 7 2 3 2 4 2 1 3 6 2 3 0 3 2 4 3 3 5 6 5 8 0 5 1 8 4 5 5 3 8 2 4 9 3 0 6 4 3 3 5 3 3 2 2 2 5 2 2 3 4 2 4 6 3 5 4 6 2 2 5 5 3 4 5 5 3 6 3 5 6 2 6 4 3 3 1 3 6 5 3 2 3 3 3 4 4 2 2 3 2 3 1 3 8 1 2 2 3 3 3 6 3 5 2 5 2 3 2 5 2 4 5 7 1 1 7 3 4 3 3 4 8 2 3 2 4 6 3 5 3 5 3 5 10 4 4 3 5 2 5 4 3 2 3 0 2 2 4 4 4 2 5 3 5 4 2 4 9 1 3 2 4 4 4 3 4 3 6 3 4 1 5 3 3 5 3 3 0 2 6 0 8 2 6 6 1 4 3 2 0 4 2 3 5 3 6 2 3 2 2 3 5 7 1 3 3 0 3 3 4 5 3 3 3 5 2 3 2 6 4 4 1 5 3 0 3 5 1 1 8 2 1 5 2 4 3 3 3 6 3 4 6 1 6 4 6 2 6 5 3 3 2 7 1 4 1 3 3 4 4 4 4 3 1 2 5 0 3 0 3 5 6 2 2 6 2 3 3 4 1 2 2 5 2 4 2 5 3 2 3 1 2 3 3 5 3 3 5 2 2 2 4 2 5 2 6 1 6 4 3 4 2 5 1 2 3 6 4 3 4 6 6 3 3 3 4 4 2 0 3 3 0 2 1 2 2 4 2 5 2 2 3 4 2 3 4 4 2 4 8 3 2 7 8 4 2 4 2 3 5 3 4 5 3 4 1 2 4 6 4 2 4 4 2 5 3 5 7 4 4 1 5 1 0 2 3 0 5 4 6 1 3 4 7 6 0 2 2 4 2 5 2 3 3 8 3 2 2 3 7 2 7 3 5 7 0 1 3 1 4 4 2 0 2 3 4 6 4 1 0 3 4 6 1 2 1 3 6 2 2 5 5 3 3 5 4 1 6 2 6 2 1 2 3 2 3 6 2 3 4 3 3 4 1 5 3 5 3 4 2 1 3 6 4 4 0 
BTB PER SET COUNT: 3 4 4 3 2 2 3 2 4 0 3 1 2475 3 2 4 3 2 3 1488 3 5 2 4 4 18 1 4 1464 2 2941 26 4 3 10 2 2922 765 774 4 4 6 7 2244 5274 4 4 6 1552 4 4 3 3 2 2 5 5 3 3 3 1 6 2 3 1 367 443 4 3 1026 760 1 1 4 2 3 499 772 1 4 2 3 1 4 3 5 2 14 3 3 2523 495 3 3790 3 0 3 4 2 5 4 4 6 3 3 2 1 3 3 5 2 2 3 1991 2 1877 3 4 4 1 6 6 2 0 3 2 3 2 2373 6 1995 3 4 2 968 5 2 2 3 3 650 6 4 2 3 7 3 4256 8 7 3 6717 3 2462 4 1 4 4 4 3 5 1012 6 4 11 1941 2 2 8170 3 3 3 7 3 1 2 4 4 981 1 3 4 6771 4 11 11 4 1 2 3 34 3 3 4 4 11 4 3 4 8 4 2 4 2 5 3 2 1489 3 1 3 5 15 4 4 2 4 287 4 0 1 3 2 4 3 2 4 25 0 4 5849 4 3 4 4 4 8 2 2 3 1 0 2470 4 9152 2016 1 3 4 4 2 2 1 4 2 2092 3 11 4 3 4 4 4 2 1464 1496 3 2 4 2 3 2 2 4 4 2 1 2 3 3 4 3 1974 2 767 2475 3 4 1 1 0 3 1 18 2 1 12 3 2 2 3 3 2 2 3 2 4 2 1977 1015 4 1 3 2 1011 2 2477 1277 2 4 4 2264 3 4 2 4 6 226 2 2 1007 0 2 17 1497 2 993 3 29 0 3 0 1 997 997 3 1 3 5 8 4 113 10 3 44 4 2 0 7 1 3 50 3 5 2680 717 1 1 2 1 3 2 3 6 5 4 3 5 4 4 28 3 3 674 5 3 12 2 10 1 20 4 4 2 3 1 3311 0 1 4 4 2 5 2 2 5 1465 4 1 967 2 3 14 4 968 3 168 3 1 92 1 1 4 4 4 9 4 0 2 7 138 2 2738 4 1009 2404 3 3 4 1 3 6 1268 4 7 1034 2 4 3 2 4 3 1 4 1923 1 1 4 1480 4 3 4 4 1947 1 3 6 2 3 4 0 4 35 496 2 1 4 1025 2 1 2 2 3 496 1 5 3 1 35 1 8 2 4 7 0 30 16 5 3 1 1924 22 1 1 1 3 3 2 2 3 3 2 7 45 5 1 2 2465 4 506 4 1467 4 3 30 1488 1 1933 4791 4 6 3 4 24 3 520 3 2 9 1 2 1486 232 5 19 2 82 4 985 9181 5 1460 5 2938 2 3 5 1 4 5 6724 3 1928 3 2 1 4 3 3 2973 4 2 3 5302 3 2 3 4 1 27 9 38 2 0 2 0 0 3905 6 3 1972 2983 2 6 969 5 11 2 4 2 11 2 10 1520 2 5 3 4 3 2 2471 3 3 3 2 4 1026 0 3 1 6 497 3443 2 2 4 3 20 2 3 1984 1465 3 8 999 7 3 7 3 3 2980 1 4 4 1 0 5 4 3 4 3 2 15 2 3 0 6 3 2 3 7867 2 28 4 1984 5 2948 992 2 4 807 6 6 4 1485 2996 3 3 5 3 3 4 8 992 1486 5 29 1464 4 3 2 999 2 3 3 4 1935 4 19 43 0 2474 0 3 3 992 3 1 3 1 3 3 5 1 991 1 2483 2 0 4 2 0 1 1 1 3 1 4 2 4 1483 4 968 1 3 5 14 3 3 2 2 4 2 4 2 3 519 2 3 962 0 2 1 5 2 2 3 2961 5 1 3 3 1 23 4 4 5778 2 3 2 4 3 0 105 3 5 2836 3 1 3 4 4 0 4 3069 4744 3 5 0 3 3 47 1 1 6 1679 1930 2 2 3 12 3 6 5 1981 3 3 24 1 3 1 3 4 1 8 4 2 2 0 4 8 2 7 2 2 2 4 2 4 57 3 1 3 2 1983 4 25 5 1491 3 2 2 3 1467 2 10 1975 6 13 3 2473 3 1924 7 12 8 3 2 4 4 3 4810 2 1 6335 969 3 4 1489 9 1 3 3 2442 4 0 2 3 26 4 5 4738 7 8 100 3 2 3 3 4 7 2 4 4 3 2 745 4 3 2 1773 2 2 43 9 2435 5 1010 3 7 44 5 1 3 1 1444 0 2 1002 2 55 80 1443 3 12 1 3 2 1923 215 7 498 5409 3859 1512 4 2094 10 3 41 5 2 1 970 4 2487 30 1509 4 4 798 2 370 6 2 4 1377 1985 4 2 3 518 4 4799 2 83 1150 8 1986 3 3 3 0 366 29 1 7262 23 1 3 2021 20 497 9 2 4 2 7 4 2 1659 7 2 3464 5 9 4 1923 3 32 3 5 4 2 3 18 4 16 3 5 1988 3 2432 364 1740 3 28 5 2 7 1774 2 5141 27 3 3 3 3 2 3 6 2949 1935 2 3 2 3 3 4 3 3 3 5 4 2 4 10 1984 4 1455 0 3 3 4 1466 367 2 1 3 4 3 2 2 1 5 1 3 4 4 7 2 3954 1486 3 2 1 11175 1 2 4 1 2 1984 98 3 5292 3 28 6 2476 3 31 3 2 1 1 33 1 4 4 3 1990 4 1 2017 6 2470 2 498 4 10 4 2404 1806 4 4 2470 1 6 7 4895 4 3 3 5 3 1493 1952 4 2447 1452 2308 4 3 9 8 1 2 5 1976 1 4 2 1 3 8 2 3 535 2 2 97 4 2 11 1 5555 3 3 4 3 1 4 10 3 4 3 5 2 28 2 3 1712 3 4 6 3 1920 2 5720 3 1493 4 2609 7212 2 5239 1 21 2 1 2 521 4 3 1 3 127 4 1 2 497 4 4 3 3 3 4 2 1504 2 8 8 23 0 1926 3 3 2 55 7303 1 49 0 1 4 7 4 28 1 3 963 5 1 1 2 5 20 3 4 1 4 6 7219 17 1 4 3 3 2948 10199 1955 3 7262 24 1983 1 1 4 1922 2457 3 2 3 4 3 5 6 18 3 1 4 2 3 3334 7807 3793 4 3 337 1 2 28 3 4 1 3 2 2970 6519 969 3 3 3 8 7 2 1921 1991 2473 7 2 1 24 4 3 4 3 5 5 4 4 1940 3 1984 4 497 1921 2473 6 1 3042 4 4 3 3 3 6 3 3 2 2 15 4 3 3 1003 2 1 4 3 2957 10 2 3 4 2 4 3 3 4 3 2 1 4 2 4 2 8 3 9 4 2 1 2 1029 1 6 2 4 2 4 368 2 2 9 4 970 3 4 2462 3 3 43 7 18 5 4 8 3 3 3 2 3 1981 5 4 1 4 0 5697 3 3 2883 4 4 2404 6824 4 2 3 3 2 4 8 2 4 4 8 3 1 3779 1 10 3 3 3 4 4 2 1468 3 4 1329 4 1 544 3 0 3 3 1 2 1331 1 7 3 3 1931 3 2 2 2 3 2 2 2876 2 3 86 3 3 3 3 2 2 8 0 4 3 4 969 3 1 2 1 5 1 4 3 4 4 2 3 962 1 7 9 21 2 2462 1 3 4 2 2 10 14 151 2 21473 0 1 2 3 1 1 2 3 3 2034 364 1 1 1418 2 1 5 1 2478 1 4 2 3 1965 2 3 2 1 3 3 1 2 4 4 2 3 3 1 3 0 3779 3 4 4 0 4 453 1969 6 8 3 4 4 3 4 2 3 4 3 7 0 2 3 3 3 10 1 3 3 3 3728 2970 2 3 2 4 2 1 4 1726 2 3 0 3 2 4 3 3 9 2403 21 5779 0 7 1 2182 4 6 30 4 3462 2 4 8436 3 0 2962 1465 3 3 9 3 3 2 2 2 973 2 2 3 4 2 4 1688 5 1982 4 1037 2966 2 1204 6712 3 6 10 12 3 3433 3 1565 1976 2 1981 5 234 363 2 1464 1508 13 151 2 3 3 3 4 5 2 2 4 2 3 1 3 2586 1 2 2 3 3 3 518 3 6 2 3798 3 3 12 1443 3 1488 1490 2957 1 1 6259 3 994 3 3 4 1990 518 5 4 4 2912 3 504 3 4379 3 7 8654 4 4 14623 2966 2 1923 1466 26 2 3 0 3 2 4 4 4 2 6 3 79 4 2 173 3475 1 1465 2 1465 91 4 3 4 3 2337 4 733 1 2469 3 3 7 3 3 0 2 3052 0 5270 2 1197 2478 1 4 3 2 0 4 2 7 2297 3 4813 2 3 2 2 3 8 7250 1 3 523 0 3 3 6 1923 969 3 3 1967 2 3 2 2229 4 5 1 27 3 0 3 6 1462 1 3918 2 1 7 2 4 4 5 3 2434 4 398 2452 1 2464 4 1986 237 1924 80 3 3 2 4052 1 225 1 3 1485 4 4 4 4 3 1 2 516 0 3 0 3 6 3191 2 2 784 408 3 3 970 1 2 2 7 2 4 2 103 3 2 3 1 2 221 3 5 3 3 5 2 2 2 4 2 1451 2 11 1 3782 4 3 5 8 6 1 2 3 13 4 3 964 10 1003 3 3 3 4 4 2 0 3 3 0 2 1 2 2 4 4 2468 2 2 3 4 2 3 4 4 2 4 3122 3 3 3222 2409 139 2 4 3 3 27 5 5 30 3 4 1 2 4 11 966 2 4 4 2 5 3 8 2540 4 5 1 9 2 0 2 3 0 8 1466 1036 1 3 4 2471 10 0 6 2 8 3 7 2 7 3 3850 3 2 2 3 2501 5 3446 3 6 5086 0 1 3 1 4 4 2 0 2 3 4 24 4 2 0 3 4 1521 1 2 1 3 2475 2 2 24 8 3 5 1924 4 1 2479 2 1929 8 1 2 3 2 3 11 2 3 4 3 3 5 1 20 3 219 3 4 2 1 3 1488 4 4 0 
