
*** ChampSim Multicore Out-of-Order Simulator ***

Warmup Instructions: 50000000
Simulation Instructions: 50000000
Number of CPUs: 1
LLC sets: 2048
LLC ways: 16
Off-chip DRAM Size: 4096 MB Channels: 1 Width: 64-bit Data Rate: 6400 MT/s
CPU 0 runs ./micro_traces/srv714.trace.gz
.gz
ITLB has LRU replacement policy
DTLB has LRU replacement policy
STLB has LRU replacement policy
FDIP Prefetcher at L1I
L1I has LRU replacement policy
L1D has LRU replacement policy
Initialize SRRIP state for L2C
Initialize DRRIP state for LLC
Heartbeat_Variant_0 : 1467 0.23877 per_variant_size: 0 1467 0 0 0 0 0 0 0 
Heartbeat_Variant_1 : 3020 0.491536 per_variant_size: 0 981 2039 0 0 0 0 0 0 
Heartbeat_Variant_2 : 0 0 per_variant_size: 0 0 0 0 0 0 0 0 0 
Heartbeat_Variant_3 : 0 0 per_variant_size: 0 0 0 0 0 0 0 0 0 
Heartbeat_Variant_0_evicts 0 : 5552 1 : 57 2 : 0 3 : 0 
Heartbeat_Variant_1_evicts 0 : 46 1 : 0 2 : 0 3 : 0 
Heartbeat_Variant_2_evicts 0 : 0 1 : 0 2 : 0 3 : 0 
Heartbeat_Variant_3_evicts 0 : 0 1 : 0 2 : 0 3 : 0 
Heartbeat CPU 0 instructions: 10000000 cycles: 2795729 heartbeat IPC: 3.57688 cumulative IPC: 3.57688 (Simulation time: 0 hr 1 min 46 sec) 
Heartbeat_Variant_0 : 1466 0.238607 per_variant_size: 0 1466 0 0 0 0 0 0 0 
Heartbeat_Variant_1 : 3029 0.493001 per_variant_size: 0 982 2047 0 0 0 0 0 0 
Heartbeat_Variant_2 : 0 0 per_variant_size: 0 0 0 0 0 0 0 0 0 
Heartbeat_Variant_3 : 0 0 per_variant_size: 0 0 0 0 0 0 0 0 0 
Heartbeat_Variant_0_evicts 0 : 5585 1 : 2 2 : 0 3 : 0 
Heartbeat_Variant_1_evicts 0 : 5 1 : 0 2 : 0 3 : 0 
Heartbeat_Variant_2_evicts 0 : 0 1 : 0 2 : 0 3 : 0 
Heartbeat_Variant_3_evicts 0 : 0 1 : 0 2 : 0 3 : 0 
Heartbeat CPU 0 instructions: 20000000 cycles: 5591186 heartbeat IPC: 3.57723 cumulative IPC: 3.57706 (Simulation time: 0 hr 3 min 26 sec) 
Heartbeat_Variant_0 : 1467 0.23877 per_variant_size: 0 1467 0 0 0 0 0 0 0 
Heartbeat_Variant_1 : 3043 0.49528 per_variant_size: 0 979 2064 0 0 0 0 0 0 
Heartbeat_Variant_2 : 0 0 per_variant_size: 0 0 0 0 0 0 0 0 0 
Heartbeat_Variant_3 : 0 0 per_variant_size: 0 0 0 0 0 0 0 0 0 
Heartbeat_Variant_0_evicts 0 : 5547 1 : 3 2 : 0 3 : 0 
Heartbeat_Variant_1_evicts 0 : 2 1 : 0 2 : 0 3 : 0 
Heartbeat_Variant_2_evicts 0 : 0 1 : 0 2 : 0 3 : 0 
Heartbeat_Variant_3_evicts 0 : 0 1 : 0 2 : 0 3 : 0 
Heartbeat CPU 0 instructions: 30000002 cycles: 8385741 heartbeat IPC: 3.57839 cumulative IPC: 3.5775 (Simulation time: 0 hr 5 min 5 sec) 
Heartbeat_Variant_0 : 1472 0.239583 per_variant_size: 0 1472 0 0 0 0 0 0 0 
Heartbeat_Variant_1 : 3068 0.499349 per_variant_size: 0 988 2080 0 0 0 0 0 0 
Heartbeat_Variant_2 : 0 0 per_variant_size: 0 0 0 0 0 0 0 0 0 
Heartbeat_Variant_3 : 0 0 per_variant_size: 0 0 0 0 0 0 0 0 0 
Heartbeat_Variant_0_evicts 0 : 5600 1 : 4 2 : 0 3 : 0 
Heartbeat_Variant_1_evicts 0 : 3 1 : 0 2 : 0 3 : 0 
Heartbeat_Variant_2_evicts 0 : 0 1 : 0 2 : 0 3 : 0 
Heartbeat_Variant_3_evicts 0 : 0 1 : 0 2 : 0 3 : 0 
Heartbeat CPU 0 instructions: 40000003 cycles: 11182845 heartbeat IPC: 3.57513 cumulative IPC: 3.57691 (Simulation time: 0 hr 6 min 45 sec) 
Heartbeat_Variant_0 : 1472 0.239583 per_variant_size: 0 1472 0 0 0 0 0 0 0 
Heartbeat_Variant_1 : 3068 0.499349 per_variant_size: 0 989 2079 0 0 0 0 0 0 
Heartbeat_Variant_2 : 0 0 per_variant_size: 0 0 0 0 0 0 0 0 0 
Heartbeat_Variant_3 : 0 0 per_variant_size: 0 0 0 0 0 0 0 0 0 
Heartbeat_Variant_0_evicts 0 : 5463 1 : 0 2 : 0 3 : 0 
Heartbeat_Variant_1_evicts 0 : 0 1 : 0 2 : 0 3 : 0 
Heartbeat_Variant_2_evicts 0 : 0 1 : 0 2 : 0 3 : 0 
Heartbeat_Variant_3_evicts 0 : 0 1 : 0 2 : 0 3 : 0 
Heartbeat CPU 0 instructions: 50000001 cycles: 13979375 heartbeat IPC: 3.57586 cumulative IPC: 3.5767 (Simulation time: 0 hr 8 min 24 sec) 

Warmup complete CPU 0 instructions: 50000001 cycles: 13979375 (Simulation time: 0 hr 8 min 24 sec) 

Cycle: 20000000 FTQ IN: 58327037 FTQ occupancy: 20.4888 DECODE IN: 58327005 DECODE occupancy: 53.3203 ROB IN: 58326958 ROB occupancy: 318.512 ROB OUT: 58326610
Heartbeat_Variant_0 : 1536 0.25 per_variant_size: 0 1536 0 0 0 0 0 0 0 
Heartbeat_Variant_1 : 3226 0.525065 per_variant_size: 0 1004 2222 0 0 0 0 0 0 
Heartbeat_Variant_2 : 0 0 per_variant_size: 0 0 0 0 0 0 0 0 0 
Heartbeat_Variant_3 : 0 0 per_variant_size: 0 0 0 0 0 0 0 0 0 
Heartbeat_Variant_0_evicts 0 : 5581 1 : 39 2 : 0 3 : 0 
Heartbeat_Variant_1_evicts 0 : 36 1 : 0 2 : 0 3 : 0 
Heartbeat_Variant_2_evicts 0 : 0 1 : 0 2 : 0 3 : 0 
Heartbeat_Variant_3_evicts 0 : 0 1 : 0 2 : 0 3 : 0 
Heartbeat CPU 0 instructions: 60000002 cycles: 21186249 heartbeat IPC: 1.38756 cumulative IPC: 1.38756 (Simulation time: 0 hr 10 min 24 sec) 
Heartbeat_Variant_0 : 1539 0.250488 per_variant_size: 0 1539 0 0 0 0 0 0 0 
Heartbeat_Variant_1 : 3225 0.524902 per_variant_size: 0 1006 2219 0 0 0 0 0 0 
Heartbeat_Variant_2 : 0 0 per_variant_size: 0 0 0 0 0 0 0 0 0 
Heartbeat_Variant_3 : 0 0 per_variant_size: 0 0 0 0 0 0 0 0 0 
Heartbeat_Variant_0_evicts 0 : 5490 1 : 4 2 : 0 3 : 0 
Heartbeat_Variant_1_evicts 0 : 1 1 : 0 2 : 0 3 : 0 
Heartbeat_Variant_2_evicts 0 : 0 1 : 0 2 : 0 3 : 0 
Heartbeat_Variant_3_evicts 0 : 0 1 : 0 2 : 0 3 : 0 
Heartbeat CPU 0 instructions: 70000001 cycles: 28419253 heartbeat IPC: 1.38255 cumulative IPC: 1.38505 (Simulation time: 0 hr 12 min 24 sec) 
Cycle: 30000000 FTQ IN: 13890105 FTQ occupancy: 15.1749 DECODE IN: 13890079 DECODE occupancy: 38.9992 ROB IN: 13890101 ROB occupancy: 254.619 ROB OUT: 13890386
Heartbeat_Variant_0 : 1552 0.252604 per_variant_size: 0 1552 0 0 0 0 0 0 0 
Heartbeat_Variant_1 : 3273 0.532715 per_variant_size: 0 992 2281 0 0 0 0 0 0 
Heartbeat_Variant_2 : 0 0 per_variant_size: 0 0 0 0 0 0 0 0 0 
Heartbeat_Variant_3 : 0 0 per_variant_size: 0 0 0 0 0 0 0 0 0 
Heartbeat_Variant_0_evicts 0 : 5640 1 : 6 2 : 0 3 : 0 
Heartbeat_Variant_1_evicts 0 : 7 1 : 0 2 : 0 3 : 0 
Heartbeat_Variant_2_evicts 0 : 0 1 : 0 2 : 0 3 : 0 
Heartbeat_Variant_3_evicts 0 : 0 1 : 0 2 : 0 3 : 0 
Heartbeat CPU 0 instructions: 80000000 cycles: 35565019 heartbeat IPC: 1.39943 cumulative IPC: 1.38981 (Simulation time: 0 hr 14 min 27 sec) 
Cycle: 40000000 FTQ IN: 14014493 FTQ occupancy: 15.0446 DECODE IN: 14014485 DECODE occupancy: 38.7779 ROB IN: 14014507 ROB occupancy: 253.274 ROB OUT: 14014318
Heartbeat_Variant_0 : 1553 0.252767 per_variant_size: 0 1553 0 0 0 0 0 0 0 
Heartbeat_Variant_1 : 3273 0.532715 per_variant_size: 0 999 2274 0 0 0 0 0 0 
Heartbeat_Variant_2 : 0 0 per_variant_size: 0 0 0 0 0 0 0 0 0 
Heartbeat_Variant_3 : 0 0 per_variant_size: 0 0 0 0 0 0 0 0 0 
Heartbeat_Variant_0_evicts 0 : 5592 1 : 1 2 : 0 3 : 0 
Heartbeat_Variant_1_evicts 0 : 0 1 : 0 2 : 0 3 : 0 
Heartbeat_Variant_2_evicts 0 : 0 1 : 0 2 : 0 3 : 0 
Heartbeat_Variant_3_evicts 0 : 0 1 : 0 2 : 0 3 : 0 
Heartbeat CPU 0 instructions: 90000000 cycles: 42767886 heartbeat IPC: 1.38834 cumulative IPC: 1.38944 (Simulation time: 0 hr 16 min 26 sec) 
Heartbeat_Variant_0 : 1553 0.252767 per_variant_size: 0 1553 0 0 0 0 0 0 0 
Heartbeat_Variant_1 : 3283 0.534342 per_variant_size: 0 1000 2283 0 0 0 0 0 0 
Heartbeat_Variant_2 : 0 0 per_variant_size: 0 0 0 0 0 0 0 0 0 
Heartbeat_Variant_3 : 0 0 per_variant_size: 0 0 0 0 0 0 0 0 0 
Heartbeat_Variant_0_evicts 0 : 5580 1 : 1 2 : 0 3 : 0 
Heartbeat_Variant_1_evicts 0 : 2 1 : 0 2 : 0 3 : 0 
Heartbeat_Variant_2_evicts 0 : 0 1 : 0 2 : 0 3 : 0 
Heartbeat_Variant_3_evicts 0 : 0 1 : 0 2 : 0 3 : 0 
Heartbeat CPU 0 instructions: 100000002 cycles: 49873893 heartbeat IPC: 1.40726 cumulative IPC: 1.39297 (Simulation time: 0 hr 18 min 21 sec) 
Finished CPU 0 instructions: 50000001 cycles: 35894518 cumulative IPC: 1.39297 (Simulation time: 0 hr 18 min 21 sec) 

ChampSim completed all CPUs

Region of Interest Statistics

CPU 0 cumulative IPC: 1.39297 instructions: 50000001 cycles: 35894518
 Fetch stage stalled: 45.2475  Sim cycles: 35894518 fetch stall cycle: 16241383
 Empty decode stage: 24.5873  Sim cycles: 35894518 fetch stall cycle: 8825486
ITLB TOTAL     ACCESS:    5836368  HIT:    5344239  MISS:     492129  HIT %:    91.5679  MISS %:    8.43211   MPKI: 9.84258
ITLB LOAD TRANSLATION INSTRUCTION	ACCESS:    5701645  HIT:    5209516  MISS:     492129  HIT %:    91.3686  MISS %:    8.63135  MPKI: 9.84258
ITLB TRANSLATION FROM L1D PREFETCHER INSTRUCTION	ACCESS:     134723  HIT:     134723  MISS:          0  HIT %:        100  MISS %:          0  MPKI: 0

ITLB AVERAGE MISS LATENCY: 9.06763 cycles
ITLB RQ	ACCESS:    7940662	FORWARD:          0	MERGED:    1622805	TO_CACHE:    6317857

DTLB TOTAL     ACCESS:    8929969  HIT:    8452614  MISS:     477355  HIT %:    94.6545  MISS %:    5.34554   MPKI: 9.5471
DTLB LOAD TRANSLATION DATA	ACCESS:    8929969  HIT:    8452614  MISS:     477355  HIT %:    94.6545  MISS %:    5.34554  MPKI: 9.5471

DTLB AVERAGE MISS LATENCY: 9.33834 cycles
DTLB RQ	ACCESS:   13297053	FORWARD:          0	MERGED:    4329977	TO_CACHE:    8967076

STLB TOTAL     ACCESS:    1220757  HIT:    1218550  MISS:       2207  HIT %:    99.8192  MISS %:   0.180789   MPKI: 0.04414
STLB LOAD TRANSLATION INSTRUCTION	ACCESS:     492129  HIT:     491850  MISS:        279  HIT %:    99.9433  MISS %:  0.0566925  MPKI: 0.00558
STLB LOAD TRANSLATION DATA	ACCESS:     477354  HIT:     475439  MISS:       1915  HIT %:    99.5988  MISS %:    0.40117  MPKI: 0.0383
STLB TRANSLATION FROM L1D PREFETCHER DATA	ACCESS:     251274  HIT:     251261  MISS:         13  HIT %:    99.9948  MISS %: 0.00517364  MPKI: 0.00026

STLB AVERAGE MISS LATENCY: 74.7762 cycles
STLB RQ	ACCESS:    1355990	FORWARD:          0	MERGED:     135193	TO_CACHE:    1220797

STLB Hit, L1D data hit: 0
STLB Hit, L2C data hit: 0
STLB Hit, LLC data hit: 0
STLB Hit, LLC data miss: 0
STLB STLB hints to L2: 0
L1D TOTAL     ACCESS:   13050596  HIT:   11902774  MISS:    1147822  HIT %:    91.2048  MISS %:    8.79517   MPKI: 22.9564
L1D LOAD DATA	ACCESS:    6540667  HIT:    5783498  MISS:     757169  HIT %:    88.4237  MISS %:    11.5763  MPKI: 15.1434
L1D RFO DATA	ACCESS:    6179020  HIT:    5892182  MISS:     286838  HIT %:    95.3579  MISS %:    4.64213  MPKI: 5.73676
L1D PREFETCH DATA	ACCESS:     330909  HIT:     227094  MISS:     103815  HIT %:    68.6273  MISS %:    31.3727  MPKI: 2.0763

L1D PREFETCH  REQUESTED:     773407  ISSUED:     773407  USEFUL:      43624  USELESS:      70712
L1D USEFUL LOAD PREFETCHES:      43624 PREFETCH ISSUED TO LOWER LEVEL:     114398  ACCURACY: 38.1335
 TIMELY PREFETCHES:      43624 LATE PREFETCHES: 10539 DROPPED PREFETCHES: 2
L1D AVERAGE MISS LATENCY: 292941 cycles
L1D RQ	ACCESS:   10669002	FORWARD:          0	MERGED:    3928428	TO_CACHE:    6574973
L1D WQ	ACCESS:    6919153	FORWARD:     165996	MERGED:     197073	TO_CACHE:    6722080
L1D PQ	ACCESS:     386901	FORWARD:          0	MERGED:          0	TO_CACHE:     386506

L1D UNIQUE REGIONS ACCESSED: 0
L1D REGIONS CONFLICTS: 0
L1D Cross Page Prefetch Requests: 5949
L1D Same Page Prefetch Requests: 782289
L1D ROI Sum of L1D PQ occupancy: 4900569
L1D PREFETCHES PUSHED FROM L2C: 0
L1I TOTAL     ACCESS:    7115076  HIT:    4363883  MISS:    2751193  HIT %:    61.3329  MISS %:    38.6671   MPKI: 55.0239
L1I LOAD INSTRUCTION	ACCESS:    6446624  HIT:    3695431  MISS:    2751193  HIT %:    57.3235  MISS %:    42.6765  MPKI: 55.0239
L1I PREFETCH INSTRUCTION	ACCESS:     668452  HIT:     668452  MISS:          0  HIT %:        100  MISS %:          0  MPKI: 0

L1I PREFETCH  REQUESTED:    1624673  ISSUED:    1624673  USEFUL:          0  USELESS:          0
L1I USEFUL LOAD PREFETCHES:          0 PREFETCH ISSUED TO LOWER LEVEL:          0  ACCURACY: -nan
 TIMELY PREFETCHES:          0 LATE PREFETCHES: 0 DROPPED PREFETCHES: 0
L1I AVERAGE MISS LATENCY: 17.2253 cycles
L1I RQ	ACCESS:    9572736	FORWARD:          0	MERGED:    2823449	TO_CACHE:    6749287
L1I PQ	ACCESS:    1624673	FORWARD:          0	MERGED:     433298	TO_CACHE:    1191375

L1BTB TOTAL     ACCESS:    5678739  HIT:    2063657  MISS:    3615082  HIT %:    36.3401  MISS %:    63.6599   MPKI: 72.3016
L1BTB BRANCH_DIRECT_JUMP	ACCESS:     545551 HIT:     144052 MISS:     401499 AVERAGE STALL: 54.9973 AVERAGE FETCH STALL: 14.8204 AVERAGE FETCH QUEUE STALL: 17.515 AVERAGE DECODE STALL: 21.7603 AVERAGE EXECUTE STALL: 2.46384e+15
L1BTB BRANCH_INDIRECT	ACCESS:     182027 HIT:      65593 MISS:     116434 AVERAGE STALL: 113.588 AVERAGE FETCH STALL: 12.2788 AVERAGE FETCH QUEUE STALL: 19.1217 AVERAGE DECODE STALL: 13.2439 AVERAGE EXECUTE STALL: 67.9811
L1BTB BRANCH_CONDITIONAL	ACCESS:    2723308 HIT:    1436093 MISS:    1287215 AVERAGE STALL: 68.2301 AVERAGE FETCH STALL: 21.9702 AVERAGE FETCH QUEUE STALL: 27.9523 AVERAGE DECODE STALL: 17.4714 AVERAGE EXECUTE STALL: 4.01627e+15
L1BTB BRANCH_DIRECT_CALL	ACCESS:     942383 HIT:     105804 MISS:     836579 AVERAGE STALL: 123.702 AVERAGE FETCH STALL: 60.504 AVERAGE FETCH QUEUE STALL: 37.96 AVERAGE DECODE STALL: 24.8 AVERAGE EXECUTE STALL: 3.68935e+16
L1BTB BRANCH_INDIRECT_CALL	ACCESS:     171545 HIT:      21617 MISS:     149928 AVERAGE STALL: 144.31 AVERAGE FETCH STALL: 12.5528 AVERAGE FETCH QUEUE STALL: 18.9108 AVERAGE DECODE STALL: 13.1681 AVERAGE EXECUTE STALL: 99.1894
L1BTB BRANCH_RETURN	ACCESS:    1113925 HIT:     290498 MISS:     823427 AVERAGE STALL: 49.6112 AVERAGE FETCH STALL: 16.9724 AVERAGE FETCH QUEUE STALL: 5.36648 AVERAGE DECODE STALL: 5.79931 AVERAGE EXECUTE STALL: 4.44703e+14
L1BTB BRANCH_OTHER ACCESS:          0 HIT:          0 MISS:          0 AVERAGE STALL: -nan AVERAGE FETCH STALL: -nan AVERAGE FETCH QUEUE STALL: -nan AVERAGE DECODE STALL: -nan AVERAGE EXECUTE STALL: -nan
L1BTB TOTAL ROB OCCUPANCY AT BTB MISS: 2.50314

L2BTB TOTAL     ACCESS:    3589834  HIT:    3528312  MISS:      61522  HIT %:    98.2862  MISS %:    1.71378   MPKI: 1.23044
L2BTB BRANCH_DIRECT_JUMP	ACCESS:     397362 HIT:     393990 MISS:       3372 AVERAGE STALL: 54.9973 AVERAGE FETCH STALL: 14.8204 AVERAGE FETCH QUEUE STALL: 17.515 AVERAGE DECODE STALL: 21.7603 AVERAGE EXECUTE STALL: 2.46384e+15
L2BTB BRANCH_INDIRECT	ACCESS:     106217 HIT:     103531 MISS:       2686 AVERAGE STALL: 113.588 AVERAGE FETCH STALL: 12.2788 AVERAGE FETCH QUEUE STALL: 19.1217 AVERAGE DECODE STALL: 13.2439 AVERAGE EXECUTE STALL: 67.9811
L2BTB BRANCH_CONDITIONAL	ACCESS:    1287215 HIT:    1282456 MISS:       4759 AVERAGE STALL: 68.2301 AVERAGE FETCH STALL: 21.9702 AVERAGE FETCH QUEUE STALL: 27.9523 AVERAGE DECODE STALL: 17.4714 AVERAGE EXECUTE STALL: 4.01627e+15
L2BTB BRANCH_DIRECT_CALL	ACCESS:     836579 HIT:     836018 MISS:        561 AVERAGE STALL: 123.702 AVERAGE FETCH STALL: 60.504 AVERAGE FETCH QUEUE STALL: 37.96 AVERAGE DECODE STALL: 24.8 AVERAGE EXECUTE STALL: 3.68935e+16
L2BTB BRANCH_INDIRECT_CALL	ACCESS:     140438 HIT:     130425 MISS:      10013 AVERAGE STALL: 144.31 AVERAGE FETCH STALL: 12.5528 AVERAGE FETCH QUEUE STALL: 18.9108 AVERAGE DECODE STALL: 13.1681 AVERAGE EXECUTE STALL: 99.1894
L2BTB BRANCH_RETURN	ACCESS:     822023 HIT:     781892 MISS:      40131 AVERAGE STALL: 49.6112 AVERAGE FETCH STALL: 16.9724 AVERAGE FETCH QUEUE STALL: 5.36648 AVERAGE DECODE STALL: 5.79931 AVERAGE EXECUTE STALL: 4.44703e+14
L2BTB BRANCH_OTHER ACCESS:          0 HIT:          0 MISS:          0 AVERAGE STALL: -nan AVERAGE FETCH STALL: -nan AVERAGE FETCH QUEUE STALL: -nan AVERAGE DECODE STALL: -nan AVERAGE EXECUTE STALL: -nan
L2BTB TOTAL ROB OCCUPANCY AT BTB MISS: 147.087

L2C TOTAL     ACCESS:    4508555  HIT:    4036442  MISS:     472113  HIT %:    89.5285  MISS %:    10.4715   MPKI: 9.44226
L2C LOAD INSTRUCTION	ACCESS:    2751193  HIT:    2496960  MISS:     254233  HIT %:    90.7592  MISS %:    9.24083  MPKI: 5.08466
L2C LOAD TRANSLATION INSTRUCTION	ACCESS:        314  HIT:         83  MISS:        231  HIT %:    26.4331  MISS %:    73.5669  MPKI: 0.00462
L2C LOAD DATA	ACCESS:     746611  HIT:     671093  MISS:      75518  HIT %:    89.8852  MISS %:    10.1148  MPKI: 1.51036
L2C RFO DATA	ACCESS:     286772  HIT:     233928  MISS:      52844  HIT %:    81.5728  MISS %:    18.4272  MPKI: 1.05688
L2C PREFETCH DATA	ACCESS:     196904  HIT:     123346  MISS:      73558  HIT %:    62.6427  MISS %:    37.3573  MPKI: 1.47116
L2C WRITEBACK DATA	ACCESS:     524715  HIT:     510378  MISS:      14337  HIT %:    97.2677  MISS %:    2.73234  MPKI: 0.28674
L2C LOAD TRANSLATION DATA	ACCESS:       2024  HIT:        642  MISS:       1382  HIT %:    31.7194  MISS %:    68.2806  MPKI: 0.02764
L2C TRANSLATION FROM L1D PREFETCHER DATA	ACCESS:         22  HIT:         12  MISS:         10  HIT %:    54.5455  MISS %:    45.4545  MPKI: 0.0002

L2C PREFETCH  REQUESTED:      90685  ISSUED:      90685  USEFUL:       8278  USELESS:      65832
L2C USEFUL LOAD PREFETCHES:       8278 PREFETCH ISSUED TO LOWER LEVEL:      74050  ACCURACY: 11.1789
 TIMELY PREFETCHES:       8278 LATE PREFETCHES: 492 DROPPED PREFETCHES: 0
L2C AVERAGE MISS LATENCY: 38.3388 cycles
L2C RQ	ACCESS:    3786977	FORWARD:          0	MERGED:          0	TO_CACHE:    3786936
L2C WQ	ACCESS:     524715	FORWARD:         41	MERGED:          0	TO_CACHE:     524715
L2C PQ	ACCESS:     205083	FORWARD:          0	MERGED:       3672	TO_CACHE:     201411

L2C Dense regions hint from L2: 0
PSCL5 TOTAL     ACCESS:       4420  HIT:       2210  MISS:       2210  HIT %:         50  MISS %:         50   MPKI: 0.0442
PSCL5 LOAD TRANSLATION INSTRUCTION	ACCESS:       4376  HIT:       2188  MISS:       2188  HIT %:         50  MISS %:         50  MPKI: 0.04376
PSCL5 TRANSLATION FROM L1D PREFETCHER INSTRUCTION	ACCESS:         44  HIT:         22  MISS:         22  HIT %:         50  MISS %:         50  MPKI: 0.00044


PSCL4 TOTAL     ACCESS:       4204  HIT:       2098  MISS:       2106  HIT %:    49.9049  MISS %:    50.0951   MPKI: 0.04212
PSCL4 LOAD TRANSLATION INSTRUCTION	ACCESS:       2797  HIT:       2076  MISS:        721  HIT %:    74.2224  MISS %:    25.7776  MPKI: 0.01442
PSCL4 TRANSLATION FROM L1D PREFETCHER INSTRUCTION	ACCESS:         36  HIT:         22  MISS:         14  HIT %:    61.1111  MISS %:    38.8889  MPKI: 0.00028
PSCL4 LOAD TRANSLATION DATA	ACCESS:       1363  HIT:          0  MISS:       1363  HIT %:          0  MISS %:        100  MPKI: 0.02726
PSCL4 TRANSLATION FROM L1D PREFETCHER DATA	ACCESS:          8  HIT:          0  MISS:          8  HIT %:          0  MISS %:        100  MPKI: 0.00016


PSCL3 TOTAL     ACCESS:       4308  HIT:       2150  MISS:       2158  HIT %:    49.9071  MISS %:    50.0929   MPKI: 0.04316
PSCL3 LOAD TRANSLATION INSTRUCTION	ACCESS:       2849  HIT:       2128  MISS:        721  HIT %:    74.6929  MISS %:    25.3071  MPKI: 0.01442
PSCL3 TRANSLATION FROM L1D PREFETCHER INSTRUCTION	ACCESS:         36  HIT:         22  MISS:         14  HIT %:    61.1111  MISS %:    38.8889  MPKI: 0.00028
PSCL3 LOAD TRANSLATION DATA	ACCESS:       1415  HIT:          0  MISS:       1415  HIT %:          0  MISS %:        100  MPKI: 0.0283
PSCL3 TRANSLATION FROM L1D PREFETCHER DATA	ACCESS:          8  HIT:          0  MISS:          8  HIT %:          0  MISS %:        100  MPKI: 0.00016


PSCL2 TOTAL     ACCESS:       4281  HIT:       2071  MISS:       2210  HIT %:    48.3765  MISS %:    51.6235   MPKI: 0.0442
PSCL2 LOAD TRANSLATION INSTRUCTION	ACCESS:       2333  HIT:       2049  MISS:        284  HIT %:    87.8268  MISS %:    12.1732  MPKI: 0.00568
PSCL2 TRANSLATION FROM L1D PREFETCHER INSTRUCTION	ACCESS:         22  HIT:         22  MISS:          0  HIT %:        100  MISS %:          0  MPKI: 0
PSCL2 LOAD TRANSLATION DATA	ACCESS:       1904  HIT:          0  MISS:       1904  HIT %:          0  MISS %:        100  MPKI: 0.03808
PSCL2 TRANSLATION FROM L1D PREFETCHER DATA	ACCESS:         22  HIT:          0  MISS:         22  HIT %:          0  MISS %:        100  MPKI: 0.00044


LLC TOTAL     ACCESS:     532931  HIT:     504995  MISS:      27936  HIT %:     94.758  MISS %:    5.24195   MPKI: 0.55872
LLC LOAD INSTRUCTION	ACCESS:     254233  HIT:     253128  MISS:       1105  HIT %:    99.5654  MISS %:   0.434641  MPKI: 0.0221
LLC LOAD TRANSLATION INSTRUCTION	ACCESS:        231  HIT:        195  MISS:         36  HIT %:    84.4156  MISS %:    15.5844  MPKI: 0.00072
LLC LOAD DATA	ACCESS:      75060  HIT:      71628  MISS:       3432  HIT %:    95.4277  MISS %:    4.57234  MPKI: 0.06864
LLC RFO DATA	ACCESS:      52809  HIT:      39555  MISS:      13254  HIT %:     74.902  MISS %:     25.098  MPKI: 0.26508
LLC PREFETCH DATA	ACCESS:      74049  HIT:      64357  MISS:       9692  HIT %:    86.9114  MISS %:    13.0886  MPKI: 0.19384
LLC WRITEBACK DATA	ACCESS:      75157  HIT:      74827  MISS:        330  HIT %:    99.5609  MISS %:   0.439081  MPKI: 0.0066
LLC LOAD TRANSLATION DATA	ACCESS:       1382  HIT:       1295  MISS:         87  HIT %:    93.7048  MISS %:    6.29522  MPKI: 0.00174
LLC TRANSLATION FROM L1D PREFETCHER DATA	ACCESS:         10  HIT:         10  MISS:          0  HIT %:        100  MISS %:          0  MPKI: 0

LLC AVERAGE MISS LATENCY: 154.942 cycles
LLC RQ	ACCESS:     383726	FORWARD:          0	MERGED:          0	TO_CACHE:     383725
LLC WQ	ACCESS:      75157	FORWARD:          2	MERGED:          0	TO_CACHE:      75157
LLC PQ	ACCESS:      74050	FORWARD:          0	MERGED:          0	TO_CACHE:      74049

LLC Dense regions hint to LLC: 0

RAW hits: 1942848
Loads Generated: 12611850
Loads sent to L1D: 10669002
Stores Generated: 6919135
Stores sent to L1D: 6919153
Major fault: 0 Minor fault: 2606
Allocated PAGES: 2606

stream: 
stream:times selected: 1223089
stream:pref_filled: 127067
stream:pref_useful: 28227
stream:pref_late: 9096
stream:misses: 9276
stream:misses_by_poll: 0

CS: 
CS:times selected: 187871
CS:pref_filled: 70194
CS:pref_useful: 45927
CS:pref_late: 8390
CS:misses: 20643
CS:misses_by_poll: 4

CPLX: 
CPLX:times selected: 1034094
CPLX:pref_filled: 23464
CPLX:pref_useful: 6918
CPLX:pref_late: 3532
CPLX:misses: 120367
CPLX:misses_by_poll: 0

NL_L1: 
NL:times selected: 12518
NL:pref_filled: 1429
NL:pref_useful: 133
NL:pref_late: 275
NL:misses: 1557
NL:misses_by_poll: 0

total selections: 2457572
total_filled: 103815
total_useful: 43624
total_late: 23191
total_polluted: 4
total_misses_after_warmup: 791476
conflicts: 5501838

test: 119060

DRAM Statistics
 CHANNEL 0
 RQ ROW_BUFFER_HIT:      10270  ROW_BUFFER_MISS:      17326
 DBUS_CONGESTED:         11
 WQ ROW_BUFFER_HIT:       1394  ROW_BUFFER_MISS:      11529  FULL:          0

 AVG_CONGESTED_CYCLE: 5

CPU 0 Branch Prediction Accuracy: 99.8128% MPKI: 0.3428 Average ROB Occupancy at Mispredict: 185.759
Branch types
NOT_BRANCH: 40843456 81.6869%
BRANCH_DIRECT_JUMP: 545551 1.0911%
BRANCH_INDIRECT: 182027 0.364054%
BRANCH_CONDITIONAL: 6200985 12.402%
BRANCH_DIRECT_CALL: 942383 1.88477%
BRANCH_INDIRECT_CALL: 171545 0.34309%
BRANCH_RETURN: 1113925 2.22785%
BRANCH_OTHER: 0 0%

DRAM PAGES: 1048576
Allocated PAGES: 2606
Average_ROB_Occupancy: 254.345
Average_Decode_Occupancy: 38.6848
Average_FTQ_Occupancy: 15.0502
Indirect max targets: 14 Average targets: 1.17296
Branch_type:  BRANCH_DIRECT_JUMP:  Count Percentage: 4.13147 5.06704 4.34755 7.19122 3.02757 6.33825 1.50324 68.3937 
Branch_type:  BRANCH_INDIRECT:  Count Percentage: 11.7616 3.38966 2.50461 9.68306 3.35121 2.81474 0.938063 65.557 
Branch_type:  BRANCH_CONDITIONAL:  Count Percentage: 29.4082 2.20044 1.52847 4.02409 1.94961 4.44422 0.495613 55.9494 
Branch_type:  BRANCH_DIRECT_CALL:  Count Percentage: 0.388191 1.78932 0.725926 3.43508 3.04408 2.61696 0.725873 87.2746 
Branch_type:  BRANCH_INDIRECT_CALL:  Count Percentage: 9.55006 0 2.99423 0.000874228 1.13766 1.71494 0.995163 83.6071 
Branch_type:  BRANCH_RETURN:  Count Percentage: 10.4368 1.51259 1.1582 3.42735 4.46431 4.63436 0.589292 73.7771 
Branch_type:  BRANCH_DIRECT_JUMP:  Total Count: 45065 55270 47422 78440 33024 69136 16397 746021 
Branch_type:  BRANCH_INDIRECT:  Total Count: 42818 12340 9118 35251 12200 10247 3415 238659 
Branch_type:  BRANCH_CONDITIONAL:  Total Count: 3645666 272784 189481 498857 241689 550940 61440 6935922 
Branch_type:  BRANCH_DIRECT_CALL:  Total Count: 7309 33690 13668 64677 57315 49273 13667 1643237 
Branch_type:  BRANCH_INDIRECT_CALL:  Total Count: 32772 0 10275 3 3904 5885 3415 286906 
Branch_type:  BRANCH_RETURN:  Total Count: 232417 33684 25792 76324 99416 103203 13123 1642949 
Number of unique branch instructions: 11196
Upper 32 bits: 
aaaa
ffff
ffff0000
Unique upper 32 bits: 3
Unique upper 36 bits: 3
Unique upper 40 bits: 5
Unique upper 44 bits: 32
Unique upper 48 bits: 160
Variant_0 : 1553 0.252767
Variant_1 : 3283 0.534342
Variant_2 : 0 0
Variant_3 : 0 0
Offset_3 4624
Offset_4 274
Offset_5 506
Offset_6 569
Offset_7 655
Offset_8 597
Offset_9 563
Offset_10 460
Offset_11 366
Offset_12 325
Offset_13 241
Offset_14 260
Offset_15 213
Offset_16 260
Offset_17 176
Offset_18 152
Offset_19 270
Offset_20 146
Offset_21 241
Offset_22 425
Offset_23 241
Offset_24 373
Offset_25 114
Offset_47 90
decode_dispatch_called: 26594753 74.0914
Dispatch_width: 0 14271459 53.6627 39.7594
Dispatch_width: 1 1074352 4.03971 2.99308
Dispatch_width: 2 875140 3.29065 2.43809
Dispatch_width: 3 515208 1.93725 1.43534
Dispatch_width: 4 6707499 25.2211 18.6867
Dispatch_width: 5 106987 0.402286 0.298059
Dispatch_width: 6 3044108 11.4463 8.4807
Empty_decode_cycles: 9299765 25.9086
ROB_full_cycles: 10609705 29.558
Starvation_cycles_per_kilo_instr: 222.407
Starvation_cycles_per_kilo_instr_3: 154.262
Starvation_cycles_per_kilo_instr_0: 129.615
Branch_type_1  (3,1)  (4,10)  (5,40)  (6,80)  (7,127)  (8,153)  (9,147)  (10,118)  (11,79)  (12,55)  (13,12)  (14,2)  (15,3)  (16,4)  (18,1)  (19,5)  (20,2)  (21,1)  (22,3)  (23,2)  (24,10)  (25,12) 
Branch_type_2  (3,1)  (4,1)  (5,1)  (8,4)  (9,4)  (10,1)  (12,1)  (13,1)  (14,1)  (16,3)  (17,2)  (20,2)  (21,2)  (23,5)  (24,1)  (47,40) 
Branch_type_3  (3,4622)  (4,263)  (5,461)  (6,471)  (7,494)  (8,366)  (9,305)  (10,183)  (11,146)  (12,62)  (13,11) 
Branch_type_4  (6,4)  (7,8)  (8,28)  (9,65)  (10,76)  (11,75)  (12,114)  (13,102)  (14,119)  (15,102)  (16,119)  (17,80)  (18,65)  (19,130)  (20,75)  (21,127)  (22,224)  (23,136)  (24,223)  (25,98) 
Branch_type_5  (8,4)  (9,1)  (10,4)  (11,5)  (12,3)  (13,14)  (14,16)  (15,12)  (16,22)  (17,13)  (18,23)  (19,14)  (20,11)  (21,13)  (22,45)  (23,26)  (24,38) 
Branch_type_6  (5,4)  (6,14)  (7,26)  (8,42)  (9,41)  (10,78)  (11,61)  (12,90)  (13,101)  (14,122)  (15,96)  (16,112)  (17,81)  (18,63)  (19,121)  (20,56)  (21,98)  (22,153)  (23,72)  (24,101)  (25,4)  (47,50) 
Unique trigger count: 
Variant_0_evicts_0 : 0
Variant_0_evicts_1 : 0
Variant_0_evicts_2 : 0
Variant_0_evicts_3 : 0
Variant_1_evicts_0 : 0
Variant_1_evicts_1 : 0
Variant_1_evicts_2 : 0
Variant_1_evicts_3 : 0
Variant_2_evicts_0 : 0
Variant_2_evicts_1 : 0
Variant_2_evicts_2 : 0
Variant_2_evicts_3 : 0
Variant_3_evicts_0 : 0
Variant_3_evicts_1 : 0
Variant_3_evicts_2 : 0
Variant_3_evicts_3 : 0
BTB PER SET UNIQUE ADDR: 7 5 4 10 5 4 4 5 5 5 7 6 4 7 7 7 5 7 6 5 7 4 4 6 5 4 3 6 7 7 5 6 5 8 4 6 6 4 5 5 6 4 8 9 5 4 4 7 7 6 7 7 6 4 7 7 7 4 5 6 8 6 5 7 6 6 6 5 7 3 5 8 4 7 4 9 6 8 6 5 8 5 8 4 6 6 6 5 5 6 3 5 3 5 5 7 8 7 8 5 4 6 6 6 3 7 6 7 7 7 6 5 6 4 5 6 6 6 6 6 8 6 7 5 7 6 6 6 9 4 4 6 5 4 5 5 6 6 8 6 6 5 6 7 5 5 7 8 7 6 8 5 6 6 5 6 5 7 3 8 6 4 5 8 5 5 5 7 8 8 6 4 7 5 8 7 6 6 4 6 6 4 6 7 7 5 8 7 6 6 7 8 5 7 4 6 6 4 4 6 6 4 4 5 5 7 7 6 4 8 7 7 6 5 6 4 7 6 7 6 4 4 7 5 4 7 5 4 8 4 6 5 5 7 6 8 6 6 7 5 4 6 7 5 6 5 5 5 7 8 7 9 8 6 4 9 7 7 6 5 5 5 6 7 6 6 8 5 6 5 5 5 5 7 7 6 6 5 6 5 6 6 4 8 3 7 6 6 7 6 6 6 7 4 6 8 5 5 8 4 6 7 7 7 7 5 7 7 7 8 6 3 8 3 6 7 7 7 7 4 7 6 7 6 8 6 7 4 7 6 6 7 7 4 6 3 4 4 9 6 4 7 5 8 6 6 4 6 7 5 5 4 5 5 7 6 4 6 7 7 7 8 6 3 5 6 7 6 5 6 9 7 5 5 3 6 7 7 6 6 5 6 5 4 6 7 5 6 7 8 7 7 5 4 6 4 7 5 5 6 6 8 6 6 4 4 6 5 9 6 7 5 5 5 8 3 6 8 6 5 6 6 5 7 9 6 9 5 7 5 7 6 8 4 4 4 6 6 6 7 7 4 3 7 5 3 6 4 5 6 5 7 5 3 6 7 4 6 5 9 7 5 5 5 7 7 6 4 4 6 3 7 7 5 4 6 6 6 6 5 5 3 7 5 7 8 6 8 7 9 7 6 5 5 3 9 8 5 7 7 8 4 7 7 7 4 4 7 5 8 5 10 6 5 2 3 8 3 5 6 4 4 3 5 5 3 2 5 5 6 4 7 6 4 6 3 3 7 6 5 6 6 5 5 3 4 5 7 3 5 6 7 5 3 4 6 6 1 5 3 4 3 5 7 3 4 5 5 5 2 3 3 1 3 3 5 4 4 6 4 3 6 4 3 5 3 3 3 5 4 6 3 5 4 3 7 4 5 4 5 5 3 3 4 2 3 4 4 4 2 5 5 2 5 4 4 5 5 6 7 4 2 9 4 4 6 2 7 5 5 3 6 5 3 4 2 4 5 5 3 6 5 1 3 2 5 3 3 4 4 4 3 3 4 4 6 3 4 5 2 2 4 6 5 5 4 4 4 5 4 4 3 4 5 5 5 4 5 3 6 4 5 2 4 4 5 2 7 4 3 5 3 5 2 3 4 4 5 4 6 5 5 4 3 4 5 6 3 8 5 3 4 2 3 4 6 3 4 5 4 7 4 3 3 3 5 3 5 6 6 4 5 6 6 6 6 6 4 2 8 3 6 7 5 3 2 5 3 5 4 5 6 6 3 4 4 4 6 3 3 6 6 7 4 4 6 4 7 5 5 6 5 4 7 6 3 6 6 1 5 2 5 6 6 5 6 3 4 5 5 6 5 6 6 4 5 4 3 4 5 6 4 7 2 5 5 6 5 5 5 4 2 2 4 4 4 6 3 6 5 4 4 4 5 6 3 5 3 7 3 7 4 5 4 5 5 7 4 4 4 4 5 2 6 4 3 6 5 2 5 6 4 5 5 5 4 6 4 4 5 2 6 6 4 5 5 5 4 6 7 7 5 5 5 3 5 3 3 4 5 6 3 3 6 5 5 6 4 1 1 6 5 2 2 5 2 2 4 4 4 7 2 5 4 4 5 4 4 7 6 5 4 5 5 5 6 5 3 4 5 3 4 6 3 4 7 4 1 4 5 5 5 3 4 3 5 5 4 2 6 3 5 4 5 4 2 4 3 8 5 8 5 4 4 5 6 3 4 6 2 4 4 5 4 5 4 6 3 4 6 5 4 6 3 3 5 6 3 4 4 5 4 4 5 6 5 4 4 3 3 6 3 5 5 4 6 3 5 5 5 6 4 8 3 4 5 5 4 5 3 5 3 6 4 4 7 4 4 3 3 2 5 5 5 6 3 4 7 5 3 3 6 6 4 4 4 4 4 4 4 6 4 5 4 6 2 6 5 4 5 3 4 3 4 3 5 4 6 3 4 5 5 7 4 5 3 6 5 4 4 6 5 4 3 5 4 4 4 3 6 7 5 4 4 5 4 6 2 3 2 4 5 4 5 4 6 4 4 4 2 2 6 4 6 3 6 3 6 4 3 5 4 5 2 6 5 7 6 4 5 3 5 3 4 4 7 5 7 5 3 4 5 4 1 4 6 5 3 5 6 5 5 7 5 4 6 3 5 8 6 5 6 2 4 4 1 4 4 2 4 2 7 4 3 4 4 6 3 4 3 5 3 7 7 4 4 3 5 4 6 3 3 5 6 6 5 4 2 4 3 3 4 3 3 3 6 3 5 5 2 3 4 2 4 4 4 7 4 6 5 5 5 5 3 4 4 5 3 6 5 5 3 4 6 5 6 3 4 4 5 3 4 3 4 4 6 2 7 3 4 4 5 3 6 5 3 6 4 3 6 4 6 5 3 3 2 6 6 3 8 4 5 4 8 5 3 5 6 3 4 5 6 4 3 3 5 5 4 2 5 7 7 5 6 6 4 5 4 4 5 4 5 4 4 5 4 3 4 5 6 2 3 5 4 6 6 3 5 6 9 6 9 4 6 3 5 3 6 4 4 3 4 6 4 7 4 7 4 6 6 3 5 3 6 4 6 4 3 3 5 5 5 5 4 8 7 4 4 6 4 2 4 4 6 1 4 4 2 9 6 6 6 5 3 4 4 5 7 6 6 4 6 2 5 5 5 5 5 0 7 4 2 6 3 2 3 5 4 2 3 4 6 3 5 0 7 2 4 6 2 3 4 6 6 4 4 5 5 3 5 3 5 6 6 6 3 4 6 3 4 4 6 4 6 5 5 2 7 2 8 4 3 5 7 5 5 6 4 5 3 5 2 7 2 6 5 4 3 5 5 3 3 4 2 3 3 6 3 8 5 6 5 6 5 4 4 3 5 6 5 8 1 4 4 4 4 2 3 4 8 6 4 5 6 5 3 5 3 5 4 4 5 4 6 5 4 7 3 3 4 5 4 4 5 5 3 4 5 4 4 5 3 4 5 3 4 5 5 5 5 6 2 5 8 4 2 5 4 5 4 2 5 4 4 6 2 
BTB PER SET COUNT: 8 1475 1471 1476 6 4 4 5 5 5 43 8 4 9 371 7 5 9 6 7 7 4 4 10 5 438 4 6 7 7 5 488 5 1072 6 6 7 4 5 7 9 991 9 9 5 4 484 7 7 7 7 7 6 4 8 7 490 5 5 1473 995 6 7 10 6 8 7 6 9 3 5 8 5 7 4 10 6 8 993 6 12 5 8 6 6 6 966 5 490 6 3 18 3 5 11 7 10 7 8 6 5 7 10 6 3 12 9 992 7 9 8 6 489 4 5 7 6 6 6 1473 11 6 1447 9 886 6 7 7 776 5 792 6 6 4 5 7 6 7 8 7 6 5 8 10 5 5 10 8 10 20 8 514 6 6 7 995 5 8 3 9 6 4 5 8 5 5 5 8 14 1080 299 4 7 7 8 7 7 8 4 10 8 4 7 7 204 6 9 8 6 6 8 8 6 977 4 294 6 4 4 6 6 1474 5 5 5 10 7 6 4 10 11 9 6 5 6 4 7 8 374 6 4 4 8 5 4 10 5 5 860 664 7 5 5 14687 6 8 6 7 10 5 4 6 7 486 9 5 7768 283 7 8 137 9 11 6 4 11 7 8 7 5 5 8 6 8 6 6 12 5 6 5 27 5 5 7 7 7 15 7 14 5 8 6 4 1449 4 8 7 6 7 8 6 7 8 4 747 13 6 640 9 4 6 9 7 7 239 6 9 7 8 814 13 3 12 3 7 7 9 7 7 4 7 6 7 6 995 11 24 4 7 6 8 7 13 4 6 3 8 4 11 9 6 996 5 8 7 6 4 6 11 7 5 4 5 6 7 6 4 1445 11 162 7 8 1476 3 5 6 169 6 6 6 12 1228 1472 5 4 7 31 8 6 7 9 6 6 4 6 9 5 12 7 10 7 7 5 4 6 4 1867 5 8 9 8 10 7 7 8 4 7 5 9 12 10 6 6 7 13 3 7 34 9 6 6 6 5 490 11 6 9 5 7 5 8 6 12 5 4 964 9 6 7 10 8 4 3 7 205 3 2464 4 5 7 5 967 5 3 111 7 5 6 5 9 7 971 5 6 20 8 6 4 4 7 3 72 7 8 4 11 6 6 8 7 6 3 7 1472 1573 25 8 8 9 11 996 8 6 5 4 9 10 6 7 8 152 4 8 7 1368 4 4 7 6 8 5 13 6 5 2 3 10 485 6 7 4 6 3 5 241 3 2 7 5 6 1472 7 8 7 21 3 3 7 9 5 6 7 5 5 3 1473 5 7 3 6 7 1446 965 3 4 6 6 1 5 5 9 5 7 7 3 4 1925 6 7 3 3 4 1 3 3 5 5 5 8 5 9 7 6 3 6 3 4 3 5 4 6 3 5 4 5 9 1471 5 4 6 5 3 964 4 2 3 964 4 4 2 5 5 2 5 5 5 10 6 7 8 5 2 9 4 5 6 2 7 6 5 963 6 5 3 4 2 5 6 5 3 8 7 1 3 2 5 3 3 8 4 4 3 3 4 5 6 3 4 5 2 2 4 10 5 6 483 5 4 5 6 4 3 4 2940 6 6 4 5 3 486 993 7 2 4 4 6 2 1475 4 3 5 3 8 3 3 4 4 6 4 9 5 5 4 3 4 5 7 3 12 5 3 4 2 3 5 491 4 4 7 4 7 6 3 3 3 5 3 5 7 225 4 5 7 6 6 6 6 6 2 9 4 6 10 7 3 3 6 3 5 5 5 6 6 3 964 4 4 9 3 3 10 6 7 53 4 6 5 3423 5 5 6 6 4 7 7 3 11 6 1 6 3 5 6 6 6 6 3 5 290 5 9 7 6 6 5 7 4 4 4 5 6 4 7 2 5 5 6 5 5 6 8 2 2 4 5 4 6 3 6 5 10 4 4 6 6 3 7 3 7 485 8 5 7 4 6 5 16 6 5 4 5 992 962 6 4 3 7 5 2 7 6 4 5 8 6 5 6 6 4 6 2 6 6 4 486 8 5 4 7 8 7 5 6 6 3 5 3 3 4 5 7 3 47 6 5 6 6 4 1 1 1473 5 2 2881 7 2 366 5 4 4 8 3 6 964 4 5 4 4 9 6 6 4 6 7 5 514 5 4 5 6 3 4 6 5 5 9 4 1 4 8 8 6 3 4 3 5 5 991 2 6 3 5 4 5 4 2 4 3 12 5 10 9 4 4 9 7 3 4 1927 2 4 4 5 4 7 4 8 3 9 8 6 4 8 5 3 7 6 3 4 4 5 4 4 6 7 6 4 1022 3 3 8 5 5 5 5 9 3 1473 5 5 6 5 9 1923 4 5 5 5 7 3 5 3 10 4 4 8 5 4 4 3 2 6 5 5 7 3 4 514 11 5 6 6 7 4 4 867 4 4 6 4 8 484 46 4 8 3 488 5 4 6 3 4 3 4 3 5 4 1473 3 4 5 5 7 4 5 12 7 5 4 4 6 400 5 3 9 4 4 4 7 10 8 7 4 991 6 4 7 3 4 2 4 5 4 7 4 6 5 4 110 2 2 7 4 2460 367 219 43 8 4 3 370 4 6 2 6 5 8 132 5 5 3 5 3 4 4 9 5 9 5 3 4 7 4 1 4 7 5 3 6 6 5 20557 8 5 966 7 3 965 8 6 5 6 2 4 5 1 4 4 2 4 2 7 4 4 4 8 6 5 8 3 6 3 8 11 4 4 4 5 9 522 6 3 5 7 268 5 991 2 4 3 3 4 6 3 1990 485 3 5 5 2 3 5 2 6 4 4 7 4 6 372 1472 5 5 1470 4 4 6 3 6 5 383 3 5 7 5 7 3 6 5 7 3 4 3 4 4 6 2 7 3 4 5 13 3 6 5 3 1473 4 4 6 4 488 8 3 3 2 6 6 3 8 4 35 4 9 1501 4 5 6 3 229 5 7 4 3 4 7 5 5 2 10 7 7 5 1055 6 4 5 4 7 7 5 5 4 4 5 10 3 5 5 7 2 3 5 4 96 6 3 5 6 9 451 12 5 7 3 6 6 6 4 4 3 4 6 5 7 4 7 1474 9 1473 3 5 3 13 10 7 4 3 3 7 5 5 5 4 21 11 4 4 6 4 2 4 4 6 1 4 7 2 11 6 27 7 5 3 4 4 6 7 6 6 4 7 3 5 971 6 5 6 0 490 4 2 6 3 2 3 6 5 3 3 4 8 3 5 0 9 2 4 7 2 3 4 7 7 7 4 5 5 7 7 4 7 8 6 10 3 4 220 3 4 5 6 4 6 5 7 2 8 3 2237 47 3 5 2969 6 7 6 17 5 4 5 2 10 2 6 6 4 483 8 6 3 207 5 2 3 5 6 3 8 5 6 5 6 5 4 1474 3 7 8 5 9 1 4 4 4 6 2 3 4 8 8 4 995 8 8 3 1028 3 5 4 4 5 5 6 6 12 14 3 3 4 7 4 4 7 5 3 4 5 5 5 11 3 4 5 3 4 7 5 5 7 7 2 8 1492 4 2 5 4 992 4 2 6 4 4 6 2 
To predecode: 0
Predecoding something: 0
Predecode request dropped: 0
sizeofblock_0 0
sizeofblock_1 42368
sizeofblock_2 87411
sizeofblock_3 0
sizeofblock_4 0
sizeofblock_5 0
sizeofblock_6 0
sizeofblock_7 0
sizeofblock_8 0
Variant_0 Correct: 1610738 Incorrect: 0 Accuracy: 1
Variant_1 Correct: 5725726 Incorrect: 0 Accuracy: 1
Variant_2 Correct: 0 Incorrect: 0 Accuracy: -nan
Variant_3 Correct: 0 Incorrect: 0 Accuracy: -nan
