
*** ChampSim Multicore Out-of-Order Simulator ***

Warmup Instructions: 50000000
Simulation Instructions: 50000000
Number of CPUs: 1
LLC sets: 2048
LLC ways: 16
Off-chip DRAM Size: 4096 MB Channels: 1 Width: 64-bit Data Rate: 6400 MT/s
CPU 0 runs ./micro_traces/srv724.trace.gz
.gz
ITLB has LRU replacement policy
DTLB has LRU replacement policy
STLB has LRU replacement policy
CPU 0 L1I next line prefetcher
L1I has LRU replacement policy
L1D has LRU replacement policy
Initialize SRRIP state for L2C
Initialize DRRIP state for LLC
Heartbeat CPU 0 instructions: 10000002 cycles: 2796781 heartbeat IPC: 3.57554 cumulative IPC: 3.57554 (Simulation time: 0 hr 1 min 46 sec) 
Heartbeat CPU 0 instructions: 20000002 cycles: 5593161 heartbeat IPC: 3.57605 cumulative IPC: 3.5758 (Simulation time: 0 hr 3 min 28 sec) 
Heartbeat CPU 0 instructions: 30000001 cycles: 8390353 heartbeat IPC: 3.57501 cumulative IPC: 3.57554 (Simulation time: 0 hr 5 min 8 sec) 
Heartbeat CPU 0 instructions: 40000000 cycles: 11186732 heartbeat IPC: 3.57605 cumulative IPC: 3.57566 (Simulation time: 0 hr 6 min 46 sec) 
Heartbeat CPU 0 instructions: 50000000 cycles: 13984601 heartbeat IPC: 3.57415 cumulative IPC: 3.57536 (Simulation time: 0 hr 8 min 25 sec) 

Warmup complete CPU 0 instructions: 50000004 cycles: 13984602 (Simulation time: 0 hr 8 min 25 sec) 

Cycle: 20000000 FTQ IN: 56487791 FTQ occupancy: 17.234 DECODE IN: 56487791 DECODE occupancy: 45.0545 ROB IN: 56487791 ROB occupancy: 280.481 ROB OUT: 56487786
Heartbeat CPU 0 instructions: 60000001 cycles: 23193509 heartbeat IPC: 1.08591 cumulative IPC: 1.0859 (Simulation time: 0 hr 9 min 45 sec) 
Cycle: 30000000 FTQ IN: 11131153 FTQ occupancy: 3.74134 DECODE IN: 11131153 DECODE occupancy: 10.2861 ROB IN: 11131153 ROB occupancy: 125.373 ROB OUT: 11131082
Heartbeat CPU 0 instructions: 70000001 cycles: 32150801 heartbeat IPC: 1.11641 cumulative IPC: 1.10095 (Simulation time: 0 hr 11 min 3 sec) 
Cycle: 40000000 FTQ IN: 10889046 FTQ occupancy: 3.86507 DECODE IN: 10889043 DECODE occupancy: 10.3842 ROB IN: 10889043 ROB occupancy: 124.001 ROB OUT: 10889015
Heartbeat CPU 0 instructions: 80000001 cycles: 41344481 heartbeat IPC: 1.0877 cumulative IPC: 1.0965 (Simulation time: 0 hr 12 min 22 sec) 
Cycle: 50000000 FTQ IN: 10998781 FTQ occupancy: 3.69688 DECODE IN: 10998720 DECODE occupancy: 9.88321 ROB IN: 10998720 ROB occupancy: 119.616 ROB OUT: 10998609
Heartbeat CPU 0 instructions: 90000000 cycles: 50428423 heartbeat IPC: 1.10084 cumulative IPC: 1.09758 (Simulation time: 0 hr 13 min 41 sec) 
Heartbeat CPU 0 instructions: 100000001 cycles: 59478646 heartbeat IPC: 1.10495 cumulative IPC: 1.09904 (Simulation time: 0 hr 14 min 59 sec) 
Finished CPU 0 instructions: 50000001 cycles: 45494045 cumulative IPC: 1.09904 (Simulation time: 0 hr 14 min 59 sec) 

ChampSim completed all CPUs

Region of Interest Statistics

CPU 0 cumulative IPC: 1.09904 instructions: 50000001 cycles: 45494045
 Fetch stage stalled: 73.274  Sim cycles: 45494045 fetch stall cycle: 33335302
 Empty decode stage: 57.7221  Sim cycles: 45494045 fetch stall cycle: 26260099
ITLB TOTAL     ACCESS:    7621069  HIT:    7015726  MISS:     605343  HIT %:     92.057  MISS %:    7.94302   MPKI: 12.1069
ITLB LOAD TRANSLATION INSTRUCTION	ACCESS:    5860343  HIT:    5733173  MISS:     127170  HIT %:      97.83  MISS %:    2.17001  MPKI: 2.5434
ITLB TRANSLATION FROM L1D PREFETCHER INSTRUCTION	ACCESS:    1760726  HIT:    1282553  MISS:     478173  HIT %:    72.8423  MISS %:    27.1577  MPKI: 9.56346

ITLB AVERAGE MISS LATENCY: 109047 cycles
ITLB RQ	ACCESS:   11526700	FORWARD:          0	MERGED:    3767445	TO_CACHE:    7759255

DTLB TOTAL     ACCESS:    9366225  HIT:    8890252  MISS:     475973  HIT %:    94.9182  MISS %:     5.0818   MPKI: 9.51946
DTLB LOAD TRANSLATION DATA	ACCESS:    9366225  HIT:    8890252  MISS:     475973  HIT %:    94.9182  MISS %:     5.0818  MPKI: 9.51946

DTLB AVERAGE MISS LATENCY: 9.37221 cycles
DTLB RQ	ACCESS:   13636708	FORWARD:          0	MERGED:    4236456	TO_CACHE:    9400252

STLB TOTAL     ACCESS:    1334540  HIT:    1332322  MISS:       2218  HIT %:    99.8338  MISS %:     0.1662   MPKI: 0.04436
STLB LOAD TRANSLATION INSTRUCTION	ACCESS:     125446  HIT:     125265  MISS:        181  HIT %:    99.8557  MISS %:   0.144285  MPKI: 0.00362
STLB TRANSLATION FROM L1D PREFETCHER INSTRUCTION	ACCESS:     479897  HIT:     479812  MISS:         85  HIT %:    99.9823  MISS %:  0.0177121  MPKI: 0.0017
STLB LOAD TRANSLATION DATA	ACCESS:     475973  HIT:     474041  MISS:       1932  HIT %:    99.5941  MISS %:   0.405905  MPKI: 0.03864
STLB TRANSLATION FROM L1D PREFETCHER DATA	ACCESS:     253224  HIT:     253204  MISS:         20  HIT %:    99.9921  MISS %: 0.00789815  MPKI: 0.0004

STLB AVERAGE MISS LATENCY: 81.6249 cycles
STLB RQ	ACCESS:    1472816	FORWARD:          0	MERGED:     134710	TO_CACHE:    1338106

STLB Hit, L1D data hit: 0
STLB Hit, L2C data hit: 0
STLB Hit, LLC data hit: 0
STLB Hit, LLC data miss: 0
STLB STLB hints to L2: 0
L1D TOTAL     ACCESS:   13384101  HIT:   12241314  MISS:    1142787  HIT %:    91.4616  MISS %:    8.53839   MPKI: 22.8557
L1D LOAD DATA	ACCESS:    6841309  HIT:    6087565  MISS:     753744  HIT %:    88.9825  MISS %:    11.0175  MPKI: 15.0749
L1D RFO DATA	ACCESS:    6209926  HIT:    5921091  MISS:     288835  HIT %:    95.3488  MISS %:    4.65118  MPKI: 5.7767
L1D PREFETCH DATA	ACCESS:     332866  HIT:     232658  MISS:     100208  HIT %:    69.8954  MISS %:    30.1046  MPKI: 2.00416

L1D PREFETCH  REQUESTED:     776188  ISSUED:     776188  USEFUL:      42455  USELESS:      70110
L1D USEFUL LOAD PREFETCHES:      42455 PREFETCH ISSUED TO LOWER LEVEL:     112637  ACCURACY: 37.6919
 TIMELY PREFETCHES:      42455 LATE PREFETCHES: 12340 DROPPED PREFETCHES: 4
L1D AVERAGE MISS LATENCY: 388589 cycles
L1D RQ	ACCESS:   10917383	FORWARD:          0	MERGED:    3874464	TO_CACHE:    6878848
L1D WQ	ACCESS:    6927438	FORWARD:     164323	MERGED:     169578	TO_CACHE:    6757860
L1D PQ	ACCESS:     388220	FORWARD:          0	MERGED:          0	TO_CACHE:     387968

L1D UNIQUE REGIONS ACCESSED: 0
L1D REGIONS CONFLICTS: 0
L1D Cross Page Prefetch Requests: 6053
L1D Same Page Prefetch Requests: 782220
L1D ROI Sum of L1D PQ occupancy: 4943162
L1D PREFETCHES PUSHED FROM L2C: 0
L1I TOTAL     ACCESS:   11243562  HIT:    7611026  MISS:    3632536  HIT %:    67.6923  MISS %:    32.3077   MPKI: 72.6507
L1I LOAD INSTRUCTION	ACCESS:    6669008  HIT:    6170889  MISS:     498119  HIT %:    92.5308  MISS %:    7.46916  MPKI: 9.96238
L1I PREFETCH INSTRUCTION	ACCESS:    4574554  HIT:    1440137  MISS:    3134417  HIT %:    31.4815  MISS %:    68.5185  MPKI: 62.6883

L1I PREFETCH  REQUESTED:    5116928  ISSUED:    5116823  USEFUL:    2384381  USELESS:     790780
L1I USEFUL LOAD PREFETCHES:    2384381 PREFETCH ISSUED TO LOWER LEVEL:    3175047  ACCURACY: 75.0975
 TIMELY PREFETCHES:    2384381 LATE PREFETCHES: 40630 DROPPED PREFETCHES: 10463
L1I AVERAGE MISS LATENCY: 409551 cycles
L1I RQ	ACCESS:    9432405	FORWARD:          0	MERGED:    2742071	TO_CACHE:    6690334
L1I PQ	ACCESS:    5116823	FORWARD:          0	MERGED:     280457	TO_CACHE:    4836366

L1BTB TOTAL     ACCESS:    5676238  HIT:    2066293  MISS:    3609945  HIT %:    36.4025  MISS %:    63.5975   MPKI: 72.1989
L1BTB BRANCH_DIRECT_JUMP	ACCESS:     547867  HIT:     145272  MISS:     402595	AVERAGE STALL: 19.4927
L1BTB BRANCH_INDIRECT	ACCESS:     182931  HIT:      66172  MISS:     116759	AVERAGE STALL: 77.7125
L1BTB BRANCH_CONDITIONAL	ACCESS:    2728883  HIT:    1441804  MISS:    1287079	AVERAGE STALL: 19.5344
L1BTB BRANCH_DIRECT_CALL	ACCESS:     938111  HIT:     104731  MISS:     833380	AVERAGE STALL: 20.3224
L1BTB BRANCH_INDIRECT_CALL	ACCESS:     170181  HIT:      20578  MISS:     149603	AVERAGE STALL: 103.103
L1BTB BRANCH_RETURN	ACCESS:    1108265  HIT:     287736  MISS:     820529	AVERAGE STALL: 21.5817
L1BTB BRANCH_OTHER ACCESS:          0  HIT:          0  MISS:          0	AVERAGE STALL: -nan
L1BTB TOTAL ROB OCCUPANCY AT BTB MISS: 29.8288

L2BTB TOTAL     ACCESS:    3584551  HIT:    2556130  MISS:    1028421  HIT %:    71.3096  MISS %:    28.6904   MPKI: 20.5684
L2BTB BRANCH_DIRECT_JUMP	ACCESS:     398417  HIT:     281127  MISS:     117290	AVERAGE STALL: 19.4927
L2BTB BRANCH_INDIRECT	ACCESS:     106483  HIT:      93384  MISS:      13099	AVERAGE STALL: 77.7125
L2BTB BRANCH_CONDITIONAL	ACCESS:    1287079  HIT:     916169  MISS:     370910	AVERAGE STALL: 19.5344
L2BTB BRANCH_DIRECT_CALL	ACCESS:     833380  HIT:     568210  MISS:     265170	AVERAGE STALL: 20.3224
L2BTB BRANCH_INDIRECT_CALL	ACCESS:     140060  HIT:      92047  MISS:      48013	AVERAGE STALL: 103.103
L2BTB BRANCH_RETURN	ACCESS:     819132  HIT:     605193  MISS:     213939	AVERAGE STALL: 21.5817
L2BTB BRANCH_OTHER ACCESS:          0  HIT:          0  MISS:          0	AVERAGE STALL: -nan
L2BTB TOTAL ROB OCCUPANCY AT BTB MISS: 104.705

L2C TOTAL     ACCESS:    6641288  HIT:    5677769  MISS:     963519  HIT %:     85.492  MISS %:     14.508   MPKI: 19.2704
L2C LOAD INSTRUCTION	ACCESS:     457489  HIT:     376817  MISS:      80672  HIT %:    82.3664  MISS %:    17.6336  MPKI: 1.61344
L2C PREFETCH INSTRUCTION	ACCESS:    3175047  HIT:    2809964  MISS:     365083  HIT %:    88.5015  MISS %:    11.4985  MPKI: 7.30166
L2C LOAD TRANSLATION INSTRUCTION	ACCESS:        210  HIT:         72  MISS:        138  HIT %:    34.2857  MISS %:    65.7143  MPKI: 0.00276
L2C TRANSLATION FROM L1D PREFETCHER INSTRUCTION	ACCESS:       5417  HIT:       5295  MISS:        122  HIT %:    97.7478  MISS %:    2.25217  MPKI: 0.00244
L2C LOAD DATA	ACCESS:     741378  HIT:     601043  MISS:     140335  HIT %:    81.0711  MISS %:    18.9289  MPKI: 2.8067
L2C RFO DATA	ACCESS:     288721  HIT:     208079  MISS:      80642  HIT %:    72.0692  MISS %:    27.9308  MPKI: 1.61284
L2C PREFETCH DATA	ACCESS:    1445552  HIT:    1187440  MISS:     258112  HIT %:    82.1444  MISS %:    17.8556  MPKI: 5.16224
L2C WRITEBACK DATA	ACCESS:     525388  HIT:     488580  MISS:      36808  HIT %:    92.9941  MISS %:    7.00587  MPKI: 0.73616
L2C LOAD TRANSLATION DATA	ACCESS:       2054  HIT:        456  MISS:       1598  HIT %:    22.2006  MISS %:    77.7994  MPKI: 0.03196
L2C TRANSLATION FROM L1D PREFETCHER DATA	ACCESS:         32  HIT:         23  MISS:          9  HIT %:     71.875  MISS %:     28.125  MPKI: 0.00018

L2C PREFETCH  REQUESTED:    3281451  ISSUED:    3281451  USEFUL:      33245  USELESS:     592380
L2C USEFUL LOAD PREFETCHES:      33245 PREFETCH ISSUED TO LOWER LEVEL:     624917  ACCURACY: 5.31991
 TIMELY PREFETCHES:      33245 LATE PREFETCHES: 1722 DROPPED PREFETCHES: 0
L2C AVERAGE MISS LATENCY: 34.4786 cycles
L2C RQ	ACCESS:    1495354	FORWARD:          0	MERGED:          0	TO_CACHE:    1495303
L2C WQ	ACCESS:     525388	FORWARD:         52	MERGED:          0	TO_CACHE:     525388
L2C PQ	ACCESS:    6569135	FORWARD:          0	MERGED:    1932701	TO_CACHE:    4636433

L2C Dense regions hint from L2: 0
PSCL5 TOTAL     ACCESS:      11506  HIT:       5753  MISS:       5753  HIT %:         50  MISS %:         50   MPKI: 0.11506
PSCL5 LOAD TRANSLATION INSTRUCTION	ACCESS:       4212  HIT:       2106  MISS:       2106  HIT %:         50  MISS %:         50  MPKI: 0.04212
PSCL5 TRANSLATION FROM L1D PREFETCHER INSTRUCTION	ACCESS:       7294  HIT:       3647  MISS:       3647  HIT %:         50  MISS %:         50  MPKI: 0.07294


PSCL4 TOTAL     ACCESS:      10543  HIT:       5263  MISS:       5280  HIT %:    49.9194  MISS %:    50.0806   MPKI: 0.1056
PSCL4 LOAD TRANSLATION INSTRUCTION	ACCESS:       2717  HIT:       1928  MISS:        789  HIT %:    70.9606  MISS %:    29.0394  MPKI: 0.01578
PSCL4 TRANSLATION FROM L1D PREFETCHER INSTRUCTION	ACCESS:       4924  HIT:       3335  MISS:       1589  HIT %:    67.7295  MISS %:    32.2705  MPKI: 0.03178
PSCL4 LOAD TRANSLATION DATA	ACCESS:       1156  HIT:          0  MISS:       1156  HIT %:          0  MISS %:        100  MPKI: 0.02312
PSCL4 TRANSLATION FROM L1D PREFETCHER DATA	ACCESS:       1746  HIT:          0  MISS:       1746  HIT %:          0  MISS %:        100  MPKI: 0.03492


PSCL3 TOTAL     ACCESS:      10643  HIT:       5313  MISS:       5330  HIT %:    49.9201  MISS %:    50.0799   MPKI: 0.1066
PSCL3 LOAD TRANSLATION INSTRUCTION	ACCESS:       2767  HIT:       1978  MISS:        789  HIT %:    71.4854  MISS %:    28.5146  MPKI: 0.01578
PSCL3 TRANSLATION FROM L1D PREFETCHER INSTRUCTION	ACCESS:       4924  HIT:       3335  MISS:       1589  HIT %:    67.7295  MISS %:    32.2705  MPKI: 0.03178
PSCL3 LOAD TRANSLATION DATA	ACCESS:       1206  HIT:          0  MISS:       1206  HIT %:          0  MISS %:        100  MPKI: 0.02412
PSCL3 TRANSLATION FROM L1D PREFETCHER DATA	ACCESS:       1746  HIT:          0  MISS:       1746  HIT %:          0  MISS %:        100  MPKI: 0.03492


PSCL2 TOTAL     ACCESS:       8433  HIT:       4141  MISS:       4292  HIT %:    49.1047  MISS %:    50.8953   MPKI: 0.08584
PSCL2 LOAD TRANSLATION INSTRUCTION	ACCESS:       2187  HIT:       1974  MISS:        213  HIT %:    90.2606  MISS %:    9.73937  MPKI: 0.00426
PSCL2 TRANSLATION FROM L1D PREFETCHER INSTRUCTION	ACCESS:       4302  HIT:       2167  MISS:       2135  HIT %:    50.3719  MISS %:    49.6281  MPKI: 0.0427
PSCL2 LOAD TRANSLATION DATA	ACCESS:       1912  HIT:          0  MISS:       1912  HIT %:          0  MISS %:        100  MPKI: 0.03824
PSCL2 TRANSLATION FROM L1D PREFETCHER DATA	ACCESS:         32  HIT:          0  MISS:         32  HIT %:          0  MISS %:        100  MPKI: 0.00064


LLC TOTAL     ACCESS:    1051132  HIT:    1017961  MISS:      33171  HIT %:    96.8443  MISS %:    3.15574   MPKI: 0.66342
LLC LOAD INSTRUCTION	ACCESS:      80089  HIT:      79471  MISS:        618  HIT %:    99.2284  MISS %:   0.771642  MPKI: 0.01236
LLC PREFETCH INSTRUCTION	ACCESS:     363223  HIT:     362556  MISS:        667  HIT %:    99.8164  MISS %:   0.183634  MPKI: 0.01334
LLC LOAD TRANSLATION INSTRUCTION	ACCESS:        138  HIT:         96  MISS:         42  HIT %:    69.5652  MISS %:    30.4348  MPKI: 0.00084
LLC TRANSLATION FROM L1D PREFETCHER INSTRUCTION	ACCESS:        122  HIT:         99  MISS:         23  HIT %:    81.1475  MISS %:    18.8525  MPKI: 0.00046
LLC LOAD DATA	ACCESS:     139260  HIT:     135191  MISS:       4069  HIT %:    97.0781  MISS %:    2.92187  MPKI: 0.08138
LLC RFO DATA	ACCESS:      80559  HIT:      64443  MISS:      16116  HIT %:    79.9948  MISS %:    20.0052  MPKI: 0.32232
LLC PREFETCH DATA	ACCESS:     261694  HIT:     250532  MISS:      11162  HIT %:    95.7347  MISS %:    4.26529  MPKI: 0.22324
LLC WRITEBACK DATA	ACCESS:     124440  HIT:     124100  MISS:        340  HIT %:    99.7268  MISS %:   0.273224  MPKI: 0.0068
LLC LOAD TRANSLATION DATA	ACCESS:       1598  HIT:       1465  MISS:        133  HIT %:    91.6771  MISS %:     8.3229  MPKI: 0.00266
LLC TRANSLATION FROM L1D PREFETCHER DATA	ACCESS:          9  HIT:          8  MISS:          1  HIT %:    88.8889  MISS %:    11.1111  MPKI: 2e-05

LLC AVERAGE MISS LATENCY: 161.913 cycles
LLC RQ	ACCESS:     301794	FORWARD:          0	MERGED:          0	TO_CACHE:     301775
LLC WQ	ACCESS:     124440	FORWARD:         19	MERGED:          0	TO_CACHE:     124440
LLC PQ	ACCESS:     624917	FORWARD:          0	MERGED:          0	TO_CACHE:     624917

LLC Dense regions hint to LLC: 0

RAW hits: 1712889
Loads Generated: 12630271
Loads sent to L1D: 10917383
Stores Generated: 6927428
Stores sent to L1D: 6927438
Major fault: 0 Minor fault: 2623
Allocated PAGES: 2623
I-Shadow cache 408 bytes
Touched + WorthPF tables 12288 bytes 
MMA filter 174 bytes 
FNL filter 272 bytes 
TOTAL PREFETCHER STORAGE SIZE: 31318 bytes
CPU 0 L1I next line prefetcher final stats

stream: 
stream:times selected: 1229401
stream:pref_filled: 121911
stream:pref_useful: 25691
stream:pref_late: 9374
stream:misses: 9158
stream:misses_by_poll: 0

CS: 
CS:times selected: 188667
CS:pref_filled: 62540
CS:pref_useful: 38146
CS:pref_late: 15613
CS:misses: 28999
CS:misses_by_poll: 4

CPLX: 
CPLX:times selected: 1039489
CPLX:pref_filled: 22704
CPLX:pref_useful: 6212
CPLX:pref_late: 3764
CPLX:misses: 117277
CPLX:misses_by_poll: 2

NL_L1: 
NL:times selected: 12824
NL:pref_filled: 1415
NL:pref_useful: 171
NL:pref_late: 331
NL:misses: 1626
NL:misses_by_poll: 0

total selections: 2470381
total_filled: 100208
total_useful: 42455
total_late: 31036
total_polluted: 6
total_misses_after_warmup: 791283
conflicts: 5641829

test: 120100

DRAM Statistics
 CHANNEL 0
 RQ ROW_BUFFER_HIT:      11549  ROW_BUFFER_MISS:      21277
 DBUS_CONGESTED:         10
 WQ ROW_BUFFER_HIT:       1719  ROW_BUFFER_MISS:      14252  FULL:          0

 AVG_CONGESTED_CYCLE: 6

CPU 0 Branch Prediction Accuracy: 99.8135% MPKI: 0.34118 Average ROB Occupancy at Mispredict: 127.711
Branch types
NOT_BRANCH: 40851939 81.7039%
BRANCH_DIRECT_JUMP: 547867 1.09573%
BRANCH_INDIRECT: 182931 0.365862%
BRANCH_CONDITIONAL: 6200230 12.4005%
BRANCH_DIRECT_CALL: 938111 1.87622%
BRANCH_INDIRECT_CALL: 170181 0.340362%
BRANCH_RETURN: 1108265 2.21653%
BRANCH_OTHER: 0 0%

DRAM PAGES: 1048576
Allocated PAGES: 2623
Average_ROB_Occupancy: 124.855
Average_Decode_Occupancy: 10.2805
Average_FTQ_Occupancy: 3.8101
Indirect max targets: 14 Average targets: 1.17363
Branch_type:  BRANCH_DIRECT_JUMP:  Count Percentage: 2.11367 6.3018 4.72495 9.16677 2.22831 5.96436 1.93028 67.5699 
Branch_type:  BRANCH_INDIRECT:  Count Percentage: 6.14968 3.46303 8.15364 0 1.33524 9.68531 5.20893 66.0042 
Branch_type:  BRANCH_CONDITIONAL:  Count Percentage: 22.1427 6.41835 1.81536 5.32998 1.34078 4.71233 2.9529 55.2876 
Branch_type:  BRANCH_DIRECT_CALL:  Count Percentage: 0.260062 1.98026 1.29051 4.76862 1.91012 2.82857 3.35924 83.6026 
Branch_type:  BRANCH_INDIRECT_CALL:  Count Percentage: 9.57705 0 3.00282 8.72254 0 2.55122 6.4367 69.7097 
Branch_type:  BRANCH_RETURN:  Count Percentage: 4.10787 5.43978 0.726082 6.17834 3.19336 6.017 4.68968 69.6479 
Branch_type:  BRANCH_DIRECT_JUMP:  Total Count: 23120 68931 51683 100269 24374 65240 21114 739100 
Branch_type:  BRANCH_INDIRECT:  Total Count: 22448 12641 29763 0 4874 35354 19014 240933 
Branch_type:  BRANCH_CONDITIONAL:  Total Count: 2745149 795717 225060 660786 166223 584212 366087 6854291 
Branch_type:  BRANCH_DIRECT_CALL:  Total Count: 4883 37182 24231 89537 35865 53110 63074 1569747 
Branch_type:  BRANCH_INDIRECT_CALL:  Total Count: 32659 0 10240 29745 0 8700 21950 237719 
Branch_type:  BRANCH_RETURN:  Total Count: 91172 120733 16115 137125 70875 133544 104085 1545797 
Number of unique branch instructions: 10364
Upper 32 bits: 
aaaa
ffff
ffff0000
Unique upper 32 bits: 3
Unique upper 36 bits: 3
Unique upper 40 bits: 5
Unique upper 44 bits: 32
Unique upper 48 bits: 157
Offset_3 4292
Offset_4 258
Offset_5 467
Offset_6 525
Offset_7 610
Offset_8 550
Offset_9 489
Offset_10 406
Offset_11 328
Offset_12 293
Offset_13 220
Offset_14 229
Offset_15 203
Offset_16 222
Offset_17 153
Offset_18 144
Offset_19 249
Offset_20 138
Offset_21 235
Offset_22 399
Offset_23 243
Offset_24 336
Offset_25 114
Offset_47 90
decode_dispatch_called: 20967080 46.0875
Dispatch_width: 0 10228350 48.7829 22.4828
Dispatch_width: 1 709182 3.38236 1.55885
Dispatch_width: 2 994735 4.74427 2.18652
Dispatch_width: 3 693857 3.30927 1.52516
Dispatch_width: 4 2156072 10.2831 4.73924
Dispatch_width: 5 514140 2.45213 1.13013
Dispatch_width: 6 5670744 27.0459 12.4648
Empty_decode_cycles: 24526965 53.9125
ROB_full_cycles: 2575309 5.66076
Starvation_cycles_per_kilo_instr: 372.48
Starvation_cycles_per_kilo_instr_3: 345.778
Starvation_cycles_per_kilo_instr_0: 321.8
Branch_type_1  (3,1)  (4,9)  (5,38)  (6,73)  (7,122)  (8,144)  (9,132)  (10,108)  (11,75)  (12,47)  (13,11)  (14,2)  (15,3)  (16,4)  (18,1)  (19,5)  (20,2)  (21,1)  (22,3)  (23,2)  (24,10)  (25,12) 
Branch_type_2  (3,1)  (4,1)  (5,1)  (8,4)  (9,4)  (10,1)  (12,1)  (13,1)  (14,1)  (16,3)  (17,2)  (20,2)  (21,2)  (23,5)  (24,1)  (47,40) 
Branch_type_3  (3,4290)  (4,248)  (5,424)  (6,436)  (7,460)  (8,339)  (9,266)  (10,162)  (11,126)  (12,56)  (13,10)  (22,1) 
Branch_type_4  (6,3)  (7,8)  (8,25)  (9,53)  (10,64)  (11,65)  (12,103)  (13,92)  (14,102)  (15,97)  (16,97)  (17,69)  (18,61)  (19,121)  (20,71)  (21,124)  (22,208)  (23,137)  (24,192)  (25,98) 
Branch_type_5  (8,3)  (9,1)  (10,4)  (11,5)  (12,3)  (13,14)  (14,16)  (15,11)  (16,22)  (17,11)  (18,23)  (19,14)  (20,11)  (21,13)  (22,43)  (23,26)  (24,37) 
Branch_type_6  (5,4)  (6,13)  (7,20)  (8,35)  (9,33)  (10,67)  (11,57)  (12,83)  (13,92)  (14,108)  (15,92)  (16,96)  (17,71)  (18,59)  (19,109)  (20,52)  (21,95)  (22,144)  (23,73)  (24,96)  (25,4)  (47,50) 
Unique trigger count: 
BTB PER SET UNIQUE ADDR: 25 26 21 27 26 25 17 23 15 25 18 29 27 21 23 17 22 21 22 25 27 19 24 26 19 25 25 25 24 21 22 24 27 16 18 21 22 27 18 20 21 23 24 29 20 15 27 17 26 22 30 19 24 27 22 11 19 18 19 27 22 32 23 24 24 27 24 18 31 24 22 23 28 19 18 14 15 24 19 33 26 16 22 32 27 22 27 22 16 39 19 16 26 21 13 27 19 20 27 28 34 31 24 22 24 22 22 26 14 17 20 35 25 20 21 14 26 26 24 21 25 18 20 15 24 22 13 24 33 19 19 31 22 30 21 30 15 28 22 32 21 28 20 23 24 24 28 22 15 22 24 26 18 22 17 30 28 27 29 24 26 22 30 28 22 23 26 17 30 19 21 27 24 22 24 21 22 22 20 27 18 26 21 29 35 30 16 25 27 21 24 18 17 30 26 17 17 24 22 24 27 27 20 19 20 22 23 23 21 23 20 26 20 22 25 23 20 27 17 38 16 25 17 23 20 26 30 26 17 31 22 11 24 28 22 27 27 20 21 17 23 23 30 30 23 20 23 23 25 24 30 29 26 17 27 27 20 17 17 21 25 19 9 21 21 15 20 19 24 20 22 24 19 15 17 18 25 27 21 22 17 26 16 17 26 19 18 32 32 26 24 17 25 27 17 29 25 27 29 24 22 20 20 38 23 29 26 23 32 27 22 31 22 35 28 13 28 22 22 30 22 27 18 22 28 29 24 19 21 17 22 30 16 20 21 25 19 19 18 38 23 24 15 27 27 24 20 24 21 23 26 23 27 24 22 27 24 27 18 17 18 30 21 31 24 27 14 23 28 22 23 17 23 24 18 31 24 29 21 24 24 23 19 16 19 23 28 29 26 24 30 16 27 30 17 16 22 19 30 22 22 25 24 22 29 26 26 28 20 23 29 18 18 28 21 21 21 33 38 31 20 26 23 25 28 20 26 19 26 23 30 22 18 23 29 29 26 19 22 27 26 21 18 31 32 20 16 25 28 25 28 39 26 18 29 34 26 29 18 29 20 22 18 26 33 20 25 25 27 26 25 30 27 24 23 35 27 36 16 24 35 27 21 26 17 24 35 31 28 23 20 24 19 19 19 20 25 26 20 24 20 29 21 33 22 18 20 31 29 26 24 33 24 24 23 27 24 32 18 18 21 24 26 16 24 33 36 16 17 31 27 25 24 23 26 28 20 25 29 25 29 21 27 25 28 30 15 27 17 24 26 32 22 24 21 25 23 24 31 27 23 34 22 27 23 30 23 28 26 27 28 25 29 36 23 28 29 30 23 23 26 26 15 25 25 27 21 23 34 29 20 22 24 18 24 19 16 23 27 21 24 22 23 15 26 26 33 21 22 24 31 28 21 18 11 30 16 27 21 25 30 27 19 20 21 32 24 28 18 26 20 30 30 24 24 22 25 30 23 27 23 29 27 30 27 25 22 26 35 21 16 23 20 19 30 23 24 25 28 24 23 14 29 32 21 27 19 22 19 20 28 22 20 28 33 22 25 27 29 30 23 30 22 27 26 21 23 24 27 29 23 25 22 15 14 22 18 28 20 25 14 27 27 34 12 29 22 18 18 15 24 23 18 22 20 21 34 24 21 28 26 24 21 21 19 23 26 23 21 20 26 20 23 21 24 27 24 29 36 22 22 22 23 24 31 29 23 24 23 19 24 22 26 22 18 23 32 20 20 18 25 15 13 23 26 31 16 27 26 27 24 30 20 17 25 19 28 23 27 29 14 26 21 20 23 22 19 25 21 14 18 14 29 28 20 31 21 18 30 23 34 28 31 30 35 20 25 24 24 20 20 33 30 31 20 26 37 31 14 29 26 32 16 27 27 23 19 22 25 28 24 29 26 22 18 27 24 22 26 23 27 23 22 24 25 25 21 37 20 26 24 20 18 22 31 31 31 31 26 27 25 24 19 26 29 17 25 16 33 19 19 30 27 21 22 13 22 21 20 24 29 16 19 31 26 24 29 22 27 22 25 17 22 23 22 28 31 24 19 21 24 23 22 26 14 31 22 28 24 32 20 24 22 23 27 28 36 24 24 27 25 24 19 25 21 20 13 30 19 17 29 34 28 22 22 31 22 21 26 27 18 30 24 22 21 25 26 28 24 27 24 25 20 25 21 27 29 22 28 24 25 24 23 33 30 25 29 27 19 27 25 28 29 22 27 20 35 34 29 33 18 29 27 25 23 33 39 19 28 23 27 26 25 22 24 20 22 24 30 22 31 30 20 23 28 30 18 33 22 28 27 26 25 16 19 21 15 19 9 14 21 31 22 17 
BTB PER SET COUNT: 2184 2346 2892 2033 2708 2094 1797 1749 1673 2111 1236 2562 12318 1904 1803 1011 2130 2185 1667 2250 1855 1654 2098 2292 1198 1996 2134 2032 2280 1912 1922 2528 2098 892 1250 1943 1952 2428 1102 2374 1606 1599 2448 2257 1788 758 2236 1492 2106 1772 2357 1399 1955 2220 1809 837 1576 1517 1398 2143 1685 2899 2053 2017 2497 2272 1713 1579 2299 1867 2334 2144 2583 1441 1357 880 883 2196 1459 2671 2473 1119 2019 2525 2149 2011 2231 2225 1791 3832 1576 1357 2183 2027 862 2065 1507 1586 2221 3816 3609 2674 2263 1683 3790 1394 1767 2389 1611 3254 1879 2907 2245 1647 1703 1208 2149 2329 2420 2077 2343 1401 1756 1139 1845 1687 763 2847 3455 1695 1498 3109 1531 2413 1680 2241 1469 2323 1647 2906 1640 2347 1705 1825 1842 1797 2649 1470 1054 1875 1779 2183 1512 1699 969 2927 2692 2236 2251 2446 2154 1940 2507 2253 1633 2150 1895 1516 2283 1709 1523 2535 2008 1869 2051 1959 1771 1667 1709 2555 1488 1932 1715 2270 2870 3157 1069 1991 2328 2332 1835 1379 1212 2676 2040 1209 1342 1949 1672 1656 2120 2019 1616 1560 1218 2034 1741 1936 1863 2441 1532 2167 1378 3496 1936 2269 1617 2352 1704 3565 1062 2227 1381 1687 1670 2123 2802 2310 1334 3373 1692 560 1817 2392 1480 5543 2336 1633 2224 1154 1941 2045 2978 2705 1769 2146 1365 1836 2021 1614 1941 2088 2045 1581 2115 2522 1559 1472 1445 1736 2332 1523 317 1858 2044 791 1734 1405 2168 1911 1588 1860 1138 844 1548 1259 2036 2433 1911 1947 942 2325 1467 1866 2164 1482 1283 2946 3130 2486 1989 1150 1891 2540 1162 2759 2270 2032 1800 2098 1603 1500 1865 2968 1933 2779 1911 1879 2942 2464 2605 2231 1452 3182 2954 1559 2640 1671 1636 2732 1518 3053 1156 1737 2725 2549 2377 1298 1646 1082 1753 2966 1239 1369 1974 1850 1369 1784 1127 3597 1967 3026 1144 2092 2368 1918 1435 1737 1837 2144 2281 1913 2500 1794 1740 2546 2163 2581 1588 1325 1333 2930 1522 2812 1835 2940 715 1668 1903 1555 2208 1329 2325 2357 1152 2889 1931 2496 1662 2390 2297 2115 1664 990 1174 1701 3012 2468 2201 2255 2291 935 2247 2367 1328 1156 1479 1386 2772 2165 1696 2039 2020 1522 2243 2161 2200 2251 1336 2188 2011 1352 1445 2619 1669 1848 1847 5409 3367 2648 1485 2140 2360 1976 2373 1694 2554 1456 1698 1890 2787 2081 1352 1657 2620 2458 1869 1589 1745 1973 2846 1434 1402 2802 3031 1891 1407 2028 2468 1874 2244 3909 1796 1703 2602 3096 1850 2779 1380 2218 1312 1862 1455 2544 2864 1798 6792 1981 2596 2199 1998 2020 1945 1764 2027 2954 1878 3352 1182 2005 2849 2306 1628 2315 1459 1954 3310 2529 2612 1772 1759 2146 4289 1112 1063 1781 2752 2613 1538 2228 1525 2736 1428 3307 1504 1302 1300 2944 2653 2019 1979 3138 2562 2499 1712 2628 1488 2937 1250 1411 898 1959 2255 1226 1909 2953 3329 2072 1120 4295 3127 2121 1994 1862 2438 2472 2369 2307 2161 1954 2364 1676 2388 1961 2287 2728 972 2182 1211 2414 1880 2706 2287 2176 1496 1419 1892 1912 2423 2192 1359 2906 1681 1943 2330 2644 1809 2285 1727 2551 2765 2159 3028 2960 2047 2632 2690 2590 1716 1880 2377 2332 1053 3043 2251 2164 1859 2177 3057 2737 2089 1841 2187 1038 1725 1368 1639 2295 1994 1431 1341 1859 1814 959 2194 2129 2529 2055 1311 1721 2954 2597 2239 1152 700 2700 1027 2472 2216 2358 2922 1848 1115 1465 1635 2936 1633 2849 2135 2225 1641 3021 3060 1773 1842 1798 2261 2576 1645 2289 2179 2135 2590 2686 3082 2399 1407 2508 3661 1242 1059 2154 1228 1804 3141 2038 1659 1738 2505 1916 2163 747 2325 2781 6299 2528 1364 1910 2328 1815 1703 1831 1462 2316 2906 2112 1977 2650 2256 2914 1885 2654 1885 2426 2783 2037 1790 2019 2185 2498 1569 2547 2132 926 1467 1798 1702 2600 1618 1925 1443 2289 2539 2888 809 2369 1842 1399 1247 1094 1991 2200 1229 1840 1706 1663 3274 2167 1537 2641 2267 2449 1583 1872 1773 1615 1702 2386 1738 2140 2171 5346 1712 1778 1820 2157 2271 3111 3684 1709 1894 1467 1964 2320 3003 2716 2272 1848 1968 1697 2684 1526 2643 2115 1279 1899 2620 2252 1699 1175 2122 1012 720 1914 2834 2970 1216 2049 1091 2205 1730 2514 1740 1474 2085 1395 2282 1918 1541 2700 1679 2173 1936 1685 2059 1919 1510 2196 1551 1129 1292 1450 2206 2448 1779 2896 1706 1378 1765 2198 3263 1943 2673 2462 2913 1612 1865 1912 1753 1565 1502 5307 2750 2400 1746 2858 2783 2926 1057 2778 1945 2751 1226 2465 2803 1873 1469 2139 2173 2738 2139 3092 2281 2050 1272 2840 1864 1900 2470 1891 2396 2185 2059 1980 2176 2179 1744 3412 1468 5945 2522 2093 1596 1789 2681 2688 2808 2461 2517 2179 2603 1971 1656 2101 2830 1204 1827 1035 2881 1455 1576 2864 2299 1704 2047 870 1714 1986 2402 2042 2208 985 1470 2916 2209 2198 2460 1936 1895 1992 2338 1181 2975 2651 1571 2618 2921 1723 1585 1577 2211 1619 1804 2375 830 2302 1627 2630 1758 2769 1744 1817 1958 2387 2533 2449 3575 2032 2069 2146 2158 2188 1417 2444 1337 1404 691 2685 1254 1155 2206 2747 3145 1483 1687 3258 1907 1626 2451 2425 1350 3145 2065 1520 2055 2116 1839 2363 2154 2291 2223 2379 1847 3657 1696 2111 2395 1718 2080 2287 2047 2204 1710 2739 2522 1448 2777 2214 1357 2136 1927 2749 2488 1730 2668 1573 3355 2350 2601 3316 1982 2327 2418 2099 1539 3208 4002 1347 2450 2078 2279 2714 1898 1863 2323 1862 1472 3180 2281 2168 2668 3012 1640 1797 2359 2091 1503 3087 1733 2439 2502 2427 2432 1342 1392 1993 928 1688 469 1288 1537 3059 2140 1021 
