
*** ChampSim Multicore Out-of-Order Simulator ***

Warmup Instructions: 50000000
Simulation Instructions: 50000000
Number of CPUs: 1
LLC sets: 2048
LLC ways: 16
Off-chip DRAM Size: 4096 MB Channels: 1 Width: 64-bit Data Rate: 6400 MT/s
CPU 0 runs ./micro_traces/srv79.trace.gz
.gz
ITLB has LRU replacement policy
DTLB has LRU replacement policy
STLB has LRU replacement policy
FDIP Prefetcher at L1I
L1I has LRU replacement policy
L1D has LRU replacement policy
Initialize SRRIP state for L2C
Initialize DRRIP state for LLC
Heartbeat_Variant_0 : 1002 0.326172 per_variant_size: 0 1002 0 0 0 0 0 0 0 
Heartbeat_Variant_1 : 2066 0.672526 per_variant_size: 0 353 1713 0 0 0 0 0 0 
Heartbeat_Variant_2 : 0 0 per_variant_size: 0 0 0 0 0 0 0 0 0 
Heartbeat_Variant_3 : 0 0 per_variant_size: 0 0 0 0 0 0 0 0 0 
Heartbeat_Variant_0_evicts 0 : 16992 1 : 24394 2 : 0 3 : 0 
Heartbeat_Variant_1_evicts 0 : 24390 1 : 0 2 : 0 3 : 0 
Heartbeat_Variant_2_evicts 0 : 0 1 : 0 2 : 0 3 : 0 
Heartbeat_Variant_3_evicts 0 : 0 1 : 0 2 : 0 3 : 0 
Heartbeat CPU 0 instructions: 10000003 cycles: 2789684 heartbeat IPC: 3.58464 cumulative IPC: 3.58464 (Simulation time: 0 hr 1 min 37 sec) 
Heartbeat_Variant_0 : 1015 0.330404 per_variant_size: 0 1015 0 0 0 0 0 0 0 
Heartbeat_Variant_1 : 2053 0.668294 per_variant_size: 0 362 1691 0 0 0 0 0 0 
Heartbeat_Variant_2 : 0 0 per_variant_size: 0 0 0 0 0 0 0 0 0 
Heartbeat_Variant_3 : 0 0 per_variant_size: 0 0 0 0 0 0 0 0 0 
Heartbeat_Variant_0_evicts 0 : 16107 1 : 22322 2 : 0 3 : 0 
Heartbeat_Variant_1_evicts 0 : 22309 1 : 0 2 : 0 3 : 0 
Heartbeat_Variant_2_evicts 0 : 0 1 : 0 2 : 0 3 : 0 
Heartbeat_Variant_3_evicts 0 : 0 1 : 0 2 : 0 3 : 0 
Heartbeat CPU 0 instructions: 20000003 cycles: 5580375 heartbeat IPC: 3.58334 cumulative IPC: 3.58399 (Simulation time: 0 hr 3 min 8 sec) 
Heartbeat_Variant_0 : 1030 0.335286 per_variant_size: 0 1030 0 0 0 0 0 0 0 
Heartbeat_Variant_1 : 2038 0.663411 per_variant_size: 0 361 1677 0 0 0 0 0 0 
Heartbeat_Variant_2 : 0 0 per_variant_size: 0 0 0 0 0 0 0 0 0 
Heartbeat_Variant_3 : 0 0 per_variant_size: 0 0 0 0 0 0 0 0 0 
Heartbeat_Variant_0_evicts 0 : 15955 1 : 21835 2 : 0 3 : 0 
Heartbeat_Variant_1_evicts 0 : 21820 1 : 0 2 : 0 3 : 0 
Heartbeat_Variant_2_evicts 0 : 0 1 : 0 2 : 0 3 : 0 
Heartbeat_Variant_3_evicts 0 : 0 1 : 0 2 : 0 3 : 0 
Heartbeat CPU 0 instructions: 30000001 cycles: 8371814 heartbeat IPC: 3.58238 cumulative IPC: 3.58345 (Simulation time: 0 hr 4 min 39 sec) 
Heartbeat_Variant_0 : 979 0.318685 per_variant_size: 0 979 0 0 0 0 0 0 0 
Heartbeat_Variant_1 : 2089 0.680013 per_variant_size: 0 344 1745 0 0 0 0 0 0 
Heartbeat_Variant_2 : 0 0 per_variant_size: 0 0 0 0 0 0 0 0 0 
Heartbeat_Variant_3 : 0 0 per_variant_size: 0 0 0 0 0 0 0 0 0 
Heartbeat_Variant_0_evicts 0 : 16313 1 : 23294 2 : 0 3 : 0 
Heartbeat_Variant_1_evicts 0 : 23345 1 : 0 2 : 0 3 : 0 
Heartbeat_Variant_2_evicts 0 : 0 1 : 0 2 : 0 3 : 0 
Heartbeat_Variant_3_evicts 0 : 0 1 : 0 2 : 0 3 : 0 
Heartbeat CPU 0 instructions: 40000003 cycles: 11161507 heartbeat IPC: 3.58462 cumulative IPC: 3.58375 (Simulation time: 0 hr 6 min 9 sec) 
Heartbeat_Variant_0 : 1009 0.328451 per_variant_size: 0 1009 0 0 0 0 0 0 0 
Heartbeat_Variant_1 : 2059 0.670247 per_variant_size: 0 360 1699 0 0 0 0 0 0 
Heartbeat_Variant_2 : 0 0 per_variant_size: 0 0 0 0 0 0 0 0 0 
Heartbeat_Variant_3 : 0 0 per_variant_size: 0 0 0 0 0 0 0 0 0 
Heartbeat_Variant_0_evicts 0 : 16594 1 : 23714 2 : 0 3 : 0 
Heartbeat_Variant_1_evicts 0 : 23684 1 : 0 2 : 0 3 : 0 
Heartbeat_Variant_2_evicts 0 : 0 1 : 0 2 : 0 3 : 0 
Heartbeat_Variant_3_evicts 0 : 0 1 : 0 2 : 0 3 : 0 
Heartbeat CPU 0 instructions: 50000000 cycles: 13950242 heartbeat IPC: 3.58585 cumulative IPC: 3.58417 (Simulation time: 0 hr 7 min 39 sec) 

Warmup complete CPU 0 instructions: 50000004 cycles: 13950243 (Simulation time: 0 hr 7 min 39 sec) 

Cycle: 20000000 FTQ IN: 56620916 FTQ occupancy: 18.0998 DECODE IN: 56620915 DECODE occupancy: 46.3733 ROB IN: 56620855 ROB occupancy: 280.565 ROB OUT: 56620705
Heartbeat_Variant_0 : 975 0.317383 per_variant_size: 0 975 0 0 0 0 0 0 0 
Heartbeat_Variant_1 : 2093 0.681315 per_variant_size: 0 369 1724 0 0 0 0 0 0 
Heartbeat_Variant_2 : 0 0 per_variant_size: 0 0 0 0 0 0 0 0 0 
Heartbeat_Variant_3 : 0 0 per_variant_size: 0 0 0 0 0 0 0 0 0 
Heartbeat_Variant_0_evicts 0 : 17112 1 : 24093 2 : 0 3 : 0 
Heartbeat_Variant_1_evicts 0 : 24127 1 : 0 2 : 0 3 : 0 
Heartbeat_Variant_2_evicts 0 : 0 1 : 0 2 : 0 3 : 0 
Heartbeat_Variant_3_evicts 0 : 0 1 : 0 2 : 0 3 : 0 
Heartbeat CPU 0 instructions: 60000002 cycles: 23015842 heartbeat IPC: 1.10307 cumulative IPC: 1.10307 (Simulation time: 0 hr 8 min 58 sec) 
Cycle: 30000000 FTQ IN: 11158479 FTQ occupancy: 7.3924 DECODE IN: 11158475 DECODE occupancy: 16.4976 ROB IN: 11158535 ROB occupancy: 133.031 ROB OUT: 11158663
Heartbeat_Variant_0 : 1000 0.325521 per_variant_size: 0 1000 0 0 0 0 0 0 0 
Heartbeat_Variant_1 : 2068 0.673177 per_variant_size: 0 343 1725 0 0 0 0 0 0 
Heartbeat_Variant_2 : 0 0 per_variant_size: 0 0 0 0 0 0 0 0 0 
Heartbeat_Variant_3 : 0 0 per_variant_size: 0 0 0 0 0 0 0 0 0 
Heartbeat_Variant_0_evicts 0 : 16091 1 : 22932 2 : 0 3 : 0 
Heartbeat_Variant_1_evicts 0 : 22907 1 : 0 2 : 0 3 : 0 
Heartbeat_Variant_2_evicts 0 : 0 1 : 0 2 : 0 3 : 0 
Heartbeat_Variant_3_evicts 0 : 0 1 : 0 2 : 0 3 : 0 
Heartbeat CPU 0 instructions: 70000002 cycles: 31982207 heartbeat IPC: 1.11528 cumulative IPC: 1.10914 (Simulation time: 0 hr 10 min 19 sec) 
Cycle: 40000000 FTQ IN: 11319571 FTQ occupancy: 7.23834 DECODE IN: 11319576 DECODE occupancy: 16.223 ROB IN: 11319569 ROB occupancy: 132.719 ROB OUT: 11319243
Heartbeat_Variant_0 : 966 0.314453 per_variant_size: 0 966 0 0 0 0 0 0 0 
Heartbeat_Variant_1 : 2102 0.684245 per_variant_size: 0 357 1745 0 0 0 0 0 0 
Heartbeat_Variant_2 : 0 0 per_variant_size: 0 0 0 0 0 0 0 0 0 
Heartbeat_Variant_3 : 0 0 per_variant_size: 0 0 0 0 0 0 0 0 0 
Heartbeat_Variant_0_evicts 0 : 16122 1 : 22517 2 : 0 3 : 0 
Heartbeat_Variant_1_evicts 0 : 22551 1 : 0 2 : 0 3 : 0 
Heartbeat_Variant_2_evicts 0 : 0 1 : 0 2 : 0 3 : 0 
Heartbeat_Variant_3_evicts 0 : 0 1 : 0 2 : 0 3 : 0 
Heartbeat CPU 0 instructions: 80000002 cycles: 40906898 heartbeat IPC: 1.12049 cumulative IPC: 1.1129 (Simulation time: 0 hr 11 min 40 sec) 
Heartbeat_Variant_0 : 996 0.324219 per_variant_size: 0 996 0 0 0 0 0 0 0 
Heartbeat_Variant_1 : 2072 0.674479 per_variant_size: 0 348 1724 0 0 0 0 0 0 
Heartbeat_Variant_2 : 0 0 per_variant_size: 0 0 0 0 0 0 0 0 0 
Heartbeat_Variant_3 : 0 0 per_variant_size: 0 0 0 0 0 0 0 0 0 
Heartbeat_Variant_0_evicts 0 : 16333 1 : 22443 2 : 0 3 : 0 
Heartbeat_Variant_1_evicts 0 : 22413 1 : 0 2 : 0 3 : 0 
Heartbeat_Variant_2_evicts 0 : 0 1 : 0 2 : 0 3 : 0 
Heartbeat_Variant_3_evicts 0 : 0 1 : 0 2 : 0 3 : 0 
Heartbeat CPU 0 instructions: 90000003 cycles: 49713170 heartbeat IPC: 1.13555 cumulative IPC: 1.11848 (Simulation time: 0 hr 13 min 0 sec) 
Cycle: 50000000 FTQ IN: 11225970 FTQ occupancy: 7.42827 DECODE IN: 11225916 DECODE occupancy: 16.6139 ROB IN: 11225884 ROB occupancy: 134.366 ROB OUT: 11226115
Heartbeat_Variant_0 : 985 0.320638 per_variant_size: 0 985 0 0 0 0 0 0 0 
Heartbeat_Variant_1 : 2083 0.67806 per_variant_size: 0 329 1754 0 0 0 0 0 0 
Heartbeat_Variant_2 : 0 0 per_variant_size: 0 0 0 0 0 0 0 0 0 
Heartbeat_Variant_3 : 0 0 per_variant_size: 0 0 0 0 0 0 0 0 0 
Heartbeat_Variant_0_evicts 0 : 16945 1 : 23648 2 : 0 3 : 0 
Heartbeat_Variant_1_evicts 0 : 23659 1 : 0 2 : 0 3 : 0 
Heartbeat_Variant_2_evicts 0 : 0 1 : 0 2 : 0 3 : 0 
Heartbeat_Variant_3_evicts 0 : 0 1 : 0 2 : 0 3 : 0 
Heartbeat CPU 0 instructions: 100000000 cycles: 58809472 heartbeat IPC: 1.09935 cumulative IPC: 1.1146 (Simulation time: 0 hr 14 min 15 sec) 
Finished CPU 0 instructions: 50000000 cycles: 44859230 cumulative IPC: 1.1146 (Simulation time: 0 hr 14 min 15 sec) 

ChampSim completed all CPUs

Region of Interest Statistics

CPU 0 cumulative IPC: 1.1146 instructions: 50000000 cycles: 44859230
 Fetch stage stalled: 68.7189  Sim cycles: 44859230 fetch stall cycle: 30826763
 Empty decode stage: 54.444  Sim cycles: 44859230 fetch stall cycle: 24423161
ITLB TOTAL     ACCESS:    5542991  HIT:    5099694  MISS:     443297  HIT %:    92.0026  MISS %:    7.99743   MPKI: 8.86594
ITLB LOAD TRANSLATION INSTRUCTION	ACCESS:    5417671  HIT:    4974374  MISS:     443297  HIT %:    91.8176  MISS %:    8.18243  MPKI: 8.86594
ITLB TRANSLATION FROM L1D PREFETCHER INSTRUCTION	ACCESS:     125320  HIT:     125320  MISS:          0  HIT %:        100  MISS %:          0  MPKI: 0

ITLB AVERAGE MISS LATENCY: 9.07329 cycles
ITLB RQ	ACCESS:    7213760	FORWARD:          0	MERGED:    1199524	TO_CACHE:    6014236

DTLB TOTAL     ACCESS:    9181624  HIT:    8716729  MISS:     464895  HIT %:    94.9367  MISS %:    5.06332   MPKI: 9.2979
DTLB LOAD TRANSLATION DATA	ACCESS:    9181624  HIT:    8716729  MISS:     464895  HIT %:    94.9367  MISS %:    5.06332  MPKI: 9.2979

DTLB AVERAGE MISS LATENCY: 9.41503 cycles
DTLB RQ	ACCESS:   13399572	FORWARD:          0	MERGED:    4181888	TO_CACHE:    9217684

STLB TOTAL     ACCESS:    1209316  HIT:    1206453  MISS:       2863  HIT %:    99.7633  MISS %:   0.236745   MPKI: 0.05726
STLB LOAD TRANSLATION INSTRUCTION	ACCESS:     443297  HIT:     442853  MISS:        444  HIT %:    99.8998  MISS %:   0.100159  MPKI: 0.00888
STLB LOAD TRANSLATION DATA	ACCESS:     464767  HIT:     462375  MISS:       2392  HIT %:    99.4853  MISS %:   0.514666  MPKI: 0.04784
STLB TRANSLATION FROM L1D PREFETCHER DATA	ACCESS:     301252  HIT:     301225  MISS:         27  HIT %:     99.991  MISS %:  0.0089626  MPKI: 0.00054

STLB AVERAGE MISS LATENCY: 69.5173 cycles
STLB RQ	ACCESS:    1385585	FORWARD:          0	MERGED:     176180	TO_CACHE:    1209405

STLB Hit, L1D data hit: 0
STLB Hit, L2C data hit: 0
STLB Hit, LLC data hit: 0
STLB Hit, LLC data miss: 0
STLB STLB hints to L2: 0
L1D TOTAL     ACCESS:   13269852  HIT:   12183307  MISS:    1086545  HIT %:    91.8119  MISS %:    8.18807   MPKI: 21.7309
L1D LOAD DATA	ACCESS:    6760262  HIT:    6059768  MISS:     700494  HIT %:    89.6381  MISS %:    10.3619  MPKI: 14.0099
L1D RFO DATA	ACCESS:    6109401  HIT:    5833979  MISS:     275422  HIT %:    95.4918  MISS %:    4.50817  MPKI: 5.50844
L1D PREFETCH DATA	ACCESS:     400189  HIT:     289560  MISS:     110629  HIT %:    72.3558  MISS %:    27.6442  MPKI: 2.21258

L1D PREFETCH  REQUESTED:     955076  ISSUED:     955076  USEFUL:      56670  USELESS:      72040
L1D USEFUL LOAD PREFETCHES:      56670 PREFETCH ISSUED TO LOWER LEVEL:     128733  ACCURACY: 44.0213
 TIMELY PREFETCHES:      56670 LATE PREFETCHES: 18069 DROPPED PREFETCHES: 44
L1D AVERAGE MISS LATENCY: 609582 cycles
L1D RQ	ACCESS:   10820335	FORWARD:          0	MERGED:    3872991	TO_CACHE:    6794632
L1D WQ	ACCESS:    6762968	FORWARD:     153004	MERGED:     158028	TO_CACHE:    6604940
L1D PQ	ACCESS:     477684	FORWARD:          0	MERGED:          0	TO_CACHE:     477392

L1D UNIQUE REGIONS ACCESSED: 0
L1D REGIONS CONFLICTS: 0
L1D Cross Page Prefetch Requests: 10664
L1D Same Page Prefetch Requests: 957545
L1D ROI Sum of L1D PQ occupancy: 6052762
L1D PREFETCHES PUSHED FROM L2C: 0
L1I TOTAL     ACCESS:    6801138  HIT:    4301972  MISS:    2499166  HIT %:    63.2537  MISS %:    36.7463   MPKI: 49.9833
L1I LOAD INSTRUCTION	ACCESS:    6299831  HIT:    3800665  MISS:    2499166  HIT %:    60.3296  MISS %:    39.6704  MPKI: 49.9833
L1I PREFETCH INSTRUCTION	ACCESS:     501307  HIT:     501307  MISS:          0  HIT %:        100  MISS %:          0  MPKI: 0

L1I PREFETCH  REQUESTED:    1050829  ISSUED:    1050829  USEFUL:          0  USELESS:          0
L1I USEFUL LOAD PREFETCHES:          0 PREFETCH ISSUED TO LOWER LEVEL:          0  ACCURACY: -nan
 TIMELY PREFETCHES:          0 LATE PREFETCHES: 0 DROPPED PREFETCHES: 0
L1I AVERAGE MISS LATENCY: 17.3755 cycles
L1I RQ	ACCESS:    9442095	FORWARD:          0	MERGED:    2965954	TO_CACHE:    6476141
L1I PQ	ACCESS:    1050829	FORWARD:          0	MERGED:     313210	TO_CACHE:     737619

L1BTB TOTAL     ACCESS:    5848308  HIT:    2467092  MISS:    3381216  HIT %:    42.1847  MISS %:    57.8153   MPKI: 67.6243
L1BTB BRANCH_DIRECT_JUMP	ACCESS:     590732 HIT:     199714 MISS:     391018 AVERAGE STALL: 36.0846 AVERAGE FETCH STALL: 19.0525 AVERAGE FETCH QUEUE STALL: 8.41962 AVERAGE DECODE STALL: 7.7701 AVERAGE EXECUTE STALL: 3.15891e+14
L1BTB BRANCH_INDIRECT	ACCESS:     172946 HIT:      57157 MISS:     115789 AVERAGE STALL: 100.4 AVERAGE FETCH STALL: 14.4524 AVERAGE FETCH QUEUE STALL: 9.91217 AVERAGE DECODE STALL: 9.18919 AVERAGE EXECUTE STALL: 65.9163
L1BTB BRANCH_CONDITIONAL	ACCESS:    3000586 HIT:    1794280 MISS:    1206306 AVERAGE STALL: 36.6747 AVERAGE FETCH STALL: 21.981 AVERAGE FETCH QUEUE STALL: 6.98553 AVERAGE DECODE STALL: 6.965 AVERAGE EXECUTE STALL: 1.14046e+14
L1BTB BRANCH_DIRECT_CALL	ACCESS:     882987 HIT:     107931 MISS:     775056 AVERAGE STALL: 37.4348 AVERAGE FETCH STALL: 21.7844 AVERAGE FETCH QUEUE STALL: 7.68883 AVERAGE DECODE STALL: 7.20881 AVERAGE EXECUTE STALL: 1.03339e+14
L1BTB BRANCH_INDIRECT_CALL	ACCESS:     159039 HIT:      20137 MISS:     138902 AVERAGE STALL: 117.312 AVERAGE FETCH STALL: 18.3992 AVERAGE FETCH QUEUE STALL: 6.45896 AVERAGE DECODE STALL: 6.88534 AVERAGE EXECUTE STALL: 85.052
L1BTB BRANCH_RETURN	ACCESS:    1042018 HIT:     287873 MISS:     754145 AVERAGE STALL: 37.2351 AVERAGE FETCH STALL: 19.1975 AVERAGE FETCH QUEUE STALL: 6.72699 AVERAGE DECODE STALL: 6.67898 AVERAGE EXECUTE STALL: 1.7594e+14
L1BTB BRANCH_OTHER ACCESS:          0 HIT:          0 MISS:          0 AVERAGE STALL: -nan AVERAGE FETCH STALL: -nan AVERAGE FETCH QUEUE STALL: -nan AVERAGE DECODE STALL: -nan AVERAGE EXECUTE STALL: -nan
L1BTB TOTAL ROB OCCUPANCY AT BTB MISS: 16.1621

L2BTB TOTAL     ACCESS:    3355887  HIT:    2812399  MISS:     543488  HIT %:    83.8049  MISS %:    16.1951   MPKI: 10.8698
L2BTB BRANCH_DIRECT_JUMP	ACCESS:     385920 HIT:     332599 MISS:      53321 AVERAGE STALL: 36.0846 AVERAGE FETCH STALL: 19.0525 AVERAGE FETCH QUEUE STALL: 8.41962 AVERAGE DECODE STALL: 7.7701 AVERAGE EXECUTE STALL: 3.15891e+14
L2BTB BRANCH_INDIRECT	ACCESS:     106000 HIT:      96353 MISS:       9647 AVERAGE STALL: 100.4 AVERAGE FETCH STALL: 14.4524 AVERAGE FETCH QUEUE STALL: 9.91217 AVERAGE DECODE STALL: 9.18919 AVERAGE EXECUTE STALL: 65.9163
L2BTB BRANCH_CONDITIONAL	ACCESS:    1206306 HIT:    1043338 MISS:     162968 AVERAGE STALL: 36.6747 AVERAGE FETCH STALL: 21.981 AVERAGE FETCH QUEUE STALL: 6.98553 AVERAGE DECODE STALL: 6.965 AVERAGE EXECUTE STALL: 1.14046e+14
L2BTB BRANCH_DIRECT_CALL	ACCESS:     775056 HIT:     596497 MISS:     178559 AVERAGE STALL: 37.4348 AVERAGE FETCH STALL: 21.7844 AVERAGE FETCH QUEUE STALL: 7.68883 AVERAGE DECODE STALL: 7.20881 AVERAGE EXECUTE STALL: 1.03339e+14
L2BTB BRANCH_INDIRECT_CALL	ACCESS:     129468 HIT:      94372 MISS:      35096 AVERAGE STALL: 117.312 AVERAGE FETCH STALL: 18.3992 AVERAGE FETCH QUEUE STALL: 6.45896 AVERAGE DECODE STALL: 6.88534 AVERAGE EXECUTE STALL: 85.052
L2BTB BRANCH_RETURN	ACCESS:     753137 HIT:     649240 MISS:     103897 AVERAGE STALL: 37.2351 AVERAGE FETCH STALL: 19.1975 AVERAGE FETCH QUEUE STALL: 6.72699 AVERAGE DECODE STALL: 6.67898 AVERAGE EXECUTE STALL: 1.7594e+14
L2BTB BRANCH_OTHER ACCESS:          0 HIT:          0 MISS:          0 AVERAGE STALL: -nan AVERAGE FETCH STALL: -nan AVERAGE FETCH QUEUE STALL: -nan AVERAGE DECODE STALL: -nan AVERAGE EXECUTE STALL: -nan
L2BTB TOTAL ROB OCCUPANCY AT BTB MISS: 100.55

L2C TOTAL     ACCESS:    4158466  HIT:    3671710  MISS:     486756  HIT %:    88.2948  MISS %:    11.7052   MPKI: 9.73512
L2C LOAD INSTRUCTION	ACCESS:    2499166  HIT:    2259816  MISS:     239350  HIT %:    90.4228  MISS %:    9.57719  MPKI: 4.787
L2C LOAD TRANSLATION INSTRUCTION	ACCESS:        518  HIT:        200  MISS:        318  HIT %:      38.61  MISS %:      61.39  MPKI: 0.00636
L2C LOAD DATA	ACCESS:     682233  HIT:     590238  MISS:      91995  HIT %:    86.5156  MISS %:    13.4844  MPKI: 1.8399
L2C RFO DATA	ACCESS:     275363  HIT:     223699  MISS:      51664  HIT %:    81.2379  MISS %:    18.7621  MPKI: 1.03328
L2C PREFETCH DATA	ACCESS:     219030  HIT:     128474  MISS:      90556  HIT %:    58.6559  MISS %:    41.3441  MPKI: 1.81112
L2C WRITEBACK DATA	ACCESS:     479426  HIT:     468689  MISS:      10737  HIT %:    97.7604  MISS %:    2.23955  MPKI: 0.21474
L2C LOAD TRANSLATION DATA	ACCESS:       2637  HIT:        559  MISS:       2078  HIT %:    21.1983  MISS %:    78.8017  MPKI: 0.04156
L2C TRANSLATION FROM L1D PREFETCHER DATA	ACCESS:         93  HIT:         35  MISS:         58  HIT %:    37.6344  MISS %:    62.3656  MPKI: 0.00116

L2C PREFETCH  REQUESTED:      99924  ISSUED:      99924  USEFUL:      10433  USELESS:      80610
L2C USEFUL LOAD PREFETCHES:      10433 PREFETCH ISSUED TO LOWER LEVEL:      91096  ACCURACY: 11.4528
 TIMELY PREFETCHES:      10433 LATE PREFETCHES: 540 DROPPED PREFETCHES: 0
L2C AVERAGE MISS LATENCY: 42.251 cycles
L2C RQ	ACCESS:    3460227	FORWARD:          0	MERGED:          0	TO_CACHE:    3460011
L2C WQ	ACCESS:     479426	FORWARD:        217	MERGED:          0	TO_CACHE:     479426
L2C PQ	ACCESS:     228657	FORWARD:          0	MERGED:       3572	TO_CACHE:     225084

L2C Dense regions hint from L2: 0
PSCL5 TOTAL     ACCESS:       5818  HIT:       2909  MISS:       2909  HIT %:         50  MISS %:         50   MPKI: 0.05818
PSCL5 LOAD TRANSLATION INSTRUCTION	ACCESS:       5652  HIT:       2826  MISS:       2826  HIT %:         50  MISS %:         50  MPKI: 0.05652
PSCL5 TRANSLATION FROM L1D PREFETCHER INSTRUCTION	ACCESS:        166  HIT:         83  MISS:         83  HIT %:         50  MISS %:         50  MPKI: 0.00166


PSCL4 TOTAL     ACCESS:       5395  HIT:       2690  MISS:       2705  HIT %:     49.861  MISS %:     50.139   MPKI: 0.0541
PSCL4 LOAD TRANSLATION INSTRUCTION	ACCESS:       2764  HIT:       2607  MISS:        157  HIT %:    94.3198  MISS %:    5.68017  MPKI: 0.00314
PSCL4 TRANSLATION FROM L1D PREFETCHER INSTRUCTION	ACCESS:         83  HIT:         83  MISS:          0  HIT %:        100  MISS %:          0  MPKI: 0
PSCL4 LOAD TRANSLATION DATA	ACCESS:       2465  HIT:          0  MISS:       2465  HIT %:          0  MISS %:        100  MPKI: 0.0493
PSCL4 TRANSLATION FROM L1D PREFETCHER DATA	ACCESS:         83  HIT:          0  MISS:         83  HIT %:          0  MISS %:        100  MPKI: 0.00166


PSCL3 TOTAL     ACCESS:       5695  HIT:       2840  MISS:       2855  HIT %:    49.8683  MISS %:    50.1317   MPKI: 0.0571
PSCL3 LOAD TRANSLATION INSTRUCTION	ACCESS:       2914  HIT:       2757  MISS:        157  HIT %:    94.6122  MISS %:    5.38778  MPKI: 0.00314
PSCL3 TRANSLATION FROM L1D PREFETCHER INSTRUCTION	ACCESS:         83  HIT:         83  MISS:          0  HIT %:        100  MISS %:          0  MPKI: 0
PSCL3 LOAD TRANSLATION DATA	ACCESS:       2615  HIT:          0  MISS:       2615  HIT %:          0  MISS %:        100  MPKI: 0.0523
PSCL3 TRANSLATION FROM L1D PREFETCHER DATA	ACCESS:         83  HIT:          0  MISS:         83  HIT %:          0  MISS %:        100  MPKI: 0.00166


PSCL2 TOTAL     ACCESS:       5500  HIT:       2599  MISS:       2901  HIT %:    47.2545  MISS %:    52.7455   MPKI: 0.05802
PSCL2 LOAD TRANSLATION INSTRUCTION	ACCESS:       2969  HIT:       2526  MISS:        443  HIT %:    85.0792  MISS %:    14.9208  MPKI: 0.00886
PSCL2 TRANSLATION FROM L1D PREFETCHER INSTRUCTION	ACCESS:         73  HIT:         73  MISS:          0  HIT %:        100  MISS %:          0  MPKI: 0
PSCL2 LOAD TRANSLATION DATA	ACCESS:       2385  HIT:          0  MISS:       2385  HIT %:          0  MISS %:        100  MPKI: 0.0477
PSCL2 TRANSLATION FROM L1D PREFETCHER DATA	ACCESS:         73  HIT:          0  MISS:         73  HIT %:          0  MISS %:        100  MPKI: 0.00146


LLC TOTAL     ACCESS:     552994  HIT:     513833  MISS:      39161  HIT %:    92.9184  MISS %:    7.08163   MPKI: 0.78322
LLC LOAD INSTRUCTION	ACCESS:     239350  HIT:     238086  MISS:       1264  HIT %:    99.4719  MISS %:   0.528097  MPKI: 0.02528
LLC LOAD TRANSLATION INSTRUCTION	ACCESS:        318  HIT:        271  MISS:         47  HIT %:    85.2201  MISS %:    14.7799  MPKI: 0.00094
LLC LOAD DATA	ACCESS:      91462  HIT:      86613  MISS:       4849  HIT %:    94.6983  MISS %:    5.30166  MPKI: 0.09698
LLC RFO DATA	ACCESS:      51648  HIT:      32695  MISS:      18953  HIT %:    63.3035  MISS %:    36.6965  MPKI: 0.37906
LLC PREFETCH DATA	ACCESS:      91095  HIT:      77593  MISS:      13502  HIT %:    85.1781  MISS %:    14.8219  MPKI: 0.27004
LLC WRITEBACK DATA	ACCESS:      76985  HIT:      76561  MISS:        424  HIT %:    99.4492  MISS %:   0.550757  MPKI: 0.00848
LLC LOAD TRANSLATION DATA	ACCESS:       2078  HIT:       1958  MISS:        120  HIT %:    94.2252  MISS %:    5.77478  MPKI: 0.0024
LLC TRANSLATION FROM L1D PREFETCHER DATA	ACCESS:         58  HIT:         56  MISS:          2  HIT %:    96.5517  MISS %:    3.44828  MPKI: 4e-05

LLC AVERAGE MISS LATENCY: 159.567 cycles
LLC RQ	ACCESS:     384923	FORWARD:          0	MERGED:          0	TO_CACHE:     384914
LLC WQ	ACCESS:      76985	FORWARD:         10	MERGED:          0	TO_CACHE:      76985
LLC PQ	ACCESS:      91096	FORWARD:          0	MERGED:          0	TO_CACHE:      91095

LLC Dense regions hint to LLC: 0

RAW hits: 1632446
Loads Generated: 12452781
Loads sent to L1D: 10820335
Stores Generated: 6762961
Stores sent to L1D: 6762968
Major fault: 0 Minor fault: 2610
Allocated PAGES: 2610

stream: 
stream:times selected: 1488869
stream:pref_filled: 128339
stream:pref_useful: 30334
stream:pref_late: 10778
stream:misses: 13267
stream:misses_by_poll: 0

CS: 
CS:times selected: 237565
CS:pref_filled: 87752
CS:pref_useful: 62683
CS:pref_late: 10832
CS:misses: 29007
CS:misses_by_poll: 4

CPLX: 
CPLX:times selected: 1249119
CPLX:pref_filled: 29022
CPLX:pref_useful: 9456
CPLX:pref_late: 5101
CPLX:misses: 149775
CPLX:misses_by_poll: 5

NL_L1: 
NL:times selected: 29157
NL:pref_filled: 2150
NL:pref_useful: 1057
NL:pref_late: 718
NL:misses: 3906
NL:misses_by_poll: 0

total selections: 3004710
total_filled: 110629
total_useful: 56670
total_late: 30667
total_polluted: 9
total_misses_after_warmup: 734866
conflicts: 5340144

test: 175563

DRAM Statistics
 CHANNEL 0
 RQ ROW_BUFFER_HIT:      13659  ROW_BUFFER_MISS:      25072
 DBUS_CONGESTED:          4
 WQ ROW_BUFFER_HIT:       2150  ROW_BUFFER_MISS:      18484  FULL:          0

 AVG_CONGESTED_CYCLE: 5

CPU 0 Branch Prediction Accuracy: 99.7585% MPKI: 0.44248 Average ROB Occupancy at Mispredict: 144.453
Branch types
NOT_BRANCH: 40840072 81.6801%
BRANCH_DIRECT_JUMP: 590732 1.18146%
BRANCH_INDIRECT: 172946 0.345892%
BRANCH_CONDITIONAL: 6311788 12.6236%
BRANCH_DIRECT_CALL: 882987 1.76597%
BRANCH_INDIRECT_CALL: 159039 0.318078%
BRANCH_RETURN: 1042018 2.08404%
BRANCH_OTHER: 0 0%

DRAM PAGES: 1048576
Allocated PAGES: 2610
Average_ROB_Occupancy: 132.137
Average_Decode_Occupancy: 16.1091
Average_FTQ_Occupancy: 7.25224
Indirect max targets: 14 Average targets: 1.17197
Branch_type:  BRANCH_DIRECT_JUMP:  Count Percentage: 10.3882 5.72464 3.62127 9.64659 4.0795 2.24581 1.42889 62.8651 
Branch_type:  BRANCH_INDIRECT:  Count Percentage: 0.0101631 1.16178 9.19758 10.6721 3.53443 2.94497 3.14678 69.3322 
Branch_type:  BRANCH_CONDITIONAL:  Count Percentage: 30.1054 3.09706 1.38659 4.4383 2.04893 1.95797 0.999229 55.9666 
Branch_type:  BRANCH_DIRECT_CALL:  Count Percentage: 0.830484 1.28119 0.595565 4.36291 2.12054 2.19903 1.0544 87.5559 
Branch_type:  BRANCH_INDIRECT_CALL:  Count Percentage: 8.72097 0 2.97619 0.000939355 0 2.18619 3.39326 82.7224 
Branch_type:  BRANCH_RETURN:  Count Percentage: 8.41814 1.20196 1.1807 4.02829 3.56168 3.35822 1.42411 76.8269 
Branch_type:  BRANCH_DIRECT_JUMP:  Total Count: 122305 67399 42635 113574 48030 26441 16823 740142 
Branch_type:  BRANCH_INDIRECT:  Total Count: 35 4001 31675 36753 12172 10142 10837 238769 
Branch_type:  BRANCH_CONDITIONAL:  Total Count: 3795871 390497 174830 559608 258342 246873 125989 7056615 
Branch_type:  BRANCH_DIRECT_CALL:  Total Count: 14717 22704 10554 77315 37578 38969 18685 1551577 
Branch_type:  BRANCH_INDIRECT_CALL:  Total Count: 27852 0 9505 3 0 6982 10837 264189 
Branch_type:  BRANCH_RETURN:  Total Count: 176135 25149 24704 84285 74522 70265 29797 1607469 
Number of unique branch instructions: 10677
Upper 32 bits: 
aaaa
ffff
ffff0000
Unique upper 32 bits: 3
Unique upper 36 bits: 3
Unique upper 40 bits: 5
Unique upper 44 bits: 32
Unique upper 48 bits: 158
Variant_0 : 985 0.320638
Variant_1 : 2083 0.67806
Variant_2 : 0 0
Variant_3 : 0 0
Offset_3 4406
Offset_4 261
Offset_5 487
Offset_6 539
Offset_7 638
Offset_8 578
Offset_9 511
Offset_10 404
Offset_11 343
Offset_12 311
Offset_13 246
Offset_14 247
Offset_15 199
Offset_16 228
Offset_17 166
Offset_18 144
Offset_19 258
Offset_20 144
Offset_21 239
Offset_22 410
Offset_23 241
Offset_24 352
Offset_25 117
Offset_47 94
Offset_64 2
decode_dispatch_called: 20000927 44.586
Dispatch_width: 0 9696384 48.4797 21.6151
Dispatch_width: 1 579585 2.89779 1.29201
Dispatch_width: 2 710998 3.55483 1.58495
Dispatch_width: 3 454261 2.2712 1.01264
Dispatch_width: 4 2214918 11.0741 4.93749
Dispatch_width: 5 293056 1.46521 0.653279
Dispatch_width: 6 6051725 30.2572 13.4905
Empty_decode_cycles: 24858303 55.414
ROB_full_cycles: 3120279 6.95571
Starvation_cycles_per_kilo_instr: 356.872
Starvation_cycles_per_kilo_instr_3: 331.793
Starvation_cycles_per_kilo_instr_0: 314.344
Branch_type_1  (3,1)  (4,10)  (5,38)  (6,72)  (7,124)  (8,153)  (9,134)  (10,99)  (11,77)  (12,48)  (13,12)  (14,2)  (15,3)  (16,4)  (18,1)  (19,5)  (20,2)  (21,1)  (22,3)  (23,2)  (24,10)  (25,12)  (64,1) 
Branch_type_2  (3,1)  (4,1)  (5,1)  (8,3)  (9,4)  (10,1)  (12,1)  (13,1)  (14,1)  (16,3)  (17,2)  (20,2)  (21,2)  (23,5)  (24,1)  (47,43) 
Branch_type_3  (3,4404)  (4,250)  (5,444)  (6,451)  (7,483)  (8,356)  (9,279)  (10,165)  (11,131)  (12,58)  (13,11)  (64,1) 
Branch_type_4  (6,3)  (7,8)  (8,25)  (9,56)  (10,66)  (11,69)  (12,114)  (13,104)  (14,113)  (15,94)  (16,100)  (17,76)  (18,61)  (19,126)  (20,73)  (21,127)  (22,215)  (23,136)  (24,206)  (25,101) 
Branch_type_5  (8,3)  (9,1)  (10,4)  (11,5)  (12,3)  (13,14)  (14,16)  (15,11)  (16,22)  (17,11)  (18,23)  (19,14)  (20,11)  (21,13)  (22,43)  (23,26)  (24,38) 
Branch_type_6  (5,4)  (6,13)  (7,23)  (8,38)  (9,37)  (10,69)  (11,61)  (12,87)  (13,104)  (14,115)  (15,91)  (16,99)  (17,77)  (18,59)  (19,113)  (20,56)  (21,96)  (22,149)  (23,72)  (24,97)  (25,4)  (47,51) 
Unique trigger count: 
Variant_0_evicts_0 : 0
Variant_0_evicts_1 : 0
Variant_0_evicts_2 : 0
Variant_0_evicts_3 : 0
Variant_1_evicts_0 : 0
Variant_1_evicts_1 : 0
Variant_1_evicts_2 : 0
Variant_1_evicts_3 : 0
Variant_2_evicts_0 : 0
Variant_2_evicts_1 : 0
Variant_2_evicts_2 : 0
Variant_2_evicts_3 : 0
Variant_3_evicts_0 : 0
Variant_3_evicts_1 : 0
Variant_3_evicts_2 : 0
Variant_3_evicts_3 : 0
BTB PER SET UNIQUE ADDR: 13 21 10 18 21 19 16 16 10 18 12 24 24 16 19 16 14 12 20 17 21 14 17 17 17 20 17 19 19 18 13 18 19 8 15 15 18 16 12 15 14 17 17 20 17 13 20 12 20 15 24 13 19 16 17 8 14 13 17 19 15 22 22 16 18 20 17 15 22 21 13 17 26 14 11 8 10 17 14 21 21 9 20 20 22 16 15 18 15 31 15 14 19 15 11 23 12 13 24 20 28 27 20 18 21 12 17 20 12 15 13 25 22 16 15 13 19 21 19 19 20 15 16 12 16 14 11 17 24 13 12 22 18 17 14 18 12 21 15 25 15 25 20 17 20 18 18 14 11 16 17 20 15 15 14 25 20 20 20 18 14 18 16 21 17 18 18 15 19 14 16 19 17 20 16 14 14 13 16 23 14 16 13 18 24 22 10 19 15 12 21 15 13 17 15 15 15 23 15 17 24 19 13 18 12 18 19 19 15 18 15 24 16 20 16 20 14 21 12 24 14 17 12 16 17 14 15 19 11 22 14 10 14 21 22 23 19 16 18 12 18 17 20 17 13 16 16 23 16 16 24 17 15 13 21 16 14 14 13 13 16 13 8 17 17 14 13 16 16 15 13 19 12 11 10 15 18 14 15 16 8 20 10 17 18 15 14 25 23 20 15 10 17 22 11 20 16 15 15 18 14 16 10 26 17 24 18 19 21 16 17 20 14 32 16 10 22 12 17 23 16 18 11 17 15 21 14 8 16 11 12 22 17 16 18 23 18 16 13 31 15 19 14 21 21 21 12 13 15 16 15 15 12 19 14 23 18 17 15 16 16 22 9 25 16 22 11 19 15 21 19 14 21 20 13 23 19 25 14 16 15 15 13 14 14 17 16 23 19 15 26 11 22 23 11 17 15 13 18 17 17 19 18 22 18 23 17 17 18 20 15 12 13 18 14 16 17 21 25 20 17 19 15 20 20 20 19 17 19 17 23 15 14 16 23 20 22 11 17 16 17 18 17 23 31 13 14 19 24 20 21 29 22 13 18 30 20 19 14 25 14 15 11 19 24 11 14 19 22 19 20 17 17 14 20 25 14 24 13 17 23 23 15 18 14 20 21 29 23 18 17 20 15 13 14 13 25 21 16 18 16 23 16 23 18 17 17 27 21 21 15 26 16 16 14 22 16 23 11 14 14 16 20 13 21 21 21 13 11 23 20 21 22 15 16 23 15 17 22 19 17 13 16 18 21 21 9 19 14 20 17 22 17 13 16 17 16 18 18 25 20 26 19 13 21 19 9 26 18 24 18 20 21 26 18 24 19 22 17 14 16 23 11 16 20 23 13 15 26 16 15 19 16 12 22 16 13 18 18 14 19 18 16 11 21 17 27 13 15 21 21 19 16 14 8 25 14 21 15 18 22 19 11 12 14 25 13 24 17 22 12 21 19 20 18 23 19 23 12 20 19 18 20 24 19 19 18 19 26 16 13 17 12 14 18 12 15 23 18 18 14 10 22 24 13 20 13 16 10 16 20 17 16 17 30 15 20 18 19 23 19 15 16 19 17 15 19 21 21 26 13 22 19 12 11 19 13 22 17 22 12 16 23 21 14 17 14 15 16 13 16 19 15 16 15 16 23 16 16 22 17 15 16 16 16 16 18 16 18 14 20 15 15 14 14 16 18 19 30 17 16 14 15 12 21 19 16 17 20 13 21 19 19 14 15 16 22 17 14 12 14 11 11 19 20 20 14 20 13 21 17 26 14 15 15 11 22 18 19 22 14 19 21 14 17 18 12 22 13 11 14 9 20 21 15 27 18 11 26 15 29 18 26 21 28 17 18 13 17 15 19 24 28 24 15 24 23 24 11 24 20 16 13 18 21 13 14 17 17 19 19 18 20 19 10 23 16 19 23 15 20 18 15 13 13 19 19 21 20 18 17 13 12 18 19 23 20 20 20 19 17 18 14 18 20 11 20 14 23 14 18 17 22 16 19 7 18 16 16 19 22 8 20 20 17 20 20 15 16 15 23 14 17 14 18 21 22 16 12 16 17 17 15 20 12 21 18 18 14 25 17 18 17 19 14 17 31 18 17 18 16 17 12 18 16 13 9 20 17 13 24 24 20 16 17 23 17 13 22 17 12 21 19 20 15 19 19 22 15 13 15 20 16 21 15 16 18 21 23 14 24 19 19 23 23 17 18 22 11 15 17 21 19 15 19 17 21 24 21 29 18 25 23 16 18 22 29 15 19 19 18 21 24 18 18 13 17 18 22 15 20 24 14 22 17 21 9 24 17 15 19 18 17 14 12 14 9 15 9 14 18 26 13 13 
BTB PER SET COUNT: 1774 1254 1976 861 1838 1194 1670 662 935 1021 397 1156 1433 1114 980 517 906 2502 1077 776 1366 922 816 1017 792 1435 696 1204 1564 1199 389 864 1151 231 812 808 851 803 573 1308 517 985 773 1548 1986 590 839 757 1388 478 1533 860 918 770 1120 365 513 819 796 1279 658 2269 1317 1011 1183 1769 622 1827 1623 1731 1310 1221 2716 804 398 595 426 1436 685 1192 1831 196 1323 1326 1067 662 369 1331 1622 2504 539 515 1251 1205 224 1213 665 412 1275 2577 2391 1871 838 718 2286 346 1221 986 1642 757 750 1684 2381 877 1067 996 1133 1383 1478 1472 1607 742 1223 416 477 436 409 1442 2071 1136 789 2509 1090 912 1215 1154 809 969 684 1403 956 1489 1214 675 854 853 1215 661 467 1099 926 748 1149 808 470 1915 1875 1205 1040 1201 547 1045 1285 932 519 1505 717 576 1229 1301 558 875 1055 898 1158 620 448 570 1357 2112 1130 700 516 1040 1490 1451 304 942 1045 1023 1300 742 428 1312 722 553 686 1762 560 661 1303 963 1302 874 662 1335 852 873 1196 1424 1119 938 631 4481 1049 1335 870 1600 640 1483 775 1046 643 868 1017 1185 867 1307 542 1666 611 311 630 1131 1264 11118 924 967 1267 364 2654 1162 1652 1414 873 604 999 1393 784 1098 1267 466 525 445 1514 1138 796 893 720 579 918 528 204 1420 878 508 580 842 1037 849 706 988 467 463 665 3076 1124 663 1014 1746 62 1368 587 1165 1052 1028 546 1429 1234 995 932 339 489 1439 521 1028 1434 715 821 1152 476 900 286 1929 755 1662 918 1662 1470 857 1107 1047 513 1642 2044 1359 1316 919 1168 1859 1031 2500 307 734 409 1706 751 402 1170 357 483 1708 1233 557 781 1463 772 1141 805 2487 729 1658 1013 1298 1688 1240 653 877 540 1205 677 834 576 1454 511 1080 852 1054 528 749 853 1220 415 1850 714 1703 376 1075 778 1317 1982 699 1270 1666 209 1702 815 1279 783 1473 1174 886 324 500 673 593 1283 1533 580 716 1567 390 1345 1750 511 703 860 864 1287 1784 1220 893 1324 1025 909 1347 666 1146 729 1816 589 267 523 1195 643 806 1035 4155 1857 1177 731 593 1136 1327 885 1217 1437 965 948 604 1946 729 334 1410 1783 1545 1261 733 1017 911 1336 1132 931 1677 2192 981 1252 1137 1858 1438 1302 3121 1301 703 1140 1915 1194 862 1743 1893 801 697 553 1263 2166 751 6391 964 1481 1169 1123 945 868 718 893 1724 824 2016 760 853 1828 1609 871 964 1080 1020 1333 1995 2338 1148 1189 1165 5197 538 285 1164 2005 1363 1009 759 635 1490 834 1894 1136 488 849 1899 1621 1014 951 2781 1423 1476 591 1655 1271 1487 504 555 415 1025 991 352 1308 1435 1327 1156 716 2994 1829 1252 1061 809 1046 1554 654 2241 1422 1215 968 647 833 1068 1030 1344 34 1251 785 1416 775 1231 1004 743 845 478 981 746 1025 1308 603 1771 760 732 1622 860 464 1718 1274 1604 1585 1328 1151 1523 981 1323 1192 1402 768 758 686 1413 437 2122 917 1210 479 633 1960 644 710 1257 730 501 935 974 282 1155 1185 703 638 1287 1156 618 1292 979 1886 1278 483 911 1678 1596 742 373 304 1812 352 1315 1232 924 1735 764 457 723 678 1411 585 2798 668 1389 322 1371 1528 1199 680 1333 1523 957 677 906 1342 1022 1261 1403 1693 1496 892 1191 2274 611 533 949 427 1030 2103 549 1124 1476 788 820 1039 243 1321 1437 7054 870 898 1074 933 1104 1088 802 1185 1169 2118 1424 1089 651 1276 1851 980 1128 1220 968 2210 776 1109 987 1505 1882 509 1706 1150 621 309 972 822 2091 1043 1125 631 895 1928 1383 542 1053 652 800 626 785 853 1161 1439 737 907 719 1692 748 695 1223 1255 1245 686 903 682 733 948 1005 886 1409 1632 993 1095 816 751 890 1327 1356 2468 522 1242 273 710 598 1556 1267 1174 629 1428 582 1457 781 1446 892 642 728 1117 1410 702 297 1003 474 242 1127 1439 1400 465 1328 261 1102 817 1485 629 1075 1007 518 1345 1050 772 1496 2424 1205 1444 582 964 1026 667 1120 469 339 644 751 1350 1337 760 1904 866 355 1327 1072 2035 842 2102 1567 1476 873 1578 774 1201 840 931 3913 1891 1577 793 1581 1150 2420 447 2370 1069 472 816 1006 2189 623 719 793 869 1747 956 1085 1221 1317 381 1989 912 959 1248 647 1340 1220 899 701 623 884 1053 1350 979 3505 1439 791 363 789 1260 1806 1648 1374 1627 989 1418 734 567 573 1800 499 1031 676 1280 653 1117 1100 1117 883 1056 9 1036 829 2886 1111 1419 114 923 908 989 1498 668 826 923 991 1643 1316 2692 566 612 1361 1854 870 813 951 1164 914 891 1791 559 1335 947 1637 763 1191 1250 1346 1211 1566 791 1228 2996 1309 855 830 932 1474 443 1217 783 856 56 1049 723 659 1631 1517 857 754 1059 2348 1140 792 1409 1279 452 1943 1264 1089 955 1271 1022 1398 612 810 790 1759 1395 1996 885 909 1137 1326 1233 633 1152 1114 1247 1030 1714 813 1550 1539 417 819 922 1667 756 567 1169 1071 1372 1400 1314 2061 1059 2564 1508 1131 841 1604 2305 879 1350 1420 1007 2325 1540 721 1050 792 813 1822 917 1070 1135 2036 968 1425 833 1094 332 1975 1210 508 1449 846 963 766 587 768 698 977 249 297 796 2385 588 752 
To predecode: 0
Predecoding something: 0
Predecode request dropped: 0
sizeofblock_0 0
sizeofblock_1 267024
sizeofblock_2 485608
sizeofblock_3 0
sizeofblock_4 0
sizeofblock_5 0
sizeofblock_6 0
sizeofblock_7 0
sizeofblock_8 0
Variant_0 Correct: 1181635 Incorrect: 0 Accuracy: 1
Variant_1 Correct: 4672055 Incorrect: 0 Accuracy: 1
Variant_2 Correct: 0 Incorrect: 0 Accuracy: -nan
Variant_3 Correct: 0 Incorrect: 0 Accuracy: -nan
