
*** ChampSim Multicore Out-of-Order Simulator ***

Warmup Instructions: 50000000
Simulation Instructions: 50000000
Number of CPUs: 1
LLC sets: 2048
LLC ways: 16
Off-chip DRAM Size: 4096 MB Channels: 1 Width: 64-bit Data Rate: 6400 MT/s
CPU 0 runs ./micro_traces/srv77.trace.gz
.gz
ITLB has LRU replacement policy
DTLB has LRU replacement policy
STLB has LRU replacement policy
CPU 0 L1I next line prefetcher
L1I has LRU replacement policy
L1D has LRU replacement policy
Initialize SRRIP state for L2C
Initialize DRRIP state for LLC
Heartbeat CPU 0 instructions: 10000000 cycles: 2796905 heartbeat IPC: 3.57538 cumulative IPC: 3.57538 (Simulation time: 0 hr 1 min 38 sec) 
Heartbeat CPU 0 instructions: 20000000 cycles: 5593182 heartbeat IPC: 3.57618 cumulative IPC: 3.57578 (Simulation time: 0 hr 3 min 17 sec) 
Heartbeat CPU 0 instructions: 30000001 cycles: 8390547 heartbeat IPC: 3.57479 cumulative IPC: 3.57545 (Simulation time: 0 hr 4 min 55 sec) 
Heartbeat CPU 0 instructions: 40000001 cycles: 11188038 heartbeat IPC: 3.57463 cumulative IPC: 3.57525 (Simulation time: 0 hr 6 min 32 sec) 
Heartbeat CPU 0 instructions: 50000000 cycles: 13985539 heartbeat IPC: 3.57462 cumulative IPC: 3.57512 (Simulation time: 0 hr 8 min 10 sec) 

Warmup complete CPU 0 instructions: 50000004 cycles: 13985540 (Simulation time: 0 hr 8 min 10 sec) 

Cycle: 20000000 FTQ IN: 57625659 FTQ occupancy: 17.8434 DECODE IN: 57625659 DECODE occupancy: 47.0335 ROB IN: 57625659 ROB occupancy: 296.082 ROB OUT: 57625534
Heartbeat CPU 0 instructions: 60000001 cycles: 21867615 heartbeat IPC: 1.2687 cumulative IPC: 1.2687 (Simulation time: 0 hr 9 min 38 sec) 
Heartbeat CPU 0 instructions: 70000002 cycles: 29854488 heartbeat IPC: 1.25205 cumulative IPC: 1.26032 (Simulation time: 0 hr 11 min 3 sec) 
Cycle: 30000000 FTQ IN: 12560127 FTQ occupancy: 6.00025 DECODE IN: 12559987 DECODE occupancy: 17.0212 ROB IN: 12559927 ROB occupancy: 173.401 ROB OUT: 12559700
Heartbeat CPU 0 instructions: 80000001 cycles: 37720110 heartbeat IPC: 1.27136 cumulative IPC: 1.26398 (Simulation time: 0 hr 12 min 27 sec) 
Cycle: 40000000 FTQ IN: 12707955 FTQ occupancy: 5.85645 DECODE IN: 12707951 DECODE occupancy: 16.9699 ROB IN: 12707951 ROB occupancy: 175.566 ROB OUT: 12707952
Heartbeat CPU 0 instructions: 90000001 cycles: 45568335 heartbeat IPC: 1.27417 cumulative IPC: 1.26651 (Simulation time: 0 hr 13 min 51 sec) 
Cycle: 50000000 FTQ IN: 12613190 FTQ occupancy: 6.01492 DECODE IN: 12613334 DECODE occupancy: 17.1575 ROB IN: 12613394 ROB occupancy: 175.516 ROB OUT: 12613574
Heartbeat CPU 0 instructions: 100000002 cycles: 53509932 heartbeat IPC: 1.25919 cumulative IPC: 1.26504 (Simulation time: 0 hr 15 min 14 sec) 
Finished CPU 0 instructions: 50000002 cycles: 39524393 cumulative IPC: 1.26504 (Simulation time: 0 hr 15 min 14 sec) 

ChampSim completed all CPUs

Region of Interest Statistics

CPU 0 cumulative IPC: 1.26504 instructions: 50000002 cycles: 39524393
 Fetch stage stalled: 66.6847  Sim cycles: 39524393 fetch stall cycle: 26356734
 Empty decode stage: 49.936  Sim cycles: 39524393 fetch stall cycle: 19736889
ITLB TOTAL     ACCESS:    7594086  HIT:    6980310  MISS:     613776  HIT %:    91.9177  MISS %:    8.08229   MPKI: 12.2755
ITLB LOAD TRANSLATION INSTRUCTION	ACCESS:    5832595  HIT:    5701445  MISS:     131150  HIT %:    97.7514  MISS %:    2.24857  MPKI: 2.623
ITLB TRANSLATION FROM L1D PREFETCHER INSTRUCTION	ACCESS:    1761491  HIT:    1278865  MISS:     482626  HIT %:    72.6013  MISS %:    27.3987  MPKI: 9.65252

ITLB AVERAGE MISS LATENCY: 116611 cycles
ITLB RQ	ACCESS:   11516779	FORWARD:          0	MERGED:    3770468	TO_CACHE:    7746311

DTLB TOTAL     ACCESS:    9107168  HIT:    8627820  MISS:     479348  HIT %:    94.7366  MISS %:    5.26341   MPKI: 9.58696
DTLB LOAD TRANSLATION DATA	ACCESS:    9107168  HIT:    8627820  MISS:     479348  HIT %:    94.7366  MISS %:    5.26341  MPKI: 9.58696

DTLB AVERAGE MISS LATENCY: 9.33393 cycles
DTLB RQ	ACCESS:   13453831	FORWARD:          0	MERGED:    4310975	TO_CACHE:    9142856

STLB TOTAL     ACCESS:    1339065  HIT:    1336937  MISS:       2128  HIT %:    99.8411  MISS %:   0.158917   MPKI: 0.04256
STLB LOAD TRANSLATION INSTRUCTION	ACCESS:     128884  HIT:     128738  MISS:        146  HIT %:    99.8867  MISS %:    0.11328  MPKI: 0.00292
STLB TRANSLATION FROM L1D PREFETCHER INSTRUCTION	ACCESS:     484892  HIT:     484791  MISS:        101  HIT %:    99.9792  MISS %:  0.0208294  MPKI: 0.00202
STLB LOAD TRANSLATION DATA	ACCESS:     479347  HIT:     477501  MISS:       1846  HIT %:    99.6149  MISS %:   0.385107  MPKI: 0.03692
STLB TRANSLATION FROM L1D PREFETCHER DATA	ACCESS:     245942  HIT:     245907  MISS:         35  HIT %:    99.9858  MISS %:   0.014231  MPKI: 0.0007

STLB AVERAGE MISS LATENCY: 71.1429 cycles
STLB RQ	ACCESS:    1463050	FORWARD:          0	MERGED:     120772	TO_CACHE:    1342278

STLB Hit, L1D data hit: 0
STLB Hit, L2C data hit: 0
STLB Hit, LLC data hit: 0
STLB Hit, LLC data miss: 0
STLB STLB hints to L2: 0
L1D TOTAL     ACCESS:   13185300  HIT:   12055881  MISS:    1129419  HIT %:    91.4343  MISS %:    8.56574   MPKI: 22.5884
L1D LOAD DATA	ACCESS:    6643624  HIT:    5895513  MISS:     748111  HIT %:    88.7394  MISS %:    11.2606  MPKI: 14.9622
L1D RFO DATA	ACCESS:    6218840  HIT:    5931124  MISS:     287716  HIT %:    95.3735  MISS %:    4.62652  MPKI: 5.75432
L1D PREFETCH DATA	ACCESS:     322836  HIT:     229244  MISS:      93592  HIT %:    71.0094  MISS %:    28.9906  MPKI: 1.87184

L1D PREFETCH  REQUESTED:     733882  ISSUED:     733882  USEFUL:      33451  USELESS:      69739
L1D USEFUL LOAD PREFETCHES:      33451 PREFETCH ISSUED TO LOWER LEVEL:     103283  ACCURACY: 32.3877
 TIMELY PREFETCHES:      33451 LATE PREFETCHES: 9618 DROPPED PREFETCHES: 5
L1D AVERAGE MISS LATENCY: 294482 cycles
L1D RQ	ACCESS:   10747130	FORWARD:          0	MERGED:    3899704	TO_CACHE:    6682745
L1D WQ	ACCESS:    6959500	FORWARD:     165083	MERGED:     188414	TO_CACHE:    6771086
L1D PQ	ACCESS:     367142	FORWARD:          0	MERGED:          0	TO_CACHE:     366740

L1D UNIQUE REGIONS ACCESSED: 0
L1D REGIONS CONFLICTS: 0
L1D Cross Page Prefetch Requests: 6653
L1D Same Page Prefetch Requests: 745651
L1D ROI Sum of L1D PQ occupancy: 4662384
L1D PREFETCHES PUSHED FROM L2C: 0
L1I TOTAL     ACCESS:   11132598  HIT:    7483044  MISS:    3649554  HIT %:    67.2174  MISS %:    32.7826   MPKI: 72.9911
L1I LOAD INSTRUCTION	ACCESS:    6583691  HIT:    6002075  MISS:     581616  HIT %:    91.1658  MISS %:    8.83419  MPKI: 11.6323
L1I PREFETCH INSTRUCTION	ACCESS:    4548907  HIT:    1480969  MISS:    3067938  HIT %:    32.5566  MISS %:    67.4434  MPKI: 61.3588

L1I PREFETCH  REQUESTED:    5241054  ISSUED:    5240477  USEFUL:    2379130  USELESS:     775372
L1I USEFUL LOAD PREFETCHES:    2379130 PREFETCH ISSUED TO LOWER LEVEL:    3154473  ACCURACY: 75.4208
 TIMELY PREFETCHES:    2379130 LATE PREFETCHES: 86538 DROPPED PREFETCHES: 9690
L1I AVERAGE MISS LATENCY: 794904 cycles
L1I RQ	ACCESS:    9442976	FORWARD:          0	MERGED:    2816444	TO_CACHE:    6626532
L1I PQ	ACCESS:    5240477	FORWARD:          0	MERGED:     350230	TO_CACHE:    4890247

L1BTB TOTAL     ACCESS:    5671791  HIT:    2018299  MISS:    3653492  HIT %:    35.5849  MISS %:    64.4151   MPKI: 73.0698
L1BTB BRANCH_DIRECT_JUMP	ACCESS:     548050  HIT:     142384  MISS:     405666	AVERAGE STALL: 26.4031
L1BTB BRANCH_INDIRECT	ACCESS:     182320  HIT:      65402  MISS:     116918	AVERAGE STALL: 111.523
L1BTB BRANCH_CONDITIONAL	ACCESS:    2696687  HIT:    1395833  MISS:    1300854	AVERAGE STALL: 27.6968
L1BTB BRANCH_DIRECT_CALL	ACCESS:     949921  HIT:     104416  MISS:     845505	AVERAGE STALL: 28.369
L1BTB BRANCH_INDIRECT_CALL	ACCESS:     172450  HIT:      21031  MISS:     151419	AVERAGE STALL: 126.421
L1BTB BRANCH_RETURN	ACCESS:    1122363  HIT:     289233  MISS:     833130	AVERAGE STALL: 29.9079
L1BTB BRANCH_OTHER ACCESS:          0  HIT:          0  MISS:          0	AVERAGE STALL: -nan
L1BTB TOTAL ROB OCCUPANCY AT BTB MISS: 16.6849

L2BTB1 TOTAL     ACCESS:    3628235  HIT:    3220354  MISS:     407881  HIT %:    88.7581  MISS %:    11.2419   MPKI: 8.15762
L2BTB1 BRANCH_DIRECT_JUMP	ACCESS:     401607  HIT:     365041  MISS:      36566	AVERAGE STALL: 26.4031
L2BTB1 BRANCH_INDIRECT	ACCESS:     106571  HIT:      84040  MISS:      22531	AVERAGE STALL: 111.523
L2BTB1 BRANCH_CONDITIONAL	ACCESS:    1300854  HIT:    1192397  MISS:     108457	AVERAGE STALL: 27.6968
L2BTB1 BRANCH_DIRECT_CALL	ACCESS:     845505  HIT:     729991  MISS:     115514	AVERAGE STALL: 28.369
L2BTB1 BRANCH_INDIRECT_CALL	ACCESS:     141988  HIT:     117763  MISS:      24225	AVERAGE STALL: 126.421
L2BTB1 BRANCH_RETURN	ACCESS:     831710  HIT:     731122  MISS:     100588	AVERAGE STALL: 29.9079
L2BTB1 BRANCH_OTHER ACCESS:          0  HIT:          0  MISS:          0	AVERAGE STALL: -nan
L2BTB1 TOTAL ROB OCCUPANCY AT BTB MISS: 149.451

L2C TOTAL     ACCESS:    6645656  HIT:    5661918  MISS:     983738  HIT %:    85.1973  MISS %:    14.8027   MPKI: 19.6748
L2C LOAD INSTRUCTION	ACCESS:     495078  HIT:     395152  MISS:      99926  HIT %:    79.8161  MISS %:    20.1839  MPKI: 1.99852
L2C PREFETCH INSTRUCTION	ACCESS:    3154475  HIT:    2785704  MISS:     368771  HIT %:    88.3096  MISS %:    11.6904  MPKI: 7.37542
L2C LOAD TRANSLATION INSTRUCTION	ACCESS:        165  HIT:         49  MISS:        116  HIT %:     29.697  MISS %:     70.303  MPKI: 0.00232
L2C TRANSLATION FROM L1D PREFETCHER INSTRUCTION	ACCESS:       4258  HIT:       3952  MISS:        306  HIT %:    92.8135  MISS %:    7.18647  MPKI: 0.00612
L2C LOAD DATA	ACCESS:     738423  HIT:     591940  MISS:     146483  HIT %:    80.1627  MISS %:    19.8373  MPKI: 2.92966
L2C RFO DATA	ACCESS:     287628  HIT:     208039  MISS:      79589  HIT %:    72.3292  MISS %:    27.6708  MPKI: 1.59178
L2C PREFETCH DATA	ACCESS:    1436855  HIT:    1181827  MISS:     255028  HIT %:     82.251  MISS %:     17.749  MPKI: 5.10056
L2C WRITEBACK DATA	ACCESS:     526819  HIT:     494833  MISS:      31986  HIT %:    93.9285  MISS %:    6.07154  MPKI: 0.63972
L2C LOAD TRANSLATION DATA	ACCESS:       1905  HIT:        384  MISS:       1521  HIT %:    20.1575  MISS %:    79.8425  MPKI: 0.03042
L2C TRANSLATION FROM L1D PREFETCHER DATA	ACCESS:         50  HIT:         38  MISS:         12  HIT %:         76  MISS %:         24  MPKI: 0.00024

L2C PREFETCH  REQUESTED:    3267898  ISSUED:    3267898  USEFUL:      32191  USELESS:     594422
L2C USEFUL LOAD PREFETCHES:      32191 PREFETCH ISSUED TO LOWER LEVEL:     625515  ACCURACY: 5.14632
 TIMELY PREFETCHES:      32191 LATE PREFETCHES: 1714 DROPPED PREFETCHES: 0
L2C AVERAGE MISS LATENCY: 33.6319 cycles
L2C RQ	ACCESS:    1527595	FORWARD:          0	MERGED:          0	TO_CACHE:    1527507
L2C WQ	ACCESS:     526819	FORWARD:         88	MERGED:          0	TO_CACHE:     526819
L2C PQ	ACCESS:    6525654	FORWARD:          0	MERGED:    1914920	TO_CACHE:    4610734

L2C Dense regions hint from L2: 0
PSCL5 TOTAL     ACCESS:      10642  HIT:       5321  MISS:       5321  HIT %:         50  MISS %:         50   MPKI: 0.10642
PSCL5 LOAD TRANSLATION INSTRUCTION	ACCESS:       3966  HIT:       1983  MISS:       1983  HIT %:         50  MISS %:         50  MPKI: 0.03966
PSCL5 TRANSLATION FROM L1D PREFETCHER INSTRUCTION	ACCESS:       6676  HIT:       3338  MISS:       3338  HIT %:         50  MISS %:         50  MPKI: 0.06676


PSCL4 TOTAL     ACCESS:      10159  HIT:       5077  MISS:       5082  HIT %:    49.9754  MISS %:    50.0246   MPKI: 0.10164
PSCL4 LOAD TRANSLATION INSTRUCTION	ACCESS:       3528  HIT:       1851  MISS:       1677  HIT %:     52.466  MISS %:     47.534  MPKI: 0.03354
PSCL4 TRANSLATION FROM L1D PREFETCHER INSTRUCTION	ACCESS:       6412  HIT:       3226  MISS:       3186  HIT %:    50.3119  MISS %:    49.6881  MPKI: 0.06372
PSCL4 LOAD TRANSLATION DATA	ACCESS:        179  HIT:          0  MISS:        179  HIT %:          0  MISS %:        100  MPKI: 0.00358
PSCL4 TRANSLATION FROM L1D PREFETCHER DATA	ACCESS:         40  HIT:          0  MISS:         40  HIT %:          0  MISS %:        100  MPKI: 0.0008


PSCL3 TOTAL     ACCESS:      10339  HIT:       5167  MISS:       5172  HIT %:    49.9758  MISS %:    50.0242   MPKI: 0.10344
PSCL3 LOAD TRANSLATION INSTRUCTION	ACCESS:       3618  HIT:       1941  MISS:       1677  HIT %:    53.6484  MISS %:    46.3516  MPKI: 0.03354
PSCL3 TRANSLATION FROM L1D PREFETCHER INSTRUCTION	ACCESS:       6412  HIT:       3226  MISS:       3186  HIT %:    50.3119  MISS %:    49.6881  MPKI: 0.06372
PSCL3 LOAD TRANSLATION DATA	ACCESS:        269  HIT:          0  MISS:        269  HIT %:          0  MISS %:        100  MPKI: 0.00538
PSCL3 TRANSLATION FROM L1D PREFETCHER DATA	ACCESS:         40  HIT:          0  MISS:         40  HIT %:          0  MISS %:        100  MPKI: 0.0008


PSCL2 TOTAL     ACCESS:       8636  HIT:       4274  MISS:       4362  HIT %:    49.4905  MISS %:    50.5095   MPKI: 0.08724
PSCL2 LOAD TRANSLATION INSTRUCTION	ACCESS:       2062  HIT:       1906  MISS:        156  HIT %:    92.4345  MISS %:    7.56547  MPKI: 0.00312
PSCL2 TRANSLATION FROM L1D PREFETCHER INSTRUCTION	ACCESS:       4686  HIT:       2368  MISS:       2318  HIT %:    50.5335  MISS %:    49.4665  MPKI: 0.04636
PSCL2 LOAD TRANSLATION DATA	ACCESS:       1838  HIT:          0  MISS:       1838  HIT %:          0  MISS %:        100  MPKI: 0.03676
PSCL2 TRANSLATION FROM L1D PREFETCHER DATA	ACCESS:         50  HIT:          0  MISS:         50  HIT %:          0  MISS %:        100  MPKI: 0.001


LLC TOTAL     ACCESS:    1075207  HIT:    1046925  MISS:      28282  HIT %:    97.3696  MISS %:    2.63038   MPKI: 0.56564
LLC LOAD INSTRUCTION	ACCESS:      99102  HIT:      98858  MISS:        244  HIT %:    99.7538  MISS %:   0.246211  MPKI: 0.00488
LLC PREFETCH INSTRUCTION	ACCESS:     367335  HIT:     366871  MISS:        464  HIT %:    99.8737  MISS %:   0.126315  MPKI: 0.00928
LLC LOAD TRANSLATION INSTRUCTION	ACCESS:        116  HIT:        100  MISS:         16  HIT %:    86.2069  MISS %:    13.7931  MPKI: 0.00032
LLC TRANSLATION FROM L1D PREFETCHER INSTRUCTION	ACCESS:        306  HIT:        299  MISS:          7  HIT %:    97.7124  MISS %:    2.28758  MPKI: 0.00014
LLC LOAD DATA	ACCESS:     145606  HIT:     141964  MISS:       3642  HIT %:    97.4987  MISS %:    2.50127  MPKI: 0.07284
LLC RFO DATA	ACCESS:      79544  HIT:      66520  MISS:      13024  HIT %:    83.6267  MISS %:    16.3733  MPKI: 0.26048
LLC PREFETCH DATA	ACCESS:     258169  HIT:     247593  MISS:      10576  HIT %:    95.9035  MISS %:    4.09654  MPKI: 0.21152
LLC WRITEBACK DATA	ACCESS:     123496  HIT:     123264  MISS:        232  HIT %:    99.8121  MISS %:    0.18786  MPKI: 0.00464
LLC LOAD TRANSLATION DATA	ACCESS:       1521  HIT:       1444  MISS:         77  HIT %:    94.9375  MISS %:    5.06246  MPKI: 0.00154
LLC TRANSLATION FROM L1D PREFETCHER DATA	ACCESS:         12  HIT:         12  MISS:          0  HIT %:        100  MISS %:          0  MPKI: 0

LLC AVERAGE MISS LATENCY: 158.777 cycles
LLC RQ	ACCESS:     326239	FORWARD:          0	MERGED:          0	TO_CACHE:     326207
LLC WQ	ACCESS:     123496	FORWARD:         42	MERGED:          0	TO_CACHE:     123496
LLC PQ	ACCESS:     625515	FORWARD:          0	MERGED:          0	TO_CACHE:     625505

LLC Dense regions hint to LLC: 0

RAW hits: 1886966
Loads Generated: 12634096
Loads sent to L1D: 10747130
Stores Generated: 6959486
Stores sent to L1D: 6959500
Major fault: 0 Minor fault: 2564
Allocated PAGES: 2564
I-Shadow cache 408 bytes
Touched + WorthPF tables 12288 bytes 
MMA filter 174 bytes 
FNL filter 272 bytes 
TOTAL PREFETCHER STORAGE SIZE: 31318 bytes
CPU 0 L1I next line prefetcher final stats

stream: 
stream:times selected: 1176660
stream:pref_filled: 118940
stream:pref_useful: 21677
stream:pref_late: 7495
stream:misses: 8095
stream:misses_by_poll: 0

CS: 
CS:times selected: 176138
CS:pref_filled: 54420
CS:pref_useful: 31052
CS:pref_late: 13620
CS:misses: 22754
CS:misses_by_poll: 6

CPLX: 
CPLX:times selected: 999418
CPLX:pref_filled: 19579
CPLX:pref_useful: 4156
CPLX:pref_late: 3130
CPLX:misses: 95560
CPLX:misses_by_poll: 2

NL_L1: 
NL:times selected: 20579
NL:pref_filled: 606
NL:pref_useful: 262
NL:pref_late: 332
NL:misses: 1666
NL:misses_by_poll: 0

total selections: 2372795
total_filled: 93592
total_useful: 33451
total_late: 26173
total_polluted: 8
total_misses_after_warmup: 787232
conflicts: 5575566

test: 116686

DRAM Statistics
 CHANNEL 0
 RQ ROW_BUFFER_HIT:       9891  ROW_BUFFER_MISS:      18153
 DBUS_CONGESTED:          8
 WQ ROW_BUFFER_HIT:       1316  ROW_BUFFER_MISS:      12364  FULL:          0

 AVG_CONGESTED_CYCLE: 5

CPU 0 Branch Prediction Accuracy: 99.8277% MPKI: 0.31548 Average ROB Occupancy at Mispredict: 171.031
Branch types
NOT_BRANCH: 40845632 81.6913%
BRANCH_DIRECT_JUMP: 548050 1.0961%
BRANCH_INDIRECT: 182320 0.36464%
BRANCH_CONDITIONAL: 6179034 12.3581%
BRANCH_DIRECT_CALL: 949921 1.89984%
BRANCH_INDIRECT_CALL: 172450 0.3449%
BRANCH_RETURN: 1122363 2.24473%
BRANCH_OTHER: 0 0%

DRAM PAGES: 1048576
Allocated PAGES: 2564
Average_ROB_Occupancy: 176.041
Average_Decode_Occupancy: 17.0019
Average_FTQ_Occupancy: 5.93395
Indirect max targets: 14 Average targets: 1.14626
Branch_type:  BRANCH_DIRECT_JUMP:  Count Percentage: 2.87862 6.11381 4.39924 9.13358 1.69182 6.28894 0.976412 68.5176 
Branch_type:  BRANCH_INDIRECT:  Count Percentage: 11.756 3.42591 12.1686 7.97752 1.34242 1.20023 1.07996 61.0493 
Branch_type:  BRANCH_CONDITIONAL:  Count Percentage: 21.0876 3.59348 2.39948 5.5379 1.2072 4.57015 0.781627 60.8226 
Branch_type:  BRANCH_DIRECT_CALL:  Count Percentage: 0.256775 1.80254 1.4144 5.09573 2.15278 3.01344 0.774231 85.4901 
Branch_type:  BRANCH_INDIRECT_CALL:  Count Percentage: 9.55828 0.555893 2.99595 4.8374 0 4.01591 0 78.0366 
Branch_type:  BRANCH_RETURN:  Count Percentage: 3.6589 1.31396 2.89176 6.65045 2.86179 5.50667 1.41892 75.6976 
Branch_type:  BRANCH_DIRECT_JUMP:  Total Count: 31510 66923 48155 99978 18519 68840 10688 750007 
Branch_type:  BRANCH_INDIRECT:  Total Count: 42911 12505 44417 29119 4900 4381 3942 222838 
Branch_type:  BRANCH_CONDITIONAL:  Total Count: 2604530 443832 296360 683988 149102 564461 96539 7512217 
Branch_type:  BRANCH_DIRECT_CALL:  Total Count: 4863 34138 26787 96507 40771 57071 14663 1619079 
Branch_type:  BRANCH_INDIRECT_CALL:  Total Count: 32893 1913 10310 16647 0 13820 0 268548 
Branch_type:  BRANCH_RETURN:  Total Count: 81916 29417 64741 148891 64070 123284 31767 1694726 
Number of unique branch instructions: 9821
Upper 32 bits: 
aaaa
ffff
ffff0000
Unique upper 32 bits: 3
Unique upper 36 bits: 3
Unique upper 40 bits: 5
Unique upper 44 bits: 32
Unique upper 48 bits: 154
Offset_3 4036
Offset_4 250
Offset_5 451
Offset_6 502
Offset_7 573
Offset_8 505
Offset_9 462
Offset_10 378
Offset_11 305
Offset_12 271
Offset_13 199
Offset_14 227
Offset_15 193
Offset_16 222
Offset_17 142
Offset_18 118
Offset_19 234
Offset_20 136
Offset_21 235
Offset_22 391
Offset_23 243
Offset_24 324
Offset_25 88
Offset_47 80
decode_dispatch_called: 21772676 55.0867
Dispatch_width: 0 10802293 49.614 27.3307
Dispatch_width: 1 755599 3.4704 1.91173
Dispatch_width: 2 919216 4.22188 2.32569
Dispatch_width: 3 612795 2.81451 1.55042
Dispatch_width: 4 3066147 14.0825 7.75761
Dispatch_width: 5 396848 1.82269 1.00406
Dispatch_width: 6 5219778 23.974 13.2065
Empty_decode_cycles: 17751717 44.9133
ROB_full_cycles: 4542172 11.4921
Starvation_cycles_per_kilo_instr: 297.624
Starvation_cycles_per_kilo_instr_3: 262.994
Starvation_cycles_per_kilo_instr_0: 240.118
Branch_type_1  (3,1)  (4,11)  (5,37)  (6,69)  (7,112)  (8,130)  (9,122)  (10,97)  (11,68)  (12,43)  (13,5)  (14,2)  (15,3)  (16,4)  (18,1)  (19,4)  (20,2)  (21,1)  (22,3)  (23,2)  (24,10)  (25,12) 
Branch_type_2  (3,1)  (5,1)  (8,3)  (9,3)  (12,1)  (13,1)  (14,1)  (16,3)  (17,2)  (20,2)  (21,2)  (23,5)  (24,1)  (47,36) 
Branch_type_3  (3,4034)  (4,239)  (5,409)  (6,418)  (7,432)  (8,310)  (9,253)  (10,151)  (11,120)  (12,52)  (13,4) 
Branch_type_4  (6,3)  (7,8)  (8,26)  (9,51)  (10,62)  (11,59)  (12,96)  (13,86)  (14,100)  (15,91)  (16,99)  (17,63)  (18,53)  (19,115)  (20,71)  (21,124)  (22,208)  (23,137)  (24,185)  (25,72) 
Branch_type_5  (8,2)  (9,1)  (10,3)  (11,5)  (12,3)  (13,14)  (14,16)  (15,11)  (16,20)  (17,11)  (18,16)  (19,12)  (20,10)  (21,13)  (22,42)  (23,26)  (24,37) 
Branch_type_6  (5,4)  (6,12)  (7,21)  (8,34)  (9,32)  (10,65)  (11,53)  (12,76)  (13,89)  (14,108)  (15,88)  (16,96)  (17,66)  (18,48)  (19,103)  (20,51)  (21,95)  (22,138)  (23,73)  (24,91)  (25,4)  (47,44) 
Unique trigger count: 
L2BTB1 768 4
L2BTB2 768 4
L2BTB3 768 4
L2BTB4 112 4
