
*** ChampSim Multicore Out-of-Order Simulator ***

Warmup Instructions: 50000000
Simulation Instructions: 50000000
Number of CPUs: 1
LLC sets: 2048
LLC ways: 16
Off-chip DRAM Size: 4096 MB Channels: 1 Width: 64-bit Data Rate: 6400 MT/s
CPU 0 runs ./micro_traces/srv77.trace.gz
.gz
ITLB has LRU replacement policy
DTLB has LRU replacement policy
STLB has LRU replacement policy
FDIP Prefetcher at L1I
L1I has LRU replacement policy
L1D has LRU replacement policy
Initialize SRRIP state for L2C
Initialize DRRIP state for LLC
Heartbeat_Variant_0 : 1322 0.322754 per_variant_size: 0 1322 0 0 0 0 0 0 0 
Heartbeat_Variant_1 : 1209 0.295166 per_variant_size: 0 598 611 0 0 0 0 0 0 
Heartbeat_Variant_2 : 1305 0.318604 per_variant_size: 0 528 383 208 186 0 0 0 0 
Heartbeat_Variant_3 : 0 0 per_variant_size: 0 0 0 0 0 0 0 0 0 
Heartbeat_Variant_0_evicts 0 : 5813 1 : 253 2 : 273 3 : 0 
Heartbeat_Variant_1_evicts 0 : 233 1 : 0 2 : 448 3 : 0 
Heartbeat_Variant_2_evicts 0 : 265 1 : 436 2 : 0 3 : 0 
Heartbeat_Variant_3_evicts 0 : 0 1 : 0 2 : 0 3 : 0 
Heartbeat CPU 0 instructions: 10000000 cycles: 2796079 heartbeat IPC: 3.57644 cumulative IPC: 3.57644 (Simulation time: 0 hr 1 min 44 sec) 
Heartbeat_Variant_0 : 1353 0.330322 per_variant_size: 0 1353 0 0 0 0 0 0 0 
Heartbeat_Variant_1 : 1240 0.302734 per_variant_size: 0 591 649 0 0 0 0 0 0 
Heartbeat_Variant_2 : 1326 0.32373 per_variant_size: 0 519 371 229 207 0 0 0 0 
Heartbeat_Variant_3 : 0 0 per_variant_size: 0 0 0 0 0 0 0 0 0 
Heartbeat_Variant_0_evicts 0 : 5650 1 : 118 2 : 116 3 : 0 
Heartbeat_Variant_1_evicts 0 : 122 1 : 0 2 : 334 3 : 0 
Heartbeat_Variant_2_evicts 0 : 109 1 : 335 2 : 0 3 : 0 
Heartbeat_Variant_3_evicts 0 : 0 1 : 0 2 : 0 3 : 0 
Heartbeat CPU 0 instructions: 20000000 cycles: 5591889 heartbeat IPC: 3.57678 cumulative IPC: 3.57661 (Simulation time: 0 hr 3 min 21 sec) 
Heartbeat_Variant_0 : 1360 0.332031 per_variant_size: 0 1360 0 0 0 0 0 0 0 
Heartbeat_Variant_1 : 1244 0.303711 per_variant_size: 0 587 657 0 0 0 0 0 0 
Heartbeat_Variant_2 : 1338 0.32666 per_variant_size: 0 523 379 234 202 0 0 0 0 
Heartbeat_Variant_3 : 0 0 per_variant_size: 0 0 0 0 0 0 0 0 0 
Heartbeat_Variant_0_evicts 0 : 5659 1 : 53 2 : 48 3 : 0 
Heartbeat_Variant_1_evicts 0 : 50 1 : 0 2 : 250 3 : 0 
Heartbeat_Variant_2_evicts 0 : 49 1 : 251 2 : 0 3 : 0 
Heartbeat_Variant_3_evicts 0 : 0 1 : 0 2 : 0 3 : 0 
Heartbeat CPU 0 instructions: 30000001 cycles: 8388334 heartbeat IPC: 3.57597 cumulative IPC: 3.5764 (Simulation time: 0 hr 4 min 59 sec) 
Heartbeat_Variant_0 : 1362 0.33252 per_variant_size: 0 1362 0 0 0 0 0 0 0 
Heartbeat_Variant_1 : 1246 0.304199 per_variant_size: 0 580 666 0 0 0 0 0 0 
Heartbeat_Variant_2 : 1357 0.331299 per_variant_size: 0 548 377 230 202 0 0 0 0 
Heartbeat_Variant_3 : 0 0 per_variant_size: 0 0 0 0 0 0 0 0 0 
Heartbeat_Variant_0_evicts 0 : 5696 1 : 74 2 : 67 3 : 0 
Heartbeat_Variant_1_evicts 0 : 70 1 : 0 2 : 267 3 : 0 
Heartbeat_Variant_2_evicts 0 : 72 1 : 269 2 : 0 3 : 0 
Heartbeat_Variant_3_evicts 0 : 0 1 : 0 2 : 0 3 : 0 
Heartbeat CPU 0 instructions: 40000001 cycles: 11185223 heartbeat IPC: 3.5754 cumulative IPC: 3.57615 (Simulation time: 0 hr 6 min 40 sec) 
Heartbeat_Variant_0 : 1365 0.333252 per_variant_size: 0 1365 0 0 0 0 0 0 0 
Heartbeat_Variant_1 : 1255 0.306396 per_variant_size: 0 592 663 0 0 0 0 0 0 
Heartbeat_Variant_2 : 1363 0.332764 per_variant_size: 0 543 390 233 197 0 0 0 0 
Heartbeat_Variant_3 : 0 0 per_variant_size: 0 0 0 0 0 0 0 0 0 
Heartbeat_Variant_0_evicts 0 : 5639 1 : 88 2 : 79 3 : 0 
Heartbeat_Variant_1_evicts 0 : 96 1 : 0 2 : 280 3 : 0 
Heartbeat_Variant_2_evicts 0 : 72 1 : 284 2 : 0 3 : 0 
Heartbeat_Variant_3_evicts 0 : 0 1 : 0 2 : 0 3 : 0 
Heartbeat CPU 0 instructions: 50000000 cycles: 13981993 heartbeat IPC: 3.57555 cumulative IPC: 3.57603 (Simulation time: 0 hr 8 min 19 sec) 

Warmup complete CPU 0 instructions: 50000004 cycles: 13981994 (Simulation time: 0 hr 8 min 19 sec) 

Cycle: 20000000 FTQ IN: 58195217 FTQ occupancy: 19.3092 DECODE IN: 58195217 DECODE occupancy: 50.1921 ROB IN: 58195217 ROB occupancy: 306.572 ROB OUT: 58195214
Heartbeat_Variant_0 : 1367 0.33374 per_variant_size: 0 1367 0 0 0 0 0 0 0 
Heartbeat_Variant_1 : 1255 0.306396 per_variant_size: 0 593 662 0 0 0 0 0 0 
Heartbeat_Variant_2 : 1363 0.332764 per_variant_size: 0 540 395 237 191 0 0 0 0 
Heartbeat_Variant_3 : 0 0 per_variant_size: 0 0 0 0 0 0 0 0 0 
Heartbeat_Variant_0_evicts 0 : 5625 1 : 5 2 : 3 3 : 0 
Heartbeat_Variant_1_evicts 0 : 3 1 : 0 2 : 202 3 : 0 
Heartbeat_Variant_2_evicts 0 : 4 1 : 201 2 : 0 3 : 0 
Heartbeat_Variant_3_evicts 0 : 0 1 : 0 2 : 0 3 : 0 
Heartbeat CPU 0 instructions: 60000001 cycles: 21317822 heartbeat IPC: 1.36317 cumulative IPC: 1.36317 (Simulation time: 0 hr 10 min 0 sec) 
Heartbeat_Variant_0 : 1363 0.332764 per_variant_size: 0 1363 0 0 0 0 0 0 0 
Heartbeat_Variant_1 : 1264 0.308594 per_variant_size: 0 614 650 0 0 0 0 0 0 
Heartbeat_Variant_2 : 1370 0.334473 per_variant_size: 0 550 396 224 200 0 0 0 0 
Heartbeat_Variant_3 : 0 0 per_variant_size: 0 0 0 0 0 0 0 0 0 
Heartbeat_Variant_0_evicts 0 : 5708 1 : 123 2 : 107 3 : 0 
Heartbeat_Variant_1_evicts 0 : 129 1 : 0 2 : 303 3 : 0 
Heartbeat_Variant_2_evicts 0 : 109 1 : 303 2 : 0 3 : 0 
Heartbeat_Variant_3_evicts 0 : 0 1 : 0 2 : 0 3 : 0 
Heartbeat CPU 0 instructions: 70000000 cycles: 28787167 heartbeat IPC: 1.33881 cumulative IPC: 1.35088 (Simulation time: 0 hr 11 min 41 sec) 
Cycle: 30000000 FTQ IN: 13445906 FTQ occupancy: 10.7328 DECODE IN: 13445906 DECODE occupancy: 26.8399 ROB IN: 13445906 ROB occupancy: 205.729 ROB OUT: 13445655
Heartbeat_Variant_0 : 1365 0.333252 per_variant_size: 0 1365 0 0 0 0 0 0 0 
Heartbeat_Variant_1 : 1266 0.309082 per_variant_size: 0 614 652 0 0 0 0 0 0 
Heartbeat_Variant_2 : 1367 0.33374 per_variant_size: 0 545 398 231 193 0 0 0 0 
Heartbeat_Variant_3 : 0 0 per_variant_size: 0 0 0 0 0 0 0 0 0 
Heartbeat_Variant_0_evicts 0 : 5495 1 : 12 2 : 9 3 : 0 
Heartbeat_Variant_1_evicts 0 : 11 1 : 0 2 : 202 3 : 0 
Heartbeat_Variant_2_evicts 0 : 8 1 : 199 2 : 0 3 : 0 
Heartbeat_Variant_3_evicts 0 : 0 1 : 0 2 : 0 3 : 0 
Heartbeat CPU 0 instructions: 80000001 cycles: 36133439 heartbeat IPC: 1.36123 cumulative IPC: 1.35431 (Simulation time: 0 hr 13 min 23 sec) 
Cycle: 40000000 FTQ IN: 13623752 FTQ occupancy: 10.6672 DECODE IN: 13623752 DECODE occupancy: 27.0041 ROB IN: 13623752 ROB occupancy: 209.444 ROB OUT: 13623957
Heartbeat_Variant_0 : 1367 0.33374 per_variant_size: 0 1367 0 0 0 0 0 0 0 
Heartbeat_Variant_1 : 1265 0.308838 per_variant_size: 0 608 657 0 0 0 0 0 0 
Heartbeat_Variant_2 : 1369 0.334229 per_variant_size: 0 544 399 223 203 0 0 0 0 
Heartbeat_Variant_3 : 0 0 per_variant_size: 0 0 0 0 0 0 0 0 0 
Heartbeat_Variant_0_evicts 0 : 5530 1 : 30 2 : 30 3 : 0 
Heartbeat_Variant_1_evicts 0 : 26 1 : 0 2 : 228 3 : 0 
Heartbeat_Variant_2_evicts 0 : 34 1 : 225 2 : 0 3 : 0 
Heartbeat_Variant_3_evicts 0 : 0 1 : 0 2 : 0 3 : 0 
Heartbeat CPU 0 instructions: 90000001 cycles: 43471372 heartbeat IPC: 1.36278 cumulative IPC: 1.35642 (Simulation time: 0 hr 15 min 3 sec) 
Cycle: 50000000 FTQ IN: 13505107 FTQ occupancy: 10.7713 DECODE IN: 13505107 DECODE occupancy: 27.0316 ROB IN: 13505107 ROB occupancy: 208.275 ROB OUT: 13505148
Heartbeat_Variant_0 : 1362 0.33252 per_variant_size: 0 1362 0 0 0 0 0 0 0 
Heartbeat_Variant_1 : 1263 0.30835 per_variant_size: 0 584 679 0 0 0 0 0 0 
Heartbeat_Variant_2 : 1388 0.338867 per_variant_size: 0 563 394 229 202 0 0 0 0 
Heartbeat_Variant_3 : 0 0 per_variant_size: 0 0 0 0 0 0 0 0 0 
Heartbeat_Variant_0_evicts 0 : 5595 1 : 78 2 : 81 3 : 0 
Heartbeat_Variant_1_evicts 0 : 85 1 : 0 2 : 258 3 : 0 
Heartbeat_Variant_2_evicts 0 : 80 1 : 269 2 : 0 3 : 0 
Heartbeat_Variant_3_evicts 0 : 0 1 : 0 2 : 0 3 : 0 
Heartbeat CPU 0 instructions: 100000002 cycles: 50899287 heartbeat IPC: 1.34627 cumulative IPC: 1.35438 (Simulation time: 0 hr 17 min 21 sec) 
Finished CPU 0 instructions: 50000002 cycles: 36917294 cumulative IPC: 1.35438 (Simulation time: 0 hr 17 min 21 sec) 

ChampSim completed all CPUs

Region of Interest Statistics

CPU 0 cumulative IPC: 1.35438 instructions: 50000002 cycles: 36917294
 Fetch stage stalled: 60.3381  Sim cycles: 36917294 fetch stall cycle: 22275210
 Empty decode stage: 49.3526  Sim cycles: 36917294 fetch stall cycle: 18219658
ITLB TOTAL     ACCESS:    5862446  HIT:    5363620  MISS:     498826  HIT %:    91.4912  MISS %:    8.50884   MPKI: 9.97652
ITLB LOAD TRANSLATION INSTRUCTION	ACCESS:    5738665  HIT:    5239839  MISS:     498826  HIT %:    91.3076  MISS %:    8.69237  MPKI: 9.97652
ITLB TRANSLATION FROM L1D PREFETCHER INSTRUCTION	ACCESS:     123781  HIT:     123781  MISS:          0  HIT %:        100  MISS %:          0  MPKI: 0

ITLB AVERAGE MISS LATENCY: 9.05244 cycles
ITLB RQ	ACCESS:    8008472	FORWARD:          0	MERGED:    1717613	TO_CACHE:    6290859

DTLB TOTAL     ACCESS:    9018711  HIT:    8539345  MISS:     479366  HIT %:    94.6848  MISS %:    5.31524   MPKI: 9.58732
DTLB LOAD TRANSLATION DATA	ACCESS:    9018711  HIT:    8539345  MISS:     479366  HIT %:    94.6848  MISS %:    5.31524  MPKI: 9.58732

DTLB AVERAGE MISS LATENCY: 9.32172 cycles
DTLB RQ	ACCESS:   13386835	FORWARD:          0	MERGED:    4331768	TO_CACHE:    9055067

STLB TOTAL     ACCESS:    1221683  HIT:    1219538  MISS:       2145  HIT %:    99.8244  MISS %:   0.175577   MPKI: 0.0429
STLB LOAD TRANSLATION INSTRUCTION	ACCESS:     498825  HIT:     498561  MISS:        264  HIT %:    99.9471  MISS %:  0.0529244  MPKI: 0.00528
STLB LOAD TRANSLATION DATA	ACCESS:     479361  HIT:     477516  MISS:       1845  HIT %:    99.6151  MISS %:   0.384887  MPKI: 0.0369
STLB TRANSLATION FROM L1D PREFETCHER DATA	ACCESS:     243497  HIT:     243461  MISS:         36  HIT %:    99.9852  MISS %:  0.0147846  MPKI: 0.00072

STLB AVERAGE MISS LATENCY: 68.8163 cycles
STLB RQ	ACCESS:    1340832	FORWARD:          0	MERGED:     119123	TO_CACHE:    1221709

STLB Hit, L1D data hit: 0
STLB Hit, L2C data hit: 0
STLB Hit, LLC data hit: 0
STLB Hit, LLC data miss: 0
STLB STLB hints to L2: 0
L1D TOTAL     ACCESS:   13124527  HIT:   11995592  MISS:    1128935  HIT %:    91.3983  MISS %:    8.60172   MPKI: 22.5787
L1D LOAD DATA	ACCESS:    6590806  HIT:    5844011  MISS:     746795  HIT %:    88.6691  MISS %:    11.3309  MPKI: 14.9359
L1D RFO DATA	ACCESS:    6212672  HIT:    5924697  MISS:     287975  HIT %:    95.3647  MISS %:    4.63528  MPKI: 5.7595
L1D PREFETCH DATA	ACCESS:     321049  HIT:     226884  MISS:      94165  HIT %:    70.6696  MISS %:    29.3304  MPKI: 1.8833

L1D PREFETCH  REQUESTED:     725627  ISSUED:     725627  USEFUL:      33751  USELESS:      69113
L1D USEFUL LOAD PREFETCHES:      33751 PREFETCH ISSUED TO LOWER LEVEL:     102929  ACCURACY: 32.7906
 TIMELY PREFETCHES:      33751 LATE PREFETCHES: 8712 DROPPED PREFETCHES: 6
L1D AVERAGE MISS LATENCY: 256566 cycles
L1D RQ	ACCESS:   10705508	FORWARD:          0	MERGED:    3915919	TO_CACHE:    6624480
L1D WQ	ACCESS:    6959500	FORWARD:     165454	MERGED:     197145	TO_CACHE:    6762355
L1D PQ	ACCESS:     362986	FORWARD:          0	MERGED:          0	TO_CACHE:     362641

L1D UNIQUE REGIONS ACCESSED: 0
L1D REGIONS CONFLICTS: 0
L1D Cross Page Prefetch Requests: 6711
L1D Same Page Prefetch Requests: 741023
L1D ROI Sum of L1D PQ occupancy: 4603371
L1D PREFETCHES PUSHED FROM L2C: 0
L1I TOTAL     ACCESS:    7202088  HIT:    4414998  MISS:    2787090  HIT %:    61.3016  MISS %:    38.6984   MPKI: 55.7418
L1I LOAD INSTRUCTION	ACCESS:    6545178  HIT:    3758088  MISS:    2787090  HIT %:    57.4177  MISS %:    42.5823  MPKI: 55.7418
L1I PREFETCH INSTRUCTION	ACCESS:     656910  HIT:     656910  MISS:          0  HIT %:        100  MISS %:          0  MPKI: 0

L1I PREFETCH  REQUESTED:    1596467  ISSUED:    1596467  USEFUL:          0  USELESS:          0
L1I USEFUL LOAD PREFETCHES:          0 PREFETCH ISSUED TO LOWER LEVEL:          0  ACCURACY: -nan
 TIMELY PREFETCHES:          0 LATE PREFETCHES: 0 DROPPED PREFETCHES: 0
L1I AVERAGE MISS LATENCY: 17.6039 cycles
L1I RQ	ACCESS:    9476994	FORWARD:          0	MERGED:    2617083	TO_CACHE:    6859911
L1I PQ	ACCESS:    1596467	FORWARD:          0	MERGED:     447906	TO_CACHE:    1148561

L1BTB TOTAL     ACCESS:    5671814  HIT:    2018286  MISS:    3653528  HIT %:    35.5845  MISS %:    64.4155   MPKI: 73.0706
L1BTB BRANCH_DIRECT_JUMP	ACCESS:     548052  HIT:     142384  MISS:     405668	AVERAGE STALL: 39.0088
L1BTB BRANCH_INDIRECT	ACCESS:     182320  HIT:      65369  MISS:     116951	AVERAGE STALL: 93.4408
L1BTB BRANCH_CONDITIONAL	ACCESS:    2696702  HIT:    1395845  MISS:    1300857	AVERAGE STALL: 54.5732
L1BTB BRANCH_DIRECT_CALL	ACCESS:     949924  HIT:     104417  MISS:     845507	AVERAGE STALL: 53.4892
L1BTB BRANCH_INDIRECT_CALL	ACCESS:     172450  HIT:      21030  MISS:     151420	AVERAGE STALL: 121.518
L1BTB BRANCH_RETURN	ACCESS:    1122366  HIT:     289241  MISS:     833125	AVERAGE STALL: 43.8414
L1BTB BRANCH_OTHER ACCESS:          0  HIT:          0  MISS:          0	AVERAGE STALL: -nan
L1BTB TOTAL ROB OCCUPANCY AT BTB MISS: 2.37419

L2BTB TOTAL     ACCESS:    3628271  HIT:    3561737  MISS:      66534  HIT %:    98.1662  MISS %:    1.83377   MPKI: 1.33068
L2BTB BRANCH_DIRECT_JUMP	ACCESS:     401609  HIT:     397511  MISS:       4098	AVERAGE STALL: 39.0088
L2BTB BRANCH_INDIRECT	ACCESS:     106604  HIT:     103864  MISS:       2740	AVERAGE STALL: 93.4408
L2BTB BRANCH_CONDITIONAL	ACCESS:    1300857  HIT:    1295257  MISS:       5600	AVERAGE STALL: 54.5732
L2BTB BRANCH_DIRECT_CALL	ACCESS:     845507  HIT:     844574  MISS:        933	AVERAGE STALL: 53.4892
L2BTB BRANCH_INDIRECT_CALL	ACCESS:     141989  HIT:     131856  MISS:      10133	AVERAGE STALL: 121.518
L2BTB BRANCH_RETURN	ACCESS:     831705  HIT:     788675  MISS:      43030	AVERAGE STALL: 43.8414
L2BTB BRANCH_OTHER ACCESS:          0  HIT:          0  MISS:          0	AVERAGE STALL: -nan
L2BTB TOTAL ROB OCCUPANCY AT BTB MISS: 130.372

L2C TOTAL     ACCESS:    4537932  HIT:    4003660  MISS:     534272  HIT %:    88.2265  MISS %:    11.7735   MPKI: 10.6854
L2C LOAD INSTRUCTION	ACCESS:    2787090  HIT:    2483963  MISS:     303127  HIT %:    89.1239  MISS %:    10.8761  MPKI: 6.06254
L2C LOAD TRANSLATION INSTRUCTION	ACCESS:        289  HIT:         64  MISS:        225  HIT %:    22.1453  MISS %:    77.8547  MPKI: 0.0045
L2C LOAD DATA	ACCESS:     738031  HIT:     655092  MISS:      82939  HIT %:    88.7621  MISS %:    11.2379  MPKI: 1.65878
L2C RFO DATA	ACCESS:     287904  HIT:     233951  MISS:      53953  HIT %:    81.2601  MISS %:    18.7399  MPKI: 1.07906
L2C PREFETCH DATA	ACCESS:     195728  HIT:     120920  MISS:      74808  HIT %:    61.7796  MISS %:    38.2204  MPKI: 1.49616
L2C WRITEBACK DATA	ACCESS:     526937  HIT:     509066  MISS:      17871  HIT %:    96.6085  MISS %:    3.39149  MPKI: 0.35742
L2C LOAD TRANSLATION DATA	ACCESS:       1904  HIT:        565  MISS:       1339  HIT %:    29.6744  MISS %:    70.3256  MPKI: 0.02678
L2C TRANSLATION FROM L1D PREFETCHER DATA	ACCESS:         49  HIT:         39  MISS:         10  HIT %:    79.5918  MISS %:    20.4082  MPKI: 0.0002

L2C PREFETCH  REQUESTED:     100756  ISSUED:     100756  USEFUL:       8962  USELESS:      66446
L2C USEFUL LOAD PREFETCHES:       8962 PREFETCH ISSUED TO LOWER LEVEL:      75388  ACCURACY: 11.8878
 TIMELY PREFETCHES:       8962 LATE PREFETCHES: 580 DROPPED PREFETCHES: 0
L2C AVERAGE MISS LATENCY: 37.1767 cycles
L2C RQ	ACCESS:    3815342	FORWARD:          0	MERGED:          0	TO_CACHE:    3815270
L2C WQ	ACCESS:     526937	FORWARD:         72	MERGED:          0	TO_CACHE:     526937
L2C PQ	ACCESS:     203685	FORWARD:          0	MERGED:       3527	TO_CACHE:     200158

L2C Dense regions hint from L2: 0
PSCL5 TOTAL     ACCESS:       4304  HIT:       2152  MISS:       2152  HIT %:         50  MISS %:         50   MPKI: 0.04304
PSCL5 LOAD TRANSLATION INSTRUCTION	ACCESS:       4206  HIT:       2103  MISS:       2103  HIT %:         50  MISS %:         50  MPKI: 0.04206
PSCL5 TRANSLATION FROM L1D PREFETCHER INSTRUCTION	ACCESS:         98  HIT:         49  MISS:         49  HIT %:         50  MISS %:         50  MPKI: 0.00098


PSCL4 TOTAL     ACCESS:       4035  HIT:       2015  MISS:       2020  HIT %:     49.938  MISS %:     50.062   MPKI: 0.0404
PSCL4 LOAD TRANSLATION INSTRUCTION	ACCESS:       3654  HIT:       1968  MISS:       1686  HIT %:    53.8588  MISS %:    46.1412  MPKI: 0.03372
PSCL4 TRANSLATION FROM L1D PREFETCHER INSTRUCTION	ACCESS:         94  HIT:         47  MISS:         47  HIT %:         50  MISS %:         50  MPKI: 0.00094
PSCL4 LOAD TRANSLATION DATA	ACCESS:        287  HIT:          0  MISS:        287  HIT %:          0  MISS %:        100  MPKI: 0.00574


PSCL3 TOTAL     ACCESS:       4215  HIT:       2105  MISS:       2110  HIT %:    49.9407  MISS %:    50.0593   MPKI: 0.0422
PSCL3 LOAD TRANSLATION INSTRUCTION	ACCESS:       3744  HIT:       2058  MISS:       1686  HIT %:    54.9679  MISS %:    45.0321  MPKI: 0.03372
PSCL3 TRANSLATION FROM L1D PREFETCHER INSTRUCTION	ACCESS:         94  HIT:         47  MISS:         47  HIT %:         50  MISS %:         50  MPKI: 0.00094
PSCL3 LOAD TRANSLATION DATA	ACCESS:        377  HIT:          0  MISS:        377  HIT %:          0  MISS %:        100  MPKI: 0.00754


PSCL2 TOTAL     ACCESS:       4224  HIT:       2072  MISS:       2152  HIT %:     49.053  MISS %:     50.947   MPKI: 0.04304
PSCL2 LOAD TRANSLATION INSTRUCTION	ACCESS:       2287  HIT:       2023  MISS:        264  HIT %:    88.4565  MISS %:    11.5435  MPKI: 0.00528
PSCL2 TRANSLATION FROM L1D PREFETCHER INSTRUCTION	ACCESS:         49  HIT:         49  MISS:          0  HIT %:        100  MISS %:          0  MPKI: 0
PSCL2 LOAD TRANSLATION DATA	ACCESS:       1839  HIT:          0  MISS:       1839  HIT %:          0  MISS %:        100  MPKI: 0.03678
PSCL2 TRANSLATION FROM L1D PREFETCHER DATA	ACCESS:         49  HIT:          0  MISS:         49  HIT %:          0  MISS %:        100  MPKI: 0.00098


LLC TOTAL     ACCESS:     598166  HIT:     570739  MISS:      27427  HIT %:    95.4148  MISS %:    4.58518   MPKI: 0.54854
LLC LOAD INSTRUCTION	ACCESS:     303127  HIT:     302425  MISS:        702  HIT %:    99.7684  MISS %:   0.231586  MPKI: 0.01404
LLC LOAD TRANSLATION INSTRUCTION	ACCESS:        225  HIT:        200  MISS:         25  HIT %:    88.8889  MISS %:    11.1111  MPKI: 0.0005
LLC LOAD DATA	ACCESS:      82388  HIT:      78880  MISS:       3508  HIT %:    95.7421  MISS %:     4.2579  MPKI: 0.07016
LLC RFO DATA	ACCESS:      53899  HIT:      40955  MISS:      12944  HIT %:    75.9847  MISS %:    24.0153  MPKI: 0.25888
LLC PREFETCH DATA	ACCESS:      75388  HIT:      65510  MISS:       9878  HIT %:    86.8971  MISS %:    13.1029  MPKI: 0.19756
LLC WRITEBACK DATA	ACCESS:      81790  HIT:      81492  MISS:        298  HIT %:    99.6357  MISS %:   0.364348  MPKI: 0.00596
LLC LOAD TRANSLATION DATA	ACCESS:       1339  HIT:       1267  MISS:         72  HIT %:    94.6229  MISS %:    5.37715  MPKI: 0.00144
LLC TRANSLATION FROM L1D PREFETCHER DATA	ACCESS:         10  HIT:         10  MISS:          0  HIT %:        100  MISS %:          0  MPKI: 0

LLC AVERAGE MISS LATENCY: 158.173 cycles
LLC RQ	ACCESS:     441015	FORWARD:          0	MERGED:          0	TO_CACHE:     440990
LLC WQ	ACCESS:      81790	FORWARD:         25	MERGED:          0	TO_CACHE:      81790
LLC PQ	ACCESS:      75388	FORWARD:          0	MERGED:          0	TO_CACHE:      75388

LLC Dense regions hint to LLC: 0

RAW hits: 1928588
Loads Generated: 12634096
Loads sent to L1D: 10705508
Stores Generated: 6959486
Stores sent to L1D: 6959500
Major fault: 0 Minor fault: 2564
Allocated PAGES: 2564

stream: 
stream:times selected: 1174559
stream:pref_filled: 122760
stream:pref_useful: 24140
stream:pref_late: 7033
stream:misses: 7986
stream:misses_by_poll: 0

CS: 
CS:times selected: 175894
CS:pref_filled: 59548
CS:pref_useful: 36413
CS:pref_late: 7369
CS:misses: 16682
CS:misses_by_poll: 4

CPLX: 
CPLX:times selected: 997612
CPLX:pref_filled: 19519
CPLX:pref_useful: 4614
CPLX:pref_late: 3031
CPLX:misses: 94036
CPLX:misses_by_poll: 0

NL_L1: 
NL:times selected: 20616
NL:pref_filled: 741
NL:pref_useful: 373
NL:pref_late: 281
NL:misses: 1641
NL:misses_by_poll: 0

total selections: 2368681
total_filled: 94165
total_useful: 33751
total_late: 19358
total_polluted: 4
total_misses_after_warmup: 780469
conflicts: 5546275

test: 116396

DRAM Statistics
 CHANNEL 0
 RQ ROW_BUFFER_HIT:       9901  ROW_BUFFER_MISS:      17222
 DBUS_CONGESTED:         13
 WQ ROW_BUFFER_HIT:       1310  ROW_BUFFER_MISS:      11744  FULL:          0

 AVG_CONGESTED_CYCLE: 5

CPU 0 Branch Prediction Accuracy: 99.8277% MPKI: 0.31548 Average ROB Occupancy at Mispredict: 174.695
Branch types
NOT_BRANCH: 40845839 81.6917%
BRANCH_DIRECT_JUMP: 548052 1.0961%
BRANCH_INDIRECT: 182320 0.36464%
BRANCH_CONDITIONAL: 6179076 12.3582%
BRANCH_DIRECT_CALL: 949924 1.89985%
BRANCH_INDIRECT_CALL: 172450 0.3449%
BRANCH_RETURN: 1122366 2.24473%
BRANCH_OTHER: 0 0%

DRAM PAGES: 1048576
Allocated PAGES: 2564
Average_ROB_Occupancy: 209.169
Average_Decode_Occupancy: 27.0019
Average_FTQ_Occupancy: 10.7212
Indirect max targets: 14 Average targets: 1.14626
Branch_type:  BRANCH_DIRECT_JUMP:  Count Percentage: 2.87862 6.1138 4.14919 9.13356 1.69182 6.28893 0.97641 68.7677 
Branch_type:  BRANCH_INDIRECT:  Count Percentage: 11.756 3.42591 12.1686 7.97752 1.34242 1.20023 1.07996 61.0493 
Branch_type:  BRANCH_CONDITIONAL:  Count Percentage: 21.0876 3.59347 2.33299 5.53788 1.2072 4.57014 0.781625 60.8891 
Branch_type:  BRANCH_DIRECT_CALL:  Count Percentage: 0.256774 1.80254 1.4144 5.09572 2.15277 3.01344 0.77423 85.4901 
Branch_type:  BRANCH_INDIRECT_CALL:  Count Percentage: 9.55828 0.555893 2.99595 4.8374 0 4.01591 0 78.0366 
Branch_type:  BRANCH_RETURN:  Count Percentage: 3.6589 1.31395 2.89175 6.65044 2.86178 5.50666 1.41892 75.6976 
Branch_type:  BRANCH_DIRECT_JUMP:  Total Count: 31510 66923 45418 99978 18519 68840 10688 752746 
Branch_type:  BRANCH_INDIRECT:  Total Count: 42911 12505 44417 29119 4900 4381 3942 222838 
Branch_type:  BRANCH_CONDITIONAL:  Total Count: 2604540 443832 288149 683988 149102 564461 96539 7520460 
Branch_type:  BRANCH_DIRECT_CALL:  Total Count: 4863 34138 26787 96507 40771 57071 14663 1619082 
Branch_type:  BRANCH_INDIRECT_CALL:  Total Count: 32893 1913 10310 16647 0 13820 0 268548 
Branch_type:  BRANCH_RETURN:  Total Count: 81916 29417 64741 148891 64070 123284 31767 1694729 
Number of unique branch instructions: 9821
Upper 32 bits: 
aaaa
ffff
ffff0000
Unique upper 32 bits: 3
Unique upper 36 bits: 3
Unique upper 40 bits: 5
Unique upper 44 bits: 32
Unique upper 48 bits: 154
Variant_0 : 1362 0.33252
Variant_1 : 1263 0.30835
Variant_2 : 1388 0.338867
Variant_3 : 0 0
Offset_3 4036
Offset_4 250
Offset_5 451
Offset_6 502
Offset_7 573
Offset_8 505
Offset_9 462
Offset_10 378
Offset_11 305
Offset_12 271
Offset_13 199
Offset_14 227
Offset_15 193
Offset_16 222
Offset_17 142
Offset_18 118
Offset_19 234
Offset_20 136
Offset_21 235
Offset_22 391
Offset_23 243
Offset_24 324
Offset_25 88
Offset_47 80
decode_dispatch_called: 23336725 63.2135
Dispatch_width: 0 12305545 52.7304 33.3327
Dispatch_width: 1 780850 3.34601 2.11513
Dispatch_width: 2 731521 3.13463 1.98151
Dispatch_width: 3 450795 1.9317 1.22109
Dispatch_width: 4 3897778 16.7023 10.5581
Dispatch_width: 5 208803 0.89474 0.565597
Dispatch_width: 6 4961433 21.2602 13.4393
Empty_decode_cycles: 13580569 36.7865
ROB_full_cycles: 6127217 16.5971
Starvation_cycles_per_kilo_instr: 258.286
Starvation_cycles_per_kilo_instr_3: 217.221
Starvation_cycles_per_kilo_instr_0: 197.589
Branch_type_1  (3,1)  (4,11)  (5,37)  (6,69)  (7,112)  (8,130)  (9,122)  (10,97)  (11,68)  (12,43)  (13,5)  (14,2)  (15,3)  (16,4)  (18,1)  (19,4)  (20,2)  (21,1)  (22,3)  (23,2)  (24,10)  (25,12) 
Branch_type_2  (3,1)  (5,1)  (8,3)  (9,3)  (12,1)  (13,1)  (14,1)  (16,3)  (17,2)  (20,2)  (21,2)  (23,5)  (24,1)  (47,36) 
Branch_type_3  (3,4034)  (4,239)  (5,409)  (6,418)  (7,432)  (8,310)  (9,253)  (10,151)  (11,120)  (12,52)  (13,4) 
Branch_type_4  (6,3)  (7,8)  (8,26)  (9,51)  (10,62)  (11,59)  (12,96)  (13,86)  (14,100)  (15,91)  (16,99)  (17,63)  (18,53)  (19,115)  (20,71)  (21,124)  (22,208)  (23,137)  (24,185)  (25,72) 
Branch_type_5  (8,2)  (9,1)  (10,3)  (11,5)  (12,3)  (13,14)  (14,16)  (15,11)  (16,20)  (17,11)  (18,16)  (19,12)  (20,10)  (21,13)  (22,42)  (23,26)  (24,37) 
Branch_type_6  (5,4)  (6,12)  (7,21)  (8,34)  (9,32)  (10,65)  (11,53)  (12,76)  (13,89)  (14,108)  (15,88)  (16,96)  (17,66)  (18,48)  (19,103)  (20,51)  (21,95)  (22,138)  (23,73)  (24,91)  (25,4)  (47,44) 
Unique trigger count: 
Variant_0_evicts_0 : 0
Variant_0_evicts_1 : 0
Variant_0_evicts_2 : 0
Variant_0_evicts_3 : 0
Variant_1_evicts_0 : 0
Variant_1_evicts_1 : 0
Variant_1_evicts_2 : 0
Variant_1_evicts_3 : 0
Variant_2_evicts_0 : 0
Variant_2_evicts_1 : 0
Variant_2_evicts_2 : 0
Variant_2_evicts_3 : 0
Variant_3_evicts_0 : 0
Variant_3_evicts_1 : 0
Variant_3_evicts_2 : 0
Variant_3_evicts_3 : 0
BTB PER SET UNIQUE ADDR: 14 17 10 14 14 12 10 13 8 10 12 14 12 10 11 8 8 5 8 11 10 11 13 10 8 10 13 10 8 8 13 13 10 9 6 10 12 14 6 8 8 11 12 12 8 9 13 10 14 11 17 8 13 8 8 7 7 8 9 12 10 14 11 12 13 14 9 9 14 11 10 11 14 7 7 10 9 12 8 16 12 7 11 9 12 13 13 10 5 20 7 5 10 9 5 10 6 9 14 14 17 15 13 9 10 7 9 9 9 6 11 11 12 8 7 8 13 10 10 7 13 10 12 8 13 12 5 11 18 11 8 11 7 17 15 11 8 10 8 12 8 10 7 10 13 15 11 12 8 9 15 11 10 11 7 19 7 10 11 7 9 10 11 15 13 13 10 10 10 7 13 12 8 9 7 11 8 9 13 10 9 9 12 13 15 9 7 10 14 6 13 11 12 11 12 13 11 13 7 13 13 15 8 10 12 10 11 13 12 8 8 10 12 13 9 12 11 13 11 14 3 12 7 9 10 7 11 8 8 19 8 5 7 11 9 13 13 11 9 5 11 7 11 10 8 11 12 11 16 11 10 14 17 10 13 10 8 10 7 12 15 9 5 9 5 7 12 8 8 12 9 12 7 6 7 8 6 13 10 12 8 9 8 12 13 10 10 17 17 13 11 10 15 14 6 14 10 8 14 10 9 11 12 13 11 10 10 9 14 13 10 12 6 15 13 7 15 10 6 13 5 13 10 12 11 16 10 6 8 8 11 12 9 9 8 10 8 11 6 17 12 11 11 12 12 11 12 8 9 6 12 12 8 13 9 14 10 9 9 10 10 13 12 16 9 16 8 12 13 13 15 6 10 10 9 13 8 16 10 11 16 5 9 7 7 10 17 11 14 12 11 9 10 12 5 6 8 10 11 7 9 14 8 13 13 8 11 11 8 10 14 7 7 14 8 9 11 9 17 14 10 11 12 13 8 10 7 10 15 11 12 10 13 10 13 14 10 6 13 10 9 7 9 15 13 8 11 11 12 8 9 13 12 11 11 11 10 14 14 17 10 11 10 10 13 10 8 12 12 10 9 13 10 9 10 13 16 14 7 9 14 14 16 10 10 12 12 11 17 7 10 16 9 8 9 10 15 11 9 17 7 17 12 13 9 10 9 11 13 15 12 9 7 10 11 13 9 14 9 9 4 13 12 9 9 17 13 9 8 15 13 12 14 9 8 14 11 12 10 12 10 11 11 14 11 14 11 15 8 13 14 13 12 12 8 10 10 10 11 9 12 12 12 10 15 13 12 11 7 15 10 9 9 12 12 17 14 16 9 9 15 9 6 10 13 8 9 12 15 13 8 13 13 8 15 8 9 12 8 10 8 7 12 6 10 14 13 9 9 9 12 9 10 6 6 10 10 10 12 13 14 8 8 10 12 15 9 16 11 13 8 10 14 10 12 11 10 19 10 14 8 14 11 10 12 10 9 11 14 6 10 9 9 10 17 10 11 11 11 11 11 6 9 10 7 12 7 10 6 10 9 8 11 12 13 11 10 12 15 14 8 15 10 13 16 11 9 11 13 11 12 11 13 8 9 11 7 18 6 15 10 13 12 10 7 10 13 8 7 7 13 15 8 13 10 4 15 10 11 13 11 10 14 9 9 7 8 6 9 10 14 9 9 10 5 11 9 13 15 9 13 7 11 11 16 12 14 14 10 11 13 8 15 9 10 11 15 12 10 9 14 11 8 12 11 11 10 13 7 16 7 13 11 5 12 10 14 10 13 12 8 12 11 10 9 11 8 14 9 7 13 8 11 13 9 14 12 7 15 13 13 9 9 14 16 12 10 11 10 12 11 12 10 13 10 15 12 11 7 10 9 14 6 13 11 14 6 15 10 10 11 16 13 13 9 12 7 11 12 8 15 15 11 11 10 18 9 17 9 11 10 10 10 12 11 17 15 15 7 13 12 10 8 9 11 9 7 7 13 9 8 12 12 10 12 5 13 10 8 12 14 8 14 16 10 10 15 12 14 12 13 7 6 9 10 10 14 11 8 9 13 8 12 8 6 13 10 13 10 13 7 7 12 13 7 8 13 13 10 11 11 11 8 9 7 11 8 8 11 7 17 13 18 12 7 12 11 11 13 13 10 17 13 11 12 12 8 10 11 13 12 13 10 13 10 14 10 8 8 13 12 12 12 14 13 9 13 12 6 12 12 13 12 11 15 8 15 13 15 19 10 17 10 11 7 16 18 9 12 8 12 7 11 9 13 10 6 13 11 10 8 18 10 10 17 11 9 15 7 15 8 10 7 6 6 12 9 7 8 9 9 12 10 8 
BTB PER SET COUNT: 968 23 1809 17 19 13 14 14 1481 10 12 351 20466 1486 13 8 1003 5 676 14 14 490 724 11 11 12 29 292 8 781 22 14 12 9 8 432 14 16 9 2993 10 11 18 37 12 10 17 18 605 14 22 8 14 9 11 7 7 8 14 14 13 60 299 15 14 546 13 687 16 18 18 970 16 7 7 18 11 12 11 20 970 10 626 15 15 20 18 12 5 52 7 1025 18 19 5 12 297 10 19 18 22 975 16 9 2147 7 14 11 965 1762 15 18 217 8 14 10 13 14 1993 11 19 11 12 12 13 86 5 23 29 899 10 5866 7 22 25 14 11 12 10 14 11 123 8 16 18 211 225 297 9 215 18 293 611 21 8 31 9 14 13 10 10 350 13 16 39 24 10 11 12 7 17 15 9 11 13 11 9 11 316 806 167 151 17 23 63 22 8 13 491 962 15 12 18 14 19 112 14 494 11 718 20 21 947 26 13 11 13 205 14 9 17 12 13 1126 13 2915 11 24 2110 20 3 15 224 11 10 12 13 9 8 35 13 6 9 12 15 19 42 483 16 5 500 7 12 12 11 12 18 14 19 14 13 26 22 10 17 11 99 15 7 19 964 10 5 9 5 7 12 8 1139 22 12 971 7 8 11 10 6 16 15 975 8 17 480 15 18 20 14 23 32 19 14 12 16 23 7 16 11 14 15 16 10 17 90 19 13 14 35 11 56 336 1004 14 9 18 1628 479 29 13 7 23 5 60 10 15 12 75 295 7 8 8 16 15 9 14 9 16 10 222 6 23 19 959 18 19 14 11 12 9 10 155 31 120 12 16 12 20 10 11 14 20 11 23 13 25 10 26 8 15 17 15 27 30 12 374 1001 21 11 21 10 11 1209 5 392 9 8 11 195 13 16 14 15 12 11 162 5 6 12 11 467 9 9 17 8 17 17 8 21 11 10 12 19 7 7 963 9 10 15 214 1016 18 21 13 21 18 8 14 8 11 20 16 14 12 15 12 298 23 11 8 23 13 12 13 12 20 261 9 458 15 15 10 13 690 12 13 11 1484 15 19 18 24 35 13 10 649 13 13 8 16 18 13 11 15 12 10 12 17 23 20 7 11 17 15 25 12 12 18 15 11 657 8 871 19 9 11 9 19 164 15 10 18 7 23 13 17 12 10 9 19 21 21 12 9 8 12 17 16 25 22 16 1617 4 18 16 528 9 22 392 13 10 1925 30 15 20 10 9 26 18 36 14 421 14 15 14 17 14 19 12 34 10 807 17 14 16 19 11 13 10 11 16 11 16 13 17 11 73 20 69 14 9 18 13 9 10 18 2483 22 46 133 9 9 23 12 9 577 18 12 10 19 25 17 781 263 15 8 19 12 2231 367 10 13 9 10 19 7 12 16 23 2749 9 10 13 1480 81 6 8 14 248 12 17 17 17 10 8 503 14 20 12 497 16 18 10 13 17 12 14 16 17 26 15 588 8 17 19 11 14 139 11 18 253 6 15 15 9 10 782 13 16 296 12 377 341 6 12 10 8 16 12 15 1480 12 9 8 532 18 440 367 12 14 21 23 10 28 13 35 805 16 10 12 18 13 14 17 17 10 2105 13 731 1099 6 24 859 16 488 15 7 17 14 9 9 10 23 89 981 17 12 4 151 11 11 17 13 24 18 1484 12 9 10 6 827 11 312 8707 9 12 6 14 15 17 19 15 982 17 531 18 80 15 511 14 15 16 1497 9 1307 1960 1221 13 19 99 13 11 20 20 12 15 16 14 12 16 7 33 10 21 13 5 14 19 23 521 14 18 639 17 1279 11 9 20 14 21 11 9 19 64 18 20 1387 21 15 9 19 668 13 13 14 17 20 14 13 13 15 16 15 25 12 488 473 25 16 1487 12 18 10 15 7 17 20 21 6 17 11 16 13 28 13 15 525 19 7 16 74 9 23 23 12 20 13 23 11 23 9 4935 1033 245 30 17 1487 26 165 17 7 16 38 10 8 10 18 11 8 8 17 14 8 18 18 10 25 5 14 10 8 16 20 8 17 131 11 11 16 21 14 15 18 9 7 7770 14 14 30 19 14 13 14 13 14 294 11 28 14 18 11 225 8 7 19 16 9 155 17 21 14 63 17 968 9 13 8 1131 8 10 11 16 23 14 1585 19 7 2220 15 12 18 17 10 2113 19 15 20 17 93 12 11 16 18 16 11 3184 13 29 229 9 9 17 16 16 975 21 21 10 695 20 7 14 48 22 13 12 79 9 15 20 28 57 10 31 11 534 8 28 28 487 22 9 18 8 19 477 24 12 8 1492 30 10 11 1497 19 16 20 13 11 16 8 1011 213 12 7 6 7 19 9 7 8 13 650 490 10 8 
To predecode: 0
Predecoding something: 0
Predecode request dropped: 0
sizeofblock_0 0
sizeofblock_1 37723
sizeofblock_2 34707
sizeofblock_3 47987
sizeofblock_4 18883
sizeofblock_5 0
sizeofblock_6 0
sizeofblock_7 0
sizeofblock_8 0
Variant_0 Correct: 1616880 Incorrect: 0 Accuracy: 1
Variant_1 Correct: 2095492 Incorrect: 0 Accuracy: 1
Variant_2 Correct: 3653785 Incorrect: 0 Accuracy: 1
Variant_3 Correct: 0 Incorrect: 0 Accuracy: -nan
