
*** ChampSim Multicore Out-of-Order Simulator ***

Warmup Instructions: 50000000
Simulation Instructions: 50000000
Number of CPUs: 1
LLC sets: 2048
LLC ways: 16
Off-chip DRAM Size: 4096 MB Channels: 1 Width: 64-bit Data Rate: 6400 MT/s
CPU 0 runs ./micro_traces/srv74.trace.gz
.gz
ITLB has LRU replacement policy
DTLB has LRU replacement policy
STLB has LRU replacement policy
FDIP Prefetcher at L1I
L1I has LRU replacement policy
L1D has LRU replacement policy
Initialize SRRIP state for L2C
Initialize DRRIP state for LLC
Heartbeat CPU 0 instructions: 10000003 cycles: 2796809 heartbeat IPC: 3.5755 cumulative IPC: 3.5755 (Simulation time: 0 hr 2 min 55 sec) 
Heartbeat CPU 0 instructions: 20000001 cycles: 5594139 heartbeat IPC: 3.57484 cumulative IPC: 3.57517 (Simulation time: 0 hr 4 min 30 sec) 
Heartbeat CPU 0 instructions: 30000002 cycles: 8391119 heartbeat IPC: 3.57529 cumulative IPC: 3.57521 (Simulation time: 0 hr 6 min 10 sec) 
Heartbeat CPU 0 instructions: 40000002 cycles: 11187034 heartbeat IPC: 3.57665 cumulative IPC: 3.57557 (Simulation time: 0 hr 7 min 44 sec) 
Heartbeat CPU 0 instructions: 50000002 cycles: 13982433 heartbeat IPC: 3.57731 cumulative IPC: 3.57592 (Simulation time: 0 hr 9 min 18 sec) 

Warmup complete CPU 0 instructions: 50000002 cycles: 13982433 (Simulation time: 0 hr 9 min 18 sec) 

Cycle: 20000000 FTQ IN: 57845047 FTQ occupancy: 19.1427 DECODE IN: 57845010 DECODE occupancy: 49.4586 ROB IN: 57844996 ROB occupancy: 300.32 ROB OUT: 57844745
Heartbeat CPU 0 instructions: 60000001 cycles: 21651003 heartbeat IPC: 1.30402 cumulative IPC: 1.30402 (Simulation time: 0 hr 10 min 55 sec) 
Heartbeat CPU 0 instructions: 70000001 cycles: 29445266 heartbeat IPC: 1.28299 cumulative IPC: 1.29342 (Simulation time: 0 hr 12 min 31 sec) 
Cycle: 30000000 FTQ IN: 12874684 FTQ occupancy: 10.3581 DECODE IN: 12874670 DECODE occupancy: 25.1035 ROB IN: 12874684 ROB occupancy: 188.344 ROB OUT: 12874587
Heartbeat CPU 0 instructions: 80000000 cycles: 37111257 heartbeat IPC: 1.30446 cumulative IPC: 1.29708 (Simulation time: 0 hr 14 min 10 sec) 
Cycle: 40000000 FTQ IN: 13080139 FTQ occupancy: 10.271 DECODE IN: 13080152 DECODE occupancy: 25.1361 ROB IN: 13080152 ROB occupancy: 189.486 ROB OUT: 13080252
Heartbeat CPU 0 instructions: 90000003 cycles: 44889121 heartbeat IPC: 1.2857 cumulative IPC: 1.29422 (Simulation time: 0 hr 15 min 49 sec) 
Cycle: 50000000 FTQ IN: 12884418 FTQ occupancy: 10.3328 DECODE IN: 12884454 DECODE occupancy: 24.9435 ROB IN: 12884447 ROB occupancy: 185.84 ROB OUT: 12884540
Heartbeat CPU 0 instructions: 100000003 cycles: 52527771 heartbeat IPC: 1.30913 cumulative IPC: 1.29717 (Simulation time: 0 hr 17 min 28 sec) 
Finished CPU 0 instructions: 50000001 cycles: 38545338 cumulative IPC: 1.29717 (Simulation time: 0 hr 17 min 28 sec) 

ChampSim completed all CPUs

Region of Interest Statistics

CPU 0 cumulative IPC: 1.29717 instructions: 50000001 cycles: 38545338
 Fetch stage stalled: 60.0826  Sim cycles: 38545338 fetch stall cycle: 23159055
 Empty decode stage: 45.5514  Sim cycles: 38545338 fetch stall cycle: 17557941
ITLB TOTAL     ACCESS:    5674877  HIT:    5182178  MISS:     492699  HIT %:    91.3179  MISS %:    8.68211   MPKI: 9.85398
ITLB LOAD TRANSLATION INSTRUCTION	ACCESS:    5548765  HIT:    5056066  MISS:     492699  HIT %:    91.1206  MISS %:    8.87944  MPKI: 9.85398
ITLB TRANSLATION FROM L1D PREFETCHER INSTRUCTION	ACCESS:     126112  HIT:     126112  MISS:          0  HIT %:        100  MISS %:          0  MPKI: 0

ITLB AVERAGE MISS LATENCY: 9.04661 cycles
ITLB RQ	ACCESS:    7646321	FORWARD:          0	MERGED:    1477395	TO_CACHE:    6168926

DTLB TOTAL     ACCESS:    9078624  HIT:    8607662  MISS:     470962  HIT %:    94.8124  MISS %:    5.18759   MPKI: 9.41924
DTLB LOAD TRANSLATION DATA	ACCESS:    9078624  HIT:    8607662  MISS:     470962  HIT %:    94.8124  MISS %:    5.18759  MPKI: 9.41924

DTLB AVERAGE MISS LATENCY: 9.29631 cycles
DTLB RQ	ACCESS:   13418599	FORWARD:          0	MERGED:    4304387	TO_CACHE:    9114212

STLB TOTAL     ACCESS:    1211011  HIT:    1209076  MISS:       1935  HIT %:    99.8402  MISS %:   0.159784   MPKI: 0.0387
STLB LOAD TRANSLATION INSTRUCTION	ACCESS:     492699  HIT:     492460  MISS:        239  HIT %:    99.9515  MISS %:  0.0485083  MPKI: 0.00478
STLB LOAD TRANSLATION DATA	ACCESS:     470917  HIT:     469245  MISS:       1672  HIT %:    99.6449  MISS %:   0.355052  MPKI: 0.03344
STLB TRANSLATION FROM L1D PREFETCHER DATA	ACCESS:     247395  HIT:     247371  MISS:         24  HIT %:    99.9903  MISS %: 0.00970109  MPKI: 0.00048

STLB AVERAGE MISS LATENCY: 69.661 cycles
STLB RQ	ACCESS:    1331849	FORWARD:          0	MERGED:     120789	TO_CACHE:    1211060

STLB Hit, L1D data hit: 0
STLB Hit, L2C data hit: 0
STLB Hit, LLC data hit: 0
STLB Hit, LLC data miss: 0
STLB STLB hints to L2: 0
L1D TOTAL     ACCESS:   13179564  HIT:   12068711  MISS:    1110853  HIT %:    91.5714  MISS %:     8.4286   MPKI: 22.2171
L1D LOAD DATA	ACCESS:    6634745  HIT:    5900388  MISS:     734357  HIT %:    88.9316  MISS %:    11.0684  MPKI: 14.6871
L1D RFO DATA	ACCESS:    6216279  HIT:    5932513  MISS:     283766  HIT %:    95.4351  MISS %:    4.56489  MPKI: 5.67532
L1D PREFETCH DATA	ACCESS:     328540  HIT:     235810  MISS:      92730  HIT %:    71.7751  MISS %:    28.2249  MPKI: 1.8546

L1D PREFETCH  REQUESTED:     736672  ISSUED:     736672  USEFUL:      32795  USELESS:      67138
L1D USEFUL LOAD PREFETCHES:      32795 PREFETCH ISSUED TO LOWER LEVEL:      99980  ACCURACY: 32.8016
 TIMELY PREFETCHES:      32795 LATE PREFETCHES: 7208 DROPPED PREFETCHES: 12
L1D AVERAGE MISS LATENCY: 217979 cycles
L1D RQ	ACCESS:   10744437	FORWARD:          0	MERGED:    3911466	TO_CACHE:    6667325
L1D WQ	ACCESS:    6941120	FORWARD:     165942	MERGED:     189846	TO_CACHE:    6751274
L1D PQ	ACCESS:     368484	FORWARD:          0	MERGED:          0	TO_CACHE:     368188

L1D UNIQUE REGIONS ACCESSED: 0
L1D REGIONS CONFLICTS: 0
L1D Cross Page Prefetch Requests: 6996
L1D Same Page Prefetch Requests: 748089
L1D ROI Sum of L1D PQ occupancy: 4673312
L1D PREFETCHES PUSHED FROM L2C: 0
L1I TOTAL     ACCESS:    6994524  HIT:    4237736  MISS:    2756788  HIT %:    60.5865  MISS %:    39.4135   MPKI: 55.1358
L1I LOAD INSTRUCTION	ACCESS:    6406618  HIT:    3649830  MISS:    2756788  HIT %:    56.9697  MISS %:    43.0303  MPKI: 55.1358
L1I PREFETCH INSTRUCTION	ACCESS:     587906  HIT:     587906  MISS:          0  HIT %:        100  MISS %:          0  MPKI: 0

L1I PREFETCH  REQUESTED:    1368825  ISSUED:    1368825  USEFUL:          0  USELESS:          0
L1I USEFUL LOAD PREFETCHES:          0 PREFETCH ISSUED TO LOWER LEVEL:          0  ACCURACY: -nan
 TIMELY PREFETCHES:          0 LATE PREFETCHES: 0 DROPPED PREFETCHES: 0
L1I AVERAGE MISS LATENCY: 16.8993 cycles
L1I RQ	ACCESS:    9500777	FORWARD:          0	MERGED:    2835961	TO_CACHE:    6664816
L1I PQ	ACCESS:    1368825	FORWARD:          0	MERGED:     387320	TO_CACHE:     981505

L1BTB TOTAL     ACCESS:    5669405  HIT:    2046852  MISS:    3622553  HIT %:    36.1035  MISS %:    63.8965   MPKI: 72.4511
L1BTB BRANCH_DIRECT_JUMP	ACCESS:     548178 HIT:     144938 MISS:     403240 AVERAGE STALL: 42.4224 AVERAGE FETCH STALL: 19.3619 AVERAGE FETCH QUEUE STALL: 10.9498 AVERAGE DECODE STALL: 11.2768 AVERAGE EXECUTE STALL: 6.24213e+14
L1BTB BRANCH_INDIRECT	ACCESS:     182906 HIT:      66117 MISS:     116789 AVERAGE STALL: 101.655 AVERAGE FETCH STALL: 12.6367 AVERAGE FETCH QUEUE STALL: 12.9785 AVERAGE DECODE STALL: 10.6069 AVERAGE EXECUTE STALL: 64.494
L1BTB BRANCH_CONDITIONAL	ACCESS:    2706775 HIT:    1416521 MISS:    1290254 AVERAGE STALL: 46.4074 AVERAGE FETCH STALL: 22.3845 AVERAGE FETCH QUEUE STALL: 13.4 AVERAGE DECODE STALL: 9.85936 AVERAGE EXECUTE STALL: 2.57993e+14
L1BTB BRANCH_DIRECT_CALL	ACCESS:     943781 HIT:     106075 MISS:     837706 AVERAGE STALL: 44.7169 AVERAGE FETCH STALL: 22.0918 AVERAGE FETCH QUEUE STALL: 12.1525 AVERAGE DECODE STALL: 9.72969 AVERAGE EXECUTE STALL: 3.49555e+14
L1BTB BRANCH_INDIRECT_CALL	ACCESS:     171992 HIT:      21754 MISS:     150238 AVERAGE STALL: 122.253 AVERAGE FETCH STALL: 14.779 AVERAGE FETCH QUEUE STALL: 10.2933 AVERAGE DECODE STALL: 8.37877 AVERAGE EXECUTE STALL: 88.2736
L1BTB BRANCH_RETURN	ACCESS:    1115773 HIT:     291447 MISS:     824326 AVERAGE STALL: 43.0271 AVERAGE FETCH STALL: 18.2368 AVERAGE FETCH QUEUE STALL: 6.88067 AVERAGE DECODE STALL: 6.57138 AVERAGE EXECUTE STALL: 2.65333e+14
L1BTB BRANCH_OTHER ACCESS:          0 HIT:          0 MISS:          0 AVERAGE STALL: -nan AVERAGE FETCH STALL: -nan AVERAGE FETCH QUEUE STALL: -nan AVERAGE DECODE STALL: -nan AVERAGE EXECUTE STALL: -nan
L1BTB TOTAL ROB OCCUPANCY AT BTB MISS: 9.53947

L2BTB TOTAL     ACCESS:    3597132  HIT:    3359014  MISS:     238118  HIT %:    93.3803  MISS %:    6.61966   MPKI: 4.76236
L2BTB BRANCH_DIRECT_JUMP	ACCESS:     399050 HIT:     373686 MISS:      25364 AVERAGE STALL: 42.4224 AVERAGE FETCH STALL: 19.3619 AVERAGE FETCH QUEUE STALL: 10.9498 AVERAGE DECODE STALL: 11.2768 AVERAGE EXECUTE STALL: 6.24213e+14
L2BTB BRANCH_INDIRECT	ACCESS:     106535 HIT:     101854 MISS:       4681 AVERAGE STALL: 101.655 AVERAGE FETCH STALL: 12.6367 AVERAGE FETCH QUEUE STALL: 12.9785 AVERAGE DECODE STALL: 10.6069 AVERAGE EXECUTE STALL: 64.494
L2BTB BRANCH_CONDITIONAL	ACCESS:    1290254 HIT:    1218390 MISS:      71864 AVERAGE STALL: 46.4074 AVERAGE FETCH STALL: 22.3845 AVERAGE FETCH QUEUE STALL: 13.4 AVERAGE DECODE STALL: 9.85936 AVERAGE EXECUTE STALL: 2.57993e+14
L2BTB BRANCH_DIRECT_CALL	ACCESS:     837706 HIT:     784922 MISS:      52784 AVERAGE STALL: 44.7169 AVERAGE FETCH STALL: 22.0918 AVERAGE FETCH QUEUE STALL: 12.1525 AVERAGE DECODE STALL: 9.72969 AVERAGE EXECUTE STALL: 3.49555e+14
L2BTB BRANCH_INDIRECT_CALL	ACCESS:     140663 HIT:     125373 MISS:      15290 AVERAGE STALL: 122.253 AVERAGE FETCH STALL: 14.779 AVERAGE FETCH QUEUE STALL: 10.2933 AVERAGE DECODE STALL: 8.37877 AVERAGE EXECUTE STALL: 88.2736
L2BTB BRANCH_RETURN	ACCESS:     822924 HIT:     754789 MISS:      68135 AVERAGE STALL: 43.0271 AVERAGE FETCH STALL: 18.2368 AVERAGE FETCH QUEUE STALL: 6.88067 AVERAGE DECODE STALL: 6.57138 AVERAGE EXECUTE STALL: 2.65333e+14
L2BTB BRANCH_OTHER ACCESS:          0 HIT:          0 MISS:          0 AVERAGE STALL: -nan AVERAGE FETCH STALL: -nan AVERAGE FETCH QUEUE STALL: -nan AVERAGE DECODE STALL: -nan AVERAGE EXECUTE STALL: -nan
L2BTB TOTAL ROB OCCUPANCY AT BTB MISS: 145.127

L2C TOTAL     ACCESS:    4469403  HIT:    4049383  MISS:     420020  HIT %:    90.6023  MISS %:    9.39768   MPKI: 8.4004
L2C LOAD INSTRUCTION	ACCESS:    2756789  HIT:    2529666  MISS:     227123  HIT %:    91.7613  MISS %:    8.23868  MPKI: 4.54246
L2C LOAD TRANSLATION INSTRUCTION	ACCESS:        269  HIT:         54  MISS:        215  HIT %:    20.0743  MISS %:    79.9257  MPKI: 0.0043
L2C LOAD DATA	ACCESS:     727124  HIT:     658380  MISS:      68744  HIT %:    90.5458  MISS %:    9.45423  MPKI: 1.37488
L2C RFO DATA	ACCESS:     283704  HIT:     236712  MISS:      46992  HIT %:    83.4363  MISS %:    16.5637  MPKI: 0.93984
L2C PREFETCH DATA	ACCESS:     180801  HIT:     116430  MISS:      64371  HIT %:    64.3968  MISS %:    35.6032  MPKI: 1.28742
L2C WRITEBACK DATA	ACCESS:     518946  HIT:     507612  MISS:      11334  HIT %:     97.816  MISS %:    2.18404  MPKI: 0.22668
L2C LOAD TRANSLATION DATA	ACCESS:       1716  HIT:        494  MISS:       1222  HIT %:    28.7879  MISS %:    71.2121  MPKI: 0.02444
L2C TRANSLATION FROM L1D PREFETCHER DATA	ACCESS:         54  HIT:         35  MISS:         19  HIT %:    64.8148  MISS %:    35.1852  MPKI: 0.00038

L2C PREFETCH  REQUESTED:      88093  ISSUED:      88093  USEFUL:       7725  USELESS:      57121
L2C USEFUL LOAD PREFETCHES:       7725 PREFETCH ISSUED TO LOWER LEVEL:      64818  ACCURACY: 11.918
 TIMELY PREFETCHES:       7725 LATE PREFETCHES: 447 DROPPED PREFETCHES: 0
L2C AVERAGE MISS LATENCY: 39.0897 cycles
L2C RQ	ACCESS:    3769703	FORWARD:          0	MERGED:          0	TO_CACHE:    3769658
L2C WQ	ACCESS:     518946	FORWARD:         45	MERGED:          0	TO_CACHE:     518946
L2C PQ	ACCESS:     188073	FORWARD:          0	MERGED:       3601	TO_CACHE:     184472

L2C Dense regions hint from L2: 0
PSCL5 TOTAL     ACCESS:       3904  HIT:       1952  MISS:       1952  HIT %:         50  MISS %:         50   MPKI: 0.03904
PSCL5 LOAD TRANSLATION INSTRUCTION	ACCESS:       3796  HIT:       1898  MISS:       1898  HIT %:         50  MISS %:         50  MPKI: 0.03796
PSCL5 TRANSLATION FROM L1D PREFETCHER INSTRUCTION	ACCESS:        108  HIT:         54  MISS:         54  HIT %:         50  MISS %:         50  MPKI: 0.00108


PSCL4 TOTAL     ACCESS:       3853  HIT:       1924  MISS:       1929  HIT %:    49.9351  MISS %:    50.0649   MPKI: 0.03858
PSCL4 LOAD TRANSLATION INSTRUCTION	ACCESS:       3485  HIT:       1876  MISS:       1609  HIT %:    53.8307  MISS %:    46.1693  MPKI: 0.03218
PSCL4 TRANSLATION FROM L1D PREFETCHER INSTRUCTION	ACCESS:         96  HIT:         48  MISS:         48  HIT %:         50  MISS %:         50  MPKI: 0.00096
PSCL4 LOAD TRANSLATION DATA	ACCESS:        272  HIT:          0  MISS:        272  HIT %:          0  MISS %:        100  MPKI: 0.00544


PSCL3 TOTAL     ACCESS:       3859  HIT:       1927  MISS:       1932  HIT %:    49.9352  MISS %:    50.0648   MPKI: 0.03864
PSCL3 LOAD TRANSLATION INSTRUCTION	ACCESS:       3488  HIT:       1879  MISS:       1609  HIT %:    53.8704  MISS %:    46.1296  MPKI: 0.03218
PSCL3 TRANSLATION FROM L1D PREFETCHER INSTRUCTION	ACCESS:         96  HIT:         48  MISS:         48  HIT %:         50  MISS %:         50  MPKI: 0.00096
PSCL3 LOAD TRANSLATION DATA	ACCESS:        275  HIT:          0  MISS:        275  HIT %:          0  MISS %:        100  MPKI: 0.0055


PSCL2 TOTAL     ACCESS:       3826  HIT:       1874  MISS:       1952  HIT %:    48.9807  MISS %:    51.0193   MPKI: 0.03904
PSCL2 LOAD TRANSLATION INSTRUCTION	ACCESS:       2059  HIT:       1820  MISS:        239  HIT %:    88.3924  MISS %:    11.6076  MPKI: 0.00478
PSCL2 TRANSLATION FROM L1D PREFETCHER INSTRUCTION	ACCESS:         54  HIT:         54  MISS:          0  HIT %:        100  MISS %:          0  MPKI: 0
PSCL2 LOAD TRANSLATION DATA	ACCESS:       1659  HIT:          0  MISS:       1659  HIT %:          0  MISS %:        100  MPKI: 0.03318
PSCL2 TRANSLATION FROM L1D PREFETCHER DATA	ACCESS:         54  HIT:          0  MISS:         54  HIT %:          0  MISS %:        100  MPKI: 0.00108


LLC TOTAL     ACCESS:     473788  HIT:     447048  MISS:      26740  HIT %:    94.3561  MISS %:    5.64387   MPKI: 0.5348
LLC LOAD INSTRUCTION	ACCESS:     227123  HIT:     226497  MISS:        626  HIT %:    99.7244  MISS %:   0.275622  MPKI: 0.01252
LLC LOAD TRANSLATION INSTRUCTION	ACCESS:        215  HIT:        185  MISS:         30  HIT %:    86.0465  MISS %:    13.9535  MPKI: 0.0006
LLC LOAD DATA	ACCESS:      68313  HIT:      65086  MISS:       3227  HIT %:    95.2762  MISS %:    4.72384  MPKI: 0.06454
LLC RFO DATA	ACCESS:      46973  HIT:      33927  MISS:      13046  HIT %:    72.2266  MISS %:    27.7734  MPKI: 0.26092
LLC PREFETCH DATA	ACCESS:      64818  HIT:      55384  MISS:       9434  HIT %:    85.4454  MISS %:    14.5546  MPKI: 0.18868
LLC WRITEBACK DATA	ACCESS:      65105  HIT:      64788  MISS:        317  HIT %:    99.5131  MISS %:   0.486906  MPKI: 0.00634
LLC LOAD TRANSLATION DATA	ACCESS:       1222  HIT:       1163  MISS:         59  HIT %:    95.1718  MISS %:    4.82815  MPKI: 0.00118
LLC TRANSLATION FROM L1D PREFETCHER DATA	ACCESS:         19  HIT:         18  MISS:          1  HIT %:    94.7368  MISS %:    5.26316  MPKI: 2e-05

LLC AVERAGE MISS LATENCY: 153.919 cycles
LLC RQ	ACCESS:     343868	FORWARD:          0	MERGED:          0	TO_CACHE:     343865
LLC WQ	ACCESS:      65105	FORWARD:          3	MERGED:          0	TO_CACHE:      65105
LLC PQ	ACCESS:      64818	FORWARD:          0	MERGED:          0	TO_CACHE:      64818

LLC Dense regions hint to LLC: 0

RAW hits: 1885643
Loads Generated: 12630080
Loads sent to L1D: 10744437
Stores Generated: 6941120
Stores sent to L1D: 6941120
Major fault: 0 Minor fault: 2614
Allocated PAGES: 2614

stream: 
stream:times selected: 1186802
stream:pref_filled: 119957
stream:pref_useful: 23906
stream:pref_late: 6383
stream:misses: 8210
stream:misses_by_poll: 0

CS: 
CS:times selected: 178802
CS:pref_filled: 59526
CS:pref_useful: 36299
CS:pref_late: 6356
CS:misses: 15717
CS:misses_by_poll: 3

CPLX: 
CPLX:times selected: 1006828
CPLX:pref_filled: 19649
CPLX:pref_useful: 4752
CPLX:pref_late: 2938
CPLX:misses: 93238
CPLX:misses_by_poll: 0

NL_L1: 
NL:times selected: 21330
NL:pref_filled: 735
NL:pref_useful: 360
NL:pref_late: 297
NL:misses: 1770
NL:misses_by_poll: 0

total selections: 2393762
total_filled: 92730
total_useful: 32795
total_late: 17277
total_polluted: 3
total_misses_after_warmup: 766938
conflicts: 5555733

test: 117319

DRAM Statistics
 CHANNEL 0
 RQ ROW_BUFFER_HIT:      10039  ROW_BUFFER_MISS:      16380
 DBUS_CONGESTED:         10
 WQ ROW_BUFFER_HIT:       1210  ROW_BUFFER_MISS:      11399  FULL:          0

 AVG_CONGESTED_CYCLE: 4

CPU 0 Branch Prediction Accuracy: 99.8291% MPKI: 0.31266 Average ROB Occupancy at Mispredict: 179.068
Branch types
NOT_BRANCH: 40854943 81.7099%
BRANCH_DIRECT_JUMP: 548178 1.09636%
BRANCH_INDIRECT: 182906 0.365812%
BRANCH_CONDITIONAL: 6182177 12.3644%
BRANCH_DIRECT_CALL: 943781 1.88756%
BRANCH_INDIRECT_CALL: 171992 0.343984%
BRANCH_RETURN: 1115773 2.23155%
BRANCH_OTHER: 0 0%

DRAM PAGES: 1048576
Allocated PAGES: 2614
Average_ROB_Occupancy: 189.664
Average_Decode_Occupancy: 25.0705
Average_FTQ_Occupancy: 10.3043
Indirect max targets: 14 Average targets: 1.17891
Branch_type:  BRANCH_DIRECT_JUMP:  Count Percentage: 1.61907 6.99713 4.54694 8.4276 3.10441 6.29033 1.92002 67.0945 
Branch_type:  BRANCH_INDIRECT:  Count Percentage: 6.16502 3.48061 2.56056 0 1.33619 9.66613 4.14392 72.6476 
Branch_type:  BRANCH_CONDITIONAL:  Count Percentage: 20.8785 6.56368 1.82751 5.01127 2.32594 4.14935 3.00875 56.2349 
Branch_type:  BRANCH_DIRECT_CALL:  Count Percentage: 0.259487 1.96293 1.28201 3.77965 3.71254 2.34683 4.30557 82.351 
Branch_type:  BRANCH_INDIRECT_CALL:  Count Percentage: 6.53959 0 2.98495 8.68239 1.25261 2.02694 6.40336 72.1102 
Branch_type:  BRANCH_RETURN:  Count Percentage: 4.29521 4.76347 1.49206 5.82542 3.96246 4.8508 4.9747 69.8359 
Branch_type:  BRANCH_DIRECT_JUMP:  Total Count: 17737 76654 49812 92325 34009 68911 21034 735025 
Branch_type:  BRANCH_INDIRECT:  Total Count: 22548 12730 9365 0 4887 35353 15156 265702 
Branch_type:  BRANCH_CONDITIONAL:  Total Count: 2579877 811048 225818 619223 287407 512719 371779 6948726 
Branch_type:  BRANCH_DIRECT_CALL:  Total Count: 4895 37029 24184 71300 70034 44271 81221 1553482 
Branch_type:  BRANCH_INDIRECT_CALL:  Total Count: 22465 0 10254 29826 4303 6963 21997 247715 
Branch_type:  BRANCH_RETURN:  Total Count: 95818 106264 33285 129954 88395 108212 110976 1557905 
Number of unique branch instructions: 10791
Upper 32 bits: 
aaaa
ffff
ffff0000
Unique upper 32 bits: 3
Unique upper 36 bits: 3
Unique upper 40 bits: 5
Unique upper 44 bits: 32
Unique upper 48 bits: 158
Offset_3 4474
Offset_4 260
Offset_5 482
Offset_6 542
Offset_7 640
Offset_8 576
Offset_9 525
Offset_10 429
Offset_11 363
Offset_12 312
Offset_13 236
Offset_14 244
Offset_15 194
Offset_16 233
Offset_17 168
Offset_18 149
Offset_19 257
Offset_20 143
Offset_21 235
Offset_22 416
Offset_23 241
Offset_24 344
Offset_25 117
Offset_47 92
decode_dispatch_called: 22563691 58.5381
Dispatch_width: 0 11727039 51.9731 30.424
Dispatch_width: 1 727544 3.2244 1.8875
Dispatch_width: 2 722333 3.20131 1.87398
Dispatch_width: 3 431552 1.91259 1.1196
Dispatch_width: 4 3489268 15.4641 9.05237
Dispatch_width: 5 219877 0.974473 0.570437
Dispatch_width: 6 5246078 23.2501 13.6101
Empty_decode_cycles: 15981647 41.4619
ROB_full_cycles: 5569768 14.4499
Starvation_cycles_per_kilo_instr: 277.295
Starvation_cycles_per_kilo_instr_3: 240.203
Starvation_cycles_per_kilo_instr_0: 221.389
Branch_type_1  (3,1)  (4,9)  (5,39)  (6,74)  (7,123)  (8,151)  (9,138)  (10,111)  (11,80)  (12,48)  (13,11)  (14,2)  (15,3)  (16,4)  (18,1)  (19,5)  (20,2)  (21,1)  (22,3)  (23,2)  (24,10)  (25,12) 
Branch_type_2  (3,1)  (4,1)  (5,1)  (8,4)  (9,4)  (10,1)  (12,1)  (13,1)  (14,1)  (16,3)  (17,2)  (20,2)  (21,2)  (23,5)  (24,1)  (47,41) 
Branch_type_3  (3,4472)  (4,250)  (5,438)  (6,452)  (7,487)  (8,356)  (9,288)  (10,174)  (11,147)  (12,55)  (13,10) 
Branch_type_4  (6,3)  (7,8)  (8,25)  (9,56)  (10,68)  (11,70)  (12,116)  (13,100)  (14,110)  (15,92)  (16,102)  (17,79)  (18,65)  (19,125)  (20,73)  (21,124)  (22,220)  (23,136)  (24,199)  (25,101) 
Branch_type_5  (8,3)  (9,1)  (10,4)  (11,5)  (12,3)  (13,14)  (14,16)  (15,11)  (16,22)  (17,11)  (18,23)  (19,14)  (20,11)  (21,13)  (22,43)  (23,26)  (24,38) 
Branch_type_6  (5,4)  (6,13)  (7,22)  (8,37)  (9,38)  (10,71)  (11,61)  (12,89)  (13,100)  (14,115)  (15,88)  (16,102)  (17,76)  (18,60)  (19,113)  (20,55)  (21,95)  (22,150)  (23,72)  (24,96)  (25,4)  (47,51) 
aaaaab1fc620: 2ac9e77e 2aca717c 2aca8eff 2acaf6bc 2acaf9aa 2acaf9f1 2acb1abc 2acb1b7f 2acd4e22 2acdb712 2acf5f9e 2ad0ef44 2ad3f15c 2ad414e6 2ad60e42 2ad8609c 2ad99830 2ada35cc 2ada4676 2ada6612 2adf183e 2adf30e5 2adf5602 2adf785c 2ae11572 2aeb2dcf 2aee101b 2aee1ae1 2b156a8c 2b156b61 2b156bea 2b167f35 2b177656 2b17feec 2b1a3e5a 
aaaaab1fc640: 2ac9ec07 2aca656e 2aca801d 2acaea11 2acaee73 2acb13ee 2acb1470 2acd462b 2ad0ef5d 2ad3f3fe 2ad86e9b 2ada1641 2ada4115 2ada6638 2adf30d4 2ae12e57 2aee1033 2b1693ab 2b16948c 2b169491 2b17d915 2b17fa85 2b17fccd 
aaaaab1fcb00: 2acf2d72 2acf3734 2acf604c 2acfa5b7 2ad397b5 2ad3b800 2ae8af7d 2ae8aff0 2ae9aaba 2aea9fc6 2aeaa358 2aee910b 2aee91cf 2aee928e 2aee92e4 2af6fe87 2af70dfe 2b16850c 2b16c4a2 2b1765f4 2b178094 2b17d925 2b17db06 2b17ec8f 
aaaaab1fcb10: 2acf2d95 2acf3758 2acf6052 2acfa5f4 2ad397c3 2ad3b81c 2ae8af88 2ae8affe 2ae9aacf 2aeaa017 2aeaa36d 2aee9114 2aee91d8 2aee934d 2aee9353 2af6fe8c 2af70e22 2b168526 2b16c542 2b176609 2b1780a3 2b17d95d 2b17db44 2b17ecac 
aaaaac68f310: 2ac9ec8c 2ac9fb44 2ac9fbd2 2aca59ab 2acac04c 2acaf6e0 2acaf6ec 2acaf6f9 2acaf700 2acaf708 2acf2d90 2ad3cfbd 2ad3cfc4 2ad3d000 2ad3f35f 2ad4955d 2ad49571 2ad4f3f2 2ad4f400 2ad5f240 2ad5f37c 2ad5f86a 2ad5f86f 2ad5f880 2ad5fc0d 2ad5fc14 2ad5fc21 2ad5fe1b 2ad873bb 2ad873e3 2ad8a6b2 2ad9086e 2ad93096 2ad9bbb2 2ada152c 2ada1554 2ada3332 2ada5522 2adf3130 2adf313c 2adf3a3f 2adf3bd9 2adf5788 2adf7a8d 2ae07f6b 2ae0857a 2ae0857e 2ae08630 2ae08634 2ae08637 2ae08642 2ae0866f 2ae086e4 2ae086ec 2ae08717 2ae0871b 2aee0170 2aee1d38 2aee75f4 2aee7662 2aee85ca 2aee85e4 2aee8eef 2af70b84 2af74e8f 2b17d843 
aaaaac690ef0: 2aca598b 2acb111b 2acb175f 2acb1772 2acbfaf4 2acbfb00 2acf374f 2acf6d43 2acfa5c8 2ad3baf1 2ad3d4ac 2ad3d4b8 2ad3f1cf 2ad486b2 2ad5a59b 2ad5fc64 2ad5fcf9 2ad6121c 2ad906e9 2ad907bf 2ad9bada 2ada16ce 2ada1ad5 2ada43df 2ada64c0 2ada72ee 2adeb71a 2adf3bcb 2adf7a38 2adf7c6a 2adf8872 2adf8880 2adf9959 2adf9abe 2ae07f78 2ae08503 2ae08754 2ae12e80 2aea3bea 2aecb509 2aee00b0 2aee2bdd 2aee5467 2aee5601 2aee8f20 2af703fd 2af7048b 2af74e74 
Unique trigger count: 
1 10280
2 558
3 90
4 33
5 16
6 9
7 8
8 1
9 3
10 3
11 1
12 1
13 2
14 2
16 2
19 2
23 1
24 2
35 1
48 1
66 1
BTB PER SET UNIQUE ADDR: 6 8 6 5 3 4 7 9 10 2 5 2 8 5 4 4 6 4 8 9 5 8 8 8 8 11 1 7 6 6 10 10 6 5 8 4 4 7 7 3 8 5 7 10 9 9 6 12 11 6 5 3 13 2 2 7 5 5 9 8 4 12 5 8 6 9 9 9 6 7 6 2 6 5 6 7 6 14 6 5 9 6 7 6 6 7 7 8 8 10 10 9 9 6 8 5 10 8 5 6 8 7 9 9 7 8 7 8 7 5 7 7 4 8 6 11 3 7 6 2 8 9 4 3 6 4 4 7 11 8 11 3 11 5 9 7 5 3 6 8 8 8 7 6 5 11 5 8 12 7 7 14 6 10 6 9 8 9 7 11 11 8 11 5 11 8 3 4 13 7 6 4 8 7 4 3 6 6 10 5 6 8 10 8 9 11 6 6 6 8 6 8 6 7 6 10 11 4 11 5 4 6 9 4 8 4 5 8 7 2 3 6 9 9 7 6 4 9 8 6 6 4 6 7 7 8 14 7 3 11 14 9 4 5 7 9 11 5 4 5 5 3 11 8 17 11 2 7 6 7 9 10 6 7 5 13 4 8 11 6 8 5 7 4 9 16 7 5 7 5 7 7 4 9 10 9 7 4 4 8 9 5 10 5 9 9 8 7 8 4 5 7 4 11 7 4 6 10 6 6 6 6 5 4 6 5 6 4 13 9 7 5 8 4 6 5 10 14 7 6 7 11 5 8 5 6 6 10 3 3 9 2 6 7 10 5 7 8 8 1 6 6 2 9 7 7 3 8 10 7 5 13 11 7 8 7 7 2 8 5 7 10 6 8 11 8 4 4 4 4 8 4 6 5 8 4 11 8 7 10 9 7 6 12 6 5 8 5 8 4 9 5 8 4 6 4 6 5 2 9 7 5 7 7 5 5 8 5 4 3 5 3 11 7 2 6 10 4 2 7 2 6 7 8 10 8 4 2 4 8 3 4 15 5 8 11 6 6 7 4 5 6 10 3 7 9 6 6 5 5 6 3 5 3 9 3 6 7 11 6 5 4 7 12 5 5 12 3 6 6 2 6 10 7 4 3 10 5 3 3 5 2 3 4 3 7 8 4 7 2 12 5 4 8 2 12 4 7 5 5 11 3 4 3 2 5 5 3 5 6 7 4 8 11 3 4 2 10 6 9 7 5 8 6 11 9 6 10 9 8 8 6 6 8 5 8 7 1 6 4 5 8 11 4 9 5 10 14 14 11 7 9 7 8 2 6 9 3 7 4 10 5 9 5 5 7 10 9 11 7 8 4 11 12 7 7 7 12 3 10 13 5 2 6 5 3 3 14 7 5 8 8 4 7 5 5 9 5 6 5 13 5 11 11 8 5 5 9 7 5 8 8 7 6 8 5 7 5 5 7 9 7 11 3 5 11 8 8 4 6 8 7 7 7 7 8 6 7 6 4 11 8 4 6 3 3 7 8 8 8 7 5 11 3 5 4 11 5 6 8 12 3 6 11 7 8 7 6 6 11 7 8 6 7 11 10 8 6 8 6 9 12 9 6 8 8 7 9 8 6 3 8 3 5 5 7 10 7 7 9 3 12 6 5 7 12 3 4 5 5 7 8 6 5 5 7 12 6 1 8 5 3 5 4 4 3 3 9 2 11 8 11 8 2 7 8 10 3 6 4 5 8 5 10 4 5 6 4 7 7 7 3 4 7 2 5 5 10 9 4 5 6 6 7 7 6 14 6 6 3 9 7 0 5 7 5 6 10 4 3 8 6 4 6 11 9 9 8 3 9 4 9 6 7 6 13 12 5 6 4 13 4 9 4 7 7 7 9 5 7 3 4 6 5 5 6 1 5 5 10 7 4 9 4 5 5 6 4 7 6 7 3 7 4 10 6 4 5 6 5 5 5 7 6 5 8 9 6 6 4 8 8 6 9 6 11 8 5 7 6 7 7 4 4 14 7 6 8 10 10 4 7 6 10 7 2 2 6 7 4 5 7 6 7 10 5 7 5 5 7 9 3 5 8 6 3 9 13 4 3 12 9 5 6 9 7 7 11 6 9 9 7 5 4 3 10 6 7 8 6 9 7 9 6 9 9 7 5 5 12 6 4 11 10 6 8 10 11 3 10 8 9 6 4 6 8 9 7 9 6 9 6 13 7 5 6 9 13 6 10 6 7 10 5 3 9 10 9 10 5 3 5 3 9 12 6 8 5 4 7 13 6 4 6 5 7 4 5 9 8 8 7 7 11 4 11 6 11 5 6 5 5 5 4 7 6 7 6 6 6 9 4 9 6 11 4 9 5 3 8 11 6 15 5 
BTB PER SET COUNT: 6 8 7 6 3 4 7 36 2964 2 5 2 8 5 5 5 6 4 8 1475 5 8 10 8 8 2475 1 7 1470 6 4423 409 6 5 9 5 2933 7 8 3 10 5 10 39 1985 10 6 5420 3204 6 5 3 11719 2 2 8 5 5 12 108 4 2590 5 9 6 1398 9 13 6 7 6 2 6 5 8 7 500 3605 6 5 10 6 7 6 499 7 7 8 8 494 1960 488 32 6 9 7 3462 8 5 6 9 7 15 2179 7 8 7 9 7 5 7 10 4 9 6 4080 3 7 6 2 8 16 5 3 499 4 4 7 2018 8 547 3 5011 5 11 7 5 3 6 8 8 10 8 6 5 29 5 8 3083 7 7 3302 6 3452 6 12 8 11 7 755 1191 8 3002 5 42 1952 3 4 9701 7 6 4 9 137 4 3 6 497 990 5 6 8 31 8 10 1979 6 7 6 8 6 8 6 7 6 30 1004 4 20 5 5 6 9 5 10 4 5 2457 7 2 3 6 16 10 7 6 4 248 8 6 6 4 6 7 8 8 5443 1986 3 3939 8149 13 4 5 8 11 3453 5 4 5 5 3 1492 8 12209 338 2 7 6 7 10 498 6 7 5 2864 4 8 48 6 8 5 7 5 2212 9757 978 6 7 5 7 7 4 12 37 16 7 4 4 8 10 5 21 5 1514 3453 8 7 8 4 5 7 496 2964 7 6 7 4483 6 6 6 6 5 4 6 5 6 4 1537 1518 7 5 9 4 6 7 20 4698 8 6 7 414 5 8 6 6 7 14 4 3 996 2 6 8 992 6 995 8 8 1 6 6 2 995 993 7 3 8 15 8 5 134 22 978 8 8 11 2 9 46 8 19 7 8 35 9 4 4 4 4 10 6 7 6 10 4 4175 9 7 2296 46 7 6 5971 9 5 8 5 8 4 35 5 8 6 6 6 1472 5 2 11 7 5 7 7 5 5 2936 7 4 2326 6 3 530 7 973 6 142 4 3 1448 2 6 7 9 42 9 8 2 4 10 137 4 5682 5 8 2051 9 6 7 5 5 6 16 3 9 16 6 977 5 5 6 3 6 3 376 3 7 7 512 6 991 4 17 73 23 5 1376 3 6 6 2 6 44 501 105 3 20790 5 3 3 5 2 3 496 4 7 268 387 7 2 59 5 4 8 2 2488 5 7 5 5 3922 16 4 3 2 5 5 3 5 6 7 4 9 33 5 4 2 6787 6 505 8 1470 8 440 243 12 6 18 36 9 8 6 6 12 5 501 7 1 8 4 6 8 31 5 12 5 19 4206 4939 4923 7 10 9 9 3 6 986 3 7 4 4290 5 13 5 5 9 42 12 2961 7 8 4 1519 3465 7 7 7 3456 4 28 7108 42 2 6 1469 3 4 5414 7 5 8 8 4 978 976 5 12 5 7 5 22 8 1267 60 9 2962 5 1746 8 5 8 10 7 6 8 6 964 5 5 7 10 752 2969 3 1470 40 8 228 5 6 500 1471 7 14 7 8 6 7 6 4 2491 9 4 6 3 5 7 8 501 8 7 5 1013 3 5 4 2474 5 1485 8 11309 3 6 5777 7 994 2936 991 6 42 501 8 7 8 3946 1001 502 6 621 6 9 1456 10 991 14657 994 7 1857 1472 7 3 995 3 6 5 7 2963 7 7 40 3 1996 6 5 172 4438 3 1469 5 1469 72 9 9 5 990 7 1498 752 1 8 5 3 5 4 4 3 3 638 2 3465 8 1255 979 2 7 8 12 5 6 4 5 8 5 6320 4 7 499 4 7 991 7 3 4 513 2 5 5 2978 2465 976 5 6 978 7 7 6 8239 6 6 3 18 8 0 93 9 1469 6 3554 4 3 8 7 4 6 1898 27 37 9 431 14 4 2884 6 7 244 3708 3459 5 6 4 3745 5 215 6 1978 1472 7 24 5 9 3 6 6 482 5 8 1 5 6 1367 7 4 1290 382 5 5 977 4 7 66 7 3 7 4 1148 6 4 5 6 5 207 5 7 1473 5 8 14 6 6 4 8 8 6 11 6 6300 8 5 7 14 7 7 4 4 6276 978 7 993 2469 16 4 8 6 31 7 2 2 6 9 4 5 7 6 8 118 6 7 5 6 7 12 3 5 8 6 3 12 1522 4 3 5533 9 132 47 10 8 7 1866 6 9 76 7 5 4 3 12 6 992 8 6 10 7 13 7 12 10 7 5 5 101 7 497 3466 2495 6 9 4993 1286 3 15 8 16 6 975 6 9 17 255 10 7 19 6 5554 8 6 6 37 4449 8 2709 6 500 2960 5 4 11 31 10 14 5 3 5 3 390 56 6 981 5 4 7 3468 7 497 6 5 9 4 5 11 8 8 10 7 3463 4 52 6 3947 5 7 5 5 6 4 7 6 7 7 6 6 1984 4 2458 385 1219 4 36 7 3 8 1496 6 3985 5 
