
*** ChampSim Multicore Out-of-Order Simulator ***

Warmup Instructions: 50000000
Simulation Instructions: 50000000
Number of CPUs: 1
LLC sets: 2048
LLC ways: 16
Off-chip DRAM Size: 4096 MB Channels: 1 Width: 64-bit Data Rate: 6400 MT/s
CPU 0 runs ./micro_traces/srv747.trace.gz
.gz
ITLB has LRU replacement policy
DTLB has LRU replacement policy
STLB has LRU replacement policy
FDIP Prefetcher at L1I
L1I has LRU replacement policy
L1D has LRU replacement policy
Initialize SRRIP state for L2C
Initialize DRRIP state for LLC
Heartbeat_Variant_0 : 1056 0.257812 per_variant_size: 0 1056 0 0 0 0 0 0 0 
Heartbeat_Variant_1 : 2254 0.550293 per_variant_size: 0 439 1815 0 0 0 0 0 0 
Heartbeat_Variant_2 : 0 0 per_variant_size: 0 0 0 0 0 0 0 0 0 
Heartbeat_Variant_3 : 0 0 per_variant_size: 0 0 0 0 0 0 0 0 0 
Heartbeat_Variant_0_evicts 0 : 21808 1 : 17993 2 : 0 3 : 0 
Heartbeat_Variant_1_evicts 0 : 18054 1 : 0 2 : 0 3 : 0 
Heartbeat_Variant_2_evicts 0 : 0 1 : 0 2 : 0 3 : 0 
Heartbeat_Variant_3_evicts 0 : 0 1 : 0 2 : 0 3 : 0 
Heartbeat CPU 0 instructions: 10000003 cycles: 2800465 heartbeat IPC: 3.57084 cumulative IPC: 3.57084 (Simulation time: 0 hr 2 min 9 sec) 
Heartbeat_Variant_0 : 1101 0.268799 per_variant_size: 0 1101 0 0 0 0 0 0 0 
Heartbeat_Variant_1 : 2352 0.574219 per_variant_size: 0 453 1899 0 0 0 0 0 0 
Heartbeat_Variant_2 : 0 0 per_variant_size: 0 0 0 0 0 0 0 0 0 
Heartbeat_Variant_3 : 0 0 per_variant_size: 0 0 0 0 0 0 0 0 0 
Heartbeat_Variant_0_evicts 0 : 21597 1 : 17950 2 : 0 3 : 0 
Heartbeat_Variant_1_evicts 0 : 17941 1 : 0 2 : 0 3 : 0 
Heartbeat_Variant_2_evicts 0 : 0 1 : 0 2 : 0 3 : 0 
Heartbeat_Variant_3_evicts 0 : 0 1 : 0 2 : 0 3 : 0 
Heartbeat CPU 0 instructions: 20000002 cycles: 5599553 heartbeat IPC: 3.57259 cumulative IPC: 3.57171 (Simulation time: 0 hr 4 min 23 sec) 
Heartbeat_Variant_0 : 1093 0.266846 per_variant_size: 0 1093 0 0 0 0 0 0 0 
Heartbeat_Variant_1 : 2404 0.586914 per_variant_size: 0 429 1975 0 0 0 0 0 0 
Heartbeat_Variant_2 : 0 0 per_variant_size: 0 0 0 0 0 0 0 0 0 
Heartbeat_Variant_3 : 0 0 per_variant_size: 0 0 0 0 0 0 0 0 0 
Heartbeat_Variant_0_evicts 0 : 21912 1 : 18374 2 : 0 3 : 0 
Heartbeat_Variant_1_evicts 0 : 18394 1 : 0 2 : 0 3 : 0 
Heartbeat_Variant_2_evicts 0 : 0 1 : 0 2 : 0 3 : 0 
Heartbeat_Variant_3_evicts 0 : 0 1 : 0 2 : 0 3 : 0 
Heartbeat CPU 0 instructions: 30000003 cycles: 8397429 heartbeat IPC: 3.57414 cumulative IPC: 3.57252 (Simulation time: 0 hr 6 min 27 sec) 
Heartbeat_Variant_0 : 1090 0.266113 per_variant_size: 0 1090 0 0 0 0 0 0 0 
Heartbeat_Variant_1 : 2411 0.588623 per_variant_size: 0 426 1985 0 0 0 0 0 0 
Heartbeat_Variant_2 : 0 0 per_variant_size: 0 0 0 0 0 0 0 0 0 
Heartbeat_Variant_3 : 0 0 per_variant_size: 0 0 0 0 0 0 0 0 0 
Heartbeat_Variant_0_evicts 0 : 21498 1 : 18012 2 : 0 3 : 0 
Heartbeat_Variant_1_evicts 0 : 18015 1 : 0 2 : 0 3 : 0 
Heartbeat_Variant_2_evicts 0 : 0 1 : 0 2 : 0 3 : 0 
Heartbeat_Variant_3_evicts 0 : 0 1 : 0 2 : 0 3 : 0 
Heartbeat CPU 0 instructions: 40000001 cycles: 11194454 heartbeat IPC: 3.57523 cumulative IPC: 3.5732 (Simulation time: 0 hr 8 min 23 sec) 
Heartbeat_Variant_0 : 1097 0.267822 per_variant_size: 0 1097 0 0 0 0 0 0 0 
Heartbeat_Variant_1 : 2407 0.587646 per_variant_size: 0 419 1988 0 0 0 0 0 0 
Heartbeat_Variant_2 : 0 0 per_variant_size: 0 0 0 0 0 0 0 0 0 
Heartbeat_Variant_3 : 0 0 per_variant_size: 0 0 0 0 0 0 0 0 0 
Heartbeat_Variant_0_evicts 0 : 21860 1 : 18525 2 : 0 3 : 0 
Heartbeat_Variant_1_evicts 0 : 18519 1 : 0 2 : 0 3 : 0 
Heartbeat_Variant_2_evicts 0 : 0 1 : 0 2 : 0 3 : 0 
Heartbeat_Variant_3_evicts 0 : 0 1 : 0 2 : 0 3 : 0 
Heartbeat CPU 0 instructions: 50000003 cycles: 13992240 heartbeat IPC: 3.57426 cumulative IPC: 3.57341 (Simulation time: 0 hr 10 min 40 sec) 

Warmup complete CPU 0 instructions: 50000003 cycles: 13992240 (Simulation time: 0 hr 10 min 40 sec) 

Cycle: 20000000 FTQ IN: 56697297 FTQ occupancy: 18.2331 DECODE IN: 56697262 DECODE occupancy: 46.5881 ROB IN: 56697246 ROB occupancy: 281.11 ROB OUT: 56697204
Heartbeat_Variant_0 : 1094 0.26709 per_variant_size: 0 1094 0 0 0 0 0 0 0 
Heartbeat_Variant_1 : 2412 0.588867 per_variant_size: 0 434 1978 0 0 0 0 0 0 
Heartbeat_Variant_2 : 0 0 per_variant_size: 0 0 0 0 0 0 0 0 0 
Heartbeat_Variant_3 : 0 0 per_variant_size: 0 0 0 0 0 0 0 0 0 
Heartbeat_Variant_0_evicts 0 : 22091 1 : 18848 2 : 0 3 : 0 
Heartbeat_Variant_1_evicts 0 : 18851 1 : 0 2 : 0 3 : 0 
Heartbeat_Variant_2_evicts 0 : 0 1 : 0 2 : 0 3 : 0 
Heartbeat_Variant_3_evicts 0 : 0 1 : 0 2 : 0 3 : 0 
Heartbeat CPU 0 instructions: 60000000 cycles: 22895620 heartbeat IPC: 1.12317 cumulative IPC: 1.12317 (Simulation time: 0 hr 12 min 34 sec) 
Cycle: 30000000 FTQ IN: 11364066 FTQ occupancy: 6.94392 DECODE IN: 11364076 DECODE occupancy: 14.9492 ROB IN: 11364092 ROB occupancy: 123.163 ROB OUT: 11363969
Heartbeat_Variant_0 : 1110 0.270996 per_variant_size: 0 1110 0 0 0 0 0 0 0 
Heartbeat_Variant_1 : 2408 0.587891 per_variant_size: 0 435 1973 0 0 0 0 0 0 
Heartbeat_Variant_2 : 0 0 per_variant_size: 0 0 0 0 0 0 0 0 0 
Heartbeat_Variant_3 : 0 0 per_variant_size: 0 0 0 0 0 0 0 0 0 
Heartbeat_Variant_0_evicts 0 : 22225 1 : 19138 2 : 0 3 : 0 
Heartbeat_Variant_1_evicts 0 : 19124 1 : 0 2 : 0 3 : 0 
Heartbeat_Variant_2_evicts 0 : 0 1 : 0 2 : 0 3 : 0 
Heartbeat_Variant_3_evicts 0 : 0 1 : 0 2 : 0 3 : 0 
Heartbeat CPU 0 instructions: 70000003 cycles: 31713364 heartbeat IPC: 1.13408 cumulative IPC: 1.1286 (Simulation time: 0 hr 14 min 28 sec) 
Cycle: 40000000 FTQ IN: 11219814 FTQ occupancy: 7.06153 DECODE IN: 11219832 DECODE occupancy: 15.1642 ROB IN: 11219831 ROB occupancy: 125.472 ROB OUT: 11219980
Heartbeat_Variant_0 : 1108 0.270508 per_variant_size: 0 1108 0 0 0 0 0 0 0 
Heartbeat_Variant_1 : 2410 0.588379 per_variant_size: 0 439 1971 0 0 0 0 0 0 
Heartbeat_Variant_2 : 0 0 per_variant_size: 0 0 0 0 0 0 0 0 0 
Heartbeat_Variant_3 : 0 0 per_variant_size: 0 0 0 0 0 0 0 0 0 
Heartbeat_Variant_0_evicts 0 : 22201 1 : 19001 2 : 0 3 : 0 
Heartbeat_Variant_1_evicts 0 : 19003 1 : 0 2 : 0 3 : 0 
Heartbeat_Variant_2_evicts 0 : 0 1 : 0 2 : 0 3 : 0 
Heartbeat_Variant_3_evicts 0 : 0 1 : 0 2 : 0 3 : 0 
Heartbeat CPU 0 instructions: 80000002 cycles: 40629852 heartbeat IPC: 1.12152 cumulative IPC: 1.12623 (Simulation time: 0 hr 16 min 18 sec) 
Heartbeat_Variant_0 : 1110 0.270996 per_variant_size: 0 1110 0 0 0 0 0 0 0 
Heartbeat_Variant_1 : 2408 0.587891 per_variant_size: 0 431 1977 0 0 0 0 0 0 
Heartbeat_Variant_2 : 0 0 per_variant_size: 0 0 0 0 0 0 0 0 0 
Heartbeat_Variant_3 : 0 0 per_variant_size: 0 0 0 0 0 0 0 0 0 
Heartbeat_Variant_0_evicts 0 : 22052 1 : 18610 2 : 0 3 : 0 
Heartbeat_Variant_1_evicts 0 : 18608 1 : 0 2 : 0 3 : 0 
Heartbeat_Variant_2_evicts 0 : 0 1 : 0 2 : 0 3 : 0 
Heartbeat_Variant_3_evicts 0 : 0 1 : 0 2 : 0 3 : 0 
Heartbeat CPU 0 instructions: 90000003 cycles: 49352463 heartbeat IPC: 1.14645 cumulative IPC: 1.13121 (Simulation time: 0 hr 18 min 10 sec) 
Cycle: 50000000 FTQ IN: 11452240 FTQ occupancy: 7.00439 DECODE IN: 11452222 DECODE occupancy: 15.2116 ROB IN: 11452163 ROB occupancy: 126.793 ROB OUT: 11452054
Heartbeat_Variant_0 : 1096 0.267578 per_variant_size: 0 1096 0 0 0 0 0 0 0 
Heartbeat_Variant_1 : 2424 0.591797 per_variant_size: 0 448 1976 0 0 0 0 0 0 
Heartbeat_Variant_2 : 0 0 per_variant_size: 0 0 0 0 0 0 0 0 0 
Heartbeat_Variant_3 : 0 0 per_variant_size: 0 0 0 0 0 0 0 0 0 
Heartbeat_Variant_0_evicts 0 : 22445 1 : 19122 2 : 0 3 : 0 
Heartbeat_Variant_1_evicts 0 : 19136 1 : 0 2 : 0 3 : 0 
Heartbeat_Variant_2_evicts 0 : 0 1 : 0 2 : 0 3 : 0 
Heartbeat_Variant_3_evicts 0 : 0 1 : 0 2 : 0 3 : 0 
Heartbeat CPU 0 instructions: 100000003 cycles: 58275068 heartbeat IPC: 1.12075 cumulative IPC: 1.12911 (Simulation time: 0 hr 20 min 2 sec) 
Finished CPU 0 instructions: 50000000 cycles: 44282828 cumulative IPC: 1.12911 (Simulation time: 0 hr 20 min 2 sec) 

ChampSim completed all CPUs

Region of Interest Statistics

CPU 0 cumulative IPC: 1.12911 instructions: 50000000 cycles: 44282828
 Fetch stage stalled: 70.2959  Sim cycles: 44282828 fetch stall cycle: 31128995
 Empty decode stage: 59.0649  Sim cycles: 44282828 fetch stall cycle: 26155608
ITLB TOTAL     ACCESS:    5614211  HIT:    5120356  MISS:     493855  HIT %:    91.2035  MISS %:    8.79652   MPKI: 9.8771
ITLB LOAD TRANSLATION INSTRUCTION	ACCESS:    5509840  HIT:    5015985  MISS:     493855  HIT %:    91.0369  MISS %:    8.96315  MPKI: 9.8771
ITLB TRANSLATION FROM L1D PREFETCHER INSTRUCTION	ACCESS:     104371  HIT:     104371  MISS:          0  HIT %:        100  MISS %:          0  MPKI: 0

ITLB AVERAGE MISS LATENCY: 9.05107 cycles
ITLB RQ	ACCESS:    7452569	FORWARD:          0	MERGED:    1343613	TO_CACHE:    6108956

DTLB TOTAL     ACCESS:    9312753  HIT:    8841670  MISS:     471083  HIT %:    94.9415  MISS %:    5.05847   MPKI: 9.42166
DTLB LOAD TRANSLATION DATA	ACCESS:    9312753  HIT:    8841670  MISS:     471083  HIT %:    94.9415  MISS %:    5.05847  MPKI: 9.42166

DTLB AVERAGE MISS LATENCY: 9.35087 cycles
DTLB RQ	ACCESS:   13620449	FORWARD:          0	MERGED:    4271550	TO_CACHE:    9348899

STLB TOTAL     ACCESS:    1212296  HIT:    1209972  MISS:       2324  HIT %:    99.8083  MISS %:   0.191702   MPKI: 0.04648
STLB LOAD TRANSLATION INSTRUCTION	ACCESS:     493855  HIT:     493511  MISS:        344  HIT %:    99.9303  MISS %:  0.0696561  MPKI: 0.00688
STLB LOAD TRANSLATION DATA	ACCESS:     471014  HIT:     469054  MISS:       1960  HIT %:    99.5839  MISS %:   0.416124  MPKI: 0.0392
STLB TRANSLATION FROM L1D PREFETCHER DATA	ACCESS:     247427  HIT:     247407  MISS:         20  HIT %:    99.9919  MISS %: 0.00808319  MPKI: 0.0004

STLB AVERAGE MISS LATENCY: 69.8873 cycles
STLB RQ	ACCESS:    1332020	FORWARD:          0	MERGED:     119674	TO_CACHE:    1212346

STLB Hit, L1D data hit: 0
STLB Hit, L2C data hit: 0
STLB Hit, LLC data hit: 0
STLB Hit, LLC data miss: 0
STLB STLB hints to L2: 0
L1D TOTAL     ACCESS:   13384544  HIT:   12269182  MISS:    1115362  HIT %:    91.6668  MISS %:    8.33321   MPKI: 22.3072
L1D LOAD DATA	ACCESS:    6809330  HIT:    6074756  MISS:     734574  HIT %:    89.2122  MISS %:    10.7878  MPKI: 14.6915
L1D RFO DATA	ACCESS:    6246862  HIT:    5959723  MISS:     287139  HIT %:    95.4035  MISS %:    4.59653  MPKI: 5.74278
L1D PREFETCH DATA	ACCESS:     328352  HIT:     234703  MISS:      93649  HIT %:    71.4791  MISS %:    28.5209  MPKI: 1.87298

L1D PREFETCH  REQUESTED:     734465  ISSUED:     734465  USEFUL:      33833  USELESS:      67371
L1D USEFUL LOAD PREFETCHES:      33833 PREFETCH ISSUED TO LOWER LEVEL:     101252  ACCURACY: 33.4146
 TIMELY PREFETCHES:      33833 LATE PREFETCHES: 7549 DROPPED PREFETCHES: 10
L1D AVERAGE MISS LATENCY: 245371 cycles
L1D RQ	ACCESS:   10881719	FORWARD:          0	MERGED:    3877510	TO_CACHE:    6840347
L1D WQ	ACCESS:    6953840	FORWARD:     164163	MERGED:     173738	TO_CACHE:    6780102
L1D PQ	ACCESS:     367383	FORWARD:          0	MERGED:          0	TO_CACHE:     367082

L1D UNIQUE REGIONS ACCESSED: 0
L1D REGIONS CONFLICTS: 0
L1D Cross Page Prefetch Requests: 6007
L1D Same Page Prefetch Requests: 741517
L1D ROI Sum of L1D PQ occupancy: 4672062
L1D PREFETCHES PUSHED FROM L2C: 0
L1I TOTAL     ACCESS:    6939140  HIT:    4173291  MISS:    2765849  HIT %:    60.1413  MISS %:    39.8587   MPKI: 55.317
L1I LOAD INSTRUCTION	ACCESS:    6447679  HIT:    3681830  MISS:    2765849  HIT %:    57.1032  MISS %:    42.8968  MPKI: 55.317
L1I PREFETCH INSTRUCTION	ACCESS:     491461  HIT:     491461  MISS:          0  HIT %:        100  MISS %:          0  MPKI: 0

L1I PREFETCH  REQUESTED:    1097336  ISSUED:    1097336  USEFUL:          0  USELESS:          0
L1I USEFUL LOAD PREFETCHES:          0 PREFETCH ISSUED TO LOWER LEVEL:          0  ACCURACY: -nan
 TIMELY PREFETCHES:          0 LATE PREFETCHES: 0 DROPPED PREFETCHES: 0
L1I AVERAGE MISS LATENCY: 17.8024 cycles
L1I RQ	ACCESS:    9454934	FORWARD:          0	MERGED:    2786729	TO_CACHE:    6668205
L1I PQ	ACCESS:    1097336	FORWARD:          0	MERGED:     312972	TO_CACHE:     784364

L1BTB TOTAL     ACCESS:    5671625  HIT:    2040442  MISS:    3631183  HIT %:    35.9763  MISS %:    64.0237   MPKI: 72.6237
L1BTB BRANCH_DIRECT_JUMP	ACCESS:     549181 HIT:     144124 MISS:     405057 AVERAGE STALL: 37.1391 AVERAGE FETCH STALL: 19.0676 AVERAGE FETCH QUEUE STALL: 9.47363 AVERAGE DECODE STALL: 7.80954 AVERAGE EXECUTE STALL: 3.85705e+14
L1BTB BRANCH_INDIRECT	ACCESS:     183354 HIT:      66263 MISS:     117091 AVERAGE STALL: 92.8798 AVERAGE FETCH STALL: 15.9638 AVERAGE FETCH QUEUE STALL: 8.27934 AVERAGE DECODE STALL: 7.21579 AVERAGE EXECUTE STALL: 60.4817
L1BTB BRANCH_CONDITIONAL	ACCESS:    2711972 HIT:    1417051 MISS:    1294921 AVERAGE STALL: 38.4639 AVERAGE FETCH STALL: 23.2974 AVERAGE FETCH QUEUE STALL: 7.26775 AVERAGE DECODE STALL: 7.14619 AVERAGE EXECUTE STALL: 1.62708e+14
L1BTB BRANCH_DIRECT_CALL	ACCESS:     942204 HIT:     103881 MISS:     838323 AVERAGE STALL: 38.8246 AVERAGE FETCH STALL: 22.6972 AVERAGE FETCH QUEUE STALL: 7.73461 AVERAGE DECODE STALL: 7.6261 AVERAGE EXECUTE STALL: 1.0692e+14
L1BTB BRANCH_INDIRECT_CALL	ACCESS:     171355 HIT:      20850 MISS:     150505 AVERAGE STALL: 114.74 AVERAGE FETCH STALL: 18.844 AVERAGE FETCH QUEUE STALL: 6.56004 AVERAGE DECODE STALL: 7.23885 AVERAGE EXECUTE STALL: 81.5587
L1BTB BRANCH_RETURN	ACCESS:    1113559 HIT:     288273 MISS:     825286 AVERAGE STALL: 38.2345 AVERAGE FETCH STALL: 19.0862 AVERAGE FETCH QUEUE STALL: 6.07069 AVERAGE DECODE STALL: 6.25204 AVERAGE EXECUTE STALL: 1.94744e+14
L1BTB BRANCH_OTHER ACCESS:          0 HIT:          0 MISS:          0 AVERAGE STALL: -nan AVERAGE FETCH STALL: -nan AVERAGE FETCH QUEUE STALL: -nan AVERAGE DECODE STALL: -nan AVERAGE EXECUTE STALL: -nan
L1BTB TOTAL ROB OCCUPANCY AT BTB MISS: 13.4678

L2BTB TOTAL     ACCESS:    3605707  HIT:    3139664  MISS:     466043  HIT %:    87.0749  MISS %:    12.9251   MPKI: 9.32086
L2BTB BRANCH_DIRECT_JUMP	ACCESS:     400866 HIT:     357220 MISS:      43646 AVERAGE STALL: 37.1391 AVERAGE FETCH STALL: 19.0676 AVERAGE FETCH QUEUE STALL: 9.47363 AVERAGE DECODE STALL: 7.80954 AVERAGE EXECUTE STALL: 3.85705e+14
L2BTB BRANCH_INDIRECT	ACCESS:     106804 HIT:      97767 MISS:       9037 AVERAGE STALL: 92.8798 AVERAGE FETCH STALL: 15.9638 AVERAGE FETCH QUEUE STALL: 8.27934 AVERAGE DECODE STALL: 7.21579 AVERAGE EXECUTE STALL: 60.4817
L2BTB BRANCH_CONDITIONAL	ACCESS:    1294921 HIT:    1181191 MISS:     113730 AVERAGE STALL: 38.4639 AVERAGE FETCH STALL: 23.2974 AVERAGE FETCH QUEUE STALL: 7.26775 AVERAGE DECODE STALL: 7.14619 AVERAGE EXECUTE STALL: 1.62708e+14
L2BTB BRANCH_DIRECT_CALL	ACCESS:     838323 HIT:     665768 MISS:     172555 AVERAGE STALL: 38.8246 AVERAGE FETCH STALL: 22.6972 AVERAGE FETCH QUEUE STALL: 7.73461 AVERAGE DECODE STALL: 7.6261 AVERAGE EXECUTE STALL: 1.0692e+14
L2BTB BRANCH_INDIRECT_CALL	ACCESS:     140907 HIT:     107184 MISS:      33723 AVERAGE STALL: 114.74 AVERAGE FETCH STALL: 18.844 AVERAGE FETCH QUEUE STALL: 6.56004 AVERAGE DECODE STALL: 7.23885 AVERAGE EXECUTE STALL: 81.5587
L2BTB BRANCH_RETURN	ACCESS:     823886 HIT:     730534 MISS:      93352 AVERAGE STALL: 38.2345 AVERAGE FETCH STALL: 19.0862 AVERAGE FETCH QUEUE STALL: 6.07069 AVERAGE DECODE STALL: 6.25204 AVERAGE EXECUTE STALL: 1.94744e+14
L2BTB BRANCH_OTHER ACCESS:          0 HIT:          0 MISS:          0 AVERAGE STALL: -nan AVERAGE FETCH STALL: -nan AVERAGE FETCH QUEUE STALL: -nan AVERAGE DECODE STALL: -nan AVERAGE EXECUTE STALL: -nan
L2BTB TOTAL ROB OCCUPANCY AT BTB MISS: 104.934

L2C TOTAL     ACCESS:    4493316  HIT:    3963603  MISS:     529713  HIT %:    88.2111  MISS %:    11.7889   MPKI: 10.5943
L2C LOAD INSTRUCTION	ACCESS:    2765849  HIT:    2454876  MISS:     310973  HIT %:    88.7567  MISS %:    11.2433  MPKI: 6.21946
L2C LOAD TRANSLATION INSTRUCTION	ACCESS:        390  HIT:        149  MISS:        241  HIT %:    38.2051  MISS %:    61.7949  MPKI: 0.00482
L2C LOAD DATA	ACCESS:     726910  HIT:     651442  MISS:      75468  HIT %:     89.618  MISS %:     10.382  MPKI: 1.50936
L2C RFO DATA	ACCESS:     287061  HIT:     231293  MISS:      55768  HIT %:    80.5728  MISS %:    19.4272  MPKI: 1.11536
L2C PREFETCH DATA	ACCESS:     186123  HIT:     115001  MISS:      71122  HIT %:    61.7876  MISS %:    38.2124  MPKI: 1.42244
L2C WRITEBACK DATA	ACCESS:     524856  HIT:     510313  MISS:      14543  HIT %:    97.2291  MISS %:    2.77086  MPKI: 0.29086
L2C LOAD TRANSLATION DATA	ACCESS:       2073  HIT:        497  MISS:       1576  HIT %:    23.9749  MISS %:    76.0251  MPKI: 0.03152
L2C TRANSLATION FROM L1D PREFETCHER DATA	ACCESS:         54  HIT:         32  MISS:         22  HIT %:    59.2593  MISS %:    40.7407  MPKI: 0.00044

L2C PREFETCH  REQUESTED:      92560  ISSUED:      92560  USEFUL:       7726  USELESS:      64019
L2C USEFUL LOAD PREFETCHES:       7726 PREFETCH ISSUED TO LOWER LEVEL:      71551  ACCURACY: 10.7979
 TIMELY PREFETCHES:       7726 LATE PREFETCHES: 429 DROPPED PREFETCHES: 0
L2C AVERAGE MISS LATENCY: 38.1275 cycles
L2C RQ	ACCESS:    3782476	FORWARD:          0	MERGED:          0	TO_CACHE:    3782337
L2C WQ	ACCESS:     524856	FORWARD:        139	MERGED:          0	TO_CACHE:     524856
L2C PQ	ACCESS:     193812	FORWARD:          0	MERGED:       3440	TO_CACHE:     190372

L2C Dense regions hint from L2: 0
PSCL5 TOTAL     ACCESS:       4676  HIT:       2338  MISS:       2338  HIT %:         50  MISS %:         50   MPKI: 0.04676
PSCL5 LOAD TRANSLATION INSTRUCTION	ACCESS:       4574  HIT:       2287  MISS:       2287  HIT %:         50  MISS %:         50  MPKI: 0.04574
PSCL5 TRANSLATION FROM L1D PREFETCHER INSTRUCTION	ACCESS:        102  HIT:         51  MISS:         51  HIT %:         50  MISS %:         50  MPKI: 0.00102


PSCL4 TOTAL     ACCESS:       4443  HIT:       2215  MISS:       2228  HIT %:    49.8537  MISS %:    50.1463   MPKI: 0.04456
PSCL4 LOAD TRANSLATION INSTRUCTION	ACCESS:       2304  HIT:       2171  MISS:        133  HIT %:    94.2274  MISS %:    5.77257  MPKI: 0.00266
PSCL4 TRANSLATION FROM L1D PREFETCHER INSTRUCTION	ACCESS:         44  HIT:         44  MISS:          0  HIT %:        100  MISS %:          0  MPKI: 0
PSCL4 LOAD TRANSLATION DATA	ACCESS:       2051  HIT:          0  MISS:       2051  HIT %:          0  MISS %:        100  MPKI: 0.04102
PSCL4 TRANSLATION FROM L1D PREFETCHER DATA	ACCESS:         44  HIT:          0  MISS:         44  HIT %:          0  MISS %:        100  MPKI: 0.00088


PSCL3 TOTAL     ACCESS:       4613  HIT:       2300  MISS:       2313  HIT %:    49.8591  MISS %:    50.1409   MPKI: 0.04626
PSCL3 LOAD TRANSLATION INSTRUCTION	ACCESS:       2389  HIT:       2256  MISS:        133  HIT %:    94.4328  MISS %:    5.56718  MPKI: 0.00266
PSCL3 TRANSLATION FROM L1D PREFETCHER INSTRUCTION	ACCESS:         44  HIT:         44  MISS:          0  HIT %:        100  MISS %:          0  MPKI: 0
PSCL3 LOAD TRANSLATION DATA	ACCESS:       2136  HIT:          0  MISS:       2136  HIT %:          0  MISS %:        100  MPKI: 0.04272
PSCL3 TRANSLATION FROM L1D PREFETCHER DATA	ACCESS:         44  HIT:          0  MISS:         44  HIT %:          0  MISS %:        100  MPKI: 0.00088


PSCL2 TOTAL     ACCESS:       4523  HIT:       2185  MISS:       2338  HIT %:    48.3086  MISS %:    51.6914   MPKI: 0.04676
PSCL2 LOAD TRANSLATION INSTRUCTION	ACCESS:       2479  HIT:       2135  MISS:        344  HIT %:    86.1234  MISS %:    13.8766  MPKI: 0.00688
PSCL2 TRANSLATION FROM L1D PREFETCHER INSTRUCTION	ACCESS:         50  HIT:         50  MISS:          0  HIT %:        100  MISS %:          0  MPKI: 0
PSCL2 LOAD TRANSLATION DATA	ACCESS:       1944  HIT:          0  MISS:       1944  HIT %:          0  MISS %:        100  MPKI: 0.03888
PSCL2 TRANSLATION FROM L1D PREFETCHER DATA	ACCESS:         50  HIT:          0  MISS:         50  HIT %:          0  MISS %:        100  MPKI: 0.001


LLC TOTAL     ACCESS:     593115  HIT:     563419  MISS:      29696  HIT %:    94.9932  MISS %:    5.00679   MPKI: 0.59392
LLC LOAD INSTRUCTION	ACCESS:     310973  HIT:     310111  MISS:        862  HIT %:    99.7228  MISS %:   0.277194  MPKI: 0.01724
LLC LOAD TRANSLATION INSTRUCTION	ACCESS:        241  HIT:        216  MISS:         25  HIT %:    89.6266  MISS %:    10.3734  MPKI: 0.0005
LLC LOAD DATA	ACCESS:      75064  HIT:      71653  MISS:       3411  HIT %:    95.4559  MISS %:    4.54412  MPKI: 0.06822
LLC RFO DATA	ACCESS:      55741  HIT:      40485  MISS:      15256  HIT %:    72.6306  MISS %:    27.3694  MPKI: 0.30512
LLC PREFETCH DATA	ACCESS:      71551  HIT:      61884  MISS:       9667  HIT %:    86.4894  MISS %:    13.5106  MPKI: 0.19334
LLC WRITEBACK DATA	ACCESS:      77947  HIT:      77555  MISS:        392  HIT %:    99.4971  MISS %:   0.502906  MPKI: 0.00784
LLC LOAD TRANSLATION DATA	ACCESS:       1576  HIT:       1494  MISS:         82  HIT %:     94.797  MISS %:    5.20305  MPKI: 0.00164
LLC TRANSLATION FROM L1D PREFETCHER DATA	ACCESS:         22  HIT:         21  MISS:          1  HIT %:    95.4545  MISS %:    4.54545  MPKI: 2e-05

LLC AVERAGE MISS LATENCY: 158.203 cycles
LLC RQ	ACCESS:     443619	FORWARD:          0	MERGED:          0	TO_CACHE:     443617
LLC WQ	ACCESS:      77947	FORWARD:          2	MERGED:          0	TO_CACHE:      77947
LLC PQ	ACCESS:      71551	FORWARD:          0	MERGED:          0	TO_CACHE:      71551

LLC Dense regions hint to LLC: 0

RAW hits: 1763876
Loads Generated: 12645595
Loads sent to L1D: 10881719
Stores Generated: 6953832
Stores sent to L1D: 6953840
Major fault: 0 Minor fault: 2563
Allocated PAGES: 2563

stream: 
stream:times selected: 1175734
stream:pref_filled: 120817
stream:pref_useful: 23566
stream:pref_late: 6602
stream:misses: 6789
stream:misses_by_poll: 0

CS: 
CS:times selected: 175251
CS:pref_filled: 58745
CS:pref_useful: 35429
CS:pref_late: 6658
CS:misses: 16765
CS:misses_by_poll: 1

CPLX: 
CPLX:times selected: 999350
CPLX:pref_filled: 19771
CPLX:pref_useful: 4674
CPLX:pref_late: 3012
CPLX:misses: 89810
CPLX:misses_by_poll: 0

NL_L1: 
NL:times selected: 19547
NL:pref_filled: 679
NL:pref_useful: 258
NL:pref_late: 203
NL:misses: 1071
NL:misses_by_poll: 0

total selections: 2369882
total_filled: 93649
total_useful: 33833
total_late: 17730
total_polluted: 1
total_misses_after_warmup: 765590
conflicts: 5657294

test: 112930

DRAM Statistics
 CHANNEL 0
 RQ ROW_BUFFER_HIT:      11226  ROW_BUFFER_MISS:      18070
 DBUS_CONGESTED:          8
 WQ ROW_BUFFER_HIT:       1430  ROW_BUFFER_MISS:      12709  FULL:          0

 AVG_CONGESTED_CYCLE: 4

CPU 0 Branch Prediction Accuracy: 99.8243% MPKI: 0.32112 Average ROB Occupancy at Mispredict: 143.499
Branch types
NOT_BRANCH: 40859813 81.7196%
BRANCH_DIRECT_JUMP: 549181 1.09836%
BRANCH_INDIRECT: 183354 0.366708%
BRANCH_CONDITIONAL: 6180538 12.3611%
BRANCH_DIRECT_CALL: 942204 1.88441%
BRANCH_INDIRECT_CALL: 171355 0.34271%
BRANCH_RETURN: 1113559 2.22712%
BRANCH_OTHER: 0 0%

DRAM PAGES: 1048576
Allocated PAGES: 2563
Average_ROB_Occupancy: 125.74
Average_Decode_Occupancy: 15.1778
Average_FTQ_Occupancy: 7.05035
Indirect max targets: 14 Average targets: 1.15615
Branch_type:  BRANCH_DIRECT_JUMP:  Count Percentage: 3.23397 5.95231 3.6926 9.02189 1.69449 6.27664 1.32028 68.8078 
Branch_type:  BRANCH_INDIRECT:  Count Percentage: 11.7384 3.4706 2.53925 0 2.54089 9.68192 5.88711 64.1418 
Branch_type:  BRANCH_CONDITIONAL:  Count Percentage: 21.0873 2.97019 1.82834 8.41047 1.2291 5.41139 1.28972 57.7735 
Branch_type:  BRANCH_DIRECT_CALL:  Count Percentage: 0.260138 1.78948 1.43425 4.86394 2.16355 2.98577 0.862383 85.6405 
Branch_type:  BRANCH_INDIRECT_CALL:  Count Percentage: 9.56003 0.569351 2.99543 4.85188 0.000583053 2.64444 1.28388 78.0944 
Branch_type:  BRANCH_RETURN:  Count Percentage: 3.1996 1.30512 1.2693 9.33179 2.85939 6.85994 3.27034 71.9045 
Branch_type:  BRANCH_DIRECT_JUMP:  Total Count: 35468 65281 40498 98946 18584 68838 14480 754638 
Branch_type:  BRANCH_INDIRECT:  Total Count: 42941 12696 9289 0 9295 35418 21536 234641 
Branch_type:  BRANCH_CONDITIONAL:  Total Count: 2604524 366854 225822 1038792 151808 668370 159295 7135711 
Branch_type:  BRANCH_DIRECT_CALL:  Total Count: 4916 33817 27104 91917 40886 56424 16297 1618402 
Branch_type:  BRANCH_INDIRECT_CALL:  Total Count: 32793 1953 10275 16643 2 9071 4404 267881 
Branch_type:  BRANCH_RETURN:  Total Count: 71466 29151 28351 208434 63867 153223 73046 1606053 
Number of unique branch instructions: 10121
Upper 32 bits: 
aaaa
ffff
ffff0000
Unique upper 32 bits: 3
Unique upper 36 bits: 3
Unique upper 40 bits: 5
Unique upper 44 bits: 32
Unique upper 48 bits: 156
Variant_0 : 1096 0.267578
Variant_1 : 2424 0.591797
Variant_2 : 0 0
Variant_3 : 0 0
Offset_3 4173
Offset_4 261
Offset_5 462
Offset_6 519
Offset_7 600
Offset_8 518
Offset_9 486
Offset_10 393
Offset_11 325
Offset_12 283
Offset_13 213
Offset_14 229
Offset_15 192
Offset_16 220
Offset_17 150
Offset_18 118
Offset_19 240
Offset_20 139
Offset_21 261
Offset_22 395
Offset_23 242
Offset_24 344
Offset_25 88
Offset_47 84
Offset_64 2
decode_dispatch_called: 19994547 45.1519
Dispatch_width: 0 9932842 49.6778 22.4305
Dispatch_width: 1 551040 2.75595 1.24436
Dispatch_width: 2 655126 3.27652 1.47941
Dispatch_width: 3 414635 2.07374 0.936334
Dispatch_width: 4 1721438 8.60954 3.88737
Dispatch_width: 5 307745 1.53914 0.694953
Dispatch_width: 6 6411721 32.0673 14.479
Empty_decode_cycles: 24288281 54.8481
ROB_full_cycles: 2543753 5.74433
Starvation_cycles_per_kilo_instr: 353.274
Starvation_cycles_per_kilo_instr_3: 332.982
Starvation_cycles_per_kilo_instr_0: 316.774
Branch_type_1  (3,1)  (4,8)  (5,38)  (6,71)  (7,117)  (8,132)  (9,130)  (10,102)  (11,71)  (12,43)  (13,8)  (14,2)  (15,3)  (16,4)  (18,1)  (19,4)  (20,2)  (21,1)  (22,3)  (23,2)  (24,10)  (25,12) 
Branch_type_2  (3,1)  (5,1)  (8,3)  (9,3)  (12,1)  (13,1)  (14,1)  (16,3)  (17,2)  (20,2)  (21,2)  (23,5)  (24,1)  (47,38) 
Branch_type_3  (3,4171)  (4,253)  (5,419)  (6,433)  (7,450)  (8,322)  (9,266)  (10,158)  (11,128)  (12,50)  (13,7)  (64,1) 
Branch_type_4  (6,3)  (7,8)  (8,26)  (9,53)  (10,62)  (11,65)  (12,103)  (13,91)  (14,101)  (15,91)  (16,98)  (17,68)  (18,53)  (19,117)  (20,71)  (21,141)  (22,209)  (23,136)  (24,194)  (25,72)  (64,1) 
Branch_type_5  (8,2)  (9,1)  (10,4)  (11,5)  (12,3)  (13,14)  (14,16)  (15,11)  (16,20)  (17,11)  (18,16)  (19,13)  (20,12)  (21,13)  (22,42)  (23,26)  (24,41) 
Branch_type_6  (5,4)  (6,12)  (7,25)  (8,33)  (9,33)  (10,67)  (11,56)  (12,83)  (13,92)  (14,109)  (15,87)  (16,95)  (17,69)  (18,48)  (19,106)  (20,52)  (21,104)  (22,141)  (23,73)  (24,98)  (25,4)  (47,46) 
Unique trigger count: 
Variant_0_evicts_0 : 0
Variant_0_evicts_1 : 0
Variant_0_evicts_2 : 0
Variant_0_evicts_3 : 0
Variant_1_evicts_0 : 0
Variant_1_evicts_1 : 0
Variant_1_evicts_2 : 0
Variant_1_evicts_3 : 0
Variant_2_evicts_0 : 0
Variant_2_evicts_1 : 0
Variant_2_evicts_2 : 0
Variant_2_evicts_3 : 0
Variant_3_evicts_0 : 0
Variant_3_evicts_1 : 0
Variant_3_evicts_2 : 0
Variant_3_evicts_3 : 0
BTB PER SET UNIQUE ADDR: 4 7 7 4 3 4 8 10 10 2 6 2 8 5 5 4 6 4 7 8 4 8 6 8 8 11 1 7 6 5 10 10 6 3 8 4 4 7 7 4 8 5 5 10 9 6 5 11 11 7 6 3 13 3 4 8 5 5 9 9 4 11 4 8 5 11 9 7 5 7 6 2 6 4 6 7 6 14 5 4 8 7 8 6 8 7 7 9 8 10 10 8 9 6 6 4 10 8 4 6 8 6 9 9 5 8 7 8 7 5 6 4 4 8 6 11 3 7 6 2 7 9 4 2 6 4 5 6 10 5 10 3 11 5 8 6 5 2 6 8 8 7 6 6 4 10 4 8 10 6 7 11 7 10 5 8 6 8 6 10 10 6 11 5 10 5 3 4 14 5 6 3 7 7 3 2 5 6 10 4 6 5 9 7 6 10 5 6 7 9 5 8 6 6 6 10 9 3 10 5 4 6 9 3 8 4 5 7 6 2 3 6 9 9 6 6 4 9 8 6 6 2 6 6 6 8 12 7 2 9 13 9 4 3 6 8 10 5 3 4 4 3 9 8 14 11 1 5 5 5 8 10 6 7 5 11 4 7 9 5 8 5 7 4 9 15 5 4 7 5 7 6 4 8 9 9 5 3 4 8 7 5 9 5 9 9 6 7 9 4 6 7 4 10 6 4 5 10 6 6 6 6 4 4 7 4 6 4 10 9 5 3 8 3 6 4 8 13 6 4 6 12 5 7 6 5 6 9 4 0 7 2 5 7 9 4 6 7 7 1 5 6 2 9 6 6 4 5 9 5 5 9 8 6 8 6 7 3 7 5 6 10 6 8 11 8 4 3 4 6 9 4 6 6 8 4 11 6 5 12 9 7 7 12 6 4 9 5 5 4 10 5 8 4 7 3 6 6 3 7 6 4 6 5 5 6 7 4 4 3 4 3 10 5 2 5 10 5 2 6 2 5 6 7 11 6 3 2 4 7 3 4 14 5 8 10 6 6 6 5 4 6 8 3 6 8 4 6 6 3 6 4 6 3 9 4 5 7 10 5 5 4 6 10 5 5 11 3 6 7 2 6 9 7 6 3 11 5 2 3 5 3 3 4 3 7 10 3 8 2 11 5 5 10 1 12 4 7 4 5 11 4 3 3 2 5 5 3 3 7 7 4 6 10 3 3 2 11 6 9 6 4 7 5 11 11 4 9 9 7 5 6 5 9 4 6 4 2 6 4 4 8 9 4 8 5 11 12 12 11 5 8 7 8 2 6 9 3 6 4 10 4 8 5 5 5 9 7 9 7 8 3 9 11 7 7 6 11 3 9 13 5 1 6 4 3 3 13 7 5 7 8 4 5 4 5 7 6 5 5 9 5 9 10 7 6 5 9 7 5 9 6 7 5 8 5 7 6 5 7 7 6 10 3 5 11 7 8 4 6 8 7 6 6 7 4 5 5 5 3 10 9 5 6 2 3 6 6 9 7 8 4 11 4 6 2 9 5 6 8 13 3 7 11 8 7 8 6 5 10 7 6 6 7 13 8 8 6 8 6 8 10 9 7 9 8 6 8 7 6 3 7 2 4 4 8 10 8 7 9 3 11 4 5 7 11 4 4 5 5 7 7 6 5 5 7 9 7 1 8 4 3 6 4 4 1 3 10 2 12 7 9 7 2 6 7 7 3 7 4 4 8 5 10 4 4 6 3 6 6 6 3 4 6 2 5 4 10 9 4 5 6 6 7 7 6 14 5 6 4 9 6 0 6 8 5 6 10 3 4 8 5 4 6 11 10 9 7 4 9 3 10 5 7 7 13 11 5 5 5 12 4 10 3 7 6 7 9 5 6 4 4 6 4 4 6 1 5 5 10 6 4 11 4 5 4 6 3 6 6 8 3 7 4 10 5 4 4 6 4 5 4 6 5 4 8 9 5 7 5 8 7 7 9 6 9 7 4 9 5 7 7 4 4 12 5 6 8 9 8 4 6 6 9 7 2 2 6 7 4 3 6 7 6 10 6 7 4 5 7 8 4 5 7 5 4 9 9 5 4 12 7 4 5 7 6 6 10 6 7 9 6 4 3 2 7 4 4 7 6 9 7 9 6 8 8 6 4 5 12 5 4 11 10 5 8 10 11 2 8 8 8 5 4 6 7 9 7 7 3 10 1 13 7 3 5 9 11 6 9 6 7 10 5 3 9 10 8 9 4 2 5 3 8 10 5 8 5 4 7 12 6 5 5 5 6 4 6 9 6 8 8 7 11 4 11 6 11 5 6 3 6 5 5 7 7 7 6 6 5 8 4 9 6 10 4 9 4 3 7 10 6 13 5 
BTB PER SET COUNT: 4 8 12 4 4 4 11 1945 5328 3 6 2 1473 5 5 5 8 4 29 3425 4 9 6 376 4877 2737 1 7 1841 5 5301 1103 1494 4 10 5 2941 7 7 4 31 5 5 2730 2492 9 5 4383 3931 9 6 3 10264 3 4 1467 6 5 968 1291 8 3021 4 20 5 1351 341 22 5 774 771 2 6 4 8 7 496 6886 5 5 946 10 1030 6 835 9 7 48 7975 2088 1725 526 2384 6 7 5 2770 12 6 6 21 10 19 2992 6 26 10 1951 1973 8 1944 6 4 1108 7 4625 3 8 6 2 7 28 4 2 518 4 5 6 7297 7 2011 3 8770 5 2896 7 5 2 6 1963 20 11 7 6 4 917 4 8 1142 2374 7 6447 7 10065 5 583 6 1913 7 1289 4914 6 4395 5 1002 3420 3 4 7301 5 6 3 14 158 3 2 6 495 2350 4 6 6 5427 7 6 6831 5 12 2923 29 5 3216 6 6 6 59 1001 3 38 5 4 6 10 4 10 4 5 4291 7 2 3 7 112 19 9 7 4 432 15 6 8 2 6 6 9 1945 5462 3243 2 3688 8184 1010 4 3 15 2400 2900 5 3 4 7 3 6314 9 7452 4434 1 5 5 5 17 3891 6 8 5 2927 4 7 2928 5 2149 5 7 4 2221 6994 984 5 1961 5 1836 6 4 1895 1009 804 7 3 4 2448 10 5 1198 5 2753 2933 6 519 25 6 9 7 493 2453 2933 12 6 3954 6 6 6 7 4 8 11 4 6 4 4349 1629 5 3 2156 3 6 7 985 4280 1959 7 6 1472 5 7 10 5 9 1371 4 0 2252 2 7 7 5360 4 1474 7 8 1 5 6 2 2363 981 484 4 5 289 7 5 1079 8 1599 8 6 9 5 2209 38 6 1387 6 1807 1080 941 4 3 4 6 21 6 6 6 24 4 6054 9 6 2152 2436 2364 7 7365 8 4 44 5 5 4 1479 5 2398 6 9 5 1473 25 4 10 7 4 1427 5 810 10 2943 5 4 2832 4 3 1523 5 1455 5 151 5 2 1466 2 5 6 23 1022 6 5 2 5 567 145 6 6633 5 1780 2131 7 6 6 5 4 6 1453 3 9 30 4 1938 7 3 6 4 7 3 1492 4 5 12 717 5 952 4 24 51 27 5 3783 3 6 7 2 20 1991 497 151 3 25979 5 2 4 5 3 3 492 3 822 1797 380 13 2 1018 5 6 1279 1 4880 15 27 4 5 2908 13 3 3 2 7 5 3 3 13 16 5 6 29 3 3 2 11128 8 860 7 1471 8 427 162 1911 4 993 999 14 5 6 5 22 5 998 4 2 10 4 4 1956 45 5 34 6 68 2263 3050 7786 5 3901 9 14 3 6 1345 3 6 4 5340 4 1958 5 6 5 1754 13 1871 52 3395 4 2451 5414 1427 1428 6 5343 3 4641 10098 44 1 1470 1472 3 4 6392 15 5 7 2456 4 985 1960 5 7 6 5 5 1992 7 4784 1051 7 2939 5 2859 7 5 2606 8 16 5 8 5 2590 8 5 9 8 924 4399 3 1476 1045 29 1366 8 1470 1467 1475 6 11 7 4 7 5 5 3 7330 961 5 6 2 7 7 7 606 7 19 4 8292 4 6 11 964 5 1472 2933 12672 3 9 6285 9 1476 2962 982 24 1964 786 8 9 10 6636 3137 523 6 2458 6 15 6645 59 984 17651 1492 38 4383 1482 27 3 1216 3 4 4 14 6802 11 7 117 3 2937 4 5 205 4256 4 1472 7 1472 224 7 8 5 981 7 1498 1066 1 1904 4 3 6 4 4 1 3 1003 2 5991 1461 3964 985 2 6 7 11 3 11 4 6 849 5 8208 4 4 516 3 6 953 8 3 4 864 2 5 4 4097 6330 982 5 6 986 17 2921 6 9258 5 9 4 998 6 0 165 16 1776 12 3175 3 4 2446 5 5 7 1971 1706 1048 19 696 1001 3 1780 10 7 404 6968 3156 6 5 5 4394 5 1300 4 1976 2476 7 24 5 11 4 5 6 524 5 7 3 6 5 2442 7 5 539 603 6 8 985 3 1427 97 981 3 518 4 7751 5 37 5 8 4 247 4 8 1474 4 15 1111 5 7 6 3407 1489 14 11 6 9682 37 4 1446 14 8 7 4 4 8840 994 7 2878 3410 12 4 6 6 1547 7 2 2 6 9 4 3 6 7 6 2993 12 1517 4 5 7 9 4 5 89 5 5 25 4038 6 4 5148 1765 123 52 811 6 6 3477 6 7 2046 6 8 3 2 7 4 955 4811 1956 47 1470 1938 6 1057 1563 6 4 5 1149 5 494 3911 2077 5 959 4884 2895 3 3426 24 14 5 982 10 1481 33 505 7 3 3785 1 7049 10 3 5 1989 8296 14 3381 6 513 7401 5 5 1070 54 734 51 4 2 5 3 737 2507 5 1002 5 4 7 2720 6 494 5 5 12 4 6 35 6 2887 15 2432 2975 4 1560 7 5358 6 8 3 7 5 5 10 7 1907 32 6 8 2939 4 7390 374 3065 5 982 5 3 7 1521 7 3671 5 
To predecode: 0
Predecoding something: 0
Predecode request dropped: 0
sizeofblock_0 0
sizeofblock_1 229148
sizeofblock_2 343253
sizeofblock_3 0
sizeofblock_4 0
sizeofblock_5 0
sizeofblock_6 0
sizeofblock_7 0
sizeofblock_8 0
Variant_0 Correct: 0 Incorrect: 0 Accuracy: -nan
Variant_1 Correct: 0 Incorrect: 0 Accuracy: -nan
Variant_2 Correct: 0 Incorrect: 0 Accuracy: -nan
Variant_3 Correct: 0 Incorrect: 0 Accuracy: -nan
