
*** ChampSim Multicore Out-of-Order Simulator ***

Warmup Instructions: 50000000
Simulation Instructions: 50000000
Number of CPUs: 1
LLC sets: 2048
LLC ways: 16
Off-chip DRAM Size: 4096 MB Channels: 1 Width: 64-bit Data Rate: 6400 MT/s
CPU 0 runs ./micro_traces/srv769.trace.gz
.gz
ITLB has LRU replacement policy
DTLB has LRU replacement policy
STLB has LRU replacement policy
FDIP Prefetcher at L1I
L1I has LRU replacement policy
L1D has LRU replacement policy
Initialize SRRIP state for L2C
Initialize DRRIP state for LLC
Heartbeat_Variant_0 : 1270 0.310059 per_variant_size: 0 1270 0 0 0 0 0 0 0 
Heartbeat_Variant_1 : 1156 0.282227 per_variant_size: 0 557 599 0 0 0 0 0 0 
Heartbeat_Variant_2 : 925 0.22583 per_variant_size: 0 500 277 100 48 0 0 0 0 
Heartbeat_Variant_3 : 720 0.175781 per_variant_size: 0 487 174 47 9 3 0 0 0 
Heartbeat_Variant_0_evicts 0 : 7419 1 : 1721 2 : 1407 3 : 1061 
Heartbeat_Variant_1_evicts 0 : 1640 1 : 0 2 : 1325 3 : 1182 
Heartbeat_Variant_2_evicts 0 : 1390 1 : 1270 2 : 0 3 : 860 
Heartbeat_Variant_3_evicts 0 : 1084 1 : 1154 2 : 818 3 : 0 
Heartbeat CPU 0 instructions: 10000003 cycles: 2796111 heartbeat IPC: 3.5764 cumulative IPC: 3.5764 (Simulation time: 0 hr 1 min 16 sec) 
Heartbeat_Variant_0 : 1277 0.311768 per_variant_size: 0 1277 0 0 0 0 0 0 0 
Heartbeat_Variant_1 : 1166 0.284668 per_variant_size: 0 569 597 0 0 0 0 0 0 
Heartbeat_Variant_2 : 918 0.224121 per_variant_size: 0 497 271 100 50 0 0 0 0 
Heartbeat_Variant_3 : 717 0.175049 per_variant_size: 0 473 194 41 7 2 0 0 0 
Heartbeat_Variant_0_evicts 0 : 7048 1 : 1415 2 : 1109 3 : 982 
Heartbeat_Variant_1_evicts 0 : 1441 1 : 0 2 : 1049 3 : 1036 
Heartbeat_Variant_2_evicts 0 : 1107 1 : 1045 2 : 0 3 : 668 
Heartbeat_Variant_3_evicts 0 : 951 1 : 1058 2 : 669 3 : 0 
Heartbeat CPU 0 instructions: 20000002 cycles: 5590435 heartbeat IPC: 3.57868 cumulative IPC: 3.57754 (Simulation time: 0 hr 2 min 32 sec) 
Heartbeat_Variant_0 : 1271 0.310303 per_variant_size: 0 1271 0 0 0 0 0 0 0 
Heartbeat_Variant_1 : 1164 0.28418 per_variant_size: 0 548 616 0 0 0 0 0 0 
Heartbeat_Variant_2 : 947 0.231201 per_variant_size: 0 518 277 97 55 0 0 0 0 
Heartbeat_Variant_3 : 704 0.171875 per_variant_size: 0 452 194 45 12 1 0 0 0 
Heartbeat_Variant_0_evicts 0 : 7222 1 : 1562 2 : 1231 3 : 1007 
Heartbeat_Variant_1_evicts 0 : 1530 1 : 0 2 : 1150 3 : 1092 
Heartbeat_Variant_2_evicts 0 : 1268 1 : 1137 2 : 0 3 : 721 
Heartbeat_Variant_3_evicts 0 : 1008 1 : 1077 2 : 719 3 : 0 
Heartbeat CPU 0 instructions: 30000001 cycles: 8386889 heartbeat IPC: 3.57596 cumulative IPC: 3.57701 (Simulation time: 0 hr 3 min 48 sec) 
Heartbeat_Variant_0 : 1280 0.3125 per_variant_size: 0 1280 0 0 0 0 0 0 0 
Heartbeat_Variant_1 : 1155 0.281982 per_variant_size: 0 541 614 0 0 0 0 0 0 
Heartbeat_Variant_2 : 934 0.228027 per_variant_size: 0 504 270 117 43 0 0 0 0 
Heartbeat_Variant_3 : 718 0.175293 per_variant_size: 0 466 190 49 12 1 0 0 0 
Heartbeat_Variant_0_evicts 0 : 6681 1 : 1210 2 : 971 3 : 753 
Heartbeat_Variant_1_evicts 0 : 1217 1 : 0 2 : 929 3 : 896 
Heartbeat_Variant_2_evicts 0 : 930 1 : 940 2 : 0 3 : 567 
Heartbeat_Variant_3_evicts 0 : 778 1 : 901 2 : 551 3 : 0 
Heartbeat CPU 0 instructions: 40000003 cycles: 11182249 heartbeat IPC: 3.57736 cumulative IPC: 3.5771 (Simulation time: 0 hr 5 min 5 sec) 
Heartbeat_Variant_0 : 1281 0.312744 per_variant_size: 0 1281 0 0 0 0 0 0 0 
Heartbeat_Variant_1 : 1169 0.2854 per_variant_size: 0 569 600 0 0 0 0 0 0 
Heartbeat_Variant_2 : 926 0.226074 per_variant_size: 0 491 278 115 42 0 0 0 0 
Heartbeat_Variant_3 : 711 0.173584 per_variant_size: 0 465 183 53 9 1 0 0 0 
Heartbeat_Variant_0_evicts 0 : 6572 1 : 955 2 : 656 3 : 584 
Heartbeat_Variant_1_evicts 0 : 951 1 : 0 2 : 705 3 : 742 
Heartbeat_Variant_2_evicts 0 : 667 1 : 701 2 : 0 3 : 428 
Heartbeat_Variant_3_evicts 0 : 576 1 : 728 2 : 443 3 : 0 
Heartbeat CPU 0 instructions: 50000001 cycles: 13976804 heartbeat IPC: 3.57839 cumulative IPC: 3.57736 (Simulation time: 0 hr 6 min 21 sec) 

Warmup complete CPU 0 instructions: 50000001 cycles: 13976804 (Simulation time: 0 hr 6 min 21 sec) 

Cycle: 20000000 FTQ IN: 57875281 FTQ occupancy: 19.2858 DECODE IN: 57875203 DECODE occupancy: 49.9306 ROB IN: 57875143 ROB occupancy: 303.539 ROB OUT: 57874791
Heartbeat_Variant_0 : 1280 0.3125 per_variant_size: 0 1280 0 0 0 0 0 0 0 
Heartbeat_Variant_1 : 1177 0.287354 per_variant_size: 0 580 597 0 0 0 0 0 0 
Heartbeat_Variant_2 : 920 0.224609 per_variant_size: 0 484 271 123 42 0 0 0 0 
Heartbeat_Variant_3 : 711 0.173584 per_variant_size: 0 456 190 56 8 1 0 0 0 
Heartbeat_Variant_0_evicts 0 : 6932 1 : 1434 2 : 1010 3 : 879 
Heartbeat_Variant_1_evicts 0 : 1416 1 : 0 2 : 1033 3 : 966 
Heartbeat_Variant_2_evicts 0 : 1032 1 : 997 2 : 0 3 : 665 
Heartbeat_Variant_3_evicts 0 : 876 1 : 977 2 : 657 3 : 0 
Heartbeat CPU 0 instructions: 60000002 cycles: 21563208 heartbeat IPC: 1.31815 cumulative IPC: 1.31815 (Simulation time: 0 hr 7 min 41 sec) 
Heartbeat_Variant_0 : 1278 0.312012 per_variant_size: 0 1278 0 0 0 0 0 0 0 
Heartbeat_Variant_1 : 1166 0.284668 per_variant_size: 0 575 591 0 0 0 0 0 0 
Heartbeat_Variant_2 : 931 0.227295 per_variant_size: 0 526 243 117 45 0 0 0 0 
Heartbeat_Variant_3 : 713 0.174072 per_variant_size: 0 473 180 52 7 1 0 0 0 
Heartbeat_Variant_0_evicts 0 : 6577 1 : 1051 2 : 826 3 : 605 
Heartbeat_Variant_1_evicts 0 : 1054 1 : 0 2 : 789 3 : 762 
Heartbeat_Variant_2_evicts 0 : 832 1 : 811 2 : 0 3 : 507 
Heartbeat_Variant_3_evicts 0 : 598 1 : 754 2 : 524 3 : 0 
Heartbeat CPU 0 instructions: 70000003 cycles: 28900018 heartbeat IPC: 1.36299 cumulative IPC: 1.34019 (Simulation time: 0 hr 9 min 2 sec) 
Cycle: 30000000 FTQ IN: 13620093 FTQ occupancy: 11.0171 DECODE IN: 13620134 DECODE occupancy: 27.7862 ROB IN: 13620145 ROB occupancy: 208.41 ROB OUT: 13620145
Heartbeat_Variant_0 : 1277 0.311768 per_variant_size: 0 1277 0 0 0 0 0 0 0 
Heartbeat_Variant_1 : 1167 0.284912 per_variant_size: 0 553 614 0 0 0 0 0 0 
Heartbeat_Variant_2 : 936 0.228516 per_variant_size: 0 514 255 129 38 0 0 0 0 
Heartbeat_Variant_3 : 709 0.173096 per_variant_size: 0 444 199 53 12 1 0 0 0 
Heartbeat_Variant_0_evicts 0 : 7236 1 : 1487 2 : 1137 3 : 844 
Heartbeat_Variant_1_evicts 0 : 1444 1 : 0 2 : 1188 3 : 1010 
Heartbeat_Variant_2_evicts 0 : 1155 1 : 1134 2 : 0 3 : 718 
Heartbeat_Variant_3_evicts 0 : 870 1 : 1020 2 : 678 3 : 0 
Heartbeat CPU 0 instructions: 80000001 cycles: 36486931 heartbeat IPC: 1.31806 cumulative IPC: 1.33273 (Simulation time: 0 hr 10 min 17 sec) 
Cycle: 40000000 FTQ IN: 13259190 FTQ occupancy: 10.4906 DECODE IN: 13259195 DECODE occupancy: 25.8141 ROB IN: 13259184 ROB occupancy: 195.879 ROB OUT: 13259460
Heartbeat_Variant_0 : 1259 0.307373 per_variant_size: 0 1259 0 0 0 0 0 0 0 
Heartbeat_Variant_1 : 1180 0.288086 per_variant_size: 0 593 587 0 0 0 0 0 0 
Heartbeat_Variant_2 : 947 0.231201 per_variant_size: 0 516 274 115 42 0 0 0 0 
Heartbeat_Variant_3 : 703 0.171631 per_variant_size: 0 444 197 50 11 1 0 0 0 
Heartbeat_Variant_0_evicts 0 : 6953 1 : 1180 2 : 852 3 : 717 
Heartbeat_Variant_1_evicts 0 : 1177 1 : 0 2 : 885 3 : 830 
Heartbeat_Variant_2_evicts 0 : 835 1 : 889 2 : 0 3 : 513 
Heartbeat_Variant_3_evicts 0 : 755 1 : 810 2 : 489 3 : 0 
Heartbeat CPU 0 instructions: 90000001 cycles: 43834668 heartbeat IPC: 1.36096 cumulative IPC: 1.33968 (Simulation time: 0 hr 11 min 38 sec) 
Cycle: 50000000 FTQ IN: 13443572 FTQ occupancy: 11.1458 DECODE IN: 13443563 DECODE occupancy: 27.9418 ROB IN: 13443588 ROB occupancy: 207.344 ROB OUT: 13443520
Heartbeat_Variant_0 : 1265 0.308838 per_variant_size: 0 1265 0 0 0 0 0 0 0 
Heartbeat_Variant_1 : 1176 0.287109 per_variant_size: 0 572 604 0 0 0 0 0 0 
Heartbeat_Variant_2 : 931 0.227295 per_variant_size: 0 485 287 118 41 0 0 0 0 
Heartbeat_Variant_3 : 717 0.175049 per_variant_size: 0 460 203 43 11 0 0 0 0 
Heartbeat_Variant_0_evicts 0 : 6792 1 : 1247 2 : 987 3 : 753 
Heartbeat_Variant_1_evicts 0 : 1239 1 : 0 2 : 913 3 : 851 
Heartbeat_Variant_2_evicts 0 : 993 1 : 888 2 : 0 3 : 554 
Heartbeat_Variant_3_evicts 0 : 749 1 : 872 2 : 551 3 : 0 
Heartbeat CPU 0 instructions: 100000001 cycles: 51338448 heartbeat IPC: 1.33266 cumulative IPC: 1.33827 (Simulation time: 0 hr 12 min 48 sec) 
Finished CPU 0 instructions: 50000000 cycles: 37361644 cumulative IPC: 1.33827 (Simulation time: 0 hr 12 min 48 sec) 

ChampSim completed all CPUs

Region of Interest Statistics

CPU 0 cumulative IPC: 1.33827 instructions: 50000000 cycles: 37361644
 Fetch stage stalled: 59.5253  Sim cycles: 37361644 fetch stall cycle: 22239620
 Empty decode stage: 44.8862  Sim cycles: 37361644 fetch stall cycle: 16770231
ITLB TOTAL     ACCESS:    5809748  HIT:    5320193  MISS:     489555  HIT %:    91.5736  MISS %:    8.42644   MPKI: 9.7911
ITLB LOAD TRANSLATION INSTRUCTION	ACCESS:    5686001  HIT:    5196446  MISS:     489555  HIT %:    91.3902  MISS %:    8.60983  MPKI: 9.7911
ITLB TRANSLATION FROM L1D PREFETCHER INSTRUCTION	ACCESS:     123747  HIT:     123747  MISS:          0  HIT %:        100  MISS %:          0  MPKI: 0

ITLB AVERAGE MISS LATENCY: 9.05107 cycles
ITLB RQ	ACCESS:    7884130	FORWARD:          0	MERGED:    1630147	TO_CACHE:    6253983

DTLB TOTAL     ACCESS:    8997669  HIT:    8521741  MISS:     475928  HIT %:    94.7105  MISS %:    5.28946   MPKI: 9.51856
DTLB LOAD TRANSLATION DATA	ACCESS:    8997669  HIT:    8521741  MISS:     475928  HIT %:    94.7105  MISS %:    5.28946  MPKI: 9.51856

DTLB AVERAGE MISS LATENCY: 9.33114 cycles
DTLB RQ	ACCESS:   13346598	FORWARD:          0	MERGED:    4311792	TO_CACHE:    9034806

STLB TOTAL     ACCESS:    1222153  HIT:    1220013  MISS:       2140  HIT %:    99.8249  MISS %:   0.175101   MPKI: 0.0428
STLB LOAD TRANSLATION INSTRUCTION	ACCESS:     489555  HIT:     489312  MISS:        243  HIT %:    99.9504  MISS %:  0.0496369  MPKI: 0.00486
STLB LOAD TRANSLATION DATA	ACCESS:     475871  HIT:     473991  MISS:       1880  HIT %:    99.6049  MISS %:   0.395065  MPKI: 0.0376
STLB TRANSLATION FROM L1D PREFETCHER DATA	ACCESS:     256727  HIT:     256710  MISS:         17  HIT %:    99.9934  MISS %: 0.00662182  MPKI: 0.00034

STLB AVERAGE MISS LATENCY: 70.7449 cycles
STLB RQ	ACCESS:    1363511	FORWARD:          0	MERGED:     141327	TO_CACHE:    1222184

STLB Hit, L1D data hit: 0
STLB Hit, L2C data hit: 0
STLB Hit, LLC data hit: 0
STLB Hit, LLC data miss: 0
STLB STLB hints to L2: 0
L1D TOTAL     ACCESS:   13101531  HIT:   11947508  MISS:    1154023  HIT %:    91.1917  MISS %:    8.80831   MPKI: 23.0805
L1D LOAD DATA	ACCESS:    6596190  HIT:    5836611  MISS:     759579  HIT %:    88.4846  MISS %:    11.5154  MPKI: 15.1916
L1D RFO DATA	ACCESS:    6168212  HIT:    5878067  MISS:     290145  HIT %:    95.2961  MISS %:    4.70388  MPKI: 5.8029
L1D PREFETCH DATA	ACCESS:     337129  HIT:     232830  MISS:     104299  HIT %:    69.0626  MISS %:    30.9374  MPKI: 2.08598

L1D PREFETCH  REQUESTED:     796375  ISSUED:     796375  USEFUL:      48216  USELESS:      68370
L1D USEFUL LOAD PREFETCHES:      48216 PREFETCH ISSUED TO LOWER LEVEL:     116633  ACCURACY: 41.3399
 TIMELY PREFETCHES:      48216 LATE PREFETCHES: 12295 DROPPED PREFETCHES: 2
L1D AVERAGE MISS LATENCY: 346520 cycles
L1D RQ	ACCESS:   10715359	FORWARD:          0	MERGED:    3924253	TO_CACHE:    6629533
L1D WQ	ACCESS:    6908677	FORWARD:     161892	MERGED:     191612	TO_CACHE:    6717065
L1D PQ	ACCESS:     398347	FORWARD:          0	MERGED:          0	TO_CACHE:     398028

L1D UNIQUE REGIONS ACCESSED: 0
L1D REGIONS CONFLICTS: 0
L1D Cross Page Prefetch Requests: 6491
L1D Same Page Prefetch Requests: 797943
L1D ROI Sum of L1D PQ occupancy: 5047533
L1D PREFETCHES PUSHED FROM L2C: 0
L1I TOTAL     ACCESS:    7117584  HIT:    4378175  MISS:    2739409  HIT %:    61.5121  MISS %:    38.4879   MPKI: 54.7882
L1I LOAD INSTRUCTION	ACCESS:    6482055  HIT:    3742646  MISS:    2739409  HIT %:    57.7386  MISS %:    42.2614  MPKI: 54.7882
L1I PREFETCH INSTRUCTION	ACCESS:     635529  HIT:     635529  MISS:          0  HIT %:        100  MISS %:          0  MPKI: 0

L1I PREFETCH  REQUESTED:    1512803  ISSUED:    1512803  USEFUL:          0  USELESS:          0
L1I USEFUL LOAD PREFETCHES:          0 PREFETCH ISSUED TO LOWER LEVEL:          0  ACCURACY: -nan
 TIMELY PREFETCHES:          0 LATE PREFETCHES: 0 DROPPED PREFETCHES: 0
L1I AVERAGE MISS LATENCY: 17.2296 cycles
L1I RQ	ACCESS:    9488531	FORWARD:          0	MERGED:    2699517	TO_CACHE:    6789014
L1I PQ	ACCESS:    1512803	FORWARD:          0	MERGED:     417687	TO_CACHE:    1095116

L1BTB TOTAL     ACCESS:    5680116  HIT:    2079918  MISS:    3600198  HIT %:    36.6175  MISS %:    63.3825   MPKI: 72.004
L1BTB BRANCH_DIRECT_JUMP	ACCESS:     545319 HIT:     144869 MISS:     400450 AVERAGE STALL: 42.5195 AVERAGE FETCH STALL: 17.4692 AVERAGE FETCH QUEUE STALL: 12.3486 AVERAGE DECODE STALL: 11.8231 AVERAGE EXECUTE STALL: 1.20018e+15
L1BTB BRANCH_INDIRECT	ACCESS:     182082 HIT:      65786 MISS:     116296 AVERAGE STALL: 101.243 AVERAGE FETCH STALL: 11.7921 AVERAGE FETCH QUEUE STALL: 13.7507 AVERAGE DECODE STALL: 10.4549 AVERAGE EXECUTE STALL: 64.2913
L1BTB BRANCH_CONDITIONAL	ACCESS:    2736477 HIT:    1453774 MISS:    1282703 AVERAGE STALL: 50.6516 AVERAGE FETCH STALL: 22.7836 AVERAGE FETCH QUEUE STALL: 14.7173 AVERAGE DECODE STALL: 12.4161 AVERAGE EXECUTE STALL: 7.15739e+14
L1BTB BRANCH_DIRECT_CALL	ACCESS:     937649 HIT:     105116 MISS:     832533 AVERAGE STALL: 51.4519 AVERAGE FETCH STALL: 23.6523 AVERAGE FETCH QUEUE STALL: 14.668 AVERAGE DECODE STALL: 12.3838 AVERAGE EXECUTE STALL: 7.66411e+14
L1BTB BRANCH_INDIRECT_CALL	ACCESS:     170468 HIT:      21224 MISS:     149244 AVERAGE STALL: 129.323 AVERAGE FETCH STALL: 14 AVERAGE FETCH QUEUE STALL: 10.9665 AVERAGE DECODE STALL: 9.11331 AVERAGE EXECUTE STALL: 94.7415
L1BTB BRANCH_RETURN	ACCESS:    1108121 HIT:     289149 MISS:     818972 AVERAGE STALL: 44.9916 AVERAGE FETCH STALL: 17.3758 AVERAGE FETCH QUEUE STALL: 6.14743 AVERAGE DECODE STALL: 6.81398 AVERAGE EXECUTE STALL: 3.47462e+14
L1BTB BRANCH_OTHER ACCESS:          0 HIT:          0 MISS:          0 AVERAGE STALL: -nan AVERAGE FETCH STALL: -nan AVERAGE FETCH QUEUE STALL: -nan AVERAGE DECODE STALL: -nan AVERAGE EXECUTE STALL: -nan
L1BTB TOTAL ROB OCCUPANCY AT BTB MISS: 5.57559

L2BTB TOTAL     ACCESS:    3574931  HIT:    3444806  MISS:     130125  HIT %:    96.3601  MISS %:    3.63993   MPKI: 2.6025
L2BTB BRANCH_DIRECT_JUMP	ACCESS:     396280 HIT:     385059 MISS:      11221 AVERAGE STALL: 42.5195 AVERAGE FETCH STALL: 17.4692 AVERAGE FETCH QUEUE STALL: 12.3486 AVERAGE DECODE STALL: 11.8231 AVERAGE EXECUTE STALL: 1.20018e+15
L2BTB BRANCH_INDIRECT	ACCESS:     106108 HIT:     102670 MISS:       3438 AVERAGE STALL: 101.243 AVERAGE FETCH STALL: 11.7921 AVERAGE FETCH QUEUE STALL: 13.7507 AVERAGE DECODE STALL: 10.4549 AVERAGE EXECUTE STALL: 64.2913
L2BTB BRANCH_CONDITIONAL	ACCESS:    1282703 HIT:    1256637 MISS:      26066 AVERAGE STALL: 50.6516 AVERAGE FETCH STALL: 22.7836 AVERAGE FETCH QUEUE STALL: 14.7173 AVERAGE DECODE STALL: 12.4161 AVERAGE EXECUTE STALL: 7.15739e+14
L2BTB BRANCH_DIRECT_CALL	ACCESS:     832533 HIT:     808416 MISS:      24117 AVERAGE STALL: 51.4519 AVERAGE FETCH STALL: 23.6523 AVERAGE FETCH QUEUE STALL: 14.668 AVERAGE DECODE STALL: 12.3838 AVERAGE EXECUTE STALL: 7.66411e+14
L2BTB BRANCH_INDIRECT_CALL	ACCESS:     139729 HIT:     126182 MISS:      13547 AVERAGE STALL: 129.323 AVERAGE FETCH STALL: 14 AVERAGE FETCH QUEUE STALL: 10.9665 AVERAGE DECODE STALL: 9.11331 AVERAGE EXECUTE STALL: 94.7415
L2BTB BRANCH_RETURN	ACCESS:     817578 HIT:     765842 MISS:      51736 AVERAGE STALL: 44.9916 AVERAGE FETCH STALL: 17.3758 AVERAGE FETCH QUEUE STALL: 6.14743 AVERAGE DECODE STALL: 6.81398 AVERAGE EXECUTE STALL: 3.47462e+14
L2BTB BRANCH_OTHER ACCESS:          0 HIT:          0 MISS:          0 AVERAGE STALL: -nan AVERAGE FETCH STALL: -nan AVERAGE FETCH QUEUE STALL: -nan AVERAGE DECODE STALL: -nan AVERAGE EXECUTE STALL: -nan
L2BTB TOTAL ROB OCCUPANCY AT BTB MISS: 154.261

L2C TOTAL     ACCESS:    4510061  HIT:    4034325  MISS:     475736  HIT %:    89.4517  MISS %:    10.5483   MPKI: 9.51472
L2C LOAD INSTRUCTION	ACCESS:    2739409  HIT:    2481207  MISS:     258202  HIT %:    90.5745  MISS %:    9.42546  MPKI: 5.16404
L2C LOAD TRANSLATION INSTRUCTION	ACCESS:        283  HIT:         74  MISS:        209  HIT %:    26.1484  MISS %:    73.8516  MPKI: 0.00418
L2C LOAD DATA	ACCESS:     747261  HIT:     667062  MISS:      80199  HIT %:    89.2676  MISS %:    10.7324  MPKI: 1.60398
L2C RFO DATA	ACCESS:     290085  HIT:     241396  MISS:      48689  HIT %:    83.2156  MISS %:    16.7844  MPKI: 0.97378
L2C PREFETCH DATA	ACCESS:     204693  HIT:     130237  MISS:      74456  HIT %:    63.6255  MISS %:    36.3745  MPKI: 1.48912
L2C WRITEBACK DATA	ACCESS:     526328  HIT:     513729  MISS:      12599  HIT %:    97.6062  MISS %:    2.39375  MPKI: 0.25198
L2C LOAD TRANSLATION DATA	ACCESS:       1975  HIT:        603  MISS:       1372  HIT %:    30.5316  MISS %:    69.4684  MPKI: 0.02744
L2C TRANSLATION FROM L1D PREFETCHER DATA	ACCESS:         27  HIT:         17  MISS:         10  HIT %:     62.963  MISS %:     37.037  MPKI: 0.0002

L2C PREFETCH  REQUESTED:      96305  ISSUED:      96305  USEFUL:       8570  USELESS:      66568
L2C USEFUL LOAD PREFETCHES:       8570 PREFETCH ISSUED TO LOWER LEVEL:      74994  ACCURACY: 11.4276
 TIMELY PREFETCHES:       8570 LATE PREFETCHES: 538 DROPPED PREFETCHES: 0
L2C AVERAGE MISS LATENCY: 39.6448 cycles
L2C RQ	ACCESS:    3779085	FORWARD:          0	MERGED:          0	TO_CACHE:    3779042
L2C WQ	ACCESS:     526328	FORWARD:         43	MERGED:          0	TO_CACHE:     526328
L2C PQ	ACCESS:     212938	FORWARD:          0	MERGED:       3738	TO_CACHE:     209200

L2C Dense regions hint from L2: 0
PSCL5 TOTAL     ACCESS:       4290  HIT:       2145  MISS:       2145  HIT %:         50  MISS %:         50   MPKI: 0.0429
PSCL5 LOAD TRANSLATION INSTRUCTION	ACCESS:       4236  HIT:       2118  MISS:       2118  HIT %:         50  MISS %:         50  MPKI: 0.04236
PSCL5 TRANSLATION FROM L1D PREFETCHER INSTRUCTION	ACCESS:         54  HIT:         27  MISS:         27  HIT %:         50  MISS %:         50  MPKI: 0.00054


PSCL4 TOTAL     ACCESS:       4107  HIT:       2047  MISS:       2060  HIT %:    49.8417  MISS %:    50.1583   MPKI: 0.0412
PSCL4 LOAD TRANSLATION INSTRUCTION	ACCESS:       2688  HIT:       2020  MISS:        668  HIT %:    75.1488  MISS %:    24.8512  MPKI: 0.01336
PSCL4 TRANSLATION FROM L1D PREFETCHER INSTRUCTION	ACCESS:         40  HIT:         27  MISS:         13  HIT %:       67.5  MISS %:       32.5  MPKI: 0.00026
PSCL4 LOAD TRANSLATION DATA	ACCESS:       1365  HIT:          0  MISS:       1365  HIT %:          0  MISS %:        100  MPKI: 0.0273
PSCL4 TRANSLATION FROM L1D PREFETCHER DATA	ACCESS:         14  HIT:          0  MISS:         14  HIT %:          0  MISS %:        100  MPKI: 0.00028


PSCL3 TOTAL     ACCESS:       4163  HIT:       2075  MISS:       2088  HIT %:    49.8439  MISS %:    50.1561   MPKI: 0.04176
PSCL3 LOAD TRANSLATION INSTRUCTION	ACCESS:       2716  HIT:       2048  MISS:        668  HIT %:     75.405  MISS %:     24.595  MPKI: 0.01336
PSCL3 TRANSLATION FROM L1D PREFETCHER INSTRUCTION	ACCESS:         40  HIT:         27  MISS:         13  HIT %:       67.5  MISS %:       32.5  MPKI: 0.00026
PSCL3 LOAD TRANSLATION DATA	ACCESS:       1393  HIT:          0  MISS:       1393  HIT %:          0  MISS %:        100  MPKI: 0.02786
PSCL3 TRANSLATION FROM L1D PREFETCHER DATA	ACCESS:         14  HIT:          0  MISS:         14  HIT %:          0  MISS %:        100  MPKI: 0.00028


PSCL2 TOTAL     ACCESS:       4176  HIT:       2031  MISS:       2145  HIT %:    48.6351  MISS %:    51.3649   MPKI: 0.0429
PSCL2 LOAD TRANSLATION INSTRUCTION	ACCESS:       2247  HIT:       2004  MISS:        243  HIT %:    89.1856  MISS %:    10.8144  MPKI: 0.00486
PSCL2 TRANSLATION FROM L1D PREFETCHER INSTRUCTION	ACCESS:         27  HIT:         27  MISS:          0  HIT %:        100  MISS %:          0  MPKI: 0
PSCL2 LOAD TRANSLATION DATA	ACCESS:       1875  HIT:          0  MISS:       1875  HIT %:          0  MISS %:        100  MPKI: 0.0375
PSCL2 TRANSLATION FROM L1D PREFETCHER DATA	ACCESS:         27  HIT:          0  MISS:         27  HIT %:          0  MISS %:        100  MPKI: 0.00054


LLC TOTAL     ACCESS:     533634  HIT:     502400  MISS:      31234  HIT %:    94.1469  MISS %:    5.85308   MPKI: 0.62468
LLC LOAD INSTRUCTION	ACCESS:     258202  HIT:     257036  MISS:       1166  HIT %:    99.5484  MISS %:   0.451584  MPKI: 0.02332
LLC LOAD TRANSLATION INSTRUCTION	ACCESS:        209  HIT:        167  MISS:         42  HIT %:    79.9043  MISS %:    20.0957  MPKI: 0.00084
LLC LOAD DATA	ACCESS:      79679  HIT:      76102  MISS:       3577  HIT %:    95.5107  MISS %:    4.48926  MPKI: 0.07154
LLC RFO DATA	ACCESS:      48632  HIT:      33048  MISS:      15584  HIT %:    67.9553  MISS %:    32.0447  MPKI: 0.31168
LLC PREFETCH DATA	ACCESS:      74994  HIT:      64729  MISS:      10265  HIT %:    86.3122  MISS %:    13.6878  MPKI: 0.2053
LLC WRITEBACK DATA	ACCESS:      70536  HIT:      70010  MISS:        526  HIT %:    99.2543  MISS %:   0.745718  MPKI: 0.01052
LLC LOAD TRANSLATION DATA	ACCESS:       1372  HIT:       1298  MISS:         74  HIT %:    94.6064  MISS %:    5.39359  MPKI: 0.00148
LLC TRANSLATION FROM L1D PREFETCHER DATA	ACCESS:         10  HIT:         10  MISS:          0  HIT %:        100  MISS %:          0  MPKI: 0

LLC AVERAGE MISS LATENCY: 157.653 cycles
LLC RQ	ACCESS:     388143	FORWARD:          0	MERGED:          0	TO_CACHE:     388104
LLC WQ	ACCESS:      70536	FORWARD:         39	MERGED:          0	TO_CACHE:      70536
LLC PQ	ACCESS:      74994	FORWARD:          0	MERGED:          0	TO_CACHE:      74994

LLC Dense regions hint to LLC: 0

RAW hits: 1898427
Loads Generated: 12613786
Loads sent to L1D: 10715359
Stores Generated: 6908661
Stores sent to L1D: 6908677
Major fault: 0 Minor fault: 2570
Allocated PAGES: 2570

stream: 
stream:times selected: 1241872
stream:pref_filled: 125767
stream:pref_useful: 29152
stream:pref_late: 8718
stream:misses: 10458
stream:misses_by_poll: 0

CS: 
CS:times selected: 195416
CS:pref_filled: 71049
CS:pref_useful: 49839
CS:pref_late: 9292
CS:misses: 23759
CS:misses_by_poll: 8

CPLX: 
CPLX:times selected: 1045339
CPLX:pref_filled: 24520
CPLX:pref_useful: 7716
CPLX:pref_late: 3704
CPLX:misses: 126859
CPLX:misses_by_poll: 1

NL_L1: 
NL:times selected: 13333
NL:pref_filled: 1605
NL:pref_useful: 201
NL:pref_late: 543
NL:misses: 1615
NL:misses_by_poll: 0

total selections: 2495960
total_filled: 104299
total_useful: 48216
total_late: 24629
total_polluted: 9
total_misses_after_warmup: 792923
conflicts: 5514695

test: 118621

DRAM Statistics
 CHANNEL 0
 RQ ROW_BUFFER_HIT:      11414  ROW_BUFFER_MISS:      19273
 DBUS_CONGESTED:         10
 WQ ROW_BUFFER_HIT:       1521  ROW_BUFFER_MISS:      12939  FULL:          0

 AVG_CONGESTED_CYCLE: 5

CPU 0 Branch Prediction Accuracy: 99.8199% MPKI: 0.32972 Average ROB Occupancy at Mispredict: 172.034
Branch types
NOT_BRANCH: 40846795 81.6936%
BRANCH_DIRECT_JUMP: 545319 1.09064%
BRANCH_INDIRECT: 182082 0.364164%
BRANCH_CONDITIONAL: 6209160 12.4183%
BRANCH_DIRECT_CALL: 937649 1.8753%
BRANCH_INDIRECT_CALL: 170468 0.340936%
BRANCH_RETURN: 1108121 2.21624%
BRANCH_OTHER: 0 0%

DRAM PAGES: 1048576
Allocated PAGES: 2570
Average_ROB_Occupancy: 204.291
Average_Decode_Occupancy: 27.0493
Average_FTQ_Occupancy: 10.8431
Indirect max targets: 14 Average targets: 1.15203
Branch_type:  BRANCH_DIRECT_JUMP:  Count Percentage: 2.35949 7.001 8.80878 3.52625 4.02205 11.2658 2.37758 60.6391 
Branch_type:  BRANCH_INDIRECT:  Count Percentage: 11.7715 11.0834 10.2161 13.4362 1.33781 8.023 16.4198 27.7123 
Branch_type:  BRANCH_CONDITIONAL:  Count Percentage: 22.6222 3.87117 2.70043 3.66396 5.14004 6.68465 3.21258 52.105 
Branch_type:  BRANCH_DIRECT_CALL:  Count Percentage: 0.388979 1.96548 1.14688 2.45344 3.23199 5.35054 4.13669 81.326 
Branch_type:  BRANCH_INDIRECT_CALL:  Count Percentage: 9.52249 0 2.98541 10.6518 0 2.84391 2.84654 71.1498 
Branch_type:  BRANCH_RETURN:  Count Percentage: 4.43662 3.25615 2.74102 6.48036 5.99258 7.71162 3.95271 65.4289 
Branch_type:  BRANCH_DIRECT_JUMP:  Total Count: 25703 76265 95958 38413 43814 122723 25900 660569 
Branch_type:  BRANCH_INDIRECT:  Total Count: 42737 40239 37090 48781 4857 29128 59613 100611 
Branch_type:  BRANCH_CONDITIONAL:  Total Count: 2807719 480465 335160 454747 637949 829656 398725 6466934 
Branch_type:  BRANCH_DIRECT_CALL:  Total Count: 7313 36952 21562 46126 60763 100593 77772 1528971 
Branch_type:  BRANCH_INDIRECT_CALL:  Total Count: 32573 0 10212 36436 0 9728 9737 243378 
Branch_type:  BRANCH_RETURN:  Total Count: 98623 72382 60931 144054 133211 171424 87866 1454440 
Number of unique branch instructions: 10200
Upper 32 bits: 
aaaa
ffff
ffff0000
Unique upper 32 bits: 3
Unique upper 36 bits: 3
Unique upper 40 bits: 5
Unique upper 44 bits: 32
Unique upper 48 bits: 153
Variant_0 : 1265 0.308838
Variant_1 : 1176 0.287109
Variant_2 : 931 0.227295
Variant_3 : 717 0.175049
Offset_3 4226
Offset_4 259
Offset_5 466
Offset_6 521
Offset_7 604
Offset_8 541
Offset_9 477
Offset_10 399
Offset_11 335
Offset_12 281
Offset_13 211
Offset_14 227
Offset_15 193
Offset_16 223
Offset_17 159
Offset_18 130
Offset_19 240
Offset_20 139
Offset_21 235
Offset_22 402
Offset_23 247
Offset_24 337
Offset_25 88
Offset_47 84
Offset_64 5
decode_dispatch_called: 23330089 62.444
Dispatch_width: 0 12384483 53.0837 33.1476
Dispatch_width: 1 754754 3.23511 2.02013
Dispatch_width: 2 706659 3.02896 1.8914
Dispatch_width: 3 446287 1.91292 1.19451
Dispatch_width: 4 3760671 16.1194 10.0656
Dispatch_width: 5 213295 0.914249 0.570893
Dispatch_width: 6 5063940 21.7056 13.5538
Empty_decode_cycles: 14031555 37.556
ROB_full_cycles: 6022775 16.1202
Starvation_cycles_per_kilo_instr: 262.749
Starvation_cycles_per_kilo_instr_3: 223.01
Starvation_cycles_per_kilo_instr_0: 203.933
Branch_type_1  (3,1)  (4,9)  (5,36)  (6,71)  (7,120)  (8,136)  (9,127)  (10,103)  (11,76)  (12,44)  (13,5)  (14,2)  (15,3)  (16,4)  (18,1)  (19,4)  (20,2)  (21,1)  (22,3)  (23,2)  (24,10)  (25,12) 
Branch_type_2  (3,1)  (5,1)  (8,3)  (9,3)  (12,1)  (13,1)  (14,1)  (16,3)  (17,2)  (20,2)  (21,2)  (23,5)  (24,1)  (47,39) 
Branch_type_3  (3,4224)  (4,250)  (5,425)  (6,433)  (7,451)  (8,337)  (9,259)  (10,163)  (11,140)  (12,53)  (13,4)  (64,2) 
Branch_type_4  (6,4)  (7,8)  (8,31)  (9,51)  (10,64)  (11,60)  (12,102)  (13,92)  (14,99)  (15,92)  (16,100)  (17,74)  (18,60)  (19,117)  (20,71)  (21,124)  (22,214)  (23,139)  (24,198)  (25,72)  (64,2) 
Branch_type_5  (8,2)  (9,1)  (10,3)  (11,5)  (12,3)  (13,14)  (14,16)  (15,11)  (16,20)  (17,11)  (18,16)  (19,12)  (20,11)  (21,13)  (22,42)  (23,26)  (24,36) 
Branch_type_6  (5,4)  (6,13)  (7,25)  (8,32)  (9,36)  (10,66)  (11,54)  (12,78)  (13,95)  (14,109)  (15,87)  (16,96)  (17,72)  (18,53)  (19,107)  (20,53)  (21,95)  (22,143)  (23,75)  (24,92)  (25,4)  (47,45)  (64,1) 
Unique trigger count: 
Variant_0_evicts_0 : 0
Variant_0_evicts_1 : 0
Variant_0_evicts_2 : 0
Variant_0_evicts_3 : 0
Variant_1_evicts_0 : 0
Variant_1_evicts_1 : 0
Variant_1_evicts_2 : 0
Variant_1_evicts_3 : 0
Variant_2_evicts_0 : 0
Variant_2_evicts_1 : 0
Variant_2_evicts_2 : 0
Variant_2_evicts_3 : 0
Variant_3_evicts_0 : 0
Variant_3_evicts_1 : 0
Variant_3_evicts_2 : 0
Variant_3_evicts_3 : 0
BTB PER SET UNIQUE ADDR: 23 26 20 26 25 25 15 24 13 24 18 27 25 18 22 16 20 21 19 24 19 19 25 25 19 25 23 22 24 21 22 23 28 15 16 21 22 24 16 19 21 18 24 28 20 15 25 17 23 22 28 17 23 26 21 11 19 17 18 25 21 31 24 25 23 25 22 15 29 25 21 21 25 18 18 13 12 25 19 32 25 15 19 27 24 21 26 20 14 40 19 13 25 19 13 25 16 21 28 26 35 30 21 20 21 18 18 25 12 19 19 32 24 19 20 13 26 24 21 23 23 17 20 17 22 20 11 23 31 19 20 27 21 28 18 28 16 27 21 30 18 27 20 22 25 21 26 20 15 24 22 25 15 20 16 29 25 25 22 27 26 22 26 28 19 23 24 18 24 14 21 27 23 18 23 20 21 20 21 26 19 19 20 28 33 31 15 24 26 19 19 16 16 29 25 16 18 21 20 22 27 25 19 19 18 22 21 24 20 21 18 26 23 22 21 24 21 23 17 36 12 25 16 23 19 23 30 25 17 30 21 13 21 29 20 27 27 19 20 17 22 22 29 26 21 20 19 21 24 22 28 26 25 16 26 24 17 18 19 22 25 18 8 20 21 15 19 20 19 20 19 24 16 15 15 14 23 28 21 22 17 23 16 16 26 18 16 28 32 26 23 18 23 26 16 28 23 23 24 21 21 20 20 32 21 28 27 21 31 24 23 26 20 34 24 16 27 21 21 31 21 28 17 21 26 28 22 20 22 15 20 29 18 18 22 25 17 18 17 37 24 23 16 24 29 25 20 24 22 23 25 22 27 23 22 28 23 26 18 18 18 28 18 31 23 24 14 23 23 23 24 17 24 23 14 30 24 28 20 25 24 22 18 14 16 22 26 29 23 24 29 14 26 27 16 15 18 18 31 21 19 22 20 22 27 27 27 23 20 22 25 17 19 26 21 20 20 29 36 31 18 25 24 25 28 17 25 18 26 19 27 23 19 22 29 26 28 19 20 26 26 21 15 28 33 19 16 22 28 24 27 33 24 18 27 34 26 28 18 28 17 21 20 27 34 20 20 24 28 24 23 24 25 23 25 31 24 30 17 27 33 26 21 22 14 23 31 29 27 22 20 26 18 19 17 20 26 25 22 25 19 28 19 32 17 18 18 29 28 26 22 29 25 22 20 28 20 28 16 19 17 21 24 15 21 33 32 15 15 33 26 24 24 22 25 30 19 24 25 21 28 19 27 24 25 30 14 24 19 24 19 31 24 23 18 23 23 23 29 26 20 33 23 22 23 28 19 27 21 28 28 25 28 35 21 28 28 29 21 21 25 24 14 24 25 26 18 23 33 26 20 24 23 15 25 19 15 22 23 21 21 20 22 13 22 22 34 18 19 23 31 27 21 18 12 29 13 26 19 25 29 25 18 18 20 31 20 29 16 23 19 28 30 25 22 20 25 25 18 27 22 25 25 33 23 24 20 24 33 19 16 23 20 20 30 23 21 21 26 22 22 13 26 30 21 27 17 20 19 20 23 21 18 26 31 21 25 25 28 29 21 29 18 29 27 22 20 21 25 28 22 23 21 13 18 20 15 26 19 27 16 24 26 32 12 24 20 17 16 15 21 22 17 22 19 19 32 24 18 26 24 22 22 20 20 21 24 22 19 21 25 20 20 21 20 23 23 30 34 20 18 20 21 25 30 28 20 23 22 20 24 19 25 21 17 23 31 21 18 15 23 13 14 24 22 28 18 21 19 25 23 28 20 18 23 19 27 22 25 27 15 23 22 17 23 22 19 25 19 15 17 12 25 27 20 29 20 20 27 23 34 25 33 28 33 20 20 22 23 18 21 34 29 26 19 26 34 30 13 26 26 30 15 26 23 20 19 23 23 27 19 29 25 22 19 25 23 23 23 23 25 23 21 23 22 27 22 35 21 26 23 20 18 22 31 32 30 28 27 29 25 25 19 25 29 16 22 17 31 19 19 30 27 21 21 13 22 23 19 21 27 13 20 30 27 19 30 19 23 21 24 16 20 18 19 26 30 22 17 18 23 22 24 24 13 26 20 27 22 32 18 21 24 24 24 26 36 23 23 24 23 26 19 23 21 18 16 30 20 17 28 32 27 20 22 29 20 18 24 26 17 29 24 23 20 21 22 26 20 25 22 23 18 25 19 24 22 21 26 24 25 22 21 28 28 21 27 24 18 24 23 26 25 22 28 18 35 27 30 34 19 25 25 21 22 31 35 18 25 23 30 26 23 22 21 18 20 23 32 22 30 29 18 22 26 27 18 30 20 28 27 25 25 17 23 18 13 19 9 14 18 29 21 14 
BTB PER SET COUNT: 692 198 1621 197 435 179 330 164 930 163 109 905 14039 1484 103 84 666 1134 453 192 143 297 283 184 112 178 155 209 298 372 313 167 227 82 146 485 182 302 96 780 110 77 164 502 126 77 231 143 545 281 231 147 199 161 205 293 141 135 255 171 144 419 363 146 209 233 161 642 191 180 327 233 189 163 110 91 73 344 143 223 347 82 230 528 161 825 171 146 104 320 184 1023 323 172 66 183 368 372 257 4317 278 589 139 195 1385 91 113 200 918 1404 139 268 641 131 166 306 173 214 1396 338 333 85 150 108 99 258 42 753 314 494 116 428 169 184 220 190 1078 182 159 181 101 489 139 163 106 249 568 554 129 328 131 224 94 149 95 254 527 183 324 613 137 250 421 143 1200 298 147 86 200 410 112 204 169 140 222 369 184 148 446 426 254 331 556 194 305 318 66 122 507 901 140 77 69 195 182 186 90 294 153 150 188 133 1080 142 68 140 172 437 787 1138 129 256 141 2606 115 330 105 169 1199 340 82 193 234 151 135 168 203 255 116 205 118 47 143 214 394 4730 252 263 772 110 358 153 192 503 160 543 81 151 135 102 218 174 180 138 153 272 115 137 122 150 293 93 48 309 111 73 139 174 1418 153 129 439 263 88 254 83 158 204 122 301 84 211 832 491 114 110 80 473 233 190 120 87 129 715 100 205 850 165 159 304 126 85 165 260 132 242 283 173 257 572 224 215 114 280 1130 358 228 173 167 246 124 1598 81 116 590 586 284 148 118 104 148 297 107 97 101 199 104 168 91 427 128 1186 76 321 333 128 145 190 143 202 281 265 208 148 122 175 158 265 293 133 84 240 117 226 143 1141 62 203 165 154 190 133 171 768 221 300 183 167 294 535 485 135 478 90 95 105 581 196 248 579 300 102 196 242 110 107 106 117 368 609 128 146 428 112 220 182 175 355 110 157 257 67 103 470 132 105 182 339 439 250 92 167 125 153 238 143 475 155 136 508 232 157 105 175 315 172 186 370 124 179 328 110 120 229 860 406 283 134 215 151 609 1532 165 105 377 346 222 198 92 220 99 126 144 181 239 256 4780 121 186 249 191 155 190 159 132 236 184 272 73 223 286 401 165 121 90 402 236 204 928 210 459 227 1716 142 122 263 614 815 153 154 118 236 101 337 124 134 76 278 200 192 164 583 807 544 142 199 100 299 111 196 91 190 146 123 204 378 686 1250 148 705 231 173 198 138 161 270 615 299 182 340 216 167 191 217 186 402 65 141 91 1316 109 266 351 216 113 122 155 115 243 187 113 215 137 162 286 202 185 185 169 378 262 167 204 803 252 236 190 231 116 194 160 210 104 1938 232 246 419 159 311 197 286 149 162 91 186 120 1098 405 237 107 133 147 180 68 198 116 254 1144 118 142 227 798 382 99 45 165 58 174 370 543 245 120 67 258 115 194 103 341 1240 157 119 331 398 220 151 275 172 603 95 252 136 191 247 194 449 255 516 220 377 81 78 233 102 158 526 392 144 190 461 479 147 99 205 203 2246 203 112 901 634 176 176 160 969 166 479 271 144 228 195 234 128 241 637 158 346 146 106 204 212 224 119 188 211 56 1816 215 504 842 134 158 804 165 740 185 55 182 120 136 97 88 313 467 603 131 286 108 420 295 98 324 322 768 131 425 171 111 133 168 1058 432 220 2182 130 127 108 120 264 222 351 133 370 99 255 224 704 266 671 127 132 148 1561 90 283 126 183 146 260 903 146 79 144 68 65 338 667 293 128 271 110 226 133 223 323 86 178 136 216 144 125 229 920 180 654 116 139 174 91 145 112 110 159 645 160 195 372 278 162 132 171 423 253 171 337 316 542 140 144 136 105 153 173 1054 191 287 355 1317 358 209 66 1303 181 382 84 186 578 143 132 186 194 309 172 221 229 185 250 541 159 210 197 316 189 508 156 137 706 163 196 273 126 5925 427 357 270 154 395 259 731 176 229 179 806 171 113 136 499 96 127 81 210 110 213 236 222 115 125 67 151 163 636 155 188 58 224 250 203 112 190 123 133 245 212 375 500 1887 86 181 282 156 99 105 169 157 202 509 75 228 111 283 176 423 142 335 200 190 200 280 674 529 153 195 141 377 118 897 111 1144 62 194 122 116 186 232 563 131 110 864 132 199 489 196 84 885 166 89 117 312 149 250 146 202 237 1218 572 2038 205 212 207 156 171 245 188 212 283 221 246 111 872 218 138 154 248 558 162 193 373 178 810 124 274 326 184 240 576 318 106 1189 501 487 173 119 201 770 264 383 790 177 134 1619 187 756 274 741 132 178 164 273 104 227 136 201 508 357 182 110 126 131 66 333 52 102 261 763 133 74 
To predecode: 0
Predecoding something: 0
Predecode request dropped: 0
sizeofblock_0 0
sizeofblock_1 140869
sizeofblock_2 68621
sizeofblock_3 14725
sizeofblock_4 5258
sizeofblock_5 14
sizeofblock_6 0
sizeofblock_7 0
sizeofblock_8 0
Variant_0 Correct: 1560732 Incorrect: 0 Accuracy: 1
Variant_1 Correct: 2034968 Incorrect: 0 Accuracy: 1
Variant_2 Correct: 1878685 Incorrect: 0 Accuracy: 1
Variant_3 Correct: 1689786 Incorrect: 8596 Accuracy: 0.994939
