
*** ChampSim Multicore Out-of-Order Simulator ***

Warmup Instructions: 50000000
Simulation Instructions: 50000000
Number of CPUs: 1
LLC sets: 2048
LLC ways: 16
Off-chip DRAM Size: 4096 MB Channels: 1 Width: 64-bit Data Rate: 6400 MT/s
CPU 0 runs ./micro_traces/srv725.trace.gz
.gz
ITLB has LRU replacement policy
DTLB has LRU replacement policy
STLB has LRU replacement policy
FDIP Prefetcher at L1I
L1I has LRU replacement policy
L1D has LRU replacement policy
Initialize SRRIP state for L2C
Initialize DRRIP state for LLC
Heartbeat CPU 0 instructions: 10000003 cycles: 2797541 heartbeat IPC: 3.57457 cumulative IPC: 3.57457 (Simulation time: 0 hr 1 min 27 sec) 
Heartbeat CPU 0 instructions: 20000000 cycles: 5593214 heartbeat IPC: 3.57696 cumulative IPC: 3.57576 (Simulation time: 0 hr 2 min 55 sec) 
Heartbeat CPU 0 instructions: 30000002 cycles: 8389368 heartbeat IPC: 3.57634 cumulative IPC: 3.57595 (Simulation time: 0 hr 4 min 22 sec) 
Heartbeat CPU 0 instructions: 40000001 cycles: 11186622 heartbeat IPC: 3.57493 cumulative IPC: 3.5757 (Simulation time: 0 hr 5 min 48 sec) 
Heartbeat CPU 0 instructions: 50000001 cycles: 13983589 heartbeat IPC: 3.5753 cumulative IPC: 3.57562 (Simulation time: 0 hr 7 min 15 sec) 

Warmup complete CPU 0 instructions: 50000001 cycles: 13983589 (Simulation time: 0 hr 7 min 15 sec) 

Cycle: 20000000 FTQ IN: 56343765 FTQ occupancy: 17.6362 DECODE IN: 56343753 DECODE occupancy: 45.0297 ROB IN: 56343752 ROB occupancy: 271.523 ROB OUT: 56343742
Heartbeat CPU 0 instructions: 60000002 cycles: 23326007 heartbeat IPC: 1.07039 cumulative IPC: 1.07039 (Simulation time: 0 hr 8 min 27 sec) 
Cycle: 30000000 FTQ IN: 10581559 FTQ occupancy: 5.87468 DECODE IN: 10581538 DECODE occupancy: 12.1266 ROB IN: 10581539 ROB occupancy: 103.669 ROB OUT: 10581337
Heartbeat CPU 0 instructions: 70000001 cycles: 32948989 heartbeat IPC: 1.03918 cumulative IPC: 1.05455 (Simulation time: 0 hr 9 min 34 sec) 
Cycle: 40000000 FTQ IN: 10383206 FTQ occupancy: 5.18217 DECODE IN: 10383233 DECODE occupancy: 9.98788 ROB IN: 10383220 ROB occupancy: 90.3612 ROB OUT: 10383421
Heartbeat CPU 0 instructions: 80000002 cycles: 42559975 heartbeat IPC: 1.04048 cumulative IPC: 1.04982 (Simulation time: 0 hr 10 min 42 sec) 
Cycle: 50000000 FTQ IN: 10500022 FTQ occupancy: 5.1986 DECODE IN: 10500010 DECODE occupancy: 10.1516 ROB IN: 10500010 ROB occupancy: 91.1246 ROB OUT: 10499919
Heartbeat CPU 0 instructions: 90000000 cycles: 52090570 heartbeat IPC: 1.04925 cumulative IPC: 1.04968 (Simulation time: 0 hr 11 min 50 sec) 
Cycle: 60000000 FTQ IN: 10381945 FTQ occupancy: 5.37608 DECODE IN: 10381930 DECODE occupancy: 10.4809 ROB IN: 10381943 ROB occupancy: 93.2306 ROB OUT: 10382027
Heartbeat CPU 0 instructions: 100000001 cycles: 61724965 heartbeat IPC: 1.03795 cumulative IPC: 1.04731 (Simulation time: 0 hr 12 min 46 sec) 
Finished CPU 0 instructions: 50000000 cycles: 47741376 cumulative IPC: 1.04731 (Simulation time: 0 hr 12 min 46 sec) 

ChampSim completed all CPUs

Region of Interest Statistics

CPU 0 cumulative IPC: 1.04731 instructions: 50000000 cycles: 47741376
 Fetch stage stalled: 74.115  Sim cycles: 47741376 fetch stall cycle: 35383518
 Empty decode stage: 80.1852  Sim cycles: 47741376 fetch stall cycle: 38281531
ITLB TOTAL     ACCESS:    6060136  HIT:    5573136  MISS:     487000  HIT %:    91.9639  MISS %:    8.03612   MPKI: 9.74
ITLB LOAD TRANSLATION INSTRUCTION	ACCESS:    5978912  HIT:    5491912  MISS:     487000  HIT %:    91.8547  MISS %:    8.14529  MPKI: 9.74
ITLB TRANSLATION FROM L1D PREFETCHER INSTRUCTION	ACCESS:      81224  HIT:      81224  MISS:          0  HIT %:        100  MISS %:          0  MPKI: 0

ITLB AVERAGE MISS LATENCY: 9.07722 cycles
ITLB RQ	ACCESS:    7697550	FORWARD:          0	MERGED:    1372164	TO_CACHE:    6325386

DTLB TOTAL     ACCESS:    9635651  HIT:    9168511  MISS:     467140  HIT %:     95.152  MISS %:    4.84804   MPKI: 9.3428
DTLB LOAD TRANSLATION DATA	ACCESS:    9635651  HIT:    9168511  MISS:     467140  HIT %:     95.152  MISS %:    4.84804  MPKI: 9.3428

DTLB AVERAGE MISS LATENCY: 9.33358 cycles
DTLB RQ	ACCESS:   13871550	FORWARD:          0	MERGED:    4203971	TO_CACHE:    9667579

STLB TOTAL     ACCESS:    1197151  HIT:    1194784  MISS:       2367  HIT %:    99.8023  MISS %:   0.197719   MPKI: 0.04734
STLB LOAD TRANSLATION INSTRUCTION	ACCESS:     487000  HIT:     486524  MISS:        476  HIT %:    99.9023  MISS %:  0.0977413  MPKI: 0.00952
STLB LOAD TRANSLATION DATA	ACCESS:     466596  HIT:     464734  MISS:       1862  HIT %:    99.6009  MISS %:    0.39906  MPKI: 0.03724
STLB TRANSLATION FROM L1D PREFETCHER DATA	ACCESS:     243555  HIT:     243526  MISS:         29  HIT %:    99.9881  MISS %:   0.011907  MPKI: 0.00058

STLB AVERAGE MISS LATENCY: 71.6405 cycles
STLB RQ	ACCESS:    1316655	FORWARD:          0	MERGED:     119464	TO_CACHE:    1197191

STLB Hit, L1D data hit: 0
STLB Hit, L2C data hit: 0
STLB Hit, LLC data hit: 0
STLB Hit, LLC data miss: 0
STLB STLB hints to L2: 0
L1D TOTAL     ACCESS:   13645212  HIT:   12552107  MISS:    1093105  HIT %:    91.9891  MISS %:    8.01091   MPKI: 21.8621
L1D LOAD DATA	ACCESS:    7048205  HIT:    6329989  MISS:     718216  HIT %:    89.8099  MISS %:    10.1901  MPKI: 14.3643
L1D RFO DATA	ACCESS:    6271235  HIT:    5989165  MISS:     282070  HIT %:    95.5022  MISS %:    4.49784  MPKI: 5.6414
L1D PREFETCH DATA	ACCESS:     325772  HIT:     232953  MISS:      92819  HIT %:     71.508  MISS %:     28.492  MPKI: 1.85638

L1D PREFETCH  REQUESTED:     725256  ISSUED:     725256  USEFUL:      32845  USELESS:      67012
L1D USEFUL LOAD PREFETCHES:      32845 PREFETCH ISSUED TO LOWER LEVEL:      99882  ACCURACY: 32.8838
 TIMELY PREFETCHES:      32845 LATE PREFETCHES: 7024 DROPPED PREFETCHES: 12
L1D AVERAGE MISS LATENCY: 249311 cycles
L1D RQ	ACCESS:   11074907	FORWARD:          0	MERGED:    3826082	TO_CACHE:    7079460
L1D WQ	ACCESS:    6954111	FORWARD:     169591	MERGED:     162021	TO_CACHE:    6792090
L1D PQ	ACCESS:     362741	FORWARD:          0	MERGED:          0	TO_CACHE:     362515

L1D UNIQUE REGIONS ACCESSED: 0
L1D REGIONS CONFLICTS: 0
L1D Cross Page Prefetch Requests: 5936
L1D Same Page Prefetch Requests: 735712
L1D ROI Sum of L1D PQ occupancy: 4615458
L1D PREFETCHES PUSHED FROM L2C: 0
L1I TOTAL     ACCESS:    7158102  HIT:    4433372  MISS:    2724730  HIT %:     61.935  MISS %:     38.065   MPKI: 54.4946
L1I LOAD INSTRUCTION	ACCESS:    6789293  HIT:    4064563  MISS:    2724730  HIT %:    59.8672  MISS %:    40.1328  MPKI: 54.4946
L1I PREFETCH INSTRUCTION	ACCESS:     368809  HIT:     368809  MISS:          0  HIT %:        100  MISS %:          0  MPKI: 0

L1I PREFETCH  REQUESTED:     907241  ISSUED:     907241  USEFUL:          0  USELESS:          0
L1I USEFUL LOAD PREFETCHES:          0 PREFETCH ISSUED TO LOWER LEVEL:          0  ACCURACY: -nan
 TIMELY PREFETCHES:          0 LATE PREFETCHES: 0 DROPPED PREFETCHES: 0
L1I AVERAGE MISS LATENCY: 17.2985 cycles
L1I RQ	ACCESS:    9434988	FORWARD:          0	MERGED:    2385134	TO_CACHE:    7049854
L1I PQ	ACCESS:     907241	FORWARD:          0	MERGED:     259545	TO_CACHE:     647696

L1BTB TOTAL     ACCESS:    5682580  HIT:    2089799  MISS:    3592781  HIT %:    36.7755  MISS %:    63.2245   MPKI: 71.8556
L1BTB BRANCH_DIRECT_JUMP	ACCESS:     547462 HIT:     147494 MISS:     399968 AVERAGE STALL: 31.3844 AVERAGE FETCH STALL: 18.3723 AVERAGE FETCH QUEUE STALL: 5.36234 AVERAGE DECODE STALL: 6.77734 AVERAGE EXECUTE STALL: 1.09036e+15
L1BTB BRANCH_INDIRECT	ACCESS:     181661 HIT:      65234 MISS:     116427 AVERAGE STALL: 58.6909 AVERAGE FETCH STALL: 11.4458 AVERAGE FETCH QUEUE STALL: 4.12488 AVERAGE DECODE STALL: 6.04538 AVERAGE EXECUTE STALL: 36.112
L1BTB BRANCH_CONDITIONAL	ACCESS:    2709834 HIT:    1430701 MISS:    1279133 AVERAGE STALL: 34.2355 AVERAGE FETCH STALL: 21.4862 AVERAGE FETCH QUEUE STALL: 6.00127 AVERAGE DECODE STALL: 5.97796 AVERAGE EXECUTE STALL: 6.32214e+14
L1BTB BRANCH_DIRECT_CALL	ACCESS:     950222 HIT:     118514 MISS:     831708 AVERAGE STALL: 33.6413 AVERAGE FETCH STALL: 22.7388 AVERAGE FETCH QUEUE STALL: 4.55517 AVERAGE DECODE STALL: 5.57114 AVERAGE EXECUTE STALL: 8.74626e+14
L1BTB BRANCH_INDIRECT_CALL	ACCESS:     171577 HIT:      23405 MISS:     148172 AVERAGE STALL: 74.9118 AVERAGE FETCH STALL: 13.2993 AVERAGE FETCH QUEUE STALL: 2.25354 AVERAGE DECODE STALL: 5.47791 AVERAGE EXECUTE STALL: 53.3819
L1BTB BRANCH_RETURN	ACCESS:    1121824 HIT:     304451 MISS:     817373 AVERAGE STALL: 35.3287 AVERAGE FETCH STALL: 17.6643 AVERAGE FETCH QUEUE STALL: 2.68066 AVERAGE DECODE STALL: 4.82837 AVERAGE EXECUTE STALL: 3.6521e+14
L1BTB BRANCH_OTHER ACCESS:          0 HIT:          0 MISS:          0 AVERAGE STALL: -nan AVERAGE FETCH STALL: -nan AVERAGE FETCH QUEUE STALL: -nan AVERAGE DECODE STALL: -nan AVERAGE EXECUTE STALL: -nan
L1BTB TOTAL ROB OCCUPANCY AT BTB MISS: 2.16369

L2BTB TOTAL     ACCESS:    3567648  HIT:    3440868  MISS:     126780  HIT %:    96.4464  MISS %:     3.5536   MPKI: 2.5356
L2BTB BRANCH_DIRECT_JUMP	ACCESS:     395831 HIT:     383033 MISS:      12798 AVERAGE STALL: 31.3844 AVERAGE FETCH STALL: 18.3723 AVERAGE FETCH QUEUE STALL: 5.36234 AVERAGE DECODE STALL: 6.77734 AVERAGE EXECUTE STALL: 1.09036e+15
L2BTB BRANCH_INDIRECT	ACCESS:     106281 HIT:     103205 MISS:       3076 AVERAGE STALL: 58.6909 AVERAGE FETCH STALL: 11.4458 AVERAGE FETCH QUEUE STALL: 4.12488 AVERAGE DECODE STALL: 6.04538 AVERAGE EXECUTE STALL: 36.112
L2BTB BRANCH_CONDITIONAL	ACCESS:    1279133 HIT:    1249578 MISS:      29555 AVERAGE STALL: 34.2355 AVERAGE FETCH STALL: 21.4862 AVERAGE FETCH QUEUE STALL: 6.00127 AVERAGE DECODE STALL: 5.97796 AVERAGE EXECUTE STALL: 6.32214e+14
L2BTB BRANCH_DIRECT_CALL	ACCESS:     831708 HIT:     810568 MISS:      21140 AVERAGE STALL: 33.6413 AVERAGE FETCH STALL: 22.7388 AVERAGE FETCH QUEUE STALL: 4.55517 AVERAGE DECODE STALL: 5.57114 AVERAGE EXECUTE STALL: 8.74626e+14
L2BTB BRANCH_INDIRECT_CALL	ACCESS:     138718 HIT:     127664 MISS:      11054 AVERAGE STALL: 74.9118 AVERAGE FETCH STALL: 13.2993 AVERAGE FETCH QUEUE STALL: 2.25354 AVERAGE DECODE STALL: 5.47791 AVERAGE EXECUTE STALL: 53.3819
L2BTB BRANCH_RETURN	ACCESS:     815977 HIT:     766820 MISS:      49157 AVERAGE STALL: 35.3287 AVERAGE FETCH STALL: 17.6643 AVERAGE FETCH QUEUE STALL: 2.68066 AVERAGE DECODE STALL: 4.82837 AVERAGE EXECUTE STALL: 3.6521e+14
L2BTB BRANCH_OTHER ACCESS:          0 HIT:          0 MISS:          0 AVERAGE STALL: -nan AVERAGE FETCH STALL: -nan AVERAGE FETCH QUEUE STALL: -nan AVERAGE DECODE STALL: -nan AVERAGE EXECUTE STALL: -nan
L2BTB TOTAL ROB OCCUPANCY AT BTB MISS: 61.3162

L2C TOTAL     ACCESS:    4416647  HIT:    3922242  MISS:     494405  HIT %:    88.8059  MISS %:    11.1941   MPKI: 9.8881
L2C LOAD INSTRUCTION	ACCESS:    2724730  HIT:    2447744  MISS:     276986  HIT %:    89.8344  MISS %:    10.1656  MPKI: 5.53972
L2C LOAD TRANSLATION INSTRUCTION	ACCESS:        531  HIT:        196  MISS:        335  HIT %:    36.9115  MISS %:    63.0885  MPKI: 0.0067
L2C LOAD DATA	ACCESS:     711169  HIT:     636457  MISS:      74712  HIT %:    89.4945  MISS %:    10.5055  MPKI: 1.49424
L2C RFO DATA	ACCESS:     282017  HIT:     230586  MISS:      51431  HIT %:    81.7632  MISS %:    18.2368  MPKI: 1.02862
L2C PREFETCH DATA	ACCESS:     182725  HIT:     110106  MISS:      72619  HIT %:    60.2578  MISS %:    39.7422  MPKI: 1.45238
L2C WRITEBACK DATA	ACCESS:     513445  HIT:     496549  MISS:      16896  HIT %:    96.7093  MISS %:    3.29071  MPKI: 0.33792
L2C LOAD TRANSLATION DATA	ACCESS:       1971  HIT:        564  MISS:       1407  HIT %:    28.6149  MISS %:    71.3851  MPKI: 0.02814
L2C TRANSLATION FROM L1D PREFETCHER DATA	ACCESS:         59  HIT:         40  MISS:         19  HIT %:    67.7966  MISS %:    32.2034  MPKI: 0.00038

L2C PREFETCH  REQUESTED:      90524  ISSUED:      90524  USEFUL:       8038  USELESS:      65233
L2C USEFUL LOAD PREFETCHES:       8038 PREFETCH ISSUED TO LOWER LEVEL:      73104  ACCURACY: 10.9953
 TIMELY PREFETCHES:       8038 LATE PREFETCHES: 485 DROPPED PREFETCHES: 0
L2C AVERAGE MISS LATENCY: 38.2717 cycles
L2C RQ	ACCESS:    3720514	FORWARD:          0	MERGED:          0	TO_CACHE:    3720477
L2C WQ	ACCESS:     513445	FORWARD:         37	MERGED:          0	TO_CACHE:     513445
L2C PQ	ACCESS:     190406	FORWARD:          0	MERGED:       3710	TO_CACHE:     186696

L2C Dense regions hint from L2: 0
PSCL5 TOTAL     ACCESS:       4760  HIT:       2380  MISS:       2380  HIT %:         50  MISS %:         50   MPKI: 0.0476
PSCL5 LOAD TRANSLATION INSTRUCTION	ACCESS:       4642  HIT:       2321  MISS:       2321  HIT %:         50  MISS %:         50  MPKI: 0.04642
PSCL5 TRANSLATION FROM L1D PREFETCHER INSTRUCTION	ACCESS:        118  HIT:         59  MISS:         59  HIT %:         50  MISS %:         50  MPKI: 0.00118


PSCL4 TOTAL     ACCESS:       3778  HIT:       1885  MISS:       1893  HIT %:    49.8941  MISS %:    50.1059   MPKI: 0.03786
PSCL4 LOAD TRANSLATION INSTRUCTION	ACCESS:       2020  HIT:       1839  MISS:        181  HIT %:    91.0396  MISS %:     8.9604  MPKI: 0.00362
PSCL4 TRANSLATION FROM L1D PREFETCHER INSTRUCTION	ACCESS:         46  HIT:         46  MISS:          0  HIT %:        100  MISS %:          0  MPKI: 0
PSCL4 LOAD TRANSLATION DATA	ACCESS:       1666  HIT:          0  MISS:       1666  HIT %:          0  MISS %:        100  MPKI: 0.03332
PSCL4 TRANSLATION FROM L1D PREFETCHER DATA	ACCESS:         46  HIT:          0  MISS:         46  HIT %:          0  MISS %:        100  MPKI: 0.00092


PSCL3 TOTAL     ACCESS:       4524  HIT:       2250  MISS:       2274  HIT %:    49.7347  MISS %:    50.2653   MPKI: 0.04548
PSCL3 LOAD TRANSLATION INSTRUCTION	ACCESS:       3649  HIT:       2203  MISS:       1446  HIT %:    60.3727  MISS %:    39.6273  MPKI: 0.02892
PSCL3 TRANSLATION FROM L1D PREFETCHER INSTRUCTION	ACCESS:         76  HIT:         47  MISS:         29  HIT %:    61.8421  MISS %:    38.1579  MPKI: 0.00058
PSCL3 LOAD TRANSLATION DATA	ACCESS:        781  HIT:          0  MISS:        781  HIT %:          0  MISS %:        100  MPKI: 0.01562
PSCL3 TRANSLATION FROM L1D PREFETCHER DATA	ACCESS:         18  HIT:          0  MISS:         18  HIT %:          0  MISS %:        100  MPKI: 0.00036


PSCL2 TOTAL     ACCESS:       4605  HIT:       2225  MISS:       2380  HIT %:     48.317  MISS %:     51.683   MPKI: 0.0476
PSCL2 LOAD TRANSLATION INSTRUCTION	ACCESS:       2642  HIT:       2166  MISS:        476  HIT %:    81.9833  MISS %:    18.0167  MPKI: 0.00952
PSCL2 TRANSLATION FROM L1D PREFETCHER INSTRUCTION	ACCESS:         59  HIT:         59  MISS:          0  HIT %:        100  MISS %:          0  MPKI: 0
PSCL2 LOAD TRANSLATION DATA	ACCESS:       1845  HIT:          0  MISS:       1845  HIT %:          0  MISS %:        100  MPKI: 0.0369
PSCL2 TRANSLATION FROM L1D PREFETCHER DATA	ACCESS:         59  HIT:          0  MISS:         59  HIT %:          0  MISS %:        100  MPKI: 0.00118


LLC TOTAL     ACCESS:     551824  HIT:     522352  MISS:      29472  HIT %:    94.6592  MISS %:    5.34083   MPKI: 0.58944
LLC LOAD INSTRUCTION	ACCESS:     276986  HIT:     275872  MISS:       1114  HIT %:    99.5978  MISS %:   0.402186  MPKI: 0.02228
LLC LOAD TRANSLATION INSTRUCTION	ACCESS:        335  HIT:        288  MISS:         47  HIT %:    85.9701  MISS %:    14.0299  MPKI: 0.00094
LLC LOAD DATA	ACCESS:      74269  HIT:      70696  MISS:       3573  HIT %:    95.1891  MISS %:    4.81089  MPKI: 0.07146
LLC RFO DATA	ACCESS:      51383  HIT:      37005  MISS:      14378  HIT %:     72.018  MISS %:     27.982  MPKI: 0.28756
LLC PREFETCH DATA	ACCESS:      73104  HIT:      63180  MISS:       9924  HIT %:    86.4248  MISS %:    13.5752  MPKI: 0.19848
LLC WRITEBACK DATA	ACCESS:      74321  HIT:      73984  MISS:        337  HIT %:    99.5466  MISS %:   0.453438  MPKI: 0.00674
LLC LOAD TRANSLATION DATA	ACCESS:       1407  HIT:       1309  MISS:         98  HIT %:    93.0348  MISS %:    6.96517  MPKI: 0.00196
LLC TRANSLATION FROM L1D PREFETCHER DATA	ACCESS:         19  HIT:         18  MISS:          1  HIT %:    94.7368  MISS %:    5.26316  MPKI: 2e-05

LLC AVERAGE MISS LATENCY: 154.806 cycles
LLC RQ	ACCESS:     404405	FORWARD:          0	MERGED:          0	TO_CACHE:     404399
LLC WQ	ACCESS:      74321	FORWARD:          6	MERGED:          0	TO_CACHE:      74321
LLC PQ	ACCESS:      73104	FORWARD:          0	MERGED:          0	TO_CACHE:      73104

LLC Dense regions hint to LLC: 0

RAW hits: 1583390
Loads Generated: 12658298
Loads sent to L1D: 11074907
Stores Generated: 6954106
Stores sent to L1D: 6954111
Major fault: 0 Minor fault: 2551
Allocated PAGES: 2551

stream: 
stream:times selected: 1169183
stream:pref_filled: 119845
stream:pref_useful: 23923
stream:pref_late: 6410
stream:misses: 6638
stream:misses_by_poll: 0

CS: 
CS:times selected: 174143
CS:pref_filled: 58331
CS:pref_useful: 34913
CS:pref_late: 6171
CS:misses: 15277
CS:misses_by_poll: 13

CPLX: 
CPLX:times selected: 994012
CPLX:pref_filled: 19842
CPLX:pref_useful: 4290
CPLX:pref_late: 2913
CPLX:misses: 89622
CPLX:misses_by_poll: 0

NL_L1: 
NL:times selected: 19041
NL:pref_filled: 500
NL:pref_useful: 240
NL:pref_late: 182
NL:misses: 977
NL:misses_by_poll: 0

total selections: 2356379
total_filled: 92819
total_useful: 32845
total_late: 16907
total_polluted: 13
total_misses_after_warmup: 749475
conflicts: 5770956

test: 113507

DRAM Statistics
 CHANNEL 0
 RQ ROW_BUFFER_HIT:      11113  ROW_BUFFER_MISS:      18014
 DBUS_CONGESTED:          8
 WQ ROW_BUFFER_HIT:       1427  ROW_BUFFER_MISS:      12238  FULL:          0

 AVG_CONGESTED_CYCLE: 5

CPU 0 Branch Prediction Accuracy: 99.8174% MPKI: 0.3343 Average ROB Occupancy at Mispredict: 98.9238
Branch types
NOT_BRANCH: 40845320 81.6906%
BRANCH_DIRECT_JUMP: 547462 1.09492%
BRANCH_INDIRECT: 181661 0.363322%
BRANCH_CONDITIONAL: 6181609 12.3632%
BRANCH_DIRECT_CALL: 950222 1.90044%
BRANCH_INDIRECT_CALL: 171577 0.343154%
BRANCH_RETURN: 1121824 2.24365%
BRANCH_OTHER: 0 0%

DRAM PAGES: 1048576
Allocated PAGES: 2551
Average_ROB_Occupancy: 95.2365
Average_Decode_Occupancy: 10.6035
Average_FTQ_Occupancy: 5.3743
Indirect max targets: 14 Average targets: 1.15772
Branch_type:  BRANCH_DIRECT_JUMP:  Count Percentage: 3.28524 6.60308 3.64703 2.96784 7.44248 6.48188 2.04067 67.5318 
Branch_type:  BRANCH_INDIRECT:  Count Percentage: 11.7081 3.45375 2.52354 13.2765 3.33984 2.80598 2.41265 60.4797 
Branch_type:  BRANCH_CONDITIONAL:  Count Percentage: 20.8755 3.14808 2.23145 2.89503 2.94344 4.77046 4.0383 59.0977 
Branch_type:  BRANCH_DIRECT_CALL:  Count Percentage: 0.383301 1.74878 0.723169 1.93569 4.24788 2.82468 1.1859 86.9506 
Branch_type:  BRANCH_INDIRECT_CALL:  Count Percentage: 9.5011 0 2.97721 0.00378484 0 2.20336 1.28277 84.0318 
Branch_type:  BRANCH_RETURN:  Count Percentage: 3.90944 1.97979 2.11283 2.04899 2.74209 5.53116 4.17203 77.5037 
Branch_type:  BRANCH_DIRECT_JUMP:  Total Count: 35968 72293 39929 32493 81483 70966 22342 739363 
Branch_type:  BRANCH_INDIRECT:  Total Count: 42656 12583 9194 48370 12168 10223 8790 220345 
Branch_type:  BRANCH_CONDITIONAL:  Total Count: 2578445 388836 275618 357580 363559 589224 498792 7299467 
Branch_type:  BRANCH_DIRECT_CALL:  Total Count: 7272 33178 13720 36724 80591 53590 22499 1649631 
Branch_type:  BRANCH_INDIRECT_CALL:  Total Count: 32634 0 10226 13 0 7568 4406 288629 
Branch_type:  BRANCH_RETURN:  Total Count: 87630 44377 47359 45928 61464 123981 93516 1737244 
Number of unique branch instructions: 10213
Upper 32 bits: 
aaaa
ffff
ffff0000
Unique upper 32 bits: 3
Unique upper 36 bits: 3
Unique upper 40 bits: 5
Unique upper 44 bits: 32
Unique upper 48 bits: 156
Offset_3 4212
Offset_4 256
Offset_5 465
Offset_6 516
Offset_7 619
Offset_8 525
Offset_9 481
Offset_10 398
Offset_11 326
Offset_12 285
Offset_13 216
Offset_14 244
Offset_15 190
Offset_16 225
Offset_17 155
Offset_18 125
Offset_19 256
Offset_20 139
Offset_21 235
Offset_22 404
Offset_23 242
Offset_24 333
Offset_25 95
Offset_47 84
Offset_64 2
decode_dispatch_called: 20833547 43.6383
Dispatch_width: 0 10448320 50.1514 21.8853
Dispatch_width: 1 640772 3.07567 1.34217
Dispatch_width: 2 829718 3.98261 1.73794
Dispatch_width: 3 588182 2.82324 1.23202
Dispatch_width: 4 1792717 8.60495 3.75506
Dispatch_width: 5 438819 2.10631 0.919159
Dispatch_width: 6 6095019 29.2558 12.7667
Empty_decode_cycles: 26907829 56.3617
ROB_full_cycles: 1849197 3.87336
Starvation_cycles_per_kilo_instr: 397.972
Starvation_cycles_per_kilo_instr_3: 375.656
Starvation_cycles_per_kilo_instr_0: 355.07
Branch_type_1  (3,1)  (4,9)  (5,38)  (6,72)  (7,121)  (8,129)  (9,126)  (10,101)  (11,69)  (12,43)  (13,8)  (14,2)  (15,3)  (16,4)  (18,1)  (19,4)  (20,2)  (21,1)  (22,3)  (23,2)  (24,10)  (25,13) 
Branch_type_2  (3,1)  (4,1)  (5,1)  (8,3)  (9,3)  (12,1)  (13,1)  (14,1)  (16,3)  (17,2)  (20,2)  (21,2)  (23,5)  (24,1)  (47,38) 
Branch_type_3  (3,4210)  (4,246)  (5,422)  (6,429)  (7,467)  (8,329)  (9,257)  (10,161)  (11,126)  (12,50)  (13,7)  (64,2) 
Branch_type_4  (6,3)  (7,8)  (8,25)  (9,57)  (10,64)  (11,66)  (12,106)  (13,92)  (14,108)  (15,90)  (16,100)  (17,72)  (18,57)  (19,126)  (20,72)  (21,124)  (22,214)  (23,136)  (24,193)  (25,78) 
Branch_type_5  (8,2)  (9,1)  (10,4)  (11,6)  (12,3)  (13,14)  (14,17)  (15,11)  (16,20)  (17,11)  (18,16)  (19,13)  (20,11)  (21,13)  (22,42)  (23,26)  (24,37) 
Branch_type_6  (5,4)  (6,12)  (7,23)  (8,37)  (9,37)  (10,68)  (11,59)  (12,82)  (13,94)  (14,116)  (15,86)  (16,98)  (17,70)  (18,51)  (19,113)  (20,52)  (21,95)  (22,145)  (23,73)  (24,92)  (25,4)  (47,46) 
aaaaab1fc620: 2ac9e77e 2aca717c 2aca8eff 2acaf6bc 2acaf9aa 2acaf9f1 2acb1abc 2acb1b7f 2acd4e22 2acdb712 2acf5f9e 2ad0ef44 2ad3f15c 2ad414e6 2ad60e42 2ad8609c 2ad99830 2ada35cc 2ada4676 2ada6612 2adf183e 2adf30e5 2adf5602 2adf785c 2ae11572 2aeb2dcf 2aee101b 2aee1ae1 2b156a8c 2b156b61 2b156bea 2b167f35 2b177656 2b17feec 2b1a3e5a 
aaaaac68f310: 2ac9ec8c 2ac9fb44 2ac9fbd2 2aca59ab 2acac04c 2acaf6e0 2acaf6ec 2acaf6f9 2acaf700 2acaf708 2acf2d90 2ad3cfbd 2ad3cfc4 2ad3d000 2ad3f35f 2ad4955d 2ad49571 2ad4f3f2 2ad4f400 2ad5f240 2ad5f37c 2ad5f86a 2ad5f86f 2ad5f880 2ad5fc0d 2ad5fc14 2ad5fc21 2ad5fe1b 2ad873bb 2ad873e3 2ad8a6b2 2ad9086e 2ad93096 2ad9bbb2 2ada152c 2ada1554 2ada3332 2ada5522 2adf3130 2adf313c 2adf3a3f 2adf3bd9 2adf5788 2adf7a8d 2ae07f6b 2ae0857a 2ae0857e 2ae08630 2ae08634 2ae08637 2ae08642 2ae0866f 2ae086e4 2ae086ec 2ae08717 2ae0871b 2aee0170 2aee1d38 2aee75f4 2aee7662 2aee85ca 2aee85e4 2aee8eef 2af70b84 2af74e8f 2b17d843 
aaaaac690ef0: 2aca598b 2acb111b 2acb175f 2acb1772 2acbfaf4 2acbfb00 2acf374f 2acf6d43 2acfa5c8 2ad3baf1 2ad3d4ac 2ad3d4b8 2ad3f1cf 2ad486b2 2ad5a59b 2ad5fc64 2ad5fcf9 2ad6121c 2ad906e9 2ad907bf 2ad9bada 2ada16ce 2ada1ad5 2ada43df 2ada64c0 2ada72ee 2adeb71a 2adf3bcb 2adf7a38 2adf7c6a 2adf8872 2adf8880 2adf9959 2adf9abe 2ae07f78 2ae08503 2ae08754 2ae12e80 2aea3bea 2aecb509 2aee00b0 2aee2bdd 2aee5467 2aee5601 2aee8f20 2af703fd 2af7048b 2af74e74 
Unique trigger count: 
1 9720
2 532
3 89
4 31
5 11
6 7
7 7
8 1
9 3
10 2
11 1
12 1
13 3
14 1
16 2
19 5
35 1
48 1
66 1
BTB PER SET UNIQUE ADDR: 13 17 9 9 5 14 12 17 16 6 12 7 19 14 8 13 15 11 14 15 10 16 12 15 14 12 7 11 10 14 21 14 14 9 18 16 16 17 13 11 15 12 8 15 18 11 12 15 21 11 13 7 18 8 11 15 15 12 16 11 13 22 11 15 12 21 10 17 19 13 8 8 10 8 9 20 13 18 13 11 13 11 12 11 14 12 12 12 17 15 19 22 16 13 12 13 17 13 13 12 15 11 17 14 12 13 11 15 15 12 17 7 9 18 13 19 7 13 14 9 13 15 11 8 11 9 9 10 21 13 14 9 13 8 14 12 13 10 13 12 19 10 11 8 15 16 10 16 22 9 13 22 13 19 11 14 11 18 13 18 16 13 22 14 18 13 11 10 20 18 15 9 15 14 10 10 13 12 13 12 8 10 13 13 17 17 13 14 9 19 9 13 13 18 9 14 16 8 17 12 10 11 15 10 17 10 6 16 12 5 8 11 13 10 9 15 6 20 15 15 13 5 13 14 13 11 20 11 6 18 19 19 8 6 13 11 16 11 9 8 9 9 12 14 18 22 10 10 10 12 15 17 13 12 19 17 10 11 18 11 8 10 14 9 15 25 9 9 15 11 11 12 14 18 18 16 8 13 8 17 12 13 15 18 20 13 12 11 20 8 14 10 12 17 14 13 10 16 10 10 12 9 8 10 7 9 10 14 17 13 16 7 13 7 11 7 15 20 14 7 13 14 15 13 10 9 11 13 8 5 14 7 9 15 18 9 13 11 15 8 11 14 8 18 13 13 11 11 16 12 8 15 23 11 14 14 16 10 11 11 12 20 14 10 14 14 11 7 9 13 15 11 16 10 16 8 17 16 15 14 14 15 12 15 16 15 12 9 17 11 14 11 16 10 12 13 12 13 12 14 10 9 8 12 9 10 14 10 13 10 14 10 18 15 9 9 15 17 7 11 14 15 11 16 21 18 5 11 14 15 7 8 21 13 17 18 15 9 15 6 19 13 12 10 16 19 10 15 11 10 16 9 9 11 19 11 14 10 13 11 8 14 17 15 13 10 17 10 17 14 6 12 14 14 9 7 19 11 12 11 12 13 8 15 9 18 13 10 10 7 17 10 10 14 8 16 11 11 12 9 20 8 13 7 11 10 9 10 14 12 21 9 
BTB PER SET COUNT: 15 29 10 9 5 15 14 513 19 1474 12 455 55 15 8 15 16 11 14 1481 12 21 13 500 16 12 9 11 1470 14 1763 419 16 10 25 22 2940 2500 13 11 19 13 8 17 3841 13 13 16 5227 13 13 8 3475 8 12 19 16 12 16 100 16 5961 12 16 12 4184 11 25 4733 43 9 8 1472 9 10 5819 497 62 13 12 16 988 991 11 498 14 13 12 23 18 3758 526 16 2916 15 16 27 14 14 17 17 11 24 16 981 13 12 16 20 734 422 7 1469 71 13 2842 11 13 497 1469 15 27 13 8 497 11 11 10 4991 16 499 9 31 14 16 12 497 13 13 22 36 12 13 9 17 19 1461 17 14687 16 13 8589 13 5335 2932 988 12 48 501 24 18 15 7535 982 518 1965 640 10 7802 507 17 976 14626 1107 10 1875 1473 497 991 983 9 10 13 13 23 18 15 50 9 49 9 14 162 1001 9 1479 997 1468 110 12 14 11 983 12 1489 749 6 2445 18 6 9 15 14 13 9 661 6 6081 18 17 992 5 14 14 13 13 772 2009 10 1497 242 4384 8 7 498 11 16 981 10 8 9 515 12 14 1781 5012 10 987 11 13 992 18 14 12 65 22 13 11 32 11 12 104 14 1470 1477 9530 986 11 16 15 12 15 22 66 70 17 422 13 8 92 25 13 254 25 6076 981 12 11 105 9 199 12 2432 1483 17 15 13 88 12 13 13 492 9 13 8 9 12 15 24 13 19 344 14 9 987 12 16 6324 20 7 13 14 44 15 10 9 11 13 197 5 984 1469 9 17 1006 10 985 12 17 8 12 17 12 1481 980 13 12 17 16 13 8 18 7776 1964 16 983 19 11 13 50 15 53 17 10 18 18 11 7 9 13 19 12 16 18 20 8 19 19 18 17 15 16 12 143 20 16 15 10 2618 13 156 49 18 16 13 15 1476 17 13 14 10 12 8 15 10 977 2935 11 15 2364 16 11 558 21 987 11 118 18 9 1962 14 499 11 18 6883 39 23 12 15 20 144 984 2738 15 27 280 19 9 19 6 402 13 12 13 31 3524 15 994 11 497 21 10 11 12 49 11 15 12 498 12 975 416 35 15 1012 11 19 12 28 14 490 17 42 504 114 7 20514 11 13 13 13 13 8 499 9 460 271 388 10 9 23 10 11 14 10 19 11 12 1947 9 8015 415 1175 8 12 11 12 12 1492 12 830 10 
