
*** ChampSim Multicore Out-of-Order Simulator ***

Warmup Instructions: 50000000
Simulation Instructions: 50000000
Number of CPUs: 1
LLC sets: 2048
LLC ways: 16
Off-chip DRAM Size: 4096 MB Channels: 1 Width: 64-bit Data Rate: 6400 MT/s
CPU 0 runs ./micro_traces/srv747.trace.gz
.gz
ITLB has LRU replacement policy
DTLB has LRU replacement policy
STLB has LRU replacement policy
L1I has LRU replacement policy
L1D has LRU replacement policy
Initialize SRRIP state for L2C
Initialize DRRIP state for LLC
Heartbeat_Variant_0 : 1298 0.316895 per_variant_size: 0 1298 0 0 0 0 0 0 0 
Heartbeat_Variant_1 : 1200 0.292969 per_variant_size: 0 590 610 0 0 0 0 0 0 
Heartbeat_Variant_2 : 1285 0.313721 per_variant_size: 0 518 375 214 178 0 0 0 0 
Heartbeat_Variant_3 : 0 0 per_variant_size: 0 0 0 0 0 0 0 0 0 
Heartbeat_Variant_0_evicts 0 : 5755 1 : 230 2 : 222 3 : 0 
Heartbeat_Variant_1_evicts 0 : 215 1 : 0 2 : 369 3 : 0 
Heartbeat_Variant_2_evicts 0 : 214 1 : 371 2 : 0 3 : 0 
Heartbeat_Variant_3_evicts 0 : 0 1 : 0 2 : 0 3 : 0 
Heartbeat CPU 0 instructions: 10000003 cycles: 2801175 heartbeat IPC: 3.56993 cumulative IPC: 3.56993 (Simulation time: 0 hr 1 min 24 sec) 
Heartbeat_Variant_0 : 1356 0.331055 per_variant_size: 0 1356 0 0 0 0 0 0 0 
Heartbeat_Variant_1 : 1247 0.304443 per_variant_size: 0 579 668 0 0 0 0 0 0 
Heartbeat_Variant_2 : 1337 0.326416 per_variant_size: 0 504 395 240 198 0 0 0 0 
Heartbeat_Variant_3 : 0 0 per_variant_size: 0 0 0 0 0 0 0 0 0 
Heartbeat_Variant_0_evicts 0 : 5625 1 : 170 2 : 167 3 : 0 
Heartbeat_Variant_1_evicts 0 : 153 1 : 0 2 : 348 3 : 0 
Heartbeat_Variant_2_evicts 0 : 172 1 : 341 2 : 0 3 : 0 
Heartbeat_Variant_3_evicts 0 : 0 1 : 0 2 : 0 3 : 0 
Heartbeat CPU 0 instructions: 20000002 cycles: 5600741 heartbeat IPC: 3.57198 cumulative IPC: 3.57096 (Simulation time: 0 hr 2 min 40 sec) 
Heartbeat_Variant_0 : 1371 0.334717 per_variant_size: 0 1371 0 0 0 0 0 0 0 
Heartbeat_Variant_1 : 1281 0.312744 per_variant_size: 0 608 673 0 0 0 0 0 0 
Heartbeat_Variant_2 : 1337 0.326416 per_variant_size: 0 486 398 247 206 0 0 0 0 
Heartbeat_Variant_3 : 0 0 per_variant_size: 0 0 0 0 0 0 0 0 0 
Heartbeat_Variant_0_evicts 0 : 5746 1 : 129 2 : 107 3 : 0 
Heartbeat_Variant_1_evicts 0 : 143 1 : 0 2 : 297 3 : 0 
Heartbeat_Variant_2_evicts 0 : 88 1 : 298 2 : 0 3 : 0 
Heartbeat_Variant_3_evicts 0 : 0 1 : 0 2 : 0 3 : 0 
Heartbeat CPU 0 instructions: 30000003 cycles: 8399136 heartbeat IPC: 3.57348 cumulative IPC: 3.5718 (Simulation time: 0 hr 3 min 54 sec) 
Heartbeat_Variant_0 : 1368 0.333984 per_variant_size: 0 1368 0 0 0 0 0 0 0 
Heartbeat_Variant_1 : 1288 0.314453 per_variant_size: 0 607 681 0 0 0 0 0 0 
Heartbeat_Variant_2 : 1355 0.330811 per_variant_size: 0 498 400 241 216 0 0 0 0 
Heartbeat_Variant_3 : 0 0 per_variant_size: 0 0 0 0 0 0 0 0 0 
Heartbeat_Variant_0_evicts 0 : 5600 1 : 121 2 : 117 3 : 0 
Heartbeat_Variant_1_evicts 0 : 116 1 : 0 2 : 290 3 : 0 
Heartbeat_Variant_2_evicts 0 : 131 1 : 285 2 : 0 3 : 0 
Heartbeat_Variant_3_evicts 0 : 0 1 : 0 2 : 0 3 : 0 
Heartbeat CPU 0 instructions: 40000001 cycles: 11196475 heartbeat IPC: 3.57483 cumulative IPC: 3.57255 (Simulation time: 0 hr 5 min 13 sec) 
Heartbeat_Variant_0 : 1380 0.336914 per_variant_size: 0 1380 0 0 0 0 0 0 0 
Heartbeat_Variant_1 : 1279 0.312256 per_variant_size: 0 586 693 0 0 0 0 0 0 
Heartbeat_Variant_2 : 1365 0.333252 per_variant_size: 0 516 382 249 218 0 0 0 0 
Heartbeat_Variant_3 : 0 0 per_variant_size: 0 0 0 0 0 0 0 0 0 
Heartbeat_Variant_0_evicts 0 : 5629 1 : 100 2 : 103 3 : 0 
Heartbeat_Variant_1_evicts 0 : 97 1 : 0 2 : 275 3 : 0 
Heartbeat_Variant_2_evicts 0 : 95 1 : 284 2 : 0 3 : 0 
Heartbeat_Variant_3_evicts 0 : 0 1 : 0 2 : 0 3 : 0 
Heartbeat CPU 0 instructions: 50000003 cycles: 13994699 heartbeat IPC: 3.5737 cumulative IPC: 3.57278 (Simulation time: 0 hr 6 min 29 sec) 

Warmup complete CPU 0 instructions: 50000003 cycles: 13994699 (Simulation time: 0 hr 6 min 29 sec) 

Cycle: 20000000 FTQ IN: 55395574 FTQ occupancy: 15.8835 DECODE IN: 55395556 DECODE occupancy: 9.50348 ROB IN: 55395556 ROB occupancy: 259.536 ROB OUT: 55395538
Heartbeat_Variant_0 : 1393 0.340088 per_variant_size: 0 1393 0 0 0 0 0 0 0 
Heartbeat_Variant_1 : 1276 0.311523 per_variant_size: 0 578 698 0 0 0 0 0 0 
Heartbeat_Variant_2 : 1360 0.332031 per_variant_size: 0 501 383 267 209 0 0 0 0 
Heartbeat_Variant_3 : 0 0 per_variant_size: 0 0 0 0 0 0 0 0 0 
Heartbeat_Variant_0_evicts 0 : 5698 1 : 33 2 : 41 3 : 0 
Heartbeat_Variant_1_evicts 0 : 30 1 : 0 2 : 233 3 : 0 
Heartbeat_Variant_2_evicts 0 : 32 1 : 233 2 : 0 3 : 0 
Heartbeat_Variant_3_evicts 0 : 0 1 : 0 2 : 0 3 : 0 
Heartbeat CPU 0 instructions: 60000000 cycles: 25259440 heartbeat IPC: 0.887725 cumulative IPC: 0.887725 (Simulation time: 0 hr 7 min 43 sec) 
Cycle: 30000000 FTQ IN: 8862803 FTQ occupancy: 14.9684 DECODE IN: 8862803 DECODE occupancy: 4.93086 ROB IN: 8862803 ROB occupancy: 55.0607 ROB OUT: 8862801
Heartbeat_Variant_0 : 1393 0.340088 per_variant_size: 0 1393 0 0 0 0 0 0 0 
Heartbeat_Variant_1 : 1279 0.312256 per_variant_size: 0 583 696 0 0 0 0 0 0 
Heartbeat_Variant_2 : 1365 0.333252 per_variant_size: 0 502 387 259 217 0 0 0 0 
Heartbeat_Variant_3 : 0 0 per_variant_size: 0 0 0 0 0 0 0 0 0 
Heartbeat_Variant_0_evicts 0 : 5654 1 : 44 2 : 28 3 : 0 
Heartbeat_Variant_1_evicts 0 : 42 1 : 0 2 : 226 3 : 0 
Heartbeat_Variant_2_evicts 0 : 30 1 : 226 2 : 0 3 : 0 
Heartbeat_Variant_3_evicts 0 : 0 1 : 0 2 : 0 3 : 0 
Heartbeat CPU 0 instructions: 70000003 cycles: 36410410 heartbeat IPC: 0.896783 cumulative IPC: 0.892231 (Simulation time: 0 hr 8 min 51 sec) 
Cycle: 40000000 FTQ IN: 8992122 FTQ occupancy: 14.9137 DECODE IN: 8992127 DECODE occupancy: 4.92476 ROB IN: 8992117 ROB occupancy: 52.7216 ROB OUT: 8992107
Heartbeat_Variant_0 : 1396 0.34082 per_variant_size: 0 1396 0 0 0 0 0 0 0 
Heartbeat_Variant_1 : 1274 0.311035 per_variant_size: 0 568 706 0 0 0 0 0 0 
Heartbeat_Variant_2 : 1368 0.333984 per_variant_size: 0 507 383 269 209 0 0 0 0 
Heartbeat_Variant_3 : 0 0 per_variant_size: 0 0 0 0 0 0 0 0 0 
Heartbeat_Variant_0_evicts 0 : 5636 1 : 31 2 : 28 3 : 0 
Heartbeat_Variant_1_evicts 0 : 33 1 : 0 2 : 226 3 : 0 
Heartbeat_Variant_2_evicts 0 : 23 1 : 234 2 : 0 3 : 0 
Heartbeat_Variant_3_evicts 0 : 0 1 : 0 2 : 0 3 : 0 
Heartbeat CPU 0 instructions: 80000002 cycles: 47692324 heartbeat IPC: 0.886374 cumulative IPC: 0.89027 (Simulation time: 0 hr 10 min 4 sec) 
Cycle: 50000000 FTQ IN: 8803556 FTQ occupancy: 14.9601 DECODE IN: 8803569 DECODE occupancy: 4.90686 ROB IN: 8803579 ROB occupancy: 54.3901 ROB OUT: 8803579
Heartbeat_Variant_0 : 1396 0.34082 per_variant_size: 0 1396 0 0 0 0 0 0 0 
Heartbeat_Variant_1 : 1273 0.310791 per_variant_size: 0 566 707 0 0 0 0 0 0 
Heartbeat_Variant_2 : 1369 0.334229 per_variant_size: 0 508 383 271 207 0 0 0 0 
Heartbeat_Variant_3 : 0 0 per_variant_size: 0 0 0 0 0 0 0 0 0 
Heartbeat_Variant_0_evicts 0 : 5530 1 : 0 2 : 0 3 : 0 
Heartbeat_Variant_1_evicts 0 : 0 1 : 0 2 : 197 3 : 0 
Heartbeat_Variant_2_evicts 0 : 0 1 : 198 2 : 0 3 : 0 
Heartbeat_Variant_3_evicts 0 : 0 1 : 0 2 : 0 3 : 0 
Heartbeat CPU 0 instructions: 90000003 cycles: 58839161 heartbeat IPC: 0.897116 cumulative IPC: 0.891972 (Simulation time: 0 hr 11 min 16 sec) 
Cycle: 60000000 FTQ IN: 8983608 FTQ occupancy: 14.9499 DECODE IN: 8983590 DECODE occupancy: 4.92979 ROB IN: 8983590 ROB occupancy: 53.0479 ROB OUT: 8983538
Cycle: 70000000 FTQ IN: 8896603 FTQ occupancy: 14.9733 DECODE IN: 8896621 DECODE occupancy: 4.92901 ROB IN: 8896621 ROB occupancy: 54.9346 ROB OUT: 8896700
Heartbeat_Variant_0 : 1390 0.339355 per_variant_size: 0 1390 0 0 0 0 0 0 0 
Heartbeat_Variant_1 : 1272 0.310547 per_variant_size: 0 566 706 0 0 0 0 0 0 
Heartbeat_Variant_2 : 1379 0.33667 per_variant_size: 0 516 386 267 210 0 0 0 0 
Heartbeat_Variant_3 : 0 0 per_variant_size: 0 0 0 0 0 0 0 0 0 
Heartbeat_Variant_0_evicts 0 : 5700 1 : 65 2 : 62 3 : 0 
Heartbeat_Variant_1_evicts 0 : 67 1 : 0 2 : 257 3 : 0 
Heartbeat_Variant_2_evicts 0 : 66 1 : 262 2 : 0 3 : 0 
Heartbeat_Variant_3_evicts 0 : 0 1 : 0 2 : 0 3 : 0 
Heartbeat CPU 0 instructions: 100000003 cycles: 70074286 heartbeat IPC: 0.890066 cumulative IPC: 0.89159 (Simulation time: 0 hr 12 min 27 sec) 
Finished CPU 0 instructions: 50000000 cycles: 56079587 cumulative IPC: 0.89159 (Simulation time: 0 hr 12 min 27 sec) 

ChampSim completed all CPUs

Region of Interest Statistics

CPU 0 cumulative IPC: 0.89159 instructions: 50000000 cycles: 56079587
 Fetch stage stalled: 27.2358  Sim cycles: 56079587 fetch stall cycle: 15273708
 Empty decode stage: 68.8453  Sim cycles: 56079587 fetch stall cycle: 38608180
ITLB TOTAL     ACCESS:    7351404  HIT:    6856815  MISS:     494589  HIT %:    93.2722  MISS %:    6.72782   MPKI: 9.89178
ITLB LOAD TRANSLATION INSTRUCTION	ACCESS:    7351404  HIT:    6856815  MISS:     494589  HIT %:    93.2722  MISS %:    6.72782  MPKI: 9.89178

ITLB AVERAGE MISS LATENCY: 9.05282 cycles
ITLB RQ	ACCESS:    8473305	FORWARD:          0	MERGED:     923472	TO_CACHE:    7549833

DTLB TOTAL     ACCESS:   10318942  HIT:    9845835  MISS:     473107  HIT %:    95.4152  MISS %:    4.58484   MPKI: 9.46214
DTLB LOAD TRANSLATION DATA	ACCESS:   10318942  HIT:    9845835  MISS:     473107  HIT %:    95.4152  MISS %:    4.58484  MPKI: 9.46214

DTLB AVERAGE MISS LATENCY: 9.31578 cycles
DTLB RQ	ACCESS:   14467844	FORWARD:          0	MERGED:    4119506	TO_CACHE:   10348338

STLB TOTAL     ACCESS:    1227935  HIT:    1225611  MISS:       2324  HIT %:    99.8107  MISS %:   0.189261   MPKI: 0.04648
STLB LOAD TRANSLATION INSTRUCTION	ACCESS:     494589  HIT:     494245  MISS:        344  HIT %:    99.9304  MISS %:  0.0695527  MPKI: 0.00688
STLB LOAD TRANSLATION DATA	ACCESS:     473097  HIT:     471135  MISS:       1962  HIT %:    99.5853  MISS %:   0.414714  MPKI: 0.03924
STLB TRANSLATION FROM L1D PREFETCHER DATA	ACCESS:     260249  HIT:     260231  MISS:         18  HIT %:    99.9931  MISS %: 0.00691645  MPKI: 0.00036

STLB AVERAGE MISS LATENCY: 67.0503 cycles
STLB RQ	ACCESS:    1341790	FORWARD:          0	MERGED:     113804	TO_CACHE:    1227986

STLB Hit, L1D data hit: 0
STLB Hit, L2C data hit: 0
STLB Hit, LLC data hit: 0
STLB Hit, LLC data miss: 0
STLB STLB hints to L2: 0
L1D TOTAL     ACCESS:   14263915  HIT:   13148432  MISS:    1115483  HIT %:    92.1797  MISS %:    7.82031   MPKI: 22.3097
L1D LOAD DATA	ACCESS:    7603220  HIT:    6870907  MISS:     732313  HIT %:    90.3684  MISS %:    9.63162  MPKI: 14.6463
L1D RFO DATA	ACCESS:    6324486  HIT:    6035410  MISS:     289076  HIT %:    95.4293  MISS %:    4.57074  MPKI: 5.78152
L1D PREFETCH DATA	ACCESS:     336209  HIT:     242115  MISS:      94094  HIT %:    72.0132  MISS %:    27.9868  MPKI: 1.88188

L1D PREFETCH  REQUESTED:     748256  ISSUED:     748256  USEFUL:      34921  USELESS:      67422
L1D USEFUL LOAD PREFETCHES:      34921 PREFETCH ISSUED TO LOWER LEVEL:     102490  ACCURACY: 34.0726
 TIMELY PREFETCHES:      34921 LATE PREFETCHES: 8248 DROPPED PREFETCHES: 9
L1D AVERAGE MISS LATENCY: 317850 cycles
L1D RQ	ACCESS:   11418845	FORWARD:          0	MERGED:    3625131	TO_CACHE:    7634867
L1D WQ	ACCESS:    6953840	FORWARD:     158915	MERGED:     120863	TO_CACHE:    6832977
L1D PQ	ACCESS:     374162	FORWARD:          0	MERGED:          0	TO_CACHE:     374094

L1D UNIQUE REGIONS ACCESSED: 0
L1D REGIONS CONFLICTS: 0
L1D Cross Page Prefetch Requests: 5735
L1D Same Page Prefetch Requests: 748820
L1D ROI Sum of L1D PQ occupancy: 4762274
L1D PREFETCHES PUSHED FROM L2C: 0
L1I TOTAL     ACCESS:    7920583  HIT:    5153909  MISS:    2766674  HIT %:    65.0698  MISS %:    34.9302   MPKI: 55.3335
L1I LOAD INSTRUCTION	ACCESS:    7920583  HIT:    5153909  MISS:    2766674  HIT %:    65.0698  MISS %:    34.9302  MPKI: 55.3335

L1I AVERAGE MISS LATENCY: 17.2774 cycles
L1I RQ	ACCESS:   15515302	FORWARD:          0	MERGED:    7041997	TO_CACHE:    8473305

L1BTB TOTAL     ACCESS:    5671656  HIT:    2040544  MISS:    3631112  HIT %:    35.9779  MISS %:    64.0221   MPKI: 72.6222
L1BTB BRANCH_DIRECT_JUMP	ACCESS:     549181  HIT:     144112  MISS:     405069	AVERAGE STALL: 21.9103
L1BTB BRANCH_INDIRECT	ACCESS:     183354  HIT:      66306  MISS:     117048	AVERAGE STALL: 49.4401
L1BTB BRANCH_CONDITIONAL	ACCESS:    2712003  HIT:    1417118  MISS:    1294885	AVERAGE STALL: 29.2948
L1BTB BRANCH_DIRECT_CALL	ACCESS:     942204  HIT:     103881  MISS:     838323	AVERAGE STALL: 35.7776
L1BTB BRANCH_INDIRECT_CALL	ACCESS:     171355  HIT:      20850  MISS:     150505	AVERAGE STALL: 66.6506
L1BTB BRANCH_RETURN	ACCESS:    1113559  HIT:     288277  MISS:     825282	AVERAGE STALL: 32.2352
L1BTB BRANCH_OTHER ACCESS:          0  HIT:          0  MISS:          0	AVERAGE STALL: -nan
L1BTB TOTAL ROB OCCUPANCY AT BTB MISS: 0.611578

L2BTB TOTAL     ACCESS:    3605609  HIT:    3540185  MISS:      65424  HIT %:    98.1855  MISS %:    1.81451   MPKI: 1.30848
L2BTB BRANCH_DIRECT_JUMP	ACCESS:     400864  HIT:     396675  MISS:       4189	AVERAGE STALL: 21.9103
L2BTB BRANCH_INDIRECT	ACCESS:     106748  HIT:     104136  MISS:       2612	AVERAGE STALL: 49.4401
L2BTB BRANCH_CONDITIONAL	ACCESS:    1294885  HIT:    1290183  MISS:       4702	AVERAGE STALL: 29.2948
L2BTB BRANCH_DIRECT_CALL	ACCESS:     838323  HIT:     837635  MISS:        688	AVERAGE STALL: 35.7776
L2BTB BRANCH_INDIRECT_CALL	ACCESS:     140907  HIT:     130681  MISS:      10226	AVERAGE STALL: 66.6506
L2BTB BRANCH_RETURN	ACCESS:     823882  HIT:     780875  MISS:      43007	AVERAGE STALL: 32.2352
L2BTB BRANCH_OTHER ACCESS:          0  HIT:          0  MISS:          0	AVERAGE STALL: -nan
L2BTB TOTAL ROB OCCUPANCY AT BTB MISS: 33.9433

L2C TOTAL     ACCESS:    4503646  HIT:    3982412  MISS:     521234  HIT %:    88.4264  MISS %:    11.5736   MPKI: 10.4247
L2C LOAD INSTRUCTION	ACCESS:    2766674  HIT:    2480806  MISS:     285868  HIT %:    89.6674  MISS %:    10.3326  MPKI: 5.71736
L2C LOAD TRANSLATION INSTRUCTION	ACCESS:        387  HIT:        138  MISS:        249  HIT %:    35.6589  MISS %:    64.3411  MPKI: 0.00498
L2C LOAD DATA	ACCESS:     724048  HIT:     638892  MISS:      85156  HIT %:    88.2389  MISS %:    11.7611  MPKI: 1.70312
L2C RFO DATA	ACCESS:     288878  HIT:     233095  MISS:      55783  HIT %:    80.6898  MISS %:    19.3102  MPKI: 1.11566
L2C PREFETCH DATA	ACCESS:     196883  HIT:     121925  MISS:      74958  HIT %:    61.9276  MISS %:    38.0724  MPKI: 1.49916
L2C WRITEBACK DATA	ACCESS:     524650  HIT:     506823  MISS:      17827  HIT %:    96.6021  MISS %:    3.39788  MPKI: 0.35654
L2C LOAD TRANSLATION DATA	ACCESS:       2079  HIT:        702  MISS:       1377  HIT %:    33.7662  MISS %:    66.2338  MPKI: 0.02754
L2C TRANSLATION FROM L1D PREFETCHER DATA	ACCESS:         47  HIT:         31  MISS:         16  HIT %:    65.9574  MISS %:    34.0426  MPKI: 0.00032

L2C PREFETCH  REQUESTED:     102396  ISSUED:     102396  USEFUL:       9336  USELESS:      66395
L2C USEFUL LOAD PREFETCHES:       9336 PREFETCH ISSUED TO LOWER LEVEL:      75579  ACCURACY: 12.3526
 TIMELY PREFETCHES:       9336 LATE PREFETCHES: 621 DROPPED PREFETCHES: 0
L2C AVERAGE MISS LATENCY: 38.0051 cycles
L2C RQ	ACCESS:    3782180	FORWARD:          0	MERGED:          0	TO_CACHE:    3782113
L2C WQ	ACCESS:     524650	FORWARD:         67	MERGED:          0	TO_CACHE:     524650
L2C PQ	ACCESS:     204886	FORWARD:          0	MERGED:       3774	TO_CACHE:     201112

L2C Dense regions hint from L2: 0
PSCL5 TOTAL     ACCESS:       4668  HIT:       2334  MISS:       2334  HIT %:         50  MISS %:         50   MPKI: 0.04668
PSCL5 LOAD TRANSLATION INSTRUCTION	ACCESS:       4580  HIT:       2290  MISS:       2290  HIT %:         50  MISS %:         50  MPKI: 0.0458
PSCL5 TRANSLATION FROM L1D PREFETCHER INSTRUCTION	ACCESS:         88  HIT:         44  MISS:         44  HIT %:         50  MISS %:         50  MPKI: 0.00088


PSCL4 TOTAL     ACCESS:       4451  HIT:       2219  MISS:       2232  HIT %:     49.854  MISS %:     50.146   MPKI: 0.04464
PSCL4 LOAD TRANSLATION INSTRUCTION	ACCESS:       2226  HIT:       2182  MISS:         44  HIT %:    98.0234  MISS %:    1.97664  MPKI: 0.00088
PSCL4 TRANSLATION FROM L1D PREFETCHER INSTRUCTION	ACCESS:         37  HIT:         37  MISS:          0  HIT %:        100  MISS %:          0  MPKI: 0
PSCL4 LOAD TRANSLATION DATA	ACCESS:       2151  HIT:          0  MISS:       2151  HIT %:          0  MISS %:        100  MPKI: 0.04302
PSCL4 TRANSLATION FROM L1D PREFETCHER DATA	ACCESS:         37  HIT:          0  MISS:         37  HIT %:          0  MISS %:        100  MPKI: 0.00074


PSCL3 TOTAL     ACCESS:       4573  HIT:       2280  MISS:       2293  HIT %:    49.8579  MISS %:    50.1421   MPKI: 0.04586
PSCL3 LOAD TRANSLATION INSTRUCTION	ACCESS:       2287  HIT:       2243  MISS:         44  HIT %:    98.0761  MISS %:    1.92392  MPKI: 0.00088
PSCL3 TRANSLATION FROM L1D PREFETCHER INSTRUCTION	ACCESS:         37  HIT:         37  MISS:          0  HIT %:        100  MISS %:          0  MPKI: 0
PSCL3 LOAD TRANSLATION DATA	ACCESS:       2212  HIT:          0  MISS:       2212  HIT %:          0  MISS %:        100  MPKI: 0.04424
PSCL3 TRANSLATION FROM L1D PREFETCHER DATA	ACCESS:         37  HIT:          0  MISS:         37  HIT %:          0  MISS %:        100  MPKI: 0.00074


PSCL2 TOTAL     ACCESS:       4515  HIT:       2181  MISS:       2334  HIT %:    48.3056  MISS %:    51.6944   MPKI: 0.04668
PSCL2 LOAD TRANSLATION INSTRUCTION	ACCESS:       2482  HIT:       2138  MISS:        344  HIT %:    86.1402  MISS %:    13.8598  MPKI: 0.00688
PSCL2 TRANSLATION FROM L1D PREFETCHER INSTRUCTION	ACCESS:         43  HIT:         43  MISS:          0  HIT %:        100  MISS %:          0  MPKI: 0
PSCL2 LOAD TRANSLATION DATA	ACCESS:       1947  HIT:          0  MISS:       1947  HIT %:          0  MISS %:        100  MPKI: 0.03894
PSCL2 TRANSLATION FROM L1D PREFETCHER DATA	ACCESS:         43  HIT:          0  MISS:         43  HIT %:          0  MISS %:        100  MPKI: 0.00086


LLC TOTAL     ACCESS:     583453  HIT:     553783  MISS:      29670  HIT %:    94.9148  MISS %:    5.08524   MPKI: 0.5934
LLC LOAD INSTRUCTION	ACCESS:     285868  HIT:     284903  MISS:        965  HIT %:    99.6624  MISS %:   0.337568  MPKI: 0.0193
LLC LOAD TRANSLATION INSTRUCTION	ACCESS:        249  HIT:        205  MISS:         44  HIT %:    82.3293  MISS %:    17.6707  MPKI: 0.00088
LLC LOAD DATA	ACCESS:      84549  HIT:      81179  MISS:       3370  HIT %:    96.0141  MISS %:    3.98585  MPKI: 0.0674
LLC RFO DATA	ACCESS:      55768  HIT:      40461  MISS:      15307  HIT %:    72.5524  MISS %:    27.4476  MPKI: 0.30614
LLC PREFETCH DATA	ACCESS:      75578  HIT:      66035  MISS:       9543  HIT %:    87.3733  MISS %:    12.6267  MPKI: 0.19086
LLC WRITEBACK DATA	ACCESS:      80048  HIT:      79678  MISS:        370  HIT %:    99.5378  MISS %:   0.462223  MPKI: 0.0074
LLC LOAD TRANSLATION DATA	ACCESS:       1377  HIT:       1307  MISS:         70  HIT %:    94.9165  MISS %:    5.08351  MPKI: 0.0014
LLC TRANSLATION FROM L1D PREFETCHER DATA	ACCESS:         16  HIT:         15  MISS:          1  HIT %:      93.75  MISS %:       6.25  MPKI: 2e-05

LLC AVERAGE MISS LATENCY: 157.319 cycles
LLC RQ	ACCESS:     427828	FORWARD:          0	MERGED:          0	TO_CACHE:     427827
LLC WQ	ACCESS:      80048	FORWARD:          2	MERGED:          0	TO_CACHE:      80048
LLC PQ	ACCESS:      75579	FORWARD:          0	MERGED:          0	TO_CACHE:      75578

LLC Dense regions hint to LLC: 0

RAW hits: 1226748
Loads Generated: 12645594
Loads sent to L1D: 11418845
Stores Generated: 6953832
Stores sent to L1D: 6953840
Major fault: 0 Minor fault: 2563
Allocated PAGES: 2563

stream: 
stream:times selected: 1178668
stream:pref_filled: 119243
stream:pref_useful: 23595
stream:pref_late: 6326
stream:misses: 6074
stream:misses_by_poll: 0

CS: 
CS:times selected: 178195
CS:pref_filled: 57264
CS:pref_useful: 34383
CS:pref_late: 7833
CS:misses: 18019
CS:misses_by_poll: 2

CPLX: 
CPLX:times selected: 999365
CPLX:pref_filled: 21615
CPLX:pref_useful: 4912
CPLX:pref_late: 3507
CPLX:misses: 90269
CPLX:misses_by_poll: 3

NL_L1: 
NL:times selected: 18630
NL:pref_filled: 588
NL:pref_useful: 276
NL:pref_late: 200
NL:misses: 745
NL:misses_by_poll: 0

total selections: 2374858
total_filled: 94094
total_useful: 34921
total_late: 19088
total_polluted: 5
total_misses_after_warmup: 763960
conflicts: 6010644

test: 115098

DRAM Statistics
 CHANNEL 0
 RQ ROW_BUFFER_HIT:      11223  ROW_BUFFER_MISS:      18060
 DBUS_CONGESTED:          7
 WQ ROW_BUFFER_HIT:       1416  ROW_BUFFER_MISS:      12597  FULL:          0

 AVG_CONGESTED_CYCLE: 3

CPU 0 Branch Prediction Accuracy: 99.8243% MPKI: 0.32112 Average ROB Occupancy at Mispredict: 74.9295
Branch types
NOT_BRANCH: 40859569 81.7191%
BRANCH_DIRECT_JUMP: 549181 1.09836%
BRANCH_INDIRECT: 183354 0.366708%
BRANCH_CONDITIONAL: 6180507 12.361%
BRANCH_DIRECT_CALL: 942204 1.88441%
BRANCH_INDIRECT_CALL: 171355 0.34271%
BRANCH_RETURN: 1113559 2.22712%
BRANCH_OTHER: 0 0%

DRAM PAGES: 1048576
Allocated PAGES: 2563
Average_ROB_Occupancy: 54.7863
Average_Decode_Occupancy: 4.92066
Average_FTQ_Occupancy: 14.9372
Indirect max targets: 14 Average targets: 1.15615
Branch_type:  BRANCH_DIRECT_JUMP:  Count Percentage: 3.23397 5.95231 3.6926 9.02189 1.69449 6.27664 1.32028 68.8078 
Branch_type:  BRANCH_INDIRECT:  Count Percentage: 11.7384 3.4706 2.53925 0 2.54089 9.68192 5.88711 64.1418 
Branch_type:  BRANCH_CONDITIONAL:  Count Percentage: 21.0869 2.97021 1.82835 8.4105 1.2291 5.41141 1.28972 57.7738 
Branch_type:  BRANCH_DIRECT_CALL:  Count Percentage: 0.260138 1.78948 1.43425 4.86394 2.16355 2.98577 0.862383 85.6405 
Branch_type:  BRANCH_INDIRECT_CALL:  Count Percentage: 9.56003 0.569351 2.99543 4.85188 0.000583053 2.64444 1.28388 78.0944 
Branch_type:  BRANCH_RETURN:  Count Percentage: 3.1996 1.30512 1.2693 9.33179 2.85939 6.85994 3.27034 71.9045 
Branch_type:  BRANCH_DIRECT_JUMP:  Total Count: 35468 65281 40498 98946 18584 68838 14480 754638 
Branch_type:  BRANCH_INDIRECT:  Total Count: 42941 12696 9289 0 9295 35418 21536 234641 
Branch_type:  BRANCH_CONDITIONAL:  Total Count: 2604475 366854 225822 1038792 151808 668370 159295 7135711 
Branch_type:  BRANCH_DIRECT_CALL:  Total Count: 4916 33817 27104 91917 40886 56424 16297 1618402 
Branch_type:  BRANCH_INDIRECT_CALL:  Total Count: 32793 1953 10275 16643 2 9071 4404 267881 
Branch_type:  BRANCH_RETURN:  Total Count: 71466 29151 28351 208434 63867 153223 73046 1606053 
Number of unique branch instructions: 10121
Upper 32 bits: 
aaaa
ffff
ffff0000
Unique upper 32 bits: 3
Unique upper 36 bits: 3
Unique upper 40 bits: 5
Unique upper 44 bits: 32
Unique upper 48 bits: 156
Variant_0 : 1390 0.339355
Variant_1 : 1272 0.310547
Variant_2 : 1379 0.33667
Variant_3 : 0 0
Offset_3 4173
Offset_4 261
Offset_5 462
Offset_6 519
Offset_7 600
Offset_8 518
Offset_9 486
Offset_10 393
Offset_11 325
Offset_12 283
Offset_13 213
Offset_14 229
Offset_15 192
Offset_16 220
Offset_17 150
Offset_18 118
Offset_19 240
Offset_20 139
Offset_21 261
Offset_22 395
Offset_23 242
Offset_24 344
Offset_25 88
Offset_47 84
Offset_64 2
decode_dispatch_called: 30288799 54.0104
Dispatch_width: 0 18182633 60.0309 32.4229
Dispatch_width: 1 2320619 7.66164 4.13808
Dispatch_width: 2 1110378 3.66597 1.98
Dispatch_width: 3 1085978 3.58541 1.93649
Dispatch_width: 4 1029700 3.39961 1.83614
Dispatch_width: 5 1275323 4.21054 2.27413
Dispatch_width: 6 5284168 17.4459 9.42262
Empty_decode_cycles: 25790788 45.9896
ROB_full_cycles: 532212 0.94903
Starvation_cycles_per_kilo_instr: 502.632
Starvation_cycles_per_kilo_instr_3: 479.582
Starvation_cycles_per_kilo_instr_0: 434.412
Branch_type_1  (3,1)  (4,8)  (5,38)  (6,71)  (7,117)  (8,132)  (9,130)  (10,102)  (11,71)  (12,43)  (13,8)  (14,2)  (15,3)  (16,4)  (18,1)  (19,4)  (20,2)  (21,1)  (22,3)  (23,2)  (24,10)  (25,12) 
Branch_type_2  (3,1)  (5,1)  (8,3)  (9,3)  (12,1)  (13,1)  (14,1)  (16,3)  (17,2)  (20,2)  (21,2)  (23,5)  (24,1)  (47,38) 
Branch_type_3  (3,4171)  (4,253)  (5,419)  (6,433)  (7,450)  (8,322)  (9,266)  (10,158)  (11,128)  (12,50)  (13,7)  (64,1) 
Branch_type_4  (6,3)  (7,8)  (8,26)  (9,53)  (10,62)  (11,65)  (12,103)  (13,91)  (14,101)  (15,91)  (16,98)  (17,68)  (18,53)  (19,117)  (20,71)  (21,141)  (22,209)  (23,136)  (24,194)  (25,72)  (64,1) 
Branch_type_5  (8,2)  (9,1)  (10,4)  (11,5)  (12,3)  (13,14)  (14,16)  (15,11)  (16,20)  (17,11)  (18,16)  (19,13)  (20,12)  (21,13)  (22,42)  (23,26)  (24,41) 
Branch_type_6  (5,4)  (6,12)  (7,25)  (8,33)  (9,33)  (10,67)  (11,56)  (12,83)  (13,92)  (14,109)  (15,87)  (16,95)  (17,69)  (18,48)  (19,106)  (20,52)  (21,104)  (22,141)  (23,73)  (24,98)  (25,4)  (47,46) 
Unique trigger count: 
Variant_0_evicts_0 : 0
Variant_0_evicts_1 : 0
Variant_0_evicts_2 : 0
Variant_0_evicts_3 : 0
Variant_1_evicts_0 : 0
Variant_1_evicts_1 : 0
Variant_1_evicts_2 : 0
Variant_1_evicts_3 : 0
Variant_2_evicts_0 : 0
Variant_2_evicts_1 : 0
Variant_2_evicts_2 : 0
Variant_2_evicts_3 : 0
Variant_3_evicts_0 : 0
Variant_3_evicts_1 : 0
Variant_3_evicts_2 : 0
Variant_3_evicts_3 : 0
BTB PER SET UNIQUE ADDR: 8 9 7 18 12 16 9 12 7 11 10 16 15 13 12 7 10 7 11 14 12 9 14 10 12 14 9 12 12 5 14 16 10 8 8 12 15 10 7 8 7 7 12 13 9 8 12 10 9 15 8 13 11 13 13 4 10 10 9 8 8 21 12 8 10 16 12 9 12 9 15 12 12 10 8 8 9 15 10 15 10 6 10 8 12 14 8 10 5 16 7 7 12 11 8 13 11 6 13 13 13 14 9 6 7 11 11 12 8 5 11 14 13 11 10 6 11 10 9 10 13 12 11 10 11 13 5 15 17 10 9 10 8 16 13 14 6 8 14 18 11 9 10 10 7 13 16 12 8 13 10 14 10 10 11 18 14 14 12 10 13 8 14 12 11 9 11 9 11 9 11 11 9 10 13 10 17 8 12 11 7 14 13 15 16 14 6 12 9 11 6 9 7 13 11 12 6 17 5 15 12 11 11 8 6 8 9 10 11 13 8 10 12 12 10 14 11 15 11 16 7 14 6 4 5 15 7 11 9 18 8 7 13 16 7 14 14 14 12 7 14 7 13 10 8 13 10 13 14 7 8 9 9 9 14 13 8 8 9 12 12 9 3 12 12 11 10 7 9 14 9 11 9 3 8 9 9 15 12 9 10 13 5 10 13 8 13 18 18 12 12 7 13 11 8 10 8 12 15 13 10 11 12 16 11 13 11 12 15 12 10 14 10 19 10 5 13 13 10 14 8 11 8 9 12 7 14 11 8 8 12 11 11 10 11 11 7 12 7 18 10 13 8 13 8 16 15 8 9 5 12 10 8 7 10 12 10 6 8 10 10 11 8 13 7 18 8 13 9 10 11 12 16 13 10 11 15 10 8 11 14 6 10 9 9 13 14 11 11 17 12 8 12 15 10 9 13 8 12 9 10 12 6 11 15 11 14 15 12 11 11 7 10 17 14 13 10 7 12 14 11 12 10 11 8 10 13 12 11 14 10 12 8 15 16 14 10 10 7 11 11 10 9 11 20 10 7 9 13 13 12 12 12 9 11 13 13 18 8 11 10 8 12 9 16 11 10 11 9 16 7 12 12 11 12 19 14 13 11 7 13 14 8 9 9 16 9 12 13 11 6 11 9 7 7 6 14 9 10 13 15 13 13 19 7 12 12 12 16 12 10 16 11 13 12 9 10 18 6 12 6 11 12 6 12 13 15 11 6 14 14 14 19 14 6 19 14 10 12 11 14 6 15 14 13 15 7 11 11 9 12 16 11 9 9 12 13 15 15 13 9 17 12 14 8 12 10 10 10 14 13 14 15 15 12 13 16 12 13 7 16 8 7 10 16 10 13 13 12 18 10 11 14 12 13 10 6 11 13 10 11 8 8 7 10 11 18 10 11 10 11 13 7 10 4 11 10 12 9 12 17 13 8 10 12 16 7 11 9 14 10 17 14 14 7 12 13 13 8 13 9 9 15 12 12 10 11 16 15 7 7 11 12 9 16 12 14 10 14 13 8 7 12 14 11 13 7 11 10 11 13 11 11 13 17 9 10 16 13 12 13 16 13 9 14 15 9 13 11 13 11 11 14 9 8 11 12 13 12 12 6 9 16 14 7 16 11 9 11 7 11 13 7 12 9 11 16 14 8 13 14 10 12 13 9 10 9 8 11 9 8 11 12 9 8 13 14 16 11 7 13 11 13 10 14 12 13 14 9 10 11 13 11 16 5 9 13 12 8 11 11 7 8 11 11 11 11 11 7 8 11 14 10 8 8 7 8 10 14 15 7 14 12 10 9 8 13 12 7 10 6 6 18 13 15 16 14 8 14 13 17 9 11 13 13 11 10 6 12 8 8 17 15 11 10 11 13 12 6 10 13 16 4 11 12 11 10 12 13 11 11 16 13 12 9 11 12 11 10 8 14 17 9 11 13 15 9 13 12 7 13 11 13 13 16 19 17 12 10 10 12 9 8 10 13 6 11 8 14 6 7 13 17 8 9 8 13 10 8 8 16 9 10 15 13 10 14 11 13 9 13 11 11 10 14 9 16 8 6 12 15 10 13 8 11 13 11 16 12 14 9 14 7 9 11 13 15 12 12 12 16 11 13 12 12 7 8 12 12 9 13 20 15 13 13 11 11 14 10 12 8 15 14 13 9 6 6 13 12 13 11 12 9 15 12 15 9 15 13 10 9 12 12 12 11 12 13 13 11 14 12 18 10 8 14 11 14 10 14 19 8 15 14 10 16 19 14 10 13 9 11 9 13 9 9 10 6 10 16 13 12 15 7 10 15 14 9 15 6 10 10 9 6 12 11 12 5 6 6 10 10 13 15 8 
BTB PER SET COUNT: 11 11 1955 23 1323 20 601 16 7 15 13 174 20542 236 12 7 998 7 15 27 16 13 754 410 17 24 11 14 15 5 20 42 12 14 10 766 29 10 7 9 8 10 19 26 509 10 13 12 10 22 10 395 16 29 117 4 14 12 514 10 8 30 18 8 12 209 16 720 12 9 1163 348 18 13 8 8 11 202 12 18 801 7 16 983 13 1530 10 12 8 21 8 9 386 61 15 17 352 7 17 21 16 20 9 7 9 12 15 18 957 5 13 28 39 12 14 8 16 19 1172 14 29 15 13 11 11 144 7 23 30 910 10 2713 9 22 18 16 984 9 25 34 12 9 15 15 7 23 231 656 10 42 11 19 1675 12 23 33 17 21 20 15 21 231 17 13 1484 15 16 9 14 16 15 19 10 15 16 14 23 9 1752 210 127 37 531 24 181 18 6 13 1092 307 8 9 7 18 11 168 7 442 6 478 16 112 993 12 6 10 13 14 24 20 9 13 17 5066 17 17 12 18 2295 29 9 21 8 4 5 31 10 11 10 21 8 7 18 28 9 20 18 233 23 9 17 14 15 15 11 15 13 17 950 7 9 11 9 11 20 521 73 11 9 15 225 9 3 506 17 14 12 7 26 22 10 482 71 3 8 12 9 17 15 20 12 18 5 10 13 10 17 24 29 16 16 8 19 163 12 15 8 16 21 170 11 11 16 20 14 23 186 19 59 21 14 19 11 28 1446 1469 26 18 14 22 11 1399 8 16 978 7 19 12 11 9 17 12 16 19 12 16 9 988 10 272 14 319 16 19 9 19 18 11 15 6 14 11 9 10 10 24 10 9 529 30 12 11 10 16 7 2279 10 15 9 11 16 12 35 844 988 16 26 12 11 15 1262 6 169 9 16 13 23 15 14 1179 13 8 14 396 13 958 17 9 1799 10 13 23 6 13 19 18 20 20 16 19 17 9 11 788 17 14 18 44 15 16 11 14 11 13 11 12 520 15 16 21 10 19 10 32 295 23 13 200 8 13 14 16 10 15 547 11 7 12 26 15 14 16 14 9 14 20 17 22 12 14 21 10 13 10 21 17 12 13 16 27 8 18 13 11 13 26 20 63 12 7 13 20 20 9 11 991 11 16 25 12 7 27 11 10 8 8 720 11 14 19 19 41 14 158 8 17 14 17 22 13 14 32 813 19 20 11 11 23 6 988 6 15 14 525 14 17 1291 1498 6 2053 27 26 24 17 6 24 25 37 19 12 16 8 43 22 17 36 7 12 15 15 13 20 148 12 11 16 18 26 33 24 12 19 16 15 8 19 25 12 10 343 19 16 16 532 1092 16 24 17 17 7 25 12 11 4219 24 12 38 18 21 26 18 14 17 14 18 14 6 388 18 10 12 15 10 17 12 14 30 14 14 16 15 188 11 14 6 14 13 14 10 13 22 23 17 11 18 27 7 14 983 22 12 25 28 19 7 14 18 983 9 17 11 18 24 19 76 125 990 20 30 7 7 16 12 12 36 506 15 11 24 188 9 9 21 16 23 17 14 441 1481 14 20 17 238 16 112 498 10 27 16 16 16 22 515 15 33 17 10 18 32 23 12 18 16 12 2197 14 980 224 14 19 815 12 997 19 7 21 12 13 19 9 143 17 1033 15 13 15 417 28 10 88 288 815 14 1499 10 10 15 8 984 1936 121 9649 14 109 9 248 1017 19 14 7 464 15 1045 11 28 12 1467 17 11 22 1501 18 451 1972 5 13 16 12 9 12 13 8 8 18 13 15 11 18 7 12 42 14 36 9 13 9 8 13 18 18 990 21 388 12 21 8 14 15 9 10 7 9 21 16 246 17 19 8 17 14 24 12 14 15 14 18 12 6 15 8 14 7849 19 629 16 619 1210 18 22 1867 19 728 4 18 962 13 16 13 18 15 14 18 16 12 11 1828 19 14 13 9 20 195 9 14 1614 16 18 17 16 8 122 681 414 20 22 20 102 18 12 15 15 13 963 13 19 6 25 9 14 6 8 21 22 9 9 8 18 21 10 11 23 16 13 24 438 16 14 16 16 305 15 902 996 14 23 9 17 9 7 13 19 14 17 210 15 15 15 21 20 390 11 500 7 11 13 186 997 16 16 18 21 14 561 15 18 10 8 13 26 31 94 29 1727 19 16 2946 23 16 13 17 13 30 25 17 17 8 8 21 16 27 14 1295 11 3410 16 24 51 19 26 14 9 13 991 12 16 19 1481 21 166 19 53 156 11 9 1499 13 16 10 325 633 8 543 20 222 21 1458 1993 109 21 14 15 655 20 15 14 13 6 1480 41 16 16 179 12 15 21 22 14 20 6 996 231 441 6 18 15 20 7 276 6 11 13 452 26 8 
To predecode: 0
Predecoding something: 0
Predecode request dropped: 0
sizeofblock_0 0
sizeofblock_1 38469
sizeofblock_2 37538
sizeofblock_3 45194
sizeofblock_4 20422
sizeofblock_5 0
sizeofblock_6 0
sizeofblock_7 0
sizeofblock_8 0
Variant_0 Correct: 1614553 Incorrect: 0 Accuracy: 1
Variant_1 Correct: 2093955 Incorrect: 0 Accuracy: 1
Variant_2 Correct: 3647441 Incorrect: 0 Accuracy: 1
Variant_3 Correct: 0 Incorrect: 0 Accuracy: -nan
