
*** ChampSim Multicore Out-of-Order Simulator ***

Warmup Instructions: 50000000
Simulation Instructions: 50000000
Number of CPUs: 1
LLC sets: 2048
LLC ways: 16
Off-chip DRAM Size: 4096 MB Channels: 1 Width: 64-bit Data Rate: 6400 MT/s
CPU 0 runs ./micro_traces/srv725.trace.gz
.gz
ITLB has LRU replacement policy
DTLB has LRU replacement policy
STLB has LRU replacement policy
FDIP Prefetcher at L1I
L1I has LRU replacement policy
L1D has LRU replacement policy
Initialize SRRIP state for L2C
Initialize DRRIP state for LLC
Heartbeat_Variant_0 : 1293 0.315674 per_variant_size: 0 1293 0 0 0 0 0 0 0 
Heartbeat_Variant_1 : 2471 0.603271 per_variant_size: 0 595 1876 0 0 0 0 0 0 
Heartbeat_Variant_2 : 0 0 per_variant_size: 0 0 0 0 0 0 0 0 0 
Heartbeat_Variant_3 : 0 0 per_variant_size: 0 0 0 0 0 0 0 0 0 
Heartbeat_Variant_0_evicts 0 : 5739 1 : 312 2 : 0 3 : 0 
Heartbeat_Variant_1_evicts 0 : 292 1 : 0 2 : 0 3 : 0 
Heartbeat_Variant_2_evicts 0 : 0 1 : 0 2 : 0 3 : 0 
Heartbeat_Variant_3_evicts 0 : 0 1 : 0 2 : 0 3 : 0 
Heartbeat CPU 0 instructions: 10000003 cycles: 2855485 heartbeat IPC: 3.50203 cumulative IPC: 3.50203 (Simulation time: 0 hr 1 min 36 sec) 
Heartbeat_Variant_0 : 1296 0.316406 per_variant_size: 0 1296 0 0 0 0 0 0 0 
Heartbeat_Variant_1 : 2476 0.604492 per_variant_size: 0 587 1889 0 0 0 0 0 0 
Heartbeat_Variant_2 : 0 0 per_variant_size: 0 0 0 0 0 0 0 0 0 
Heartbeat_Variant_3 : 0 0 per_variant_size: 0 0 0 0 0 0 0 0 0 
Heartbeat_Variant_0_evicts 0 : 5560 1 : 9 2 : 0 3 : 0 
Heartbeat_Variant_1_evicts 0 : 8 1 : 0 2 : 0 3 : 0 
Heartbeat_Variant_2_evicts 0 : 0 1 : 0 2 : 0 3 : 0 
Heartbeat_Variant_3_evicts 0 : 0 1 : 0 2 : 0 3 : 0 
Heartbeat CPU 0 instructions: 20000000 cycles: 5708707 heartbeat IPC: 3.50481 cumulative IPC: 3.50342 (Simulation time: 0 hr 3 min 9 sec) 
Heartbeat_Variant_0 : 1352 0.330078 per_variant_size: 0 1352 0 0 0 0 0 0 0 
Heartbeat_Variant_1 : 2590 0.632324 per_variant_size: 0 490 2100 0 0 0 0 0 0 
Heartbeat_Variant_2 : 0 0 per_variant_size: 0 0 0 0 0 0 0 0 0 
Heartbeat_Variant_3 : 0 0 per_variant_size: 0 0 0 0 0 0 0 0 0 
Heartbeat_Variant_0_evicts 0 : 5821 1 : 374 2 : 0 3 : 0 
Heartbeat_Variant_1_evicts 0 : 369 1 : 0 2 : 0 3 : 0 
Heartbeat_Variant_2_evicts 0 : 0 1 : 0 2 : 0 3 : 0 
Heartbeat_Variant_3_evicts 0 : 0 1 : 0 2 : 0 3 : 0 
Heartbeat CPU 0 instructions: 30000002 cycles: 8561888 heartbeat IPC: 3.50486 cumulative IPC: 3.5039 (Simulation time: 0 hr 4 min 40 sec) 
Heartbeat_Variant_0 : 1354 0.330566 per_variant_size: 0 1354 0 0 0 0 0 0 0 
Heartbeat_Variant_1 : 2597 0.634033 per_variant_size: 0 490 2107 0 0 0 0 0 0 
Heartbeat_Variant_2 : 0 0 per_variant_size: 0 0 0 0 0 0 0 0 0 
Heartbeat_Variant_3 : 0 0 per_variant_size: 0 0 0 0 0 0 0 0 0 
Heartbeat_Variant_0_evicts 0 : 5567 1 : 11 2 : 0 3 : 0 
Heartbeat_Variant_1_evicts 0 : 13 1 : 0 2 : 0 3 : 0 
Heartbeat_Variant_2_evicts 0 : 0 1 : 0 2 : 0 3 : 0 
Heartbeat_Variant_3_evicts 0 : 0 1 : 0 2 : 0 3 : 0 
Heartbeat CPU 0 instructions: 40000001 cycles: 11418746 heartbeat IPC: 3.50035 cumulative IPC: 3.50301 (Simulation time: 0 hr 6 min 8 sec) 
Heartbeat_Variant_0 : 1365 0.333252 per_variant_size: 0 1365 0 0 0 0 0 0 0 
Heartbeat_Variant_1 : 2625 0.640869 per_variant_size: 0 481 2144 0 0 0 0 0 0 
Heartbeat_Variant_2 : 0 0 per_variant_size: 0 0 0 0 0 0 0 0 0 
Heartbeat_Variant_3 : 0 0 per_variant_size: 0 0 0 0 0 0 0 0 0 
Heartbeat_Variant_0_evicts 0 : 5668 1 : 217 2 : 0 3 : 0 
Heartbeat_Variant_1_evicts 0 : 210 1 : 0 2 : 0 3 : 0 
Heartbeat_Variant_2_evicts 0 : 0 1 : 0 2 : 0 3 : 0 
Heartbeat_Variant_3_evicts 0 : 0 1 : 0 2 : 0 3 : 0 
Heartbeat CPU 0 instructions: 50000001 cycles: 14273720 heartbeat IPC: 3.50266 cumulative IPC: 3.50294 (Simulation time: 0 hr 7 min 42 sec) 

Warmup complete CPU 0 instructions: 50000001 cycles: 14273720 (Simulation time: 0 hr 7 min 42 sec) 

Cycle: 20000000 FTQ IN: 56641407 FTQ occupancy: 20.9151 DECODE IN: 56641323 DECODE occupancy: 54.5189 ROB IN: 56641263 ROB occupancy: 325.945 ROB OUT: 56640911
Heartbeat_Variant_0 : 1365 0.333252 per_variant_size: 0 1365 0 0 0 0 0 0 0 
Heartbeat_Variant_1 : 2658 0.648926 per_variant_size: 0 448 2210 0 0 0 0 0 0 
Heartbeat_Variant_2 : 0 0 per_variant_size: 0 0 0 0 0 0 0 0 0 
Heartbeat_Variant_3 : 0 0 per_variant_size: 0 0 0 0 0 0 0 0 0 
Heartbeat_Variant_0_evicts 0 : 5325 1 : 184 2 : 0 3 : 0 
Heartbeat_Variant_1_evicts 0 : 195 1 : 0 2 : 0 3 : 0 
Heartbeat_Variant_2_evicts 0 : 0 1 : 0 2 : 0 3 : 0 
Heartbeat_Variant_3_evicts 0 : 0 1 : 0 2 : 0 3 : 0 
Heartbeat CPU 0 instructions: 60000002 cycles: 22811776 heartbeat IPC: 1.17123 cumulative IPC: 1.17123 (Simulation time: 0 hr 9 min 45 sec) 
Cycle: 30000000 FTQ IN: 11607342 FTQ occupancy: 15.6132 DECODE IN: 11607364 DECODE occupancy: 40.5055 ROB IN: 11607424 ROB occupancy: 269.578 ROB OUT: 11607490
Heartbeat_Variant_0 : 1376 0.335938 per_variant_size: 0 1376 0 0 0 0 0 0 0 
Heartbeat_Variant_1 : 2661 0.649658 per_variant_size: 0 454 2207 0 0 0 0 0 0 
Heartbeat_Variant_2 : 0 0 per_variant_size: 0 0 0 0 0 0 0 0 0 
Heartbeat_Variant_3 : 0 0 per_variant_size: 0 0 0 0 0 0 0 0 0 
Heartbeat_Variant_0_evicts 0 : 5840 1 : 340 2 : 0 3 : 0 
Heartbeat_Variant_1_evicts 0 : 331 1 : 0 2 : 0 3 : 0 
Heartbeat_Variant_2_evicts 0 : 0 1 : 0 2 : 0 3 : 0 
Heartbeat_Variant_3_evicts 0 : 0 1 : 0 2 : 0 3 : 0 
Heartbeat CPU 0 instructions: 70000002 cycles: 31556178 heartbeat IPC: 1.14359 cumulative IPC: 1.15724 (Simulation time: 0 hr 11 min 44 sec) 
Cycle: 40000000 FTQ IN: 11468510 FTQ occupancy: 15.481 DECODE IN: 11468572 DECODE occupancy: 40.2471 ROB IN: 11468572 ROB occupancy: 268.128 ROB OUT: 11468637
Heartbeat_Variant_0 : 1376 0.335938 per_variant_size: 0 1376 0 0 0 0 0 0 0 
Heartbeat_Variant_1 : 2670 0.651855 per_variant_size: 0 461 2209 0 0 0 0 0 0 
Heartbeat_Variant_2 : 0 0 per_variant_size: 0 0 0 0 0 0 0 0 0 
Heartbeat_Variant_3 : 0 0 per_variant_size: 0 0 0 0 0 0 0 0 0 
Heartbeat_Variant_0_evicts 0 : 5656 1 : 257 2 : 0 3 : 0 
Heartbeat_Variant_1_evicts 0 : 258 1 : 0 2 : 0 3 : 0 
Heartbeat_Variant_2_evicts 0 : 0 1 : 0 2 : 0 3 : 0 
Heartbeat_Variant_3_evicts 0 : 0 1 : 0 2 : 0 3 : 0 
Heartbeat CPU 0 instructions: 80000001 cycles: 40235020 heartbeat IPC: 1.15223 cumulative IPC: 1.15557 (Simulation time: 0 hr 13 min 47 sec) 
Heartbeat_Variant_0 : 1374 0.335449 per_variant_size: 0 1374 0 0 0 0 0 0 0 
Heartbeat_Variant_1 : 2673 0.652588 per_variant_size: 0 458 2215 0 0 0 0 0 0 
Heartbeat_Variant_2 : 0 0 per_variant_size: 0 0 0 0 0 0 0 0 0 
Heartbeat_Variant_3 : 0 0 per_variant_size: 0 0 0 0 0 0 0 0 0 
Heartbeat_Variant_0_evicts 0 : 5691 1 : 9 2 : 0 3 : 0 
Heartbeat_Variant_1_evicts 0 : 11 1 : 0 2 : 0 3 : 0 
Heartbeat_Variant_2_evicts 0 : 0 1 : 0 2 : 0 3 : 0 
Heartbeat_Variant_3_evicts 0 : 0 1 : 0 2 : 0 3 : 0 
Heartbeat CPU 0 instructions: 90000001 cycles: 48845099 heartbeat IPC: 1.16143 cumulative IPC: 1.15703 (Simulation time: 0 hr 15 min 42 sec) 
Cycle: 50000000 FTQ IN: 11613655 FTQ occupancy: 15.7312 DECODE IN: 11613558 DECODE occupancy: 40.9873 ROB IN: 11613498 ROB occupancy: 270.539 ROB OUT: 11613367
Heartbeat_Variant_0 : 1386 0.338379 per_variant_size: 0 1386 0 0 0 0 0 0 0 
Heartbeat_Variant_1 : 2666 0.650879 per_variant_size: 0 445 2221 0 0 0 0 0 0 
Heartbeat_Variant_2 : 0 0 per_variant_size: 0 0 0 0 0 0 0 0 0 
Heartbeat_Variant_3 : 0 0 per_variant_size: 0 0 0 0 0 0 0 0 0 
Heartbeat_Variant_0_evicts 0 : 5825 1 : 299 2 : 0 3 : 0 
Heartbeat_Variant_1_evicts 0 : 288 1 : 0 2 : 0 3 : 0 
Heartbeat_Variant_2_evicts 0 : 0 1 : 0 2 : 0 3 : 0 
Heartbeat_Variant_3_evicts 0 : 0 1 : 0 2 : 0 3 : 0 
Heartbeat CPU 0 instructions: 100000001 cycles: 57546884 heartbeat IPC: 1.14919 cumulative IPC: 1.15545 (Simulation time: 0 hr 17 min 39 sec) 
Finished CPU 0 instructions: 50000000 cycles: 43273164 cumulative IPC: 1.15545 (Simulation time: 0 hr 17 min 39 sec) 

ChampSim completed all CPUs

Region of Interest Statistics

CPU 0 cumulative IPC: 1.15545 instructions: 50000000 cycles: 43273164
 Fetch stage stalled: 43.0609  Sim cycles: 43273164 fetch stall cycle: 18633805
 Empty decode stage: 19.4982  Sim cycles: 43273164 fetch stall cycle: 8437506
ITLB TOTAL     ACCESS:    5944987  HIT:    5458638  MISS:     486349  HIT %:    91.8192  MISS %:    8.18083   MPKI: 9.72698
ITLB LOAD TRANSLATION INSTRUCTION	ACCESS:    5809717  HIT:    5323368  MISS:     486349  HIT %:    91.6287  MISS %:     8.3713  MPKI: 9.72698
ITLB TRANSLATION FROM L1D PREFETCHER INSTRUCTION	ACCESS:     135270  HIT:     135270  MISS:          0  HIT %:        100  MISS %:          0  MPKI: 0

ITLB AVERAGE MISS LATENCY: 9.07182 cycles
ITLB RQ	ACCESS:    8021383	FORWARD:          0	MERGED:    1613460	TO_CACHE:    6407923

DTLB TOTAL     ACCESS:    9000142  HIT:    8534679  MISS:     465463  HIT %:    94.8283  MISS %:    5.17173   MPKI: 9.30926
DTLB LOAD TRANSLATION DATA	ACCESS:    9000142  HIT:    8534679  MISS:     465463  HIT %:    94.8283  MISS %:    5.17173  MPKI: 9.30926

DTLB AVERAGE MISS LATENCY: 9.34521 cycles
DTLB RQ	ACCESS:   13371007	FORWARD:          0	MERGED:    4336086	TO_CACHE:    9034921

STLB TOTAL     ACCESS:    1186900  HIT:    1184537  MISS:       2363  HIT %:    99.8009  MISS %:    0.19909   MPKI: 0.04726
STLB LOAD TRANSLATION INSTRUCTION	ACCESS:     486349  HIT:     485875  MISS:        474  HIT %:    99.9025  MISS %:  0.0974609  MPKI: 0.00948
STLB LOAD TRANSLATION DATA	ACCESS:     465463  HIT:     463574  MISS:       1889  HIT %:    99.5942  MISS %:   0.405832  MPKI: 0.03778
STLB TRANSLATION FROM L1D PREFETCHER DATA	ACCESS:     235088  HIT:     235088  MISS:          0  HIT %:        100  MISS %:          0  MPKI: 0

STLB AVERAGE MISS LATENCY: 71.9915 cycles
STLB RQ	ACCESS:    1290312	FORWARD:          0	MERGED:     103412	TO_CACHE:    1186900

STLB Hit, L1D data hit: 0
STLB Hit, L2C data hit: 0
STLB Hit, LLC data hit: 0
STLB Hit, LLC data miss: 0
STLB STLB hints to L2: 0
L1D TOTAL     ACCESS:   11670370  HIT:    6755427  MISS:    4914943  HIT %:    57.8853  MISS %:    42.1147   MPKI: 98.2989
L1D LOAD DATA	ACCESS:    6359858  HIT:    3204552  MISS:    3155306  HIT %:    50.3872  MISS %:    49.6128  MPKI: 63.1061
L1D RFO DATA	ACCESS:    5032670  HIT:    3448739  MISS:    1583931  HIT %:     68.527  MISS %:     31.473  MPKI: 31.6786
L1D PREFETCH DATA	ACCESS:     277842  HIT:     102136  MISS:     175706  HIT %:    36.7605  MISS %:    63.2395  MPKI: 3.51412

L1D PREFETCH  REQUESTED:     677203  ISSUED:     677203  USEFUL:      21289  USELESS:     167139
L1D USEFUL LOAD PREFETCHES:      21289 PREFETCH ISSUED TO LOWER LEVEL:     188995  ACCURACY: 11.2643
 TIMELY PREFETCHES:      21289 LATE PREFETCHES: 12722 DROPPED PREFETCHES: 0
L1D AVERAGE MISS LATENCY: 99292.7 cycles
L1D RQ	ACCESS:   10680583	FORWARD:          0	MERGED:    3908698	TO_CACHE:    6610885
L1D WQ	ACCESS:    6954111	FORWARD:     161203	MERGED:     193989	TO_CACHE:    6760122
L1D PQ	ACCESS:     338703	FORWARD:          0	MERGED:          0	TO_CACHE:     338500

L1D UNIQUE REGIONS ACCESSED: 0
L1D REGIONS CONFLICTS: 0
L1D Cross Page Prefetch Requests: 2101
L1D Same Page Prefetch Requests: 695518
L1D ROI Sum of L1D PQ occupancy: 4271897
L1D PREFETCHES PUSHED FROM L2C: 0
L1I TOTAL     ACCESS:    7224029  HIT:    4500375  MISS:    2723654  HIT %:    62.2973  MISS %:    37.7027   MPKI: 54.4731
L1I LOAD INSTRUCTION	ACCESS:    6534802  HIT:    3811148  MISS:    2723654  HIT %:    58.3208  MISS %:    41.6792  MPKI: 54.4731
L1I PREFETCH INSTRUCTION	ACCESS:     689227  HIT:     689227  MISS:          0  HIT %:        100  MISS %:          0  MPKI: 0

L1I PREFETCH  REQUESTED:    1610221  ISSUED:    1610221  USEFUL:          0  USELESS:          0
L1I USEFUL LOAD PREFETCHES:          0 PREFETCH ISSUED TO LOWER LEVEL:          0  ACCURACY: -nan
 TIMELY PREFETCHES:          0 LATE PREFETCHES: 0 DROPPED PREFETCHES: 0
L1I AVERAGE MISS LATENCY: 17.4531 cycles
L1I RQ	ACCESS:    9596070	FORWARD:          0	MERGED:    2766077	TO_CACHE:    6829993
L1I PQ	ACCESS:    1610221	FORWARD:          0	MERGED:     418831	TO_CACHE:    1191390

L1BTB TOTAL     ACCESS:    5682617  HIT:    2089798  MISS:    3592819  HIT %:    36.7753  MISS %:    63.2247   MPKI: 71.8564
L1BTB BRANCH_DIRECT_JUMP	ACCESS:     547468 HIT:     147491 MISS:     399977 AVERAGE STALL: 69.8882 AVERAGE FETCH STALL: 15.4773 AVERAGE FETCH QUEUE STALL: 27.3961 AVERAGE DECODE STALL: 26.0952 AVERAGE EXECUTE STALL: 2.17021e+15
L1BTB BRANCH_INDIRECT	ACCESS:     181664 HIT:      65234 MISS:     116430 AVERAGE STALL: 136.658 AVERAGE FETCH STALL: 10.8127 AVERAGE FETCH QUEUE STALL: 24.5408 AVERAGE DECODE STALL: 17.5972 AVERAGE EXECUTE STALL: 82.7455
L1BTB BRANCH_CONDITIONAL	ACCESS:    2709848 HIT:    1430701 MISS:    1279147 AVERAGE STALL: 91.4933 AVERAGE FETCH STALL: 24.4332 AVERAGE FETCH QUEUE STALL: 36.4923 AVERAGE DECODE STALL: 29.8424 AVERAGE EXECUTE STALL: 2.6961e+15
L1BTB BRANCH_DIRECT_CALL	ACCESS:     950230 HIT:     118514 MISS:     831716 AVERAGE STALL: 86.7083 AVERAGE FETCH STALL: 24.7707 AVERAGE FETCH QUEUE STALL: 34.3076 AVERAGE DECODE STALL: 26.8215 AVERAGE EXECUTE STALL: 6.50679e+15
L1BTB BRANCH_INDIRECT_CALL	ACCESS:     171577 HIT:      23407 MISS:     148170 AVERAGE STALL: 181.845 AVERAGE FETCH STALL: 12.423 AVERAGE FETCH QUEUE STALL: 22.9655 AVERAGE DECODE STALL: 15.5927 AVERAGE EXECUTE STALL: 130.373
L1BTB BRANCH_RETURN	ACCESS:    1121830 HIT:     304451 MISS:     817379 AVERAGE STALL: 56.4236 AVERAGE FETCH STALL: 17.2755 AVERAGE FETCH QUEUE STALL: 7.61977 AVERAGE DECODE STALL: 7.7196 AVERAGE EXECUTE STALL: 4.27374e+14
L1BTB BRANCH_OTHER ACCESS:          0 HIT:          0 MISS:          0 AVERAGE STALL: -nan AVERAGE FETCH STALL: -nan AVERAGE FETCH QUEUE STALL: -nan AVERAGE DECODE STALL: -nan AVERAGE EXECUTE STALL: -nan
L1BTB TOTAL ROB OCCUPANCY AT BTB MISS: 3.18393

L2BTB TOTAL     ACCESS:    3567709  HIT:    3498770  MISS:      68939  HIT %:    98.0677  MISS %:     1.9323   MPKI: 1.37878
L2BTB BRANCH_DIRECT_JUMP	ACCESS:     395837 HIT:     391457 MISS:       4380 AVERAGE STALL: 69.8882 AVERAGE FETCH STALL: 15.4773 AVERAGE FETCH QUEUE STALL: 27.3961 AVERAGE DECODE STALL: 26.0952 AVERAGE EXECUTE STALL: 2.17021e+15
L2BTB BRANCH_INDIRECT	ACCESS:     106305 HIT:     103625 MISS:       2680 AVERAGE STALL: 136.658 AVERAGE FETCH STALL: 10.8127 AVERAGE FETCH QUEUE STALL: 24.5408 AVERAGE DECODE STALL: 17.5972 AVERAGE EXECUTE STALL: 82.7455
L2BTB BRANCH_CONDITIONAL	ACCESS:    1279147 HIT:    1272207 MISS:       6940 AVERAGE STALL: 91.4933 AVERAGE FETCH STALL: 24.4332 AVERAGE FETCH QUEUE STALL: 36.4923 AVERAGE DECODE STALL: 29.8424 AVERAGE EXECUTE STALL: 2.6961e+15
L2BTB BRANCH_DIRECT_CALL	ACCESS:     831716 HIT:     828829 MISS:       2887 AVERAGE STALL: 86.7083 AVERAGE FETCH STALL: 24.7707 AVERAGE FETCH QUEUE STALL: 34.3076 AVERAGE DECODE STALL: 26.8215 AVERAGE EXECUTE STALL: 6.50679e+15
L2BTB BRANCH_INDIRECT_CALL	ACCESS:     138721 HIT:     128473 MISS:      10248 AVERAGE STALL: 181.845 AVERAGE FETCH STALL: 12.423 AVERAGE FETCH QUEUE STALL: 22.9655 AVERAGE DECODE STALL: 15.5927 AVERAGE EXECUTE STALL: 130.373
L2BTB BRANCH_RETURN	ACCESS:     815983 HIT:     774179 MISS:      41804 AVERAGE STALL: 56.4236 AVERAGE FETCH STALL: 17.2755 AVERAGE FETCH QUEUE STALL: 7.61977 AVERAGE DECODE STALL: 7.7196 AVERAGE EXECUTE STALL: 4.27374e+14
L2BTB BRANCH_OTHER ACCESS:          0 HIT:          0 MISS:          0 AVERAGE STALL: -nan AVERAGE FETCH STALL: -nan AVERAGE FETCH QUEUE STALL: -nan AVERAGE DECODE STALL: -nan AVERAGE EXECUTE STALL: -nan
L2BTB TOTAL ROB OCCUPANCY AT BTB MISS: 165.933

L2C TOTAL     ACCESS:    9325673  HIT:    8847715  MISS:     477958  HIT %:    94.8748  MISS %:    5.12519   MPKI: 9.55916
L2C LOAD INSTRUCTION	ACCESS:    2723654  HIT:    2451374  MISS:     272280  HIT %:    90.0031  MISS %:    9.99686  MPKI: 5.4456
L2C LOAD TRANSLATION INSTRUCTION	ACCESS:        529  HIT:        201  MISS:        328  HIT %:    37.9962  MISS %:    62.0038  MPKI: 0.00656
L2C LOAD DATA	ACCESS:    3106556  HIT:    3032359  MISS:      74197  HIT %:    97.6116  MISS %:     2.3884  MPKI: 1.48394
L2C RFO DATA	ACCESS:    1528158  HIT:    1473961  MISS:      54197  HIT %:    96.4534  MISS %:    3.54656  MPKI: 1.08394
L2C PREFETCH DATA	ACCESS:     281768  HIT:     216499  MISS:      65269  HIT %:    76.8359  MISS %:    23.1641  MPKI: 1.30538
L2C WRITEBACK DATA	ACCESS:    1682993  HIT:    1672787  MISS:      10206  HIT %:    99.3936  MISS %:    0.60642  MPKI: 0.20412
L2C LOAD TRANSLATION DATA	ACCESS:       2015  HIT:        534  MISS:       1481  HIT %:    26.5012  MISS %:    73.4988  MPKI: 0.02962

L2C PREFETCH  REQUESTED:     102293  ISSUED:     102293  USEFUL:      12518  USELESS:      53340
L2C USEFUL LOAD PREFETCHES:      12518 PREFETCH ISSUED TO LOWER LEVEL:      65743  ACCURACY: 19.0408
 TIMELY PREFETCHES:      12518 LATE PREFETCHES: 474 DROPPED PREFETCHES: 0
L2C AVERAGE MISS LATENCY: 38.3227 cycles
L2C RQ	ACCESS:    7452148	FORWARD:          0	MERGED:          0	TO_CACHE:    7360914
L2C WQ	ACCESS:    1715161	FORWARD:      92501	MERGED:      32168	TO_CACHE:    1682993
L2C PQ	ACCESS:     291288	FORWARD:          0	MERGED:       3583	TO_CACHE:     286438

L2C Dense regions hint from L2: 0
PSCL5 TOTAL     ACCESS:       4726  HIT:       2363  MISS:       2363  HIT %:         50  MISS %:         50   MPKI: 0.04726
PSCL5 LOAD TRANSLATION INSTRUCTION	ACCESS:       4726  HIT:       2363  MISS:       2363  HIT %:         50  MISS %:         50  MPKI: 0.04726


PSCL4 TOTAL     ACCESS:       3750  HIT:       1871  MISS:       1879  HIT %:    49.8933  MISS %:    50.1067   MPKI: 0.03758
PSCL4 LOAD TRANSLATION INSTRUCTION	ACCESS:       2052  HIT:       1871  MISS:        181  HIT %:    91.1793  MISS %:    8.82066  MPKI: 0.00362
PSCL4 LOAD TRANSLATION DATA	ACCESS:       1698  HIT:          0  MISS:       1698  HIT %:          0  MISS %:        100  MPKI: 0.03396


PSCL3 TOTAL     ACCESS:       4490  HIT:       2233  MISS:       2257  HIT %:    49.7327  MISS %:    50.2673   MPKI: 0.04514
PSCL3 LOAD TRANSLATION INSTRUCTION	ACCESS:       3697  HIT:       2233  MISS:       1464  HIT %:    60.4003  MISS %:    39.5997  MPKI: 0.02928
PSCL3 LOAD TRANSLATION DATA	ACCESS:        793  HIT:          0  MISS:        793  HIT %:          0  MISS %:        100  MPKI: 0.01586


PSCL2 TOTAL     ACCESS:       4571  HIT:       2208  MISS:       2363  HIT %:    48.3045  MISS %:    51.6955   MPKI: 0.04726
PSCL2 LOAD TRANSLATION INSTRUCTION	ACCESS:       2682  HIT:       2208  MISS:        474  HIT %:    82.3266  MISS %:    17.6734  MPKI: 0.00948
PSCL2 LOAD TRANSLATION DATA	ACCESS:       1889  HIT:          0  MISS:       1889  HIT %:          0  MISS %:        100  MPKI: 0.03778


LLC TOTAL     ACCESS:     545555  HIT:     517552  MISS:      28003  HIT %:    94.8671  MISS %:    5.13294   MPKI: 0.56006
LLC LOAD INSTRUCTION	ACCESS:     272280  HIT:     271418  MISS:        862  HIT %:    99.6834  MISS %:   0.316586  MPKI: 0.01724
LLC LOAD TRANSLATION INSTRUCTION	ACCESS:        328  HIT:        292  MISS:         36  HIT %:    89.0244  MISS %:    10.9756  MPKI: 0.00072
LLC LOAD DATA	ACCESS:      73762  HIT:      69769  MISS:       3993  HIT %:    94.5866  MISS %:    5.41336  MPKI: 0.07986
LLC RFO DATA	ACCESS:      54145  HIT:      39704  MISS:      14441  HIT %:     73.329  MISS %:     26.671  MPKI: 0.28882
LLC PREFETCH DATA	ACCESS:      65742  HIT:      57448  MISS:       8294  HIT %:     87.384  MISS %:     12.616  MPKI: 0.16588
LLC WRITEBACK DATA	ACCESS:      77817  HIT:      77539  MISS:        278  HIT %:    99.6428  MISS %:   0.357248  MPKI: 0.00556
LLC LOAD TRANSLATION DATA	ACCESS:       1481  HIT:       1382  MISS:         99  HIT %:    93.3153  MISS %:    6.68467  MPKI: 0.00198

LLC AVERAGE MISS LATENCY: 151.955 cycles
LLC RQ	ACCESS:     402009	FORWARD:          0	MERGED:          0	TO_CACHE:     401996
LLC WQ	ACCESS:      77817	FORWARD:         14	MERGED:          0	TO_CACHE:      77817
LLC PQ	ACCESS:      65743	FORWARD:          0	MERGED:          0	TO_CACHE:      65742

LLC Dense regions hint to LLC: 0

RAW hits: 1977710
Loads Generated: 12658291
Loads sent to L1D: 10680583
Stores Generated: 6954105
Stores sent to L1D: 6954111
Major fault: 0 Minor fault: 2551
Allocated PAGES: 2551

stream: 
stream:times selected: 1172745
stream:pref_filled: 327206
stream:pref_useful: 19818
stream:pref_late: 28967
stream:misses: 77702
stream:misses_by_poll: 0

CS: 
CS:times selected: 171460
CS:pref_filled: 7125
CS:pref_useful: 840
CS:pref_late: 3438
CS:misses: 4991
CS:misses_by_poll: 0

CPLX: 
CPLX:times selected: 1170789
CPLX:pref_filled: 38486
CPLX:pref_useful: 2085
CPLX:pref_late: 5862
CPLX:misses: 659812
CPLX:misses_by_poll: 0

NL_L1: 
NL:times selected: 5144
NL:pref_filled: 1911
NL:pref_useful: 64
NL:pref_late: 125
NL:misses: 3702
NL:misses_by_poll: 0

total selections: 2520138
total_filled: 175706
total_useful: 21289
total_late: 41076
total_polluted: 0
total_misses_after_warmup: 3406335
conflicts: 5586050

test: 116362

DRAM Statistics
 CHANNEL 0
 RQ ROW_BUFFER_HIT:      10408  ROW_BUFFER_MISS:      17314
 DBUS_CONGESTED:         10
 WQ ROW_BUFFER_HIT:       1464  ROW_BUFFER_MISS:      12046  FULL:          0

 AVG_CONGESTED_CYCLE: 3

CPU 0 Branch Prediction Accuracy: 99.8174% MPKI: 0.3343 Average ROB Occupancy at Mispredict: 193.888
Branch types
NOT_BRANCH: 40845557 81.6911%
BRANCH_DIRECT_JUMP: 547468 1.09494%
BRANCH_INDIRECT: 181664 0.363328%
BRANCH_CONDITIONAL: 6181653 12.3633%
BRANCH_DIRECT_CALL: 950230 1.90046%
BRANCH_INDIRECT_CALL: 171577 0.343154%
BRANCH_RETURN: 1121830 2.24366%
BRANCH_OTHER: 0 0%

DRAM PAGES: 1048576
Allocated PAGES: 2551
Average_ROB_Occupancy: 269.742
Average_Decode_Occupancy: 40.4401
Average_FTQ_Occupancy: 15.5638
Indirect max targets: 14 Average targets: 1.15772
Branch_type:  BRANCH_DIRECT_JUMP:  Count Percentage: 3.28522 6.60305 3.64701 2.96782 2.22078 6.48184 2.04066 72.7536 
Branch_type:  BRANCH_INDIRECT:  Count Percentage: 11.708 3.45372 2.52352 9.6456 3.33981 2.80596 2.41263 64.1108 
Branch_type:  BRANCH_CONDITIONAL:  Count Percentage: 20.8755 3.14807 3.20216 3.00942 1.39424 4.77044 4.03829 59.5619 
Branch_type:  BRANCH_DIRECT_CALL:  Count Percentage: 0.383299 1.74878 1.62175 1.93568 2.55343 2.82467 1.1859 87.7465 
Branch_type:  BRANCH_INDIRECT_CALL:  Count Percentage: 9.5011 0 2.97721 0.00378484 0 2.20336 1.28277 84.0318 
Branch_type:  BRANCH_RETURN:  Count Percentage: 3.90943 1.97979 0.71452 3.61677 2.74209 5.53115 4.17202 77.3342 
Branch_type:  BRANCH_DIRECT_JUMP:  Total Count: 35968 72293 39929 32493 24314 70966 22342 796538 
Branch_type:  BRANCH_INDIRECT:  Total Count: 42656 12583 9194 35142 12168 10223 8790 233576 
Branch_type:  BRANCH_CONDITIONAL:  Total Count: 2578445 388836 395517 371710 172210 589224 498792 7356831 
Branch_type:  BRANCH_DIRECT_CALL:  Total Count: 7272 33178 30768 36724 48444 53590 22499 1664738 
Branch_type:  BRANCH_INDIRECT_CALL:  Total Count: 32634 0 10226 13 0 7568 4406 288629 
Branch_type:  BRANCH_RETURN:  Total Count: 87630 44377 16016 81070 61464 123981 93516 1733451 
Number of unique branch instructions: 10213
Upper 32 bits: 
aaaa
ffff
ffff0000
Unique upper 32 bits: 3
Unique upper 36 bits: 3
Unique upper 40 bits: 5
Unique upper 44 bits: 32
Unique upper 48 bits: 156
Variant_0 : 1386 0.338379
Variant_1 : 2666 0.650879
Variant_2 : 0 0
Variant_3 : 0 0
Offset_3 4212
Offset_4 256
Offset_5 465
Offset_6 516
Offset_7 619
Offset_8 525
Offset_9 481
Offset_10 398
Offset_11 326
Offset_12 285
Offset_13 216
Offset_14 244
Offset_15 190
Offset_16 225
Offset_17 155
Offset_18 125
Offset_19 256
Offset_20 139
Offset_21 235
Offset_22 404
Offset_23 242
Offset_24 333
Offset_25 95
Offset_47 84
Offset_64 2
decode_dispatch_called: 32609161 75.3565
Dispatch_width: 0 19896944 61.0164 45.9799
Dispatch_width: 1 1217329 3.73309 2.81313
Dispatch_width: 2 980396 3.0065 2.2656
Dispatch_width: 3 554607 1.70077 1.28164
Dispatch_width: 4 7250240 22.2338 16.7546
Dispatch_width: 5 100772 0.30903 0.232874
Dispatch_width: 6 2608873 8.00043 6.02885
Empty_decode_cycles: 10664003 24.6435
ROB_full_cycles: 16784866 38.7882
Starvation_cycles_per_kilo_instr: 238.794
Starvation_cycles_per_kilo_instr_3: 165.284
Starvation_cycles_per_kilo_instr_0: 137.761
Branch_type_1  (3,1)  (4,9)  (5,38)  (6,72)  (7,121)  (8,129)  (9,126)  (10,101)  (11,69)  (12,43)  (13,8)  (14,2)  (15,3)  (16,4)  (18,1)  (19,4)  (20,2)  (21,1)  (22,3)  (23,2)  (24,10)  (25,13) 
Branch_type_2  (3,1)  (4,1)  (5,1)  (8,3)  (9,3)  (12,1)  (13,1)  (14,1)  (16,3)  (17,2)  (20,2)  (21,2)  (23,5)  (24,1)  (47,38) 
Branch_type_3  (3,4210)  (4,246)  (5,422)  (6,429)  (7,467)  (8,329)  (9,257)  (10,161)  (11,126)  (12,50)  (13,7)  (64,2) 
Branch_type_4  (6,3)  (7,8)  (8,25)  (9,57)  (10,64)  (11,66)  (12,106)  (13,92)  (14,108)  (15,90)  (16,100)  (17,72)  (18,57)  (19,126)  (20,72)  (21,124)  (22,214)  (23,136)  (24,193)  (25,78) 
Branch_type_5  (8,2)  (9,1)  (10,4)  (11,6)  (12,3)  (13,14)  (14,17)  (15,11)  (16,20)  (17,11)  (18,16)  (19,13)  (20,11)  (21,13)  (22,42)  (23,26)  (24,37) 
Branch_type_6  (5,4)  (6,12)  (7,23)  (8,37)  (9,37)  (10,68)  (11,59)  (12,82)  (13,94)  (14,116)  (15,86)  (16,98)  (17,70)  (18,51)  (19,113)  (20,52)  (21,95)  (22,145)  (23,73)  (24,92)  (25,4)  (47,46) 
Unique trigger count: 
Variant_0_evicts_0 : 0
Variant_0_evicts_1 : 0
Variant_0_evicts_2 : 0
Variant_0_evicts_3 : 0
Variant_1_evicts_0 : 0
Variant_1_evicts_1 : 0
Variant_1_evicts_2 : 0
Variant_1_evicts_3 : 0
Variant_2_evicts_0 : 0
Variant_2_evicts_1 : 0
Variant_2_evicts_2 : 0
Variant_2_evicts_3 : 0
Variant_3_evicts_0 : 0
Variant_3_evicts_1 : 0
Variant_3_evicts_2 : 0
Variant_3_evicts_3 : 0
BTB PER SET UNIQUE ADDR: 10 14 8 11 13 10 12 16 11 9 11 17 12 10 10 7 10 13 13 12 14 11 12 16 12 15 9 14 15 9 10 14 12 6 10 9 12 14 7 12 10 12 10 14 9 10 11 10 11 11 12 13 11 14 11 5 11 13 8 10 13 14 12 11 12 13 10 9 12 13 13 9 15 9 9 7 7 13 12 15 7 8 13 11 13 7 11 12 5 18 11 8 11 11 8 12 12 11 14 15 17 15 10 11 11 10 6 15 8 10 10 14 13 8 9 9 15 8 10 11 16 7 9 10 9 13 5 13 13 10 7 12 11 13 9 13 9 8 7 17 9 6 9 13 11 7 9 8 6 11 13 7 8 11 10 18 13 11 12 9 12 10 14 14 12 11 14 8 7 10 11 9 12 12 12 10 10 12 13 8 9 11 8 17 11 17 10 10 13 9 14 14 10 13 14 10 6 10 9 8 9 14 12 5 11 11 13 14 9 13 8 12 11 10 8 10 12 12 12 17 7 15 10 10 6 10 12 11 10 8 10 8 11 12 12 12 13 11 12 10 14 9 9 14 10 9 10 8 13 15 13 18 15 16 14 13 6 8 9 13 9 8 4 16 10 10 9 8 10 11 10 11 11 8 8 7 11 17 11 12 9 12 10 11 9 8 8 10 14 15 12 8 13 9 9 11 9 9 13 15 8 13 9 18 15 14 16 12 17 11 8 13 10 15 15 5 10 14 10 17 15 11 7 10 10 17 13 6 10 7 12 12 7 9 9 8 6 9 5 12 7 13 8 13 12 14 9 10 10 13 13 9 13 14 13 9 8 10 8 12 14 11 9 16 7 13 7 10 15 9 12 11 8 13 12 15 12 16 13 15 14 8 8 11 11 9 12 15 11 9 7 11 13 14 7 11 8 8 12 13 10 11 8 12 20 7 11 12 7 9 13 8 10 15 10 10 13 11 20 13 12 9 9 13 12 8 9 11 12 11 16 12 12 12 9 11 13 11 11 11 9 13 10 11 16 10 10 13 17 13 9 14 13 11 15 21 13 12 5 9 9 11 13 10 12 12 13 10 11 12 15 14 11 13 15 13 10 13 9 9 10 11 11 13 8 15 17 15 11 14 11 12 11 4 13 10 16 10 10 15 11 11 9 13 10 11 8 14 9 13 12 12 10 12 10 14 9 11 6 9 10 7 11 10 12 13 16 8 7 14 11 12 17 13 12 11 8 13 9 11 10 11 11 11 16 14 8 9 11 15 9 8 14 12 9 11 13 11 17 14 14 15 7 14 14 10 12 14 12 16 15 16 15 14 13 14 12 12 9 9 10 9 8 10 11 11 8 16 13 11 10 9 10 9 11 8 10 11 9 11 11 9 11 10 8 13 15 10 13 7 15 12 13 11 5 14 9 10 10 16 17 11 7 11 10 10 10 16 10 11 12 16 13 17 7 9 10 12 5 12 9 7 10 16 12 12 10 13 15 8 9 10 12 9 9 12 9 14 14 9 12 8 15 16 14 16 9 11 9 12 15 9 13 11 15 14 18 13 15 17 11 13 10 13 11 13 13 9 13 13 12 15 14 6 9 9 9 15 10 13 9 13 12 12 10 16 11 11 9 10 12 16 13 11 10 12 14 15 11 10 9 14 14 10 10 14 9 12 9 13 16 11 12 10 13 15 15 13 14 12 11 16 9 11 15 12 12 11 11 9 11 12 13 11 7 10 18 8 11 9 14 6 6 12 13 16 8 11 15 13 9 12 10 9 11 10 11 11 11 12 9 12 10 7 10 10 11 10 13 6 7 9 16 9 14 12 9 10 16 12 16 12 11 14 13 12 11 11 13 9 9 15 14 15 12 8 14 15 9 16 10 15 8 9 14 14 10 11 14 14 12 15 12 13 8 10 13 11 10 12 15 12 9 17 12 13 15 14 9 14 7 9 7 9 10 13 13 12 15 10 10 10 11 8 13 9 13 5 12 8 9 14 12 10 14 8 12 10 10 15 11 7 11 11 11 13 16 14 10 10 10 11 11 9 11 14 11 10 10 10 11 9 11 16 5 10 11 13 14 15 10 9 10 10 12 10 11 16 8 10 10 15 10 8 7 9 7 11 11 11 14 15 14 11 12 13 9 16 14 10 7 12 11 9 9 11 8 10 9 10 9 15 9 14 8 15 10 14 18 9 12 9 12 12 13 10 13 8 9 16 12 14 10 10 13 11 21 14 15 13 14 15 15 11 12 14 14 10 13 11 12 11 10 14 15 8 8 13 12 12 11 13 10 13 11 16 8 15 11 14 9 11 7 8 10 12 7 10 8 10 9 10 9 8 
BTB PER SET COUNT: 978 15 1811 13 367 10 1180 281 331 11 16 23 141 28 12 8 130 17 20 16 17 121 497 437 17 20 13 15 25 12 15 20 19 6 11 497 15 19 11 1164 12 17 13 18 13 11 12 12 12 17 13 19 12 27 13 406 13 19 458 15 15 21 27 15 15 247 10 1155 15 17 887 12 20 9 12 8 11 1449 17 33 353 15 987 14 14 33 14 17 1465 24 16 8 18 12 9 15 1212 22 16 25 32 424 11 14 297 12 10 20 9 2244 11 21 565 8 16 315 19 9 1476 363 28 7 13 14 14 156 6 508 19 985 9 4394 351 15 102 18 639 9 8 22 10 7 11 15 16 9 10 13 8 16 24 171 977 16 13 27 14 16 163 10 25 126 18 24 339 20 22 9 7 1519 15 10 18 20 22 365 13 17 19 280 18 238 978 23 14 641 13 10 19 12 25 17 11 19 16 34 14 980 15 16 10 15 990 5 11 16 17 19 985 1130 12 20 15 11134 13 595 18 15 1532 23 19 19 604 10 7 25 15 39 726 8 13 8 14 21 938 20418 20 311 17 13 1466 19 10 641 14 13 12 10 468 18 18 25 20 21 19 20 49 12 9 16 10 9 4 180 13 12 10 15 397 15 15 12 530 9 17 8 15 27 14 20 16 16 646 979 11 10 11 11 18 17 15 12 18 12 13 14 12 18 22 326 9 16 37 20 18 26 65 497 21 492 986 16 13 24 1846 974 10 31 14 31 18 2329 7 13 896 165 418 8 13 8 18 17 46 15 9 10 11 963 5 48 7 2029 9 337 23 17 10 18 13 102 17 1475 20 30 16 10 9 10 8 19 17 12 11 24 7 1612 7 10 24 11 14 402 14 80 491 18 18 21 20 354 1231 9 9 16 12 13 332 18 16 10 10 16 18 705 9 225 10 12 19 2224 11 14 8 20 26 9 18 498 10 13 350 11 13 21 13 11 18 71 24 16 18 13 11 21 14 12 10 20 19 361 24 15 14 16 14 14 101 32 11 15 12 23 25 11 104 16 536 17 24 18 15 2710 21 19 22 423 15 13 5 11 14 16 20 13 14 30 3505 10 25 19 21 22 17 16 31 18 14 25 14 14 10 39 12 14 49 205 22 19 15 202 14 21 408 5 17 13 810 534 12 26 13 15 10 21 28 12 10 20 10 20 22 119 17 591 15 18 9 11 8 10 16 8 12 253 13 16 448 1474 11 2053 17 22 241 20 15 13 9 16 16 673 13 13 34 17 28 17 8 11 17 48 16 12 20 19 11 11 14 17 28 20 20 65 7 17 21 14 114 21 16 260 28 17 18 22 571 19 15 15 11 13 11 11 13 1156 12 16 12 22 17 11 13 10 10 11 15 10 16 21 13 11 15 14 15 15 10 17 23 14 16 9 24 19 87 17 5 21 18 27 594 33 27 15 17 12 10 11 16 26 13 468 14 263 13 90 7 12 15 981 6 13 14 10 13 232 952 98 329 16 29 10 10 14 16 13 10 503 10 22 105 14 20 8 16 21 26 32 14 1556 1473 19 19 14 967 16 22 21 32 21 21 30 14 14 13 17 19 16 20 13 37 30 12 25 18 6 2583 13 9 137 21 17 431 16 819 16 12 375 14 19 10 12 418 196 842 14 17 44 1397 30 16 13 14 182 17 29 12 18 11 17 937 2700 23 17 16 15 16 1969 502 17 22 13 16 24 18 27 995 18 209 15 16 14 12 14 15 18 18 14 28 1468 13 11 17 6 6 14 24 19 8 13 19 247 10 23 14 9 12 15 12 866 13 36 1463 22 684 7 15 12 11 10 15 6 7 777 24 10 663 22 167 10 21 1153 22 18 18 16 263 13 13 13 17 12 10 8249 24 23 16 31 647 2042 20 1136 12 1119 8 14 1167 28 13 15 16 22 28 25 18 19 41 16 22 768 11 253 23 20 14 29 1159 17 20 22 13 16 1132 11 7 12 13 16 14 13 20 12 18 20 457 9 30 13 16 6 16 9 494 23 14 16 28 9 24 13 10 29 16 9 153 15 22 1024 21 20 10 12 12 863 1877 21 23 23 13 12 17 18 16 12 21 983 5 18 14 19 115 23 112 10 15 11 15 354 180 456 11 66 18 703 14 8 7 12 10 14 22 13 18 20 230 20 69 227 11 23 22 10 8 18 20 14 10 16 12 11 13 14 12 28 14 190 8 16 10 17 93 17 358 11 17 16 16 15 1475 8 9 20 14 593 17 11 226 13 30 20 29 22 30 22 25 996 19 780 18 12 21 17 19 2046 11 30 923 13 11 1478 14 15 14 21 13 15 22 213 9 18 14 19 369 62 7 11 15 16 12 25 10 13 12 11 13 8 
To predecode: 0
Predecoding something: 0
Predecode request dropped: 0
sizeofblock_0 0
sizeofblock_1 61114
sizeofblock_2 80262
sizeofblock_3 0
sizeofblock_4 0
sizeofblock_5 0
sizeofblock_6 0
sizeofblock_7 0
sizeofblock_8 0
Variant_0 Correct: 1609328 Incorrect: 0 Accuracy: 1
Variant_1 Correct: 5710775 Incorrect: 0 Accuracy: 1
Variant_2 Correct: 0 Incorrect: 0 Accuracy: -nan
Variant_3 Correct: 0 Incorrect: 0 Accuracy: -nan
