
*** ChampSim Multicore Out-of-Order Simulator ***

Warmup Instructions: 50000000
Simulation Instructions: 50000000
Number of CPUs: 1
LLC sets: 2048
LLC ways: 16
Off-chip DRAM Size: 4096 MB Channels: 1 Width: 64-bit Data Rate: 6400 MT/s
CPU 0 runs ./micro_traces/srv725.trace.gz
.gz
ITLB has LRU replacement policy
DTLB has LRU replacement policy
STLB has LRU replacement policy
FDIP Prefetcher at L1I
L1I has LRU replacement policy
L1D has LRU replacement policy
Initialize SRRIP state for L2C
Initialize DRRIP state for LLC
Heartbeat CPU 0 instructions: 10000003 cycles: 2797517 heartbeat IPC: 3.5746 cumulative IPC: 3.5746 (Simulation time: 0 hr 1 min 51 sec) 
Heartbeat CPU 0 instructions: 20000000 cycles: 5593121 heartbeat IPC: 3.57704 cumulative IPC: 3.57582 (Simulation time: 0 hr 3 min 26 sec) 
Heartbeat CPU 0 instructions: 30000002 cycles: 8389245 heartbeat IPC: 3.57638 cumulative IPC: 3.57601 (Simulation time: 0 hr 5 min 1 sec) 
Heartbeat CPU 0 instructions: 40000001 cycles: 11186499 heartbeat IPC: 3.57493 cumulative IPC: 3.57574 (Simulation time: 0 hr 6 min 34 sec) 
Heartbeat CPU 0 instructions: 50000001 cycles: 13983636 heartbeat IPC: 3.57508 cumulative IPC: 3.57561 (Simulation time: 0 hr 8 min 8 sec) 

Warmup complete CPU 0 instructions: 50000001 cycles: 13983636 (Simulation time: 0 hr 8 min 8 sec) 

Cycle: 20000000 FTQ IN: 58383752 FTQ occupancy: 20.1188 DECODE IN: 58383635 DECODE occupancy: 52.6336 ROB IN: 58383575 ROB occupancy: 317.097 ROB OUT: 58383227
Heartbeat CPU 0 instructions: 60000002 cycles: 21156552 heartbeat IPC: 1.39413 cumulative IPC: 1.39413 (Simulation time: 0 hr 9 min 58 sec) 
Heartbeat CPU 0 instructions: 70000003 cycles: 28437075 heartbeat IPC: 1.37353 cumulative IPC: 1.38375 (Simulation time: 0 hr 11 min 48 sec) 
Cycle: 30000000 FTQ IN: 13787377 FTQ occupancy: 13.4758 DECODE IN: 13787465 DECODE occupancy: 35.2803 ROB IN: 13787518 ROB occupancy: 244.095 ROB OUT: 13787569
Heartbeat CPU 0 instructions: 80000001 cycles: 35669614 heartbeat IPC: 1.38264 cumulative IPC: 1.38338 (Simulation time: 0 hr 13 min 38 sec) 
Cycle: 40000000 FTQ IN: 13867191 FTQ occupancy: 13.3038 DECODE IN: 13867130 DECODE occupancy: 34.9539 ROB IN: 13867137 ROB occupancy: 243.111 ROB OUT: 13867185
Heartbeat CPU 0 instructions: 90000003 cycles: 42837495 heartbeat IPC: 1.39511 cumulative IPC: 1.3863 (Simulation time: 0 hr 15 min 33 sec) 
Cycle: 50000000 FTQ IN: 13808386 FTQ occupancy: 13.3773 DECODE IN: 13808467 DECODE occupancy: 34.9025 ROB IN: 13808466 ROB occupancy: 243.119 ROB OUT: 13808388
Heartbeat CPU 0 instructions: 100000001 cycles: 50108664 heartbeat IPC: 1.37529 cumulative IPC: 1.38408 (Simulation time: 0 hr 17 min 24 sec) 
Finished CPU 0 instructions: 50000000 cycles: 36125028 cumulative IPC: 1.38408 (Simulation time: 0 hr 17 min 24 sec) 

ChampSim completed all CPUs

Region of Interest Statistics

CPU 0 cumulative IPC: 1.38408 instructions: 50000000 cycles: 36125028
 Fetch stage stalled: 52.2266  Sim cycles: 36125028 fetch stall cycle: 18866867
 Empty decode stage: 33.0104  Sim cycles: 36125028 fetch stall cycle: 11925033
ITLB TOTAL     ACCESS:    5894668  HIT:    5408313  MISS:     486355  HIT %:    91.7492  MISS %:    8.25076   MPKI: 9.7271
ITLB LOAD TRANSLATION INSTRUCTION	ACCESS:    5773443  HIT:    5287088  MISS:     486355  HIT %:     91.576  MISS %:      8.424  MPKI: 9.7271
ITLB TRANSLATION FROM L1D PREFETCHER INSTRUCTION	ACCESS:     121225  HIT:     121225  MISS:          0  HIT %:        100  MISS %:          0  MPKI: 0

ITLB AVERAGE MISS LATENCY: 9.07315 cycles
ITLB RQ	ACCESS:    8048516	FORWARD:          0	MERGED:    1716295	TO_CACHE:    6332221

DTLB TOTAL     ACCESS:    8976857  HIT:    8511855  MISS:     465002  HIT %:      94.82  MISS %:    5.18001   MPKI: 9.30004
DTLB LOAD TRANSLATION DATA	ACCESS:    8976857  HIT:    8511855  MISS:     465002  HIT %:      94.82  MISS %:    5.18001  MPKI: 9.30004

DTLB AVERAGE MISS LATENCY: 9.34936 cycles
DTLB RQ	ACCESS:   13351770	FORWARD:          0	MERGED:    4339104	TO_CACHE:    9012666

STLB TOTAL     ACCESS:    1196731  HIT:    1194366  MISS:       2365  HIT %:    99.8024  MISS %:   0.197622   MPKI: 0.0473
STLB LOAD TRANSLATION INSTRUCTION	ACCESS:     486355  HIT:     485881  MISS:        474  HIT %:    99.9025  MISS %:  0.0974597  MPKI: 0.00948
STLB LOAD TRANSLATION DATA	ACCESS:     465002  HIT:     463137  MISS:       1865  HIT %:    99.5989  MISS %:   0.401074  MPKI: 0.0373
STLB TRANSLATION FROM L1D PREFETCHER DATA	ACCESS:     245374  HIT:     245348  MISS:         26  HIT %:    99.9894  MISS %:  0.0105961  MPKI: 0.00052

STLB AVERAGE MISS LATENCY: 71.14 cycles
STLB RQ	ACCESS:    1312711	FORWARD:          0	MERGED:     115940	TO_CACHE:    1196771

STLB Hit, L1D data hit: 0
STLB Hit, L2C data hit: 0
STLB Hit, LLC data hit: 0
STLB Hit, LLC data miss: 0
STLB STLB hints to L2: 0
L1D TOTAL     ACCESS:   13110481  HIT:   12016587  MISS:    1093894  HIT %:    91.6563  MISS %:    8.34366   MPKI: 21.8779
L1D LOAD DATA	ACCESS:    6565115  HIT:    5845682  MISS:     719433  HIT %:    89.0416  MISS %:    10.9584  MPKI: 14.3887
L1D RFO DATA	ACCESS:    6221679  HIT:    5939874  MISS:     281805  HIT %:    95.4706  MISS %:     4.5294  MPKI: 5.6361
L1D PREFETCH DATA	ACCESS:     323687  HIT:     231031  MISS:      92656  HIT %:    71.3748  MISS %:    28.6252  MPKI: 1.85312

L1D PREFETCH  REQUESTED:     723045  ISSUED:     723045  USEFUL:      32406  USELESS:      68009
L1D USEFUL LOAD PREFETCHES:      32406 PREFETCH ISSUED TO LOWER LEVEL:     100482  ACCURACY: 32.2506
 TIMELY PREFETCHES:      32406 LATE PREFETCHES: 7741 DROPPED PREFETCHES: 12
L1D AVERAGE MISS LATENCY: 233113 cycles
L1D RQ	ACCESS:   10710393	FORWARD:          0	MERGED:    3945792	TO_CACHE:    6598478
L1D WQ	ACCESS:    6954111	FORWARD:     166460	MERGED:     200819	TO_CACHE:    6753292
L1D PQ	ACCESS:     361691	FORWARD:          0	MERGED:          0	TO_CACHE:     361354

L1D UNIQUE REGIONS ACCESSED: 0
L1D REGIONS CONFLICTS: 0
L1D Cross Page Prefetch Requests: 5794
L1D Same Page Prefetch Requests: 735122
L1D ROI Sum of L1D PQ occupancy: 4605318
L1D PREFETCHES PUSHED FROM L2C: 0
L1I TOTAL     ACCESS:    7214696  HIT:    4491440  MISS:    2723256  HIT %:     62.254  MISS %:     37.746   MPKI: 54.4651
L1I LOAD INSTRUCTION	ACCESS:    6528974  HIT:    3805718  MISS:    2723256  HIT %:    58.2897  MISS %:    41.7103  MPKI: 54.4651
L1I PREFETCH INSTRUCTION	ACCESS:     685722  HIT:     685722  MISS:          0  HIT %:        100  MISS %:          0  MPKI: 0

L1I PREFETCH  REQUESTED:    1628996  ISSUED:    1628996  USEFUL:          0  USELESS:          0
L1I USEFUL LOAD PREFETCHES:          0 PREFETCH ISSUED TO LOWER LEVEL:          0  ACCURACY: -nan
 TIMELY PREFETCHES:          0 LATE PREFETCHES: 0 DROPPED PREFETCHES: 0
L1I AVERAGE MISS LATENCY: 17.2475 cycles
L1I RQ	ACCESS:    9520760	FORWARD:          0	MERGED:    2668749	TO_CACHE:    6852011
L1I PQ	ACCESS:    1628996	FORWARD:          0	MERGED:     432491	TO_CACHE:    1196505

L1BTB TOTAL     ACCESS:    5682615  HIT:    2089801  MISS:    3592814  HIT %:    36.7753  MISS %:    63.2247   MPKI: 71.8563
L1BTB BRANCH_DIRECT_JUMP	ACCESS:     547468  HIT:     147491  MISS:     399977	AVERAGE STALL: 51.4699
L1BTB BRANCH_INDIRECT	ACCESS:     181664  HIT:      65235  MISS:     116429	AVERAGE STALL: 105.773
L1BTB BRANCH_CONDITIONAL	ACCESS:    2709846  HIT:    1430700  MISS:    1279146	AVERAGE STALL: 110.663
L1BTB BRANCH_DIRECT_CALL	ACCESS:     950230  HIT:     118515  MISS:     831715	AVERAGE STALL: 104.4
L1BTB BRANCH_INDIRECT_CALL	ACCESS:     171577  HIT:      23407  MISS:     148170	AVERAGE STALL: 136.458
L1BTB BRANCH_RETURN	ACCESS:    1121830  HIT:     304453  MISS:     817377	AVERAGE STALL: 47.5014
L1BTB BRANCH_OTHER ACCESS:          0  HIT:          0  MISS:          0	AVERAGE STALL: -nan
L1BTB TOTAL ROB OCCUPANCY AT BTB MISS: 1.97921

L2BTB TOTAL     ACCESS:    3567694  HIT:    3513165  MISS:      54529  HIT %:    98.4716  MISS %:    1.52841   MPKI: 1.09058
L2BTB BRANCH_DIRECT_JUMP	ACCESS:     395837  HIT:     393093  MISS:       2744	AVERAGE STALL: 51.4699
L2BTB BRANCH_INDIRECT	ACCESS:     106294  HIT:     103700  MISS:       2594	AVERAGE STALL: 105.773
L2BTB BRANCH_CONDITIONAL	ACCESS:    1279146  HIT:    1278923  MISS:        223	AVERAGE STALL: 110.663
L2BTB BRANCH_DIRECT_CALL	ACCESS:     831715  HIT:     831563  MISS:        152	AVERAGE STALL: 104.4
L2BTB BRANCH_INDIRECT_CALL	ACCESS:     138721  HIT:     128756  MISS:       9965	AVERAGE STALL: 136.458
L2BTB BRANCH_RETURN	ACCESS:     815981  HIT:     777130  MISS:      38851	AVERAGE STALL: 47.5014
L2BTB BRANCH_OTHER ACCESS:          0  HIT:          0  MISS:          0	AVERAGE STALL: -nan
L2BTB TOTAL ROB OCCUPANCY AT BTB MISS: 130.406

L2C TOTAL     ACCESS:    4418138  HIT:    3942909  MISS:     475229  HIT %:    89.2437  MISS %:    10.7563   MPKI: 9.50458
L2C LOAD INSTRUCTION	ACCESS:    2723256  HIT:    2464365  MISS:     258891  HIT %:    90.4933  MISS %:    9.50667  MPKI: 5.17782
L2C LOAD TRANSLATION INSTRUCTION	ACCESS:        529  HIT:        201  MISS:        328  HIT %:    37.9962  MISS %:    62.0038  MPKI: 0.00656
L2C LOAD DATA	ACCESS:     711657  HIT:     633934  MISS:      77723  HIT %:    89.0786  MISS %:    10.9214  MPKI: 1.55446
L2C RFO DATA	ACCESS:     281689  HIT:     235663  MISS:      46026  HIT %:    83.6607  MISS %:    16.3393  MPKI: 0.92052
L2C PREFETCH DATA	ACCESS:     185465  HIT:     109294  MISS:      76171  HIT %:    58.9297  MISS %:    41.0703  MPKI: 1.52342
L2C WRITEBACK DATA	ACCESS:     513512  HIT:     498889  MISS:      14623  HIT %:    97.1524  MISS %:    2.84765  MPKI: 0.29246
L2C LOAD TRANSLATION DATA	ACCESS:       1980  HIT:        526  MISS:       1454  HIT %:    26.5657  MISS %:    73.4343  MPKI: 0.02908
L2C TRANSLATION FROM L1D PREFETCHER DATA	ACCESS:         50  HIT:         37  MISS:         13  HIT %:         74  MISS %:         26  MPKI: 0.00026

L2C PREFETCH  REQUESTED:      92688  ISSUED:      92688  USEFUL:       7682  USELESS:      68983
L2C USEFUL LOAD PREFETCHES:       7682 PREFETCH ISSUED TO LOWER LEVEL:      76563  ACCURACY: 10.0336
 TIMELY PREFETCHES:       7682 LATE PREFETCHES: 392 DROPPED PREFETCHES: 0
L2C AVERAGE MISS LATENCY: 38.8977 cycles
L2C RQ	ACCESS:    3719227	FORWARD:          0	MERGED:          0	TO_CACHE:    3719162
L2C WQ	ACCESS:     513512	FORWARD:         65	MERGED:          0	TO_CACHE:     513512
L2C PQ	ACCESS:     193170	FORWARD:          0	MERGED:       3579	TO_CACHE:     189591

L2C Dense regions hint from L2: 0
PSCL5 TOTAL     ACCESS:       4756  HIT:       2378  MISS:       2378  HIT %:         50  MISS %:         50   MPKI: 0.04756
PSCL5 LOAD TRANSLATION INSTRUCTION	ACCESS:       4656  HIT:       2328  MISS:       2328  HIT %:         50  MISS %:         50  MPKI: 0.04656
PSCL5 TRANSLATION FROM L1D PREFETCHER INSTRUCTION	ACCESS:        100  HIT:         50  MISS:         50  HIT %:         50  MISS %:         50  MPKI: 0.001


PSCL4 TOTAL     ACCESS:       3772  HIT:       1882  MISS:       1890  HIT %:     49.894  MISS %:     50.106   MPKI: 0.0378
PSCL4 LOAD TRANSLATION INSTRUCTION	ACCESS:       2020  HIT:       1839  MISS:        181  HIT %:    91.0396  MISS %:     8.9604  MPKI: 0.00362
PSCL4 TRANSLATION FROM L1D PREFETCHER INSTRUCTION	ACCESS:         43  HIT:         43  MISS:          0  HIT %:        100  MISS %:          0  MPKI: 0
PSCL4 LOAD TRANSLATION DATA	ACCESS:       1666  HIT:          0  MISS:       1666  HIT %:          0  MISS %:        100  MPKI: 0.03332
PSCL4 TRANSLATION FROM L1D PREFETCHER DATA	ACCESS:         43  HIT:          0  MISS:         43  HIT %:          0  MISS %:        100  MPKI: 0.00086


PSCL3 TOTAL     ACCESS:       4520  HIT:       2248  MISS:       2272  HIT %:    49.7345  MISS %:    50.2655   MPKI: 0.04544
PSCL3 LOAD TRANSLATION INSTRUCTION	ACCESS:       3657  HIT:       2211  MISS:       1446  HIT %:    60.4594  MISS %:    39.5406  MPKI: 0.02892
PSCL3 TRANSLATION FROM L1D PREFETCHER INSTRUCTION	ACCESS:         64  HIT:         37  MISS:         27  HIT %:    57.8125  MISS %:    42.1875  MPKI: 0.00054
PSCL3 LOAD TRANSLATION DATA	ACCESS:        789  HIT:          0  MISS:        789  HIT %:          0  MISS %:        100  MPKI: 0.01578
PSCL3 TRANSLATION FROM L1D PREFETCHER DATA	ACCESS:         10  HIT:          0  MISS:         10  HIT %:          0  MISS %:        100  MPKI: 0.0002


PSCL2 TOTAL     ACCESS:       4601  HIT:       2223  MISS:       2378  HIT %:    48.3156  MISS %:    51.6844   MPKI: 0.04756
PSCL2 LOAD TRANSLATION INSTRUCTION	ACCESS:       2647  HIT:       2173  MISS:        474  HIT %:    82.0929  MISS %:    17.9071  MPKI: 0.00948
PSCL2 TRANSLATION FROM L1D PREFETCHER INSTRUCTION	ACCESS:         50  HIT:         50  MISS:          0  HIT %:        100  MISS %:          0  MPKI: 0
PSCL2 LOAD TRANSLATION DATA	ACCESS:       1854  HIT:          0  MISS:       1854  HIT %:          0  MISS %:        100  MPKI: 0.03708
PSCL2 TRANSLATION FROM L1D PREFETCHER DATA	ACCESS:         50  HIT:          0  MISS:         50  HIT %:          0  MISS %:        100  MPKI: 0.001


LLC TOTAL     ACCESS:     529983  HIT:     500485  MISS:      29498  HIT %:    94.4342  MISS %:    5.56584   MPKI: 0.58996
LLC LOAD INSTRUCTION	ACCESS:     258891  HIT:     257792  MISS:       1099  HIT %:    99.5755  MISS %:   0.424503  MPKI: 0.02198
LLC LOAD TRANSLATION INSTRUCTION	ACCESS:        328  HIT:        290  MISS:         38  HIT %:    88.4146  MISS %:    11.5854  MPKI: 0.00076
LLC LOAD DATA	ACCESS:      77333  HIT:      73743  MISS:       3590  HIT %:    95.3577  MISS %:    4.64226  MPKI: 0.0718
LLC RFO DATA	ACCESS:      46012  HIT:      31603  MISS:      14409  HIT %:    68.6843  MISS %:    31.3157  MPKI: 0.28818
LLC PREFETCH DATA	ACCESS:      76563  HIT:      66642  MISS:       9921  HIT %:     87.042  MISS %:     12.958  MPKI: 0.19842
LLC WRITEBACK DATA	ACCESS:      69389  HIT:      69041  MISS:        348  HIT %:    99.4985  MISS %:    0.50152  MPKI: 0.00696
LLC LOAD TRANSLATION DATA	ACCESS:       1454  HIT:       1361  MISS:         93  HIT %:    93.6039  MISS %:    6.39615  MPKI: 0.00186
LLC TRANSLATION FROM L1D PREFETCHER DATA	ACCESS:         13  HIT:         13  MISS:          0  HIT %:        100  MISS %:          0  MPKI: 0

LLC AVERAGE MISS LATENCY: 156.985 cycles
LLC RQ	ACCESS:     384043	FORWARD:          0	MERGED:          0	TO_CACHE:     384031
LLC WQ	ACCESS:      69389	FORWARD:         12	MERGED:          0	TO_CACHE:      69389
LLC PQ	ACCESS:      76563	FORWARD:          0	MERGED:          0	TO_CACHE:      76563

LLC Dense regions hint to LLC: 0

RAW hits: 1947904
Loads Generated: 12658298
Loads sent to L1D: 10710393
Stores Generated: 6954106
Stores sent to L1D: 6954111
Major fault: 0 Minor fault: 2551
Allocated PAGES: 2551

stream: 
stream:times selected: 1172059
stream:pref_filled: 122002
stream:pref_useful: 23780
stream:pref_late: 6469
stream:misses: 6714
stream:misses_by_poll: 0

CS: 
CS:times selected: 173483
CS:pref_filled: 56956
CS:pref_useful: 33813
CS:pref_late: 6784
CS:misses: 15916
CS:misses_by_poll: 2

CPLX: 
CPLX:times selected: 997481
CPLX:pref_filled: 19079
CPLX:pref_useful: 4296
CPLX:pref_late: 3048
CPLX:misses: 89883
CPLX:misses_by_poll: 1

NL_L1: 
NL:times selected: 18665
NL:pref_filled: 533
NL:pref_useful: 209
NL:pref_late: 171
NL:misses: 968
NL:misses_by_poll: 0

total selections: 2361688
total_filled: 92656
total_useful: 32406
total_late: 17773
total_polluted: 3
total_misses_after_warmup: 752800
conflicts: 5538655

test: 114979

DRAM Statistics
 CHANNEL 0
 RQ ROW_BUFFER_HIT:      11038  ROW_BUFFER_MISS:      18099
 DBUS_CONGESTED:         14
 WQ ROW_BUFFER_HIT:       1445  ROW_BUFFER_MISS:      12314  FULL:          0

 AVG_CONGESTED_CYCLE: 6

CPU 0 Branch Prediction Accuracy: 99.8174% MPKI: 0.3343 Average ROB Occupancy at Mispredict: 186.016
Branch types
NOT_BRANCH: 40845557 81.6911%
BRANCH_DIRECT_JUMP: 547468 1.09494%
BRANCH_INDIRECT: 181664 0.363328%
BRANCH_CONDITIONAL: 6181653 12.3633%
BRANCH_DIRECT_CALL: 950230 1.90046%
BRANCH_INDIRECT_CALL: 171577 0.343154%
BRANCH_RETURN: 1121830 2.24366%
BRANCH_OTHER: 0 0%

DRAM PAGES: 1048576
Allocated PAGES: 2551
Average_ROB_Occupancy: 244.706
Average_Decode_Occupancy: 35.0844
Average_FTQ_Occupancy: 13.387
Indirect max targets: 14 Average targets: 1.15772
Branch_type:  BRANCH_DIRECT_JUMP:  Count Percentage: 3.28522 6.60305 3.64701 2.96782 2.22078 6.48184 2.04066 72.7536 
Branch_type:  BRANCH_INDIRECT:  Count Percentage: 11.708 3.45372 2.52352 9.6456 3.33981 2.80596 2.41263 64.1108 
Branch_type:  BRANCH_CONDITIONAL:  Count Percentage: 20.8755 3.14807 3.20216 3.00942 1.39424 4.77044 4.03829 59.5619 
Branch_type:  BRANCH_DIRECT_CALL:  Count Percentage: 0.383299 1.74878 1.62175 1.93568 2.55343 2.82467 1.1859 87.7465 
Branch_type:  BRANCH_INDIRECT_CALL:  Count Percentage: 9.5011 0 2.97721 0.00378484 0 2.20336 1.28277 84.0318 
Branch_type:  BRANCH_RETURN:  Count Percentage: 3.90943 1.97979 0.71452 3.61677 2.74209 5.53115 4.17202 77.3342 
Branch_type:  BRANCH_DIRECT_JUMP:  Total Count: 35968 72293 39929 32493 24314 70966 22342 796538 
Branch_type:  BRANCH_INDIRECT:  Total Count: 42656 12583 9194 35142 12168 10223 8790 233576 
Branch_type:  BRANCH_CONDITIONAL:  Total Count: 2578445 388836 395517 371710 172210 589224 498792 7356831 
Branch_type:  BRANCH_DIRECT_CALL:  Total Count: 7272 33178 30768 36724 48444 53590 22499 1664738 
Branch_type:  BRANCH_INDIRECT_CALL:  Total Count: 32634 0 10226 13 0 7568 4406 288629 
Branch_type:  BRANCH_RETURN:  Total Count: 87630 44377 16016 81070 61464 123981 93516 1733451 
Number of unique branch instructions: 10213
Upper 32 bits: 
aaaa
ffff
ffff0000
Unique upper 32 bits: 3
Unique upper 36 bits: 3
Unique upper 40 bits: 5
Unique upper 44 bits: 32
Unique upper 48 bits: 156
Offset_3 4212
Offset_4 256
Offset_5 465
Offset_6 516
Offset_7 619
Offset_8 525
Offset_9 481
Offset_10 398
Offset_11 326
Offset_12 285
Offset_13 216
Offset_14 244
Offset_15 190
Offset_16 225
Offset_17 155
Offset_18 125
Offset_19 256
Offset_20 139
Offset_21 235
Offset_22 404
Offset_23 242
Offset_24 333
Offset_25 95
Offset_47 84
Offset_64 2
decode_dispatch_called: 25849937 71.5569
Dispatch_width: 0 13836179 53.525 38.3008
Dispatch_width: 1 1008834 3.90266 2.79262
Dispatch_width: 2 848048 3.28066 2.34754
Dispatch_width: 3 507096 1.96169 1.40372
Dispatch_width: 4 5989498 23.1703 16.5799
Dispatch_width: 5 145902 0.564419 0.403881
Dispatch_width: 6 3514380 13.5953 9.72838
Empty_decode_cycles: 10275091 28.4431
ROB_full_cycles: 9529559 26.3794
Starvation_cycles_per_kilo_instr: 230.811
Starvation_cycles_per_kilo_instr_3: 169.457
Starvation_cycles_per_kilo_instr_0: 145.817
Branch_type_1  (3,1)  (4,9)  (5,38)  (6,72)  (7,121)  (8,129)  (9,126)  (10,101)  (11,69)  (12,43)  (13,8)  (14,2)  (15,3)  (16,4)  (18,1)  (19,4)  (20,2)  (21,1)  (22,3)  (23,2)  (24,10)  (25,13) 
Branch_type_2  (3,1)  (4,1)  (5,1)  (8,3)  (9,3)  (12,1)  (13,1)  (14,1)  (16,3)  (17,2)  (20,2)  (21,2)  (23,5)  (24,1)  (47,38) 
Branch_type_3  (3,4210)  (4,246)  (5,422)  (6,429)  (7,467)  (8,329)  (9,257)  (10,161)  (11,126)  (12,50)  (13,7)  (64,2) 
Branch_type_4  (6,3)  (7,8)  (8,25)  (9,57)  (10,64)  (11,66)  (12,106)  (13,92)  (14,108)  (15,90)  (16,100)  (17,72)  (18,57)  (19,126)  (20,72)  (21,124)  (22,214)  (23,136)  (24,193)  (25,78) 
Branch_type_5  (8,2)  (9,1)  (10,4)  (11,6)  (12,3)  (13,14)  (14,17)  (15,11)  (16,20)  (17,11)  (18,16)  (19,13)  (20,11)  (21,13)  (22,42)  (23,26)  (24,37) 
Branch_type_6  (5,4)  (6,12)  (7,23)  (8,37)  (9,37)  (10,68)  (11,59)  (12,82)  (13,94)  (14,116)  (15,86)  (16,98)  (17,70)  (18,51)  (19,113)  (20,52)  (21,95)  (22,145)  (23,73)  (24,92)  (25,4)  (47,46) 
Unique trigger count: 
BTB PER SET UNIQUE ADDR: 2 2 5 7 2 2 2 2 2 4 4 3 3 5 3 4 2 4 2 2 2 4 3 7 3 4 4 4 2 4 3 3 2 4 2 3 4 3 2 3 3 5 3 2 3 5 4 3 4 3 2 4 4 3 2 4 3 2 3 4 4 3 2 4 4 2 3 4 4 3 4 4 6 3 3 5 5 5 4 5 5 4 4 4 3 4 5 3 4 4 3 5 6 4 3 3 4 4 4 3 2 4 3 3 4 3 4 3 3 4 3 4 3 5 3 2 4 3 2 3 5 4 4 4 4 4 4 4 3 4 5 4 5 4 4 4 2 2 2 3 5 3 3 4 3 4 4 4 4 5 4 2 5 3 4 4 4 5 4 4 3 4 3 3 3 2 2 4 3 5 3 4 5 3 4 4 3 5 4 3 2 3 3 2 3 2 4 4 4 3 2 3 4 3 4 2 5 4 4 4 4 4 4 4 3 5 3 3 3 3 2 4 4 3 3 4 4 4 3 4 4 4 3 4 5 3 2 4 5 4 1 4 4 5 4 4 3 4 3 3 3 3 5 4 3 2 3 2 4 4 3 5 3 3 3 5 3 5 3 3 6 3 2 3 5 4 4 4 3 4 3 5 2 3 4 5 4 2 4 4 5 5 2 5 4 5 3 4 4 5 4 5 3 3 3 4 2 3 4 2 4 3 4 2 3 3 4 4 3 4 4 4 6 3 2 3 2 2 2 6 4 5 2 1 5 4 3 2 3 5 3 4 2 4 2 5 4 3 4 3 4 5 4 2 3 5 1 2 4 5 3 3 4 4 4 7 4 4 3 2 5 3 3 3 3 3 4 4 3 1 2 4 3 3 4 4 4 2 3 2 3 4 3 5 4 4 3 4 5 3 3 3 3 4 4 3 4 3 2 3 3 3 3 2 2 2 4 5 7 2 3 3 2 4 4 2 4 3 4 3 2 2 4 4 5 3 2 3 1 4 3 3 3 4 3 2 6 3 2 3 2 2 3 3 3 2 3 5 4 4 4 3 4 3 4 4 4 3 4 3 3 3 2 4 2 2 5 5 3 4 4 3 4 5 6 3 3 1 4 4 3 4 3 4 3 4 3 4 4 4 3 4 4 4 3 3 3 2 4 4 2 4 4 3 4 6 3 2 2 4 2 3 4 3 2 3 4 3 4 4 4 3 2 3 3 2 1 3 3 3 4 3 4 2 3 3 2 3 4 3 5 6 5 5 2 4 3 3 3 3 4 6 4 3 3 2 4 1 3 2 3 4 3 2 4 3 2 2 3 2 3 2 2 4 3 4 2 4 4 2 2 4 3 2 3 3 3 3 3 5 2 3 4 3 4 5 4 6 4 3 2 4 3 2 2 2 3 2 4 4 2 3 5 3 2 4 4 4 3 4 4 4 3 3 5 4 3 3 2 4 2 4 3 3 2 4 4 5 3 3 4 4 2 2 4 4 3 4 3 2 4 2 3 3 2 6 3 4 4 2 4 4 3 4 3 4 4 2 6 4 3 3 4 4 3 3 2 4 5 5 3 3 2 4 4 3 3 5 4 2 4 3 3 3 4 3 3 6 4 3 4 4 2 1 3 4 3 4 3 4 4 2 4 4 4 2 6 3 2 4 3 3 2 3 6 3 5 2 2 6 4 6 4 4 4 3 5 3 3 4 3 5 4 3 4 2 5 4 4 5 6 5 5 4 3 3 4 2 3 3 8 4 3 4 3 5 3 4 4 4 3 5 2 5 3 5 4 4 2 4 5 3 3 4 4 2 2 4 5 5 4 4 4 4 4 4 5 3 6 2 4 2 4 4 4 3 4 4 4 4 3 3 1 3 3 3 2 2 3 3 4 4 4 4 3 4 4 3 4 3 4 4 2 4 3 4 4 4 3 3 4 3 3 4 4 3 2 4 2 3 2 4 4 5 3 3 3 2 2 4 3 5 3 7 4 4 3 5 4 4 4 3 4 3 2 3 3 4 2 4 5 4 5 3 3 4 5 5 2 1 4 3 2 3 2 4 2 2 3 4 4 3 3 3 4 3 5 4 3 3 3 2 3 4 3 4 4 2 6 2 4 3 4 4 4 4 3 5 4 5 3 5 4 3 2 3 5 2 3 2 4 3 4 4 4 4 3 3 4 4 4 4 4 3 3 3 2 5 3 4 3 4 4 4 4 2 4 4 3 4 3 2 2 5 4 3 3 2 2 3 4 5 3 5 6 4 5 4 4 3 4 6 3 4 4 2 4 2 3 4 4 2 4 3 3 4 4 4 4 4 5 3 4 5 5 5 3 3 5 2 4 5 3 4 5 4 4 5 4 5 5 6 3 3 3 4 5 3 3 2 3 3 3 4 4 5 5 4 4 3 2 4 3 3 3 4 3 5 3 3 4 4 3 2 2 3 4 5 6 3 4 3 3 4 6 4 3 4 4 4 4 4 4 2 3 3 4 3 4 3 4 3 2 6 3 4 6 4 4 3 5 4 4 4 3 3 2 4 4 3 5 5 4 5 4 3 5 3 2 4 3 3 2 4 5 4 4 4 3 2 4 5 6 3 3 4 3 3 4 2 4 3 4 5 4 4 3 4 5 3 4 2 4 3 3 3 3 3 4 3 5 2 3 4 4 3 4 5 3 3 4 2 3 3 2 2 4 3 2 3 3 3 3 4 3 5 5 2 3 4 4 3 4 1 3 4 3 5 4 4 3 4 2 2 4 5 5 3 5 2 4 4 4 4 3 4 4 4 4 4 6 2 4 4 2 3 4 4 4 3 6 3 3 3 4 4 3 2 6 3 2 4 4 4 3 3 5 3 2 3 2 3 5 4 4 4 5 4 2 5 5 3 3 3 3 4 5 4 4 3 3 4 4 1 4 3 5 3 5 4 3 5 4 3 4 7 4 2 3 7 3 4 4 3 4 4 3 3 3 3 5 4 4 3 5 3 5 2 3 4 3 4 5 3 4 3 4 3 3 5 4 5 4 3 4 4 3 4 5 3 2 4 4 4 2 5 4 3 4 3 5 4 3 3 5 6 3 3 6 2 4 4 4 5 4 4 3 1 4 3 4 4 2 3 3 4 5 5 4 5 4 4 2 3 3 5 4 4 3 3 2 3 3 2 5 4 3 4 2 3 3 5 2 2 2 3 4 3 4 3 2 4 3 2 2 4 5 4 4 4 2 3 4 4 2 3 3 4 2 3 5 2 3 3 4 4 3 4 5 4 4 3 3 4 3 4 4 2 3 4 4 3 3 3 4 4 5 5 3 4 4 3 2 2 3 5 3 2 4 4 4 2 6 4 3 3 6 3 4 4 4 1 4 3 4 3 4 3 4 4 4 3 3 4 4 4 4 4 6 5 3 3 3 4 4 5 2 3 3 4 3 7 2 3 4 3 3 3 4 3 5 4 6 3 2 3 5 4 2 3 4 3 3 4 5 2 3 3 3 3 3 3 4 2 4 4 4 3 2 5 4 2 3 3 3 6 4 4 3 4 3 5 3 3 4 4 3 5 4 2 3 3 4 3 3 3 4 3 4 4 5 3 4 4 2 3 4 2 3 6 3 3 5 3 4 5 3 4 3 3 4 2 4 3 4 3 3 3 3 4 4 3 3 3 4 3 3 3 3 3 2 3 4 5 4 4 4 5 4 4 3 6 3 3 3 4 4 3 2 4 3 3 3 4 4 3 3 3 4 4 3 4 5 2 3 6 3 2 4 3 4 2 2 5 4 3 4 4 4 4 5 2 3 4 4 4 3 5 3 3 4 3 2 3 3 4 3 2 2 4 5 2 4 3 3 4 4 3 3 3 3 4 4 1 3 3 3 4 2 4 3 6 4 4 3 4 4 3 4 4 4 4 4 3 2 5 3 2 4 5 3 3 2 2 3 7 4 4 2 2 4 3 5 3 3 2 5 6 3 4 5 4 4 4 2 6 3 3 5 3 5 3 4 4 6 3 2 3 3 4 5 3 2 4 3 4 4 3 3 2 3 4 4 5 2 4 5 4 4 4 3 6 5 4 4 3 4 3 2 5 2 4 2 3 4 4 4 4 2 5 4 2 4 3 2 2 4 3 4 2 4 3 4 4 5 3 4 4 2 3 2 3 2 4 4 3 3 3 3 2 4 4 4 2 5 3 4 3 3 5 5 5 4 3 4 2 2 3 3 5 4 3 4 4 3 3 4 4 3 5 4 5 4 3 3 3 3 3 3 1 2 3 4 4 4 3 4 4 3 4 2 5 3 2 3 4 3 4 4 2 3 4 3 3 4 4 4 4 3 3 4 2 4 3 2 4 2 1 3 4 4 4 4 4 2 3 2 4 3 3 6 4 4 2 4 4 2 3 6 4 2 2 3 4 3 4 3 4 3 4 5 3 3 3 3 4 3 4 4 4 3 4 2 4 3 3 4 4 4 3 4 4 3 3 4 4 3 5 3 3 3 3 4 2 2 4 5 3 2 3 3 4 4 4 3 3 3 3 2 3 3 4 3 1 4 3 4 3 3 3 3 5 4 4 4 4 3 2 4 4 2 4 5 2 2 3 3 3 4 2 4 4 4 4 3 2 5 2 3 4 4 4 5 3 4 3 4 4 5 5 4 4 1 3 4 4 3 5 
BTB PER SET COUNT: 2 2 1468 313 2 2 2 2 2 4 4 3 3 6 3 4 2 4 2 2 2 4 3 8 487 4 4 4 3 106 3 3 2 8 2 3 4 3 2 3 3 6 4 2 1463 5 287 3 4 3 2 4 488 3 2 4 3 970 4 487 4 3 2 4 4 2 6 4 4 3 4 5 6 3 3 5 7 6 6 5 5 4 4 4 3 4 5 4 4 972 3 5 6 4 3 3 4 4 4 3 3 4 5 3 4 3 4 3 3 4 3 4 248 8 6 2 4 3 2 3 5 6 1478 4 5 4 5 4 3 4 5 4 6 4 5 5 2 2 2 970 744 970 3 4 3 4 4 4 5 981 4 2 5 4 4 981 4 972 4 5 3 5 4 3 3 3 416 4 5 6 3 5 7 3 5 4 3 5 4 3 2 3 3 2 4 2 4 4 4 3 2 3 5 11 4 2 5 973 4 5 4 5 7 4 3 5 3 3 3 3 2 8 971 3 3 5 4 6 3 4 4 5 3 5 5 3 2 4 13 5 240 4 4 6074 4 6 3 4 3 4 3 3 10 4 3 2 3 2 4 5 3 407 3 3 3 5 1463 5 4 3 7 3 2 3 6 4 5 4 3 5 3 6 4 3 4 6 980 2 5 5 6 6 2 7 4 5 3 7 340 5 4 5 5 3 5 4 2 5 4 2 4 3 1466 2 4 3 5 4 4 5 4 4 10 3 2 3 2 2 2 7 5 8 2 1 6 4 22 2 5 5 3 4 2 5 2 5 4 3 4 3 4 9 4 2 3 5 1 2 4 6 3 3 5 4 981 11 7 4 4 2 6 21 3 5 3 4 4 487 4 1 2 4 3 3 5 4 4 2 3 2 8 5 4 6 4 4 3 4 6 3 3 3 3 4 6 3 1382 4 2 3 3 240 4 2 2 2 4 6 8 2 3 3 3 4 4 2 4 3 4 3 2 2 6 491 5 187 2 3 486 4 3 3 3 5 3 2 11 3 2 3 2 2 3 3 3 3 3 29 5 5 4 191 4 3 5 5 4 5 4 3 1463 4 2 4 7 1462 5 2915 3 4 5 36 4 5 983 3 5 1 4 5 4 4 3 4 73 5 3 4 4 6 980 4 5 4 3 979 3 2 4 4 3 6 5 3 4 6 3 3 2 4 2 3 4 1939 2 3 4 488 4 4 4 3 2 3 3 2 1 404 3 4 4 3 5 3 3 3 2 3 5 3 6 8 5 6 2 1466 3 3 4 3 12 6 971 3 3 2 4 1 4 2 970 7777 3 3 4 4 2 2 3 3 3 2 3 4 3 4 2 8 5 2 3 5 3 2 8 4 4 4 3 5 2 4 5 4 6 422 4 8 4 3 2 4 3 4 2 2 3 2 4 4 2 3 981 3 2 4 8 4 3 4 4 6 3 4 5 4 979 4 2 4 2 4 3 3 2 8 5 6 3 4 4 4 2 2 6 6 3 4 4 2 4 2 3 3 3 7 3 5 4 2 6 980 4 4 3 487 5 2 6 4 3 3 4 6 3 1463 2 4 6 5 3 3 2 6 6 3 3 1465 4 2 4 3 3 3 4 3 3 6 4 3 4 5 3 1 3 5 4 4 3 4 4 2 5 4 5 204 974 3 2 4 3 9 2 4 6 3 7 2 2 384 4 6 4 4 4 4 5 3 3 4 4 5 4 3 4 2 5 4 4 5 7 6 5 5 971 3 4 3 213 3 10 5 3 4 3 7 3 2925 4 5 3 8 2 5 3 5 8 4 2 5 6 3 3 4 4 2 2 4 125 5 7 4 4 4 5 5 5 3 6 2 4 2 6 4 4 3 5 5 8 8 3 3 1 3 3 3 3 2 3 4 7 5 4 7 3 4 5 3 4 12 4 4 2 980 3 4 4 973 3 3 11 4 3 4 4 3 2 4 2 3 2 4 4 9 3 3 3 2 2 5 4 5 3 11 488 4 5 5 6 4 4 4 4 3 2 3 3 5 2 4 6 4 33 4 3 5 973 5 2 1 5 3 2 3 2 4 403 2 3 5 4 3 4 3 4 3 5 4 3 488 3 2 3 4 3 5 4 2 6 2 1229 3 4 4 4 6 1465 5 4 9 6 5 5 3 3 5 5 2 3 2 4 1463 5 6 4 4 3 3 4 4 5 8 5 3 488 3 2 5 1938 4 3 4 4 5 4 3 4 4 4 8 3 4 2 7 4 3 4 2 2 6 4 5 3 9 9 4 5 45 4 3 5 6 3 4 4 2 4 2 3 4 4 2 4 3 3 4 4 5 1464 487 5 4 10 5 5 5 4 4 7 2 4 9 3 5 5 4 4 5 5 6 7 7 3 7 4 4 6 3 3 2 3 3 4 4 4 7 491 4 4 3 2 4 4 3 3 5 3 6 3 3 5 4 3 2 2 3 4 5 11 3 4 3 3 4 6 4 8 6 4 4 4 4 4 2 3 38 4 3 5 4 4 3 2 8 3 4 17 4 92 3 7 8 5 2441 3 4 3 4 6 3 177 6 5 5 14 3 8 515 2 5 193 3 2 4 5 4 5 4 3 3 4 5 6 3 4 5 3 3 5 2 6 4 4 5 4 5 3 971 6 4 4 2 4 3 3 3 4 3 4 3 5 2 3 6 5 3 4 5 3 3 4 3 3 3 2 2 4 3 3 3 1463 3 3 6 3 6 5 2 3 5 4 3 7 1 1972 488 3 12 98 4 4 5 2 3 4 5 5 3 5 405 6 4 5 4 979 4 4 4 4 4 381 2 4 5 2 3 6 4 1466 3 6 3 4 3 9 4 3 2 10 3 5 4 4 5 4 3 5 3 2 3 2 487 10 4 5 4 5 6 2 9 5 33 3 3 3 4 6 4 7 4 3 5 4 1 4 4 8 3 6 5 3 104 6 3 4 490 5 2 3 8 3 4 4 3 4 6 5 3 3 3 9 4 5 10 93 8 7 2 3 6 3 4 5 3 4 3 6 3 3 5 4 5 4 5 485 4 3 1466 6 3 2 294 4 4 2 5 4 5 4 408 6 4 4 4 7 6 3 3 48 2 5 4 5 5 4 6 4 1 4 3 4 5 2 3 3 4 6 22 4 5 4 5 2 3 3 5 7 4 3 489 2 3 3 4 5 129 4 5 2 970 8 7 2 2 2 3 4 3 4 140 2 4 3 2 2 4 5 1047 5 34 2 3 4 1464 2 3 3 4 2 3 7 2 3 3 980 4 6 4 5 1956 4 3 4 1956 3 7 4 2 4 6 5 5 3 4 4 4 5 6 3 4 4 3 2 2 3 5 3 2 5 4 8 2 7 4 3 4 7 3 4 5 4 1 4 3 4 3 5 3 4 489 4 3 3 4 5 4 4 7 6 5 3 3 3 4 4 5 2 4 3 4 5 7 2 4 5 979 3 3 13 3 5 7 8 4 2 3 5 4 3 4 4 4 4 1466 7 2 4 3 979 3 3 3 4 2 4 982 4 3 3 5 6 2 3 3 3 6 6 4 3 6 3 6 3 5 4 4 3 5 4 5 3 4 4 4 3 7 2927 3 4 5 5 3 6 4 2 3 4 2 3 1467 3 3 9 3 5 5 3 9 3 3 4 2 6 3 6 5 3 3 3 4 4 3 4 4 4 3 5 5 3 3 2 3 6 5 5 5 4 5 4 5 3 489 1463 3 3 6 146 3 2 4 3 3 3 5 4 3 4 3 487 6 231 6 6 5 3 7 3 2 4 3 4 450 2 5 7 3 4 8 4 6 232 2 3 4 6 5 3 6 3 3 4 3 2 3 3 4 3 2 2 4 5 2 4 3 4 4 5 3 3 3 3 4 4 1 4 3 4 4 3 4 3 6 4 4 3 5 95 3 4 4 5 4 4 3 2 5 3 2 4 1465 3 3 2 2 3 8 4 5 2 3 6 3 1465 3 4 3 5 7 3 6 5 8 6 5 2 8 3 3 6 6 6 3 4 4 8 5 2 3 4 4 5 980 2 488 3 4 4 3 3 2 3 4 4 8 2 4 5 4 5 488 3 6 5 197 5 3 982 3 2 6 2 4 2 3 5 4 4 8 2 5 4 2 4 3 2 2 5 3 5 2 4 3 12 6 6 3 7 5 4 7 30 3 2 674 6 3 3 3 4 2 4 4 6 2 9 3 4 3 3 5 5 5 4 3 4 2 2 3 3 5 4 3 4 4 3 3 4 4 73 5 4 5 5 3 3 4 3 3 20463 1 2 3 4 4 4 3 4 4 4 4 2 7 4 2 91 10 3 4 4 2 3 4 339 970 6 4 6 4 6 3 8543 2 4 3 2 5 2 1 4 4 4 4 1467 4 2 3 2 4 3 3 10 4 4 2 4 4 2 3 7 4 2 2 4 1238 4 4 3 4 3 5 6 3 3 3 3 4 3 6 5 4 3 4 2 31 3 3 4 4 4 3 4 4 3 3 4 4 6 5 3 970 6 24 4 2 3 5 6 108 2 3 980 5 4 6 3 4 5 3 2 4 3 4 3 1 5 649 4 488 3 4 4 5 4 4 8 4 1381 2 5 6 3 4 6 2 2 4 3 3 5 1462 4 157 4 1464 3 2 5 2 3 4 4 6 973 3 4 3 9 4 6 6 4 4 1 3 4 4 3 5 
