
*** ChampSim Multicore Out-of-Order Simulator ***

Warmup Instructions: 50000000
Simulation Instructions: 50000000
Number of CPUs: 1
LLC sets: 2048
LLC ways: 16
Off-chip DRAM Size: 4096 MB Channels: 1 Width: 64-bit Data Rate: 6400 MT/s
CPU 0 runs ./micro_traces/srv724.trace.gz
.gz
ITLB has LRU replacement policy
DTLB has LRU replacement policy
STLB has LRU replacement policy
FDIP Prefetcher at L1I
L1I has LRU replacement policy
L1D has LRU replacement policy
Initialize SRRIP state for L2C
Initialize DRRIP state for LLC
Heartbeat_Variant_0 : 1377 0.224121 per_variant_size: 0 1377 0 0 0 0 0 0 0 
Heartbeat_Variant_1 : 1351 0.219889 per_variant_size: 0 792 559 0 0 0 0 0 0 
Heartbeat_Variant_2 : 1506 0.245117 per_variant_size: 0 734 411 194 167 0 0 0 0 
Heartbeat_Variant_3 : 0 0 per_variant_size: 0 0 0 0 0 0 0 0 0 
Heartbeat_Variant_0_evicts 0 : 5500 1 : 20 2 : 31 3 : 0 
Heartbeat_Variant_1_evicts 0 : 22 1 : 0 2 : 212 3 : 0 
Heartbeat_Variant_2_evicts 0 : 21 1 : 215 2 : 0 3 : 0 
Heartbeat_Variant_3_evicts 0 : 0 1 : 0 2 : 0 3 : 0 
Heartbeat CPU 0 instructions: 10000000 cycles: 2796543 heartbeat IPC: 3.57584 cumulative IPC: 3.57584 (Simulation time: 0 hr 2 min 31 sec) 
Heartbeat_Variant_0 : 1377 0.224121 per_variant_size: 0 1377 0 0 0 0 0 0 0 
Heartbeat_Variant_1 : 1358 0.221029 per_variant_size: 0 794 564 0 0 0 0 0 0 
Heartbeat_Variant_2 : 1509 0.245605 per_variant_size: 0 736 412 190 171 0 0 0 0 
Heartbeat_Variant_3 : 0 0 per_variant_size: 0 0 0 0 0 0 0 0 0 
Heartbeat_Variant_0_evicts 0 : 5574 1 : 2 2 : 1 3 : 0 
Heartbeat_Variant_1_evicts 0 : 1 1 : 0 2 : 195 3 : 0 
Heartbeat_Variant_2_evicts 0 : 2 1 : 196 2 : 0 3 : 0 
Heartbeat_Variant_3_evicts 0 : 0 1 : 0 2 : 0 3 : 0 
Heartbeat CPU 0 instructions: 20000002 cycles: 5592711 heartbeat IPC: 3.57632 cumulative IPC: 3.57608 (Simulation time: 0 hr 4 min 31 sec) 
Heartbeat_Variant_0 : 1377 0.224121 per_variant_size: 0 1377 0 0 0 0 0 0 0 
Heartbeat_Variant_1 : 1357 0.220866 per_variant_size: 0 791 566 0 0 0 0 0 0 
Heartbeat_Variant_2 : 1510 0.245768 per_variant_size: 0 737 412 192 169 0 0 0 0 
Heartbeat_Variant_3 : 0 0 per_variant_size: 0 0 0 0 0 0 0 0 0 
Heartbeat_Variant_0_evicts 0 : 5570 1 : 1 2 : 0 3 : 0 
Heartbeat_Variant_1_evicts 0 : 1 1 : 0 2 : 195 3 : 0 
Heartbeat_Variant_2_evicts 0 : 0 1 : 196 2 : 0 3 : 0 
Heartbeat_Variant_3_evicts 0 : 0 1 : 0 2 : 0 3 : 0 
Heartbeat CPU 0 instructions: 30000001 cycles: 8389614 heartbeat IPC: 3.57538 cumulative IPC: 3.57585 (Simulation time: 0 hr 6 min 36 sec) 
Heartbeat_Variant_0 : 1379 0.224447 per_variant_size: 0 1379 0 0 0 0 0 0 0 
Heartbeat_Variant_1 : 1359 0.221191 per_variant_size: 0 788 571 0 0 0 0 0 0 
Heartbeat_Variant_2 : 1511 0.245931 per_variant_size: 0 738 413 194 166 0 0 0 0 
Heartbeat_Variant_3 : 0 0 per_variant_size: 0 0 0 0 0 0 0 0 0 
Heartbeat_Variant_0_evicts 0 : 5614 1 : 0 2 : 2 3 : 0 
Heartbeat_Variant_1_evicts 0 : 0 1 : 0 2 : 198 3 : 0 
Heartbeat_Variant_2_evicts 0 : 1 1 : 198 2 : 0 3 : 0 
Heartbeat_Variant_3_evicts 0 : 0 1 : 0 2 : 0 3 : 0 
Heartbeat CPU 0 instructions: 40000000 cycles: 11185498 heartbeat IPC: 3.57669 cumulative IPC: 3.57606 (Simulation time: 0 hr 8 min 41 sec) 
Heartbeat_Variant_0 : 1379 0.224447 per_variant_size: 0 1379 0 0 0 0 0 0 0 
Heartbeat_Variant_1 : 1359 0.221191 per_variant_size: 0 788 571 0 0 0 0 0 0 
Heartbeat_Variant_2 : 1511 0.245931 per_variant_size: 0 738 413 192 168 0 0 0 0 
Heartbeat_Variant_3 : 0 0 per_variant_size: 0 0 0 0 0 0 0 0 0 
Heartbeat_Variant_0_evicts 0 : 5550 1 : 0 2 : 0 3 : 0 
Heartbeat_Variant_1_evicts 0 : 0 1 : 0 2 : 195 3 : 0 
Heartbeat_Variant_2_evicts 0 : 0 1 : 195 2 : 0 3 : 0 
Heartbeat_Variant_3_evicts 0 : 0 1 : 0 2 : 0 3 : 0 
Heartbeat CPU 0 instructions: 50000000 cycles: 13982626 heartbeat IPC: 3.5751 cumulative IPC: 3.57587 (Simulation time: 0 hr 10 min 46 sec) 

Warmup complete CPU 0 instructions: 50000004 cycles: 13982627 (Simulation time: 0 hr 10 min 46 sec) 

Cycle: 20000000 FTQ IN: 58240551 FTQ occupancy: 20.0618 DECODE IN: 58240481 DECODE occupancy: 52.327 ROB IN: 58240430 ROB occupancy: 315.09 ROB OUT: 58240080
Heartbeat_Variant_0 : 1382 0.224935 per_variant_size: 0 1382 0 0 0 0 0 0 0 
Heartbeat_Variant_1 : 1367 0.222493 per_variant_size: 0 786 581 0 0 0 0 0 0 
Heartbeat_Variant_2 : 1521 0.247559 per_variant_size: 0 740 417 194 170 0 0 0 0 
Heartbeat_Variant_3 : 0 0 per_variant_size: 0 0 0 0 0 0 0 0 0 
Heartbeat_Variant_0_evicts 0 : 5639 1 : 1 2 : 1 3 : 0 
Heartbeat_Variant_1_evicts 0 : 1 1 : 0 2 : 197 3 : 0 
Heartbeat_Variant_2_evicts 0 : 1 1 : 197 2 : 0 3 : 0 
Heartbeat_Variant_3_evicts 0 : 0 1 : 0 2 : 0 3 : 0 
Heartbeat CPU 0 instructions: 60000000 cycles: 21261394 heartbeat IPC: 1.37386 cumulative IPC: 1.37386 (Simulation time: 0 hr 13 min 16 sec) 
Heartbeat_Variant_0 : 1382 0.224935 per_variant_size: 0 1382 0 0 0 0 0 0 0 
Heartbeat_Variant_1 : 1367 0.222493 per_variant_size: 0 788 579 0 0 0 0 0 0 
Heartbeat_Variant_2 : 1522 0.247721 per_variant_size: 0 740 418 194 170 0 0 0 0 
Heartbeat_Variant_3 : 0 0 per_variant_size: 0 0 0 0 0 0 0 0 0 
Heartbeat_Variant_0_evicts 0 : 5544 1 : 0 2 : 0 3 : 0 
Heartbeat_Variant_1_evicts 0 : 0 1 : 0 2 : 194 3 : 0 
Heartbeat_Variant_2_evicts 0 : 0 1 : 194 2 : 0 3 : 0 
Heartbeat_Variant_3_evicts 0 : 0 1 : 0 2 : 0 3 : 0 
Heartbeat CPU 0 instructions: 70000000 cycles: 28442469 heartbeat IPC: 1.39255 cumulative IPC: 1.38314 (Simulation time: 0 hr 15 min 36 sec) 
Cycle: 30000000 FTQ IN: 13836981 FTQ occupancy: 13.2583 DECODE IN: 13836933 DECODE occupancy: 34.8136 ROB IN: 13836984 ROB occupancy: 239.636 ROB OUT: 13837136
Heartbeat_Variant_0 : 1460 0.23763 per_variant_size: 0 1460 0 0 0 0 0 0 0 
Heartbeat_Variant_1 : 1475 0.240072 per_variant_size: 0 832 643 0 0 0 0 0 0 
Heartbeat_Variant_2 : 1586 0.258138 per_variant_size: 0 759 418 222 187 0 0 0 0 
Heartbeat_Variant_3 : 0 0 per_variant_size: 0 0 0 0 0 0 0 0 0 
Heartbeat_Variant_0_evicts 0 : 5556 1 : 14 2 : 8 3 : 0 
Heartbeat_Variant_1_evicts 0 : 13 1 : 0 2 : 202 3 : 0 
Heartbeat_Variant_2_evicts 0 : 6 1 : 199 2 : 0 3 : 0 
Heartbeat_Variant_3_evicts 0 : 0 1 : 0 2 : 0 3 : 0 
Heartbeat CPU 0 instructions: 80000003 cycles: 35834355 heartbeat IPC: 1.35284 cumulative IPC: 1.37289 (Simulation time: 0 hr 18 min 2 sec) 
Cycle: 40000000 FTQ IN: 13734958 FTQ occupancy: 13.0792 DECODE IN: 13734968 DECODE occupancy: 34.2114 ROB IN: 13734908 ROB occupancy: 235.276 ROB OUT: 13734754
Heartbeat_Variant_0 : 1460 0.23763 per_variant_size: 0 1460 0 0 0 0 0 0 0 
Heartbeat_Variant_1 : 1474 0.239909 per_variant_size: 0 831 643 0 0 0 0 0 0 
Heartbeat_Variant_2 : 1587 0.258301 per_variant_size: 0 760 418 219 190 0 0 0 0 
Heartbeat_Variant_3 : 0 0 per_variant_size: 0 0 0 0 0 0 0 0 0 
Heartbeat_Variant_0_evicts 0 : 5681 1 : 0 2 : 0 3 : 0 
Heartbeat_Variant_1_evicts 0 : 0 1 : 0 2 : 197 3 : 0 
Heartbeat_Variant_2_evicts 0 : 0 1 : 198 2 : 0 3 : 0 
Heartbeat_Variant_3_evicts 0 : 0 1 : 0 2 : 0 3 : 0 
Heartbeat CPU 0 instructions: 90000000 cycles: 42996346 heartbeat IPC: 1.39626 cumulative IPC: 1.37866 (Simulation time: 0 hr 20 min 18 sec) 
Cycle: 50000000 FTQ IN: 13820623 FTQ occupancy: 13.333 DECODE IN: 13820602 DECODE occupancy: 34.9934 ROB IN: 13820642 ROB occupancy: 241.545 ROB OUT: 13820646
Heartbeat_Variant_0 : 1460 0.23763 per_variant_size: 0 1460 0 0 0 0 0 0 0 
Heartbeat_Variant_1 : 1480 0.240885 per_variant_size: 0 830 650 0 0 0 0 0 0 
Heartbeat_Variant_2 : 1591 0.258952 per_variant_size: 0 760 420 220 191 0 0 0 0 
Heartbeat_Variant_3 : 0 0 per_variant_size: 0 0 0 0 0 0 0 0 0 
Heartbeat_Variant_0_evicts 0 : 5546 1 : 0 2 : 0 3 : 0 
Heartbeat_Variant_1_evicts 0 : 1 1 : 0 2 : 194 3 : 0 
Heartbeat_Variant_2_evicts 0 : 0 1 : 194 2 : 0 3 : 0 
Heartbeat_Variant_3_evicts 0 : 0 1 : 0 2 : 0 3 : 0 
Heartbeat CPU 0 instructions: 100000001 cycles: 50259746 heartbeat IPC: 1.37677 cumulative IPC: 1.37828 (Simulation time: 0 hr 22 min 21 sec) 
Finished CPU 0 instructions: 50000001 cycles: 36277120 cumulative IPC: 1.37828 (Simulation time: 0 hr 22 min 21 sec) 

ChampSim completed all CPUs

Region of Interest Statistics

CPU 0 cumulative IPC: 1.37828 instructions: 50000001 cycles: 36277120
 Fetch stage stalled: 53.1374  Sim cycles: 36277120 fetch stall cycle: 19276702
 Empty decode stage: 33.7088  Sim cycles: 36277120 fetch stall cycle: 12228585
ITLB TOTAL     ACCESS:    5852684  HIT:    5361542  MISS:     491142  HIT %:    91.6083  MISS %:    8.39174   MPKI: 9.82284
ITLB LOAD TRANSLATION INSTRUCTION	ACCESS:    5729710  HIT:    5238568  MISS:     491142  HIT %:    91.4282  MISS %:    8.57185  MPKI: 9.82284
ITLB TRANSLATION FROM L1D PREFETCHER INSTRUCTION	ACCESS:     122974  HIT:     122974  MISS:          0  HIT %:        100  MISS %:          0  MPKI: 0

ITLB AVERAGE MISS LATENCY: 9.08026 cycles
ITLB RQ	ACCESS:    7991763	FORWARD:          0	MERGED:    1698292	TO_CACHE:    6293471

DTLB TOTAL     ACCESS:    8963821  HIT:    8488941  MISS:     474880  HIT %:    94.7023  MISS %:    5.29774   MPKI: 9.4976
DTLB LOAD TRANSLATION DATA	ACCESS:    8963821  HIT:    8488941  MISS:     474880  HIT %:    94.7023  MISS %:    5.29774  MPKI: 9.4976

DTLB AVERAGE MISS LATENCY: 9.38418 cycles
DTLB RQ	ACCESS:   13326903	FORWARD:          0	MERGED:    4325765	TO_CACHE:    9001138

STLB TOTAL     ACCESS:    1219482  HIT:    1217245  MISS:       2237  HIT %:    99.8166  MISS %:   0.183439   MPKI: 0.04474
STLB LOAD TRANSLATION INSTRUCTION	ACCESS:     491142  HIT:     490853  MISS:        289  HIT %:    99.9412  MISS %:  0.0588425  MPKI: 0.00578
STLB LOAD TRANSLATION DATA	ACCESS:     474879  HIT:     472947  MISS:       1932  HIT %:    99.5932  MISS %:    0.40684  MPKI: 0.03864
STLB TRANSLATION FROM L1D PREFETCHER DATA	ACCESS:     253461  HIT:     253445  MISS:         16  HIT %:    99.9937  MISS %: 0.00631261  MPKI: 0.00032

STLB AVERAGE MISS LATENCY: 85.5633 cycles
STLB RQ	ACCESS:    1353113	FORWARD:          0	MERGED:     133586	TO_CACHE:    1219527

STLB Hit, L1D data hit: 0
STLB Hit, L2C data hit: 0
STLB Hit, LLC data hit: 0
STLB Hit, LLC data miss: 0
STLB STLB hints to L2: 0
L1D TOTAL     ACCESS:   13078089  HIT:   11934759  MISS:    1143330  HIT %:    91.2577  MISS %:    8.74233   MPKI: 22.8666
L1D LOAD DATA	ACCESS:    6560209  HIT:    5807565  MISS:     752644  HIT %:    88.5271  MISS %:    11.4729  MPKI: 15.0529
L1D RFO DATA	ACCESS:    6183742  HIT:    5895279  MISS:     288463  HIT %:    95.3351  MISS %:    4.66486  MPKI: 5.76926
L1D PREFETCH DATA	ACCESS:     334138  HIT:     231915  MISS:     102223  HIT %:     69.407  MISS %:     30.593  MPKI: 2.04446

L1D PREFETCH  REQUESTED:     774528  ISSUED:     774528  USEFUL:      42338  USELESS:      70590
L1D USEFUL LOAD PREFETCHES:      42338 PREFETCH ISSUED TO LOWER LEVEL:     112960  ACCURACY: 37.4805
 TIMELY PREFETCHES:      42338 LATE PREFETCHES: 10689 DROPPED PREFETCHES: 2
L1D AVERAGE MISS LATENCY: 295301 cycles
L1D RQ	ACCESS:   10698198	FORWARD:          0	MERGED:    3938674	TO_CACHE:    6595371
L1D WQ	ACCESS:    6927438	FORWARD:     164499	MERGED:     195906	TO_CACHE:    6731532
L1D PQ	ACCESS:     387437	FORWARD:          0	MERGED:          0	TO_CACHE:     387091

L1D UNIQUE REGIONS ACCESSED: 0
L1D REGIONS CONFLICTS: 0
L1D Cross Page Prefetch Requests: 6003
L1D Same Page Prefetch Requests: 781301
L1D ROI Sum of L1D PQ occupancy: 4925788
L1D PREFETCHES PUSHED FROM L2C: 0
L1I TOTAL     ACCESS:    7157772  HIT:    4408420  MISS:    2749352  HIT %:    61.5893  MISS %:    38.4107   MPKI: 54.987
L1I LOAD INSTRUCTION	ACCESS:    6488035  HIT:    3738683  MISS:    2749352  HIT %:    57.6243  MISS %:    42.3757  MPKI: 54.987
L1I PREFETCH INSTRUCTION	ACCESS:     669737  HIT:     669737  MISS:          0  HIT %:        100  MISS %:          0  MPKI: 0

L1I PREFETCH  REQUESTED:    1618201  ISSUED:    1618201  USEFUL:          0  USELESS:          0
L1I USEFUL LOAD PREFETCHES:          0 PREFETCH ISSUED TO LOWER LEVEL:          0  ACCURACY: -nan
 TIMELY PREFETCHES:          0 LATE PREFETCHES: 0 DROPPED PREFETCHES: 0
L1I AVERAGE MISS LATENCY: 17.2869 cycles
L1I RQ	ACCESS:    9509251	FORWARD:          0	MERGED:    2698330	TO_CACHE:    6810921
L1I PQ	ACCESS:    1618201	FORWARD:          0	MERGED:     437359	TO_CACHE:    1180842

L1BTB TOTAL     ACCESS:    5676269  HIT:    2066349  MISS:    3609920  HIT %:    36.4033  MISS %:    63.5967   MPKI: 72.1984
L1BTB BRANCH_DIRECT_JUMP	ACCESS:     547866  HIT:     145274  MISS:     402592	AVERAGE STALL: 51.573
L1BTB BRANCH_INDIRECT	ACCESS:     182931  HIT:      66169  MISS:     116762	AVERAGE STALL: 105.009
L1BTB BRANCH_CONDITIONAL	ACCESS:    2728917  HIT:    1441858  MISS:    1287059	AVERAGE STALL: 56.9775
L1BTB BRANCH_DIRECT_CALL	ACCESS:     938110  HIT:     104730  MISS:     833380	AVERAGE STALL: 83.9336
L1BTB BRANCH_INDIRECT_CALL	ACCESS:     170181  HIT:      20581  MISS:     149600	AVERAGE STALL: 133.769
L1BTB BRANCH_RETURN	ACCESS:    1108264  HIT:     287737  MISS:     820527	AVERAGE STALL: 50.1906
L1BTB BRANCH_OTHER ACCESS:          0  HIT:          0  MISS:          0	AVERAGE STALL: -nan
L1BTB TOTAL ROB OCCUPANCY AT BTB MISS: 2.37674

L2BTB TOTAL     ACCESS:    3584541  HIT:    3523642  MISS:      60899  HIT %:    98.3011  MISS %:    1.69893   MPKI: 1.21798
L2BTB BRANCH_DIRECT_JUMP	ACCESS:     398414  HIT:     395272  MISS:       3142	AVERAGE STALL: 51.573
L2BTB BRANCH_INDIRECT	ACCESS:     106499  HIT:     103799  MISS:       2700	AVERAGE STALL: 105.009
L2BTB BRANCH_CONDITIONAL	ACCESS:    1287059  HIT:    1284163  MISS:       2896	AVERAGE STALL: 56.9775
L2BTB BRANCH_DIRECT_CALL	ACCESS:     833380  HIT:     832813  MISS:        567	AVERAGE STALL: 83.9336
L2BTB BRANCH_INDIRECT_CALL	ACCESS:     140059  HIT:     129991  MISS:      10068	AVERAGE STALL: 133.769
L2BTB BRANCH_RETURN	ACCESS:     819130  HIT:     777604  MISS:      41526	AVERAGE STALL: 50.1906
L2BTB BRANCH_OTHER ACCESS:          0  HIT:          0  MISS:          0	AVERAGE STALL: -nan
L2BTB TOTAL ROB OCCUPANCY AT BTB MISS: 140.886

L2C TOTAL     ACCESS:    4503166  HIT:    4026736  MISS:     476430  HIT %:    89.4201  MISS %:    10.5799   MPKI: 9.5286
L2C LOAD INSTRUCTION	ACCESS:    2749352  HIT:    2485411  MISS:     263941  HIT %:    90.3999  MISS %:    9.60012  MPKI: 5.27882
L2C LOAD TRANSLATION INSTRUCTION	ACCESS:        338  HIT:        106  MISS:        232  HIT %:    31.3609  MISS %:    68.6391  MPKI: 0.00464
L2C LOAD DATA	ACCESS:     741927  HIT:     666545  MISS:      75382  HIT %:    89.8397  MISS %:    10.1603  MPKI: 1.50764
L2C RFO DATA	ACCESS:     288392  HIT:     240385  MISS:      48007  HIT %:    83.3536  MISS %:    16.6464  MPKI: 0.96014
L2C PREFETCH DATA	ACCESS:     195506  HIT:     120529  MISS:      74977  HIT %:    61.6498  MISS %:    38.3502  MPKI: 1.49954
L2C WRITEBACK DATA	ACCESS:     525571  HIT:     513238  MISS:      12333  HIT %:    97.6534  MISS %:    2.34659  MPKI: 0.24666
L2C LOAD TRANSLATION DATA	ACCESS:       2051  HIT:        504  MISS:       1547  HIT %:    24.5734  MISS %:    75.4266  MPKI: 0.03094
L2C TRANSLATION FROM L1D PREFETCHER DATA	ACCESS:         29  HIT:         18  MISS:         11  HIT %:     62.069  MISS %:     37.931  MPKI: 0.00022

L2C PREFETCH  REQUESTED:      90093  ISSUED:      90093  USEFUL:       8695  USELESS:      66974
L2C USEFUL LOAD PREFETCHES:       8695 PREFETCH ISSUED TO LOWER LEVEL:      75521  ACCURACY: 11.5134
 TIMELY PREFETCHES:       8695 LATE PREFETCHES: 544 DROPPED PREFETCHES: 0
L2C AVERAGE MISS LATENCY: 40.2479 cycles
L2C RQ	ACCESS:    3782142	FORWARD:          0	MERGED:          0	TO_CACHE:    3782092
L2C WQ	ACCESS:     525571	FORWARD:         52	MERGED:          0	TO_CACHE:     525571
L2C PQ	ACCESS:     203053	FORWARD:          0	MERGED:       3472	TO_CACHE:     199579

L2C Dense regions hint from L2: 0
PSCL5 TOTAL     ACCESS:       4480  HIT:       2240  MISS:       2240  HIT %:         50  MISS %:         50   MPKI: 0.0448
PSCL5 LOAD TRANSLATION INSTRUCTION	ACCESS:       4422  HIT:       2211  MISS:       2211  HIT %:         50  MISS %:         50  MPKI: 0.04422
PSCL5 TRANSLATION FROM L1D PREFETCHER INSTRUCTION	ACCESS:         58  HIT:         29  MISS:         29  HIT %:         50  MISS %:         50  MPKI: 0.00058


PSCL4 TOTAL     ACCESS:       4273  HIT:       2128  MISS:       2145  HIT %:    49.8011  MISS %:    50.1989   MPKI: 0.0429
PSCL4 LOAD TRANSLATION INSTRUCTION	ACCESS:       2257  HIT:       2099  MISS:        158  HIT %:    92.9996  MISS %:    7.00044  MPKI: 0.00316
PSCL4 TRANSLATION FROM L1D PREFETCHER INSTRUCTION	ACCESS:         29  HIT:         29  MISS:          0  HIT %:        100  MISS %:          0  MPKI: 0
PSCL4 LOAD TRANSLATION DATA	ACCESS:       1958  HIT:          0  MISS:       1958  HIT %:          0  MISS %:        100  MPKI: 0.03916
PSCL4 TRANSLATION FROM L1D PREFETCHER DATA	ACCESS:         29  HIT:          0  MISS:         29  HIT %:          0  MISS %:        100  MPKI: 0.00058


PSCL3 TOTAL     ACCESS:       4359  HIT:       2171  MISS:       2188  HIT %:     49.805  MISS %:     50.195   MPKI: 0.04376
PSCL3 LOAD TRANSLATION INSTRUCTION	ACCESS:       2300  HIT:       2142  MISS:        158  HIT %:    93.1304  MISS %:    6.86957  MPKI: 0.00316
PSCL3 TRANSLATION FROM L1D PREFETCHER INSTRUCTION	ACCESS:         29  HIT:         29  MISS:          0  HIT %:        100  MISS %:          0  MPKI: 0
PSCL3 LOAD TRANSLATION DATA	ACCESS:       2001  HIT:          0  MISS:       2001  HIT %:          0  MISS %:        100  MPKI: 0.04002
PSCL3 TRANSLATION FROM L1D PREFETCHER DATA	ACCESS:         29  HIT:          0  MISS:         29  HIT %:          0  MISS %:        100  MPKI: 0.00058


PSCL2 TOTAL     ACCESS:       4334  HIT:       2094  MISS:       2240  HIT %:    48.3156  MISS %:    51.6844   MPKI: 0.0448
PSCL2 LOAD TRANSLATION INSTRUCTION	ACCESS:       2367  HIT:       2065  MISS:        302  HIT %:    87.2412  MISS %:    12.7588  MPKI: 0.00604
PSCL2 TRANSLATION FROM L1D PREFETCHER INSTRUCTION	ACCESS:         29  HIT:         29  MISS:          0  HIT %:        100  MISS %:          0  MPKI: 0
PSCL2 LOAD TRANSLATION DATA	ACCESS:       1909  HIT:          0  MISS:       1909  HIT %:          0  MISS %:        100  MPKI: 0.03818
PSCL2 TRANSLATION FROM L1D PREFETCHER DATA	ACCESS:         29  HIT:          0  MISS:         29  HIT %:          0  MISS %:        100  MPKI: 0.00058


LLC TOTAL     ACCESS:     534675  HIT:     502465  MISS:      32210  HIT %:    93.9758  MISS %:    6.02422   MPKI: 0.6442
LLC LOAD INSTRUCTION	ACCESS:     263941  HIT:     262655  MISS:       1286  HIT %:    99.5128  MISS %:    0.48723  MPKI: 0.02572
LLC LOAD TRANSLATION INSTRUCTION	ACCESS:        232  HIT:        174  MISS:         58  HIT %:         75  MISS %:         25  MPKI: 0.00116
LLC LOAD DATA	ACCESS:      74904  HIT:      71035  MISS:       3869  HIT %:    94.8347  MISS %:    5.16528  MPKI: 0.07738
LLC RFO DATA	ACCESS:      47936  HIT:      31961  MISS:      15975  HIT %:    66.6743  MISS %:    33.3257  MPKI: 0.3195
LLC PREFETCH DATA	ACCESS:      75520  HIT:      65088  MISS:      10432  HIT %:    86.1864  MISS %:    13.8136  MPKI: 0.20864
LLC WRITEBACK DATA	ACCESS:      70584  HIT:      70133  MISS:        451  HIT %:     99.361  MISS %:   0.638955  MPKI: 0.00902
LLC LOAD TRANSLATION DATA	ACCESS:       1547  HIT:       1408  MISS:        139  HIT %:    91.0149  MISS %:    8.98513  MPKI: 0.00278
LLC TRANSLATION FROM L1D PREFETCHER DATA	ACCESS:         11  HIT:         11  MISS:          0  HIT %:        100  MISS %:          0  MPKI: 0

LLC AVERAGE MISS LATENCY: 161.617 cycles
LLC RQ	ACCESS:     388577	FORWARD:          0	MERGED:          0	TO_CACHE:     388572
LLC WQ	ACCESS:      70584	FORWARD:          6	MERGED:          0	TO_CACHE:      70584
LLC PQ	ACCESS:      75521	FORWARD:          0	MERGED:          0	TO_CACHE:      75520

LLC Dense regions hint to LLC: 0

RAW hits: 1932074
Loads Generated: 12630271
Loads sent to L1D: 10698198
Stores Generated: 6927428
Stores sent to L1D: 6927438
Major fault: 0 Minor fault: 2623
Allocated PAGES: 2623

stream: 
stream:times selected: 1229726
stream:pref_filled: 127231
stream:pref_useful: 27840
stream:pref_late: 8202
stream:misses: 9200
stream:misses_by_poll: 0

CS: 
CS:times selected: 190223
CS:pref_filled: 68515
CS:pref_useful: 44343
CS:pref_late: 8841
CS:misses: 22090
CS:misses_by_poll: 5

CPLX: 
CPLX:times selected: 1038285
CPLX:pref_filled: 23585
CPLX:pref_useful: 7275
CPLX:pref_late: 3041
CPLX:misses: 115672
CPLX:misses_by_poll: 0

NL_L1: 
NL:times selected: 12805
NL:pref_filled: 1392
NL:pref_useful: 166
NL:pref_late: 328
NL:misses: 1580
NL:misses_by_poll: 0

total selections: 2471039
total_filled: 102223
total_useful: 42338
total_late: 22148
total_polluted: 5
total_misses_after_warmup: 787805
conflicts: 5502244

test: 119953

DRAM Statistics
 CHANNEL 0
 RQ ROW_BUFFER_HIT:      11635  ROW_BUFFER_MISS:      20105
 DBUS_CONGESTED:         14
 WQ ROW_BUFFER_HIT:       1653  ROW_BUFFER_MISS:      13564  FULL:          0

 AVG_CONGESTED_CYCLE: 5

CPU 0 Branch Prediction Accuracy: 99.8135% MPKI: 0.34118 Average ROB Occupancy at Mispredict: 184.519
Branch types
NOT_BRANCH: 40851934 81.7039%
BRANCH_DIRECT_JUMP: 547866 1.09573%
BRANCH_INDIRECT: 182931 0.365862%
BRANCH_CONDITIONAL: 6200230 12.4005%
BRANCH_DIRECT_CALL: 938110 1.87622%
BRANCH_INDIRECT_CALL: 170181 0.340362%
BRANCH_RETURN: 1108264 2.21653%
BRANCH_OTHER: 0 0%

DRAM PAGES: 1048576
Allocated PAGES: 2623
Average_ROB_Occupancy: 239.705
Average_Decode_Occupancy: 34.6068
Average_FTQ_Occupancy: 13.2194
Indirect max targets: 14 Average targets: 1.17363
Branch_type:  BRANCH_DIRECT_JUMP:  Count Percentage: 2.11367 6.3018 4.72496 9.16678 2.22832 5.96436 1.93028 67.5698 
Branch_type:  BRANCH_INDIRECT:  Count Percentage: 6.14968 3.46303 8.15364 0 1.33524 9.68531 5.20893 66.0042 
Branch_type:  BRANCH_CONDITIONAL:  Count Percentage: 22.1427 6.41835 1.81536 5.32998 1.34078 4.71233 2.9529 55.2876 
Branch_type:  BRANCH_DIRECT_CALL:  Count Percentage: 0.260062 1.98026 1.29051 4.76862 1.91012 2.82857 3.35924 83.6026 
Branch_type:  BRANCH_INDIRECT_CALL:  Count Percentage: 9.57705 0 3.00282 8.72254 0 2.55122 6.4367 69.7097 
Branch_type:  BRANCH_RETURN:  Count Percentage: 4.10787 5.43978 0.726082 6.17835 3.19337 6.017 4.68969 69.6479 
Branch_type:  BRANCH_DIRECT_JUMP:  Total Count: 23120 68931 51683 100269 24374 65240 21114 739099 
Branch_type:  BRANCH_INDIRECT:  Total Count: 22448 12641 29763 0 4874 35354 19014 240933 
Branch_type:  BRANCH_CONDITIONAL:  Total Count: 2745149 795717 225060 660786 166223 584212 366087 6854291 
Branch_type:  BRANCH_DIRECT_CALL:  Total Count: 4883 37182 24231 89537 35865 53110 63074 1569746 
Branch_type:  BRANCH_INDIRECT_CALL:  Total Count: 32659 0 10240 29745 0 8700 21950 237719 
Branch_type:  BRANCH_RETURN:  Total Count: 91172 120733 16115 137125 70875 133544 104085 1545796 
Number of unique branch instructions: 10364
Upper 32 bits: 
aaaa
ffff
ffff0000
Unique upper 32 bits: 3
Unique upper 36 bits: 3
Unique upper 40 bits: 5
Unique upper 44 bits: 32
Unique upper 48 bits: 157
Variant_0 : 1460 0.23763
Variant_1 : 1480 0.240885
Variant_2 : 1591 0.258952
Variant_3 : 0 0
Offset_3 4292
Offset_4 258
Offset_5 467
Offset_6 525
Offset_7 610
Offset_8 550
Offset_9 489
Offset_10 406
Offset_11 328
Offset_12 293
Offset_13 220
Offset_14 229
Offset_15 203
Offset_16 222
Offset_17 153
Offset_18 144
Offset_19 249
Offset_20 138
Offset_21 235
Offset_22 399
Offset_23 243
Offset_24 336
Offset_25 114
Offset_47 90
decode_dispatch_called: 25673936 70.7717
Dispatch_width: 0 13816661 53.8159 38.0864
Dispatch_width: 1 954169 3.71649 2.63022
Dispatch_width: 2 828069 3.22533 2.28262
Dispatch_width: 3 498087 1.94005 1.37301
Dispatch_width: 4 5710308 22.2417 15.7408
Dispatch_width: 5 145979 0.568588 0.4024
Dispatch_width: 6 3720663 14.492 10.2562
Empty_decode_cycles: 10603184 29.2283
ROB_full_cycles: 9075874 25.0182
Starvation_cycles_per_kilo_instr: 234.806
Starvation_cycles_per_kilo_instr_3: 176.243
Starvation_cycles_per_kilo_instr_0: 153.44
Branch_type_1  (3,1)  (4,9)  (5,38)  (6,73)  (7,122)  (8,144)  (9,132)  (10,108)  (11,75)  (12,47)  (13,11)  (14,2)  (15,3)  (16,4)  (18,1)  (19,5)  (20,2)  (21,1)  (22,3)  (23,2)  (24,10)  (25,12) 
Branch_type_2  (3,1)  (4,1)  (5,1)  (8,4)  (9,4)  (10,1)  (12,1)  (13,1)  (14,1)  (16,3)  (17,2)  (20,2)  (21,2)  (23,5)  (24,1)  (47,40) 
Branch_type_3  (3,4290)  (4,248)  (5,424)  (6,436)  (7,460)  (8,339)  (9,266)  (10,162)  (11,126)  (12,56)  (13,10)  (22,1) 
Branch_type_4  (6,3)  (7,8)  (8,25)  (9,53)  (10,64)  (11,65)  (12,103)  (13,92)  (14,102)  (15,97)  (16,97)  (17,69)  (18,61)  (19,121)  (20,71)  (21,124)  (22,208)  (23,137)  (24,192)  (25,98) 
Branch_type_5  (8,3)  (9,1)  (10,4)  (11,5)  (12,3)  (13,14)  (14,16)  (15,11)  (16,22)  (17,11)  (18,23)  (19,14)  (20,11)  (21,13)  (22,43)  (23,26)  (24,37) 
Branch_type_6  (5,4)  (6,13)  (7,20)  (8,35)  (9,33)  (10,67)  (11,57)  (12,83)  (13,92)  (14,108)  (15,92)  (16,96)  (17,71)  (18,59)  (19,109)  (20,52)  (21,95)  (22,144)  (23,73)  (24,96)  (25,4)  (47,50) 
Unique trigger count: 
Variant_0_evicts_0 : 0
Variant_0_evicts_1 : 0
Variant_0_evicts_2 : 0
Variant_0_evicts_3 : 0
Variant_1_evicts_0 : 0
Variant_1_evicts_1 : 0
Variant_1_evicts_2 : 0
Variant_1_evicts_3 : 0
Variant_2_evicts_0 : 0
Variant_2_evicts_1 : 0
Variant_2_evicts_2 : 0
Variant_2_evicts_3 : 0
Variant_3_evicts_0 : 0
Variant_3_evicts_1 : 0
Variant_3_evicts_2 : 0
Variant_3_evicts_3 : 0
BTB PER SET UNIQUE ADDR: 6 4 4 8 4 6 9 4 6 7 6 10 2 6 8 6 5 6 6 6 5 3 8 4 7 8 6 5 5 8 7 9 3 4 9 9 7 3 5 5 8 7 6 5 3 5 5 7 8 6 5 6 3 7 7 4 9 5 7 4 7 5 4 5 8 5 6 6 8 6 4 9 4 5 5 8 9 6 7 8 8 8 9 6 5 6 4 10 5 7 4 8 6 5 6 7 7 7 7 5 4 6 6 9 3 4 6 3 8 8 6 3 3 4 8 6 4 7 5 4 6 5 6 6 7 8 8 4 6 4 5 7 4 3 4 6 3 4 7 5 3 8 3 4 5 7 8 5 3 5 7 9 5 6 6 5 4 4 8 7 7 4 7 6 4 6 5 7 9 6 8 6 5 5 5 7 9 8 4 4 4 5 5 7 3 3 4 4 4 8 5 6 6 4 5 5 4 6 5 5 6 6 4 9 4 6 4 6 6 9 5 10 4 6 4 5 6 3 5 8 4 6 8 5 5 5 6 6 7 6 2 8 6 6 6 11 10 10 6 9 4 8 8 6 7 10 6 6 7 5 5 8 6 4 5 7 8 5 8 5 8 5 8 4 4 4 7 8 7 4 8 9 5 7 8 5 5 3 8 3 8 8 2 9 3 9 7 6 8 5 5 5 4 4 6 8 7 4 6 8 9 6 5 8 6 5 3 6 6 5 4 5 5 5 8 5 7 7 6 5 6 5 5 4 8 6 5 5 3 6 6 8 7 2 4 4 3 5 7 3 4 7 7 9 6 7 7 5 6 5 6 8 4 5 7 6 5 7 5 5 6 7 4 8 5 4 5 5 4 6 8 5 8 6 5 7 7 4 5 7 5 4 6 5 6 6 3 5 6 9 5 7 5 5 5 4 7 7 4 4 5 4 7 7 4 7 9 7 8 8 4 2 4 5 9 6 7 8 3 8 5 6 5 7 7 4 7 9 7 4 8 3 4 3 3 4 9 3 5 6 9 7 3 8 5 3 6 5 4 4 7 6 4 6 7 8 8 7 7 8 4 7 3 10 6 5 7 10 4 6 7 6 5 5 7 9 4 5 4 4 7 7 5 6 5 3 3 6 7 9 11 5 4 7 3 8 9 4 5 8 6 4 6 5 9 6 4 8 5 4 4 7 4 3 2 2 5 2 5 3 3 2 3 4 5 4 3 4 4 3 4 3 4 5 4 5 5 5 4 4 4 5 5 5 4 4 3 8 2 3 4 5 2 3 2 6 6 1 7 3 2 3 3 5 3 2 4 4 2 2 3 3 0 3 1 6 4 3 4 5 2 4 4 3 3 3 3 4 4 4 5 4 3 3 4 6 5 4 4 4 6 4 2 2 4 3 5 4 3 4 4 4 3 4 2 6 6 4 5 5 3 2 4 3 4 4 1 4 3 5 4 5 5 3 4 2 5 3 5 4 4 4 1 3 2 4 3 5 3 4 2 4 3 4 3 6 4 3 4 3 2 3 4 3 3 3 2 2 7 3 4 4 3 3 4 1 3 5 3 5 4 5 3 4 5 4 3 7 6 4 6 4 3 2 1 4 4 4 3 8 4 2 3 2 5 3 4 4 3 5 4 2 2 4 4 6 3 3 3 3 6 5 2 3 3 5 6 5 1 5 2 5 5 2 3 3 6 2 3 5 5 4 5 5 2 2 7 2 4 3 4 4 6 4 7 6 2 2 3 4 4 2 4 6 4 3 6 11 2 8 4 3 1 4 3 6 5 5 2 5 3 3 3 6 7 7 4 5 6 7 5 3 4 5 5 2 9 3 4 4 5 3 4 2 7 3 6 5 3 2 4 4 2 4 3 3 4 3 4 5 5 3 5 3 5 3 5 2 5 4 5 4 3 3 5 2 6 4 2 4 1 6 2 4 3 4 6 4 4 3 4 2 3 5 5 2 6 5 1 4 1 5 4 6 6 3 6 3 4 4 6 1 7 4 2 4 3 3 3 3 4 4 3 4 2 4 8 4 2 0 7 3 2 4 5 2 2 3 3 5 5 4 4 3 3 3 6 6 5 4 4 4 5 3 3 2 3 3 6 3 4 4 4 7 3 4 6 4 2 5 2 4 4 3 3 3 4 2 2 5 6 6 3 7 2 2 4 3 4 3 4 4 5 4 7 6 4 3 4 2 4 3 6 3 3 2 6 4 3 5 6 5 4 5 2 4 1 5 7 3 3 4 4 4 3 2 6 3 5 4 4 3 5 4 6 3 2 5 2 3 7 2 4 2 3 5 5 5 3 3 4 4 5 3 6 4 3 3 3 5 4 2 4 5 4 4 4 3 4 3 3 5 3 4 4 4 6 4 2 3 4 4 4 5 8 2 5 6 3 4 4 4 5 3 5 5 5 4 2 2 3 6 4 3 2 3 6 3 3 3 4 5 4 5 4 4 4 5 4 2 6 1 1 5 1 4 5 2 3 6 3 6 5 7 5 3 4 3 2 3 5 5 4 6 3 3 1 4 2 3 3 6 3 3 7 3 7 3 5 4 4 4 3 5 5 6 3 5 4 2 5 3 3 1 4 4 4 2 4 2 5 3 2 2 3 4 3 4 4 3 5 5 1 2 4 2 4 4 4 3 3 3 3 2 2 3 4 4 5 4 8 6 6 4 3 5 4 4 1 5 6 1 8 4 5 5 4 2 3 5 3 5 3 0 3 4 6 4 4 2 2 3 2 5 3 2 4 2 4 2 3 5 4 2 1 4 4 4 3 5 6 1 2 5 5 5 4 4 4 2 3 2 4 2 5 4 2 3 4 1 5 4 5 4 5 4 2 2 2 4 3 3 5 3 4 3 3 4 2 4 3 3 6 5 2 2 5 5 2 5 8 3 5 4 2 5 5 6 4 1 2 3 4 5 4 2 2 4 5 3 5 6 5 4 4 3 4 5 3 4 2 2 2 6 4 3 3 3 3 3 4 8 6 3 3 6 5 3 2 5 5 4 4 5 7 3 4 3 5 4 4 3 5 6 6 4 5 6 5 10 3 3 3 3 5 5 4 3 6 2 3 2 4 8 4 1 6 2 5 4 5 3 3 3 3 1 3 5 2 5 3 4 2 5 5 6 5 5 3 4 1 2 2 3 3 2 6 5 4 5 4 3 4 4 2 5 2 2 3 4 4 4 4 2 2 4 7 4 2 6 3 4 6 5 3 3 3 2 2 4 4 5 4 5 6 6 3 4 2 5 6 3 3 4 6 6 4 5 5 3 4 4 4 2 4 5 4 4 4 3 2 3 4 2 2 6 4 1 5 6 5 2 5 7 3 5 1 3 3 3 5 2 3 2 4 4 4 2 5 8 5 3 4 4 4 4 4 2 3 6 3 5 2 5 6 4 5 2 3 5 6 3 6 5 5 6 4 3 4 1 2 6 3 4 3 4 3 5 2 6 3 3 3 7 5 2 6 5 4 3 3 3 3 2 5 3 
BTB PER SET COUNT: 6 1468 1465 1469 5 6 9 7 7 496 48 10 2 6 726 7 5 9 6 9 5 3 12 4 611 855 7 365 12 8 7 501 3 4 10 10 8 3 6 7 10 2700 7 6 4 5 87 7 212 7 6 6 3 9 9 4 499 6 7 4 7 5 5 6 8 5 9 6 12 7 5 9 5 5 5 10 10 6 985 8 10 8 9 6 5 6 4 10 494 1957 4 13 596 7 7 7 7 14 9 5 6 6 7 9 3 4 6 3 10 2929 7 4 3 4 11 7 6 9 5 4 8 5 694 12 930 8 12 4 437 6 980 10 4 6 4 6 3 4 7 5 4 10 3 4 7 8 11 5 3 22 7 502 6 6 7 978 4 4 10 13 10 4 11 6 4 6 5 9 13 1028 11 6 5 5 5 8 10 8 4 4 4 6 5 7 164 3 5 4 4 9 5 6 6 983 6 491 4 6 5 5 13 1473 4 14 4 7 6 6 39 9 10 13 4 7 4 5 8 4 5 9 4 6 9 7 5 5 6 9 7 6 291 11 6 1385 984 16 16 15 6 9 4 10 8 496 9 10 7814 6 1468 5 6 8 7 6 5 10 10 6 9 6 8 9 12 4 4 6 86 8 1470 4 26 9 7 9 14 5 5 4 9 3 8 8 2 11 4 12 7 6 10 5 5 5 4 5 499 10 7 607 9 10 12 7 6 14 8 6 3 6 6 12 4 5 10 5 11 5 7 7 7 5 6 5 5 4 1953 8 5 9 3 6 6 8 8 2 5 4 3 5 7 3 4 7 7 11 7 8 10 5 6 5 7 10 4 6 7 6 5 7 11 165 8 124 1465 14 13255 4 102 6 4 7 8 6 1957 7 5 8 7 4 5 8 5 424 6 5 7 6 3 5 6 12 5 7 5 6 6 4 1340 7 363 4 5 348 7 7 6 9 9 72 10 8 4 2 195 5 13 6 7 68 4 8 6 6 7 8 9 454 10 9 8 4 8 981 6 3 3 4 13 7 5 8 14 9 3 8 377 3 1471 6 4 6 7 10 4 6 366 8 11 10 7 56 982 501 980 10 16 5 7 11 4 6 2313 494 5 7 9 14 4 6 4 4 10 7 5 1467 97 8 981 6 11 9 985 5 4 7 3 8 9 5 5 9 145 4 6 5 10 6 5 9 6 4 4 1401 4 3 2 2 5 2 5 3 3 4 3 5 7 4 3 5 5 3 4 3 4 6 32 7 5 93 5 4 5 5 6 5 4 1467 3 8 2 3 5 9 980 3 2 7 6 1 7 3 980 3 3 5 4 2 4 5 980 2 3 3 0 5 1 6 4 3 4 5 5 4 4 3 6 3 4 4 4 980 5 4 4 982 7 8 1466 5 5 5 8 4 980 2 4 3 982 4 3 4 4 4 3 4 2 7 1473 4 5 5 3 2 5 4 4 5 1 4 3 5 981 5 5 4 4 2 6 3 6 4 5 5 1 3 2 4 3 5 4 4 2 5 3 4 6 6 4 4 4 3 2 1464 4 3 3 3 2 2 8 3 4 5 3 2927 4 1 3 5 3 5 977 394 3 4 5 4 3 1469 7 5 6 4 3 2 1 4 7 4 3 11 4 2 3 2 7 3 4 4 3 5 6 3 2 8 4 983 979 3 3 3 7 9 2 3 5 6 7 9 1 7 2 5 8 2 3 3 8 2 3 5 7 4 5 5 3 2 2935 2 4 3 4 5 7 5 9 7 2 2 3 4 4 2 4 19 4 6 8 3308 2 8 16 3 2 4 3 6 7 7 2 5 4 3 3 7 12 7 11 7 264 7 5 3 4 5 5 2 11 3 4 4 6 4 6 4 7 4 9 5 4 8 6 4 2 4 4 4 4 3 4 5 5 3 5 3 5 3 6 2 143 493 7 4 3 4 5 2 6 4 2 4 1 979 2 5 3 4 980 4 4 3 4 2 3 10 1962 2 6 7 1 4 1 7 4 6 495 3 6 3 4 5 7 1 121 4 2 4 3 3 3 3 4 4 3 4 2 4 8 6 2 0 1468 3 2 10 7 2 2 5 3 6 5 4 4 981 4 3 6 11 6 4 4 4 5 5 3 489 3 3 7 3 547 4 5 8 3 6 1469 4 2 5 3 5 4 3 3 3 4 2 2 5 7 6 4 7 2 2 4 3 4 3 6 5 5 4 986 7 4 4 5 2 6 4 7 4 4 2 495 9 3 5 8 5 5 14 2 5 1 9 7 3 3 4 6 4 3 5 7 1015 6 4 7 4 5 4 6 3 2 1467 2 3 7 3 5 1957 3 5 5 5 1118 3 4 4 5 3 6 4 6 3 3 5 5 3 5 5 5 4 4 3 4 3 152 5 3 5 4 5 7 4 2 4 4 492 33 7 10 2 494 7 4 4 5 4 5 3 5 5 5 1465 2 3 4 6 5 3 2 3 6 3 4 3 4 413 4 5 5 4 5 5 4 7 10 1 1 978 1 4 5 2 3 6 3 9 9 10 5 3 4 3 106 3 9 10 4 2441 362 3 1 5 2 3 3 6 4 3 9 3 8 118 5 4 4 5 11 5 6 6 3 5 5 2 5 3 3 1 4 5 4 2 4 2 7 20477 2 2 3 9 3 5 5 4 5 6 1 2 4 2 4 4 6 3 3 3 3 3 2 6 5 4 6 4 496 6 6 982 3 5 5 6 3 5 1469 1 9 7 264 6 977 2 3 5 3 8 3 0 1963 491 9 5 4 2 3 3 2 6 3 2 4 2 4 2 3 5 4 3 1 5 4 5 3 5 391 1 2 5 5 6 4 6 5 2 4 3 4 2 5 4 2 9 4 2 6 12 5 6 6 4 1463 2 2 4 3 492 5 3 4 3 3 4 2 4 3 45 7 5 975 2 5 6 2 273 9 3 5 5 2 5 10 7 4 1 2 3 4 979 16 2 2 4 6 5 8 6 5 5 4 3 4 6 3 6 4 2 2 8 4 3 3 4 3 3 4 11 7 6 3 7 8 3 2 9 5 5 4 5 7 3 4 1465 6 4 4 3 6 8 6 4 7 6 5 376 3 3 3 3 5 5 15 3 7 3 3 2 4 9 4 1 6 2 6 5 9 3 3 3 3 1 3 5 3 5 3 5 2 11 13 7 6 6 3 493 1 347 2 3 3 2 8 11 4 987 5 3 4 5 2 5 2 2 3 4 6 4 4 2 3 4 8 4 2 70 3 4 6 5 3 3 3 2 2 4 4 6 4 7 10 7 4 5 4 2439 6 3 3 2924 6 7 4 12 5 3 5 7 7 2 4 6 4 4 5 3 3 4 4 2 2 7 5 1 5 6 5 3 8 7 3 1471 1 3 3 4 5 2 3 2 4 4 4 2 13 11 5 3 978 4 5 5 4 2 3 9 3 7 3 5 13 5 5 2 3 8 254 3 6 5 5 979 4 3 4 1 2 6 3 4 3 9 5 5 2 979 4 8 3 1470 5 2 7 6 977 4 3 3 4 2 5 3 
To predecode: 0
Predecoding something: 0
Predecode request dropped: 0
sizeofblock_0 0
sizeofblock_1 34543
sizeofblock_2 42994
sizeofblock_3 31597
sizeofblock_4 19134
sizeofblock_5 0
sizeofblock_6 0
sizeofblock_7 0
sizeofblock_8 0
Variant_0 Correct: 1609748 Incorrect: 0 Accuracy: 1
Variant_1 Correct: 2087374 Incorrect: 0 Accuracy: 1
Variant_2 Correct: 3637198 Incorrect: 531 Accuracy: 0.999854
Variant_3 Correct: 0 Incorrect: 0 Accuracy: -nan
