
*** ChampSim Multicore Out-of-Order Simulator ***

Warmup Instructions: 50000000
Simulation Instructions: 50000000
Number of CPUs: 1
LLC sets: 2048
LLC ways: 16
Off-chip DRAM Size: 4096 MB Channels: 1 Width: 64-bit Data Rate: 6400 MT/s
CPU 0 runs ./micro_traces/srv714.trace.gz
.gz
ITLB has LRU replacement policy
DTLB has LRU replacement policy
STLB has LRU replacement policy
FDIP Prefetcher at L1I
L1I has LRU replacement policy
L1D has LRU replacement policy
Initialize SRRIP state for L2C
Initialize DRRIP state for LLC
Heartbeat_Variant_0 : 1262 0.308105 per_variant_size: 0 1262 0 0 0 0 0 0 0 
Heartbeat_Variant_1 : 1165 0.284424 per_variant_size: 0 568 597 0 0 0 0 0 0 
Heartbeat_Variant_2 : 938 0.229004 per_variant_size: 0 521 269 107 41 0 0 0 0 
Heartbeat_Variant_3 : 720 0.175781 per_variant_size: 0 478 183 43 13 3 0 0 0 
Heartbeat_Variant_0_evicts 0 : 7940 1 : 2238 2 : 2014 3 : 1388 
Heartbeat_Variant_1_evicts 0 : 2206 1 : 0 2 : 1656 3 : 1513 
Heartbeat_Variant_2_evicts 0 : 1975 1 : 1681 2 : 0 3 : 1094 
Heartbeat_Variant_3_evicts 0 : 1397 1 : 1483 2 : 1078 3 : 0 
Heartbeat CPU 0 instructions: 10000000 cycles: 2795736 heartbeat IPC: 3.57688 cumulative IPC: 3.57688 (Simulation time: 0 hr 1 min 38 sec) 
Heartbeat_Variant_0 : 1273 0.310791 per_variant_size: 0 1273 0 0 0 0 0 0 0 
Heartbeat_Variant_1 : 1162 0.283691 per_variant_size: 0 577 585 0 0 0 0 0 0 
Heartbeat_Variant_2 : 957 0.233643 per_variant_size: 0 541 275 103 38 0 0 0 0 
Heartbeat_Variant_3 : 694 0.169434 per_variant_size: 0 453 169 55 14 3 0 0 0 
Heartbeat_Variant_0_evicts 0 : 6790 1 : 1098 2 : 827 3 : 634 
Heartbeat_Variant_1_evicts 0 : 1103 1 : 0 2 : 896 3 : 751 
Heartbeat_Variant_2_evicts 0 : 815 1 : 886 2 : 0 3 : 510 
Heartbeat_Variant_3_evicts 0 : 630 1 : 770 2 : 469 3 : 0 
Heartbeat CPU 0 instructions: 20000000 cycles: 5591153 heartbeat IPC: 3.57728 cumulative IPC: 3.57708 (Simulation time: 0 hr 3 min 17 sec) 
Heartbeat_Variant_0 : 1267 0.309326 per_variant_size: 0 1267 0 0 0 0 0 0 0 
Heartbeat_Variant_1 : 1187 0.289795 per_variant_size: 0 599 588 0 0 0 0 0 0 
Heartbeat_Variant_2 : 943 0.230225 per_variant_size: 0 525 272 100 46 0 0 0 0 
Heartbeat_Variant_3 : 690 0.168457 per_variant_size: 0 430 200 51 7 2 0 0 0 
Heartbeat_Variant_0_evicts 0 : 6938 1 : 1384 2 : 1013 3 : 829 
Heartbeat_Variant_1_evicts 0 : 1372 1 : 0 2 : 1038 3 : 965 
Heartbeat_Variant_2_evicts 0 : 1013 1 : 1004 2 : 0 3 : 653 
Heartbeat_Variant_3_evicts 0 : 847 1 : 962 2 : 633 3 : 0 
Heartbeat CPU 0 instructions: 30000002 cycles: 8385618 heartbeat IPC: 3.5785 cumulative IPC: 3.57755 (Simulation time: 0 hr 4 min 55 sec) 
Heartbeat_Variant_0 : 1270 0.310059 per_variant_size: 0 1270 0 0 0 0 0 0 0 
Heartbeat_Variant_1 : 1169 0.2854 per_variant_size: 0 581 588 0 0 0 0 0 0 
Heartbeat_Variant_2 : 947 0.231201 per_variant_size: 0 543 252 104 48 0 0 0 0 
Heartbeat_Variant_3 : 702 0.171387 per_variant_size: 0 447 194 47 10 4 0 0 0 
Heartbeat_Variant_0_evicts 0 : 6791 1 : 1053 2 : 850 3 : 630 
Heartbeat_Variant_1_evicts 0 : 1055 1 : 0 2 : 845 3 : 763 
Heartbeat_Variant_2_evicts 0 : 820 1 : 887 2 : 0 3 : 485 
Heartbeat_Variant_3_evicts 0 : 655 1 : 741 2 : 494 3 : 0 
Heartbeat CPU 0 instructions: 40000003 cycles: 11182769 heartbeat IPC: 3.57507 cumulative IPC: 3.57693 (Simulation time: 0 hr 6 min 34 sec) 
Heartbeat_Variant_0 : 1277 0.311768 per_variant_size: 0 1277 0 0 0 0 0 0 0 
Heartbeat_Variant_1 : 1165 0.284424 per_variant_size: 0 558 607 0 0 0 0 0 0 
Heartbeat_Variant_2 : 945 0.230713 per_variant_size: 0 524 275 97 49 0 0 0 0 
Heartbeat_Variant_3 : 701 0.171143 per_variant_size: 0 443 192 56 7 3 0 0 0 
Heartbeat_Variant_0_evicts 0 : 6365 1 : 829 2 : 614 3 : 441 
Heartbeat_Variant_1_evicts 0 : 809 1 : 0 2 : 627 3 : 665 
Heartbeat_Variant_2_evicts 0 : 609 1 : 596 2 : 0 3 : 361 
Heartbeat_Variant_3_evicts 0 : 459 1 : 680 2 : 327 3 : 0 
Heartbeat CPU 0 instructions: 50000001 cycles: 13979460 heartbeat IPC: 3.57565 cumulative IPC: 3.57668 (Simulation time: 0 hr 8 min 15 sec) 

Warmup complete CPU 0 instructions: 50000001 cycles: 13979460 (Simulation time: 0 hr 8 min 15 sec) 

Cycle: 20000000 FTQ IN: 57938016 FTQ occupancy: 19.2669 DECODE IN: 57937905 DECODE occupancy: 49.929 ROB IN: 57937845 ROB occupancy: 303.942 ROB OUT: 57937635
Heartbeat_Variant_0 : 1293 0.315674 per_variant_size: 0 1293 0 0 0 0 0 0 0 
Heartbeat_Variant_1 : 1180 0.288086 per_variant_size: 0 562 618 0 0 0 0 0 0 
Heartbeat_Variant_2 : 925 0.22583 per_variant_size: 0 486 283 107 49 0 0 0 0 
Heartbeat_Variant_3 : 692 0.168945 per_variant_size: 0 422 200 57 12 1 0 0 0 
Heartbeat_Variant_0_evicts 0 : 6831 1 : 1330 2 : 1072 3 : 820 
Heartbeat_Variant_1_evicts 0 : 1346 1 : 0 2 : 942 3 : 910 
Heartbeat_Variant_2_evicts 0 : 1059 1 : 920 2 : 0 3 : 610 
Heartbeat_Variant_3_evicts 0 : 801 1 : 934 2 : 596 3 : 0 
Heartbeat CPU 0 instructions: 60000001 cycles: 21517515 heartbeat IPC: 1.3266 cumulative IPC: 1.3266 (Simulation time: 0 hr 9 min 59 sec) 
Heartbeat_Variant_0 : 1276 0.311523 per_variant_size: 0 1276 0 0 0 0 0 0 0 
Heartbeat_Variant_1 : 1179 0.287842 per_variant_size: 0 559 620 0 0 0 0 0 0 
Heartbeat_Variant_2 : 947 0.231201 per_variant_size: 0 516 277 109 45 0 0 0 0 
Heartbeat_Variant_3 : 688 0.167969 per_variant_size: 0 424 190 59 14 1 0 0 0 
Heartbeat_Variant_0_evicts 0 : 6563 1 : 1064 2 : 823 3 : 600 
Heartbeat_Variant_1_evicts 0 : 1055 1 : 0 2 : 762 3 : 708 
Heartbeat_Variant_2_evicts 0 : 834 1 : 770 2 : 0 3 : 465 
Heartbeat_Variant_3_evicts 0 : 615 1 : 692 2 : 462 3 : 0 
Heartbeat CPU 0 instructions: 70000003 cycles: 29012809 heartbeat IPC: 1.33417 cumulative IPC: 1.33038 (Simulation time: 0 hr 11 min 42 sec) 
Cycle: 30000000 FTQ IN: 13390318 FTQ occupancy: 11.2406 DECODE IN: 13390407 DECODE occupancy: 28.1074 ROB IN: 13390467 ROB occupancy: 211.072 ROB OUT: 13390677
Heartbeat_Variant_0 : 1286 0.313965 per_variant_size: 0 1286 0 0 0 0 0 0 0 
Heartbeat_Variant_1 : 1172 0.286133 per_variant_size: 0 527 645 0 0 0 0 0 0 
Heartbeat_Variant_2 : 935 0.228271 per_variant_size: 0 492 267 132 44 0 0 0 0 
Heartbeat_Variant_3 : 699 0.170654 per_variant_size: 0 433 187 65 14 0 0 0 0 
Heartbeat_Variant_0_evicts 0 : 6821 1 : 1040 2 : 833 3 : 636 
Heartbeat_Variant_1_evicts 0 : 1031 1 : 0 2 : 806 3 : 775 
Heartbeat_Variant_2_evicts 0 : 831 1 : 798 2 : 0 3 : 437 
Heartbeat_Variant_3_evicts 0 : 637 1 : 783 2 : 439 3 : 0 
Heartbeat CPU 0 instructions: 80000002 cycles: 36411293 heartbeat IPC: 1.35163 cumulative IPC: 1.33739 (Simulation time: 0 hr 13 min 26 sec) 
Cycle: 40000000 FTQ IN: 13523009 FTQ occupancy: 11.0585 DECODE IN: 13523031 DECODE occupancy: 27.6586 ROB IN: 13523031 ROB occupancy: 209.088 ROB OUT: 13522841
Heartbeat_Variant_0 : 1276 0.311523 per_variant_size: 0 1276 0 0 0 0 0 0 0 
Heartbeat_Variant_1 : 1176 0.287109 per_variant_size: 0 573 603 0 0 0 0 0 0 
Heartbeat_Variant_2 : 944 0.230469 per_variant_size: 0 512 266 120 46 0 0 0 0 
Heartbeat_Variant_3 : 696 0.169922 per_variant_size: 0 439 183 59 15 0 0 0 0 
Heartbeat_Variant_0_evicts 0 : 6875 1 : 1254 2 : 1015 3 : 759 
Heartbeat_Variant_1_evicts 0 : 1264 1 : 0 2 : 916 3 : 946 
Heartbeat_Variant_2_evicts 0 : 990 1 : 922 2 : 0 3 : 602 
Heartbeat_Variant_3_evicts 0 : 784 1 : 946 2 : 574 3 : 0 
Heartbeat CPU 0 instructions: 90000000 cycles: 43931740 heartbeat IPC: 1.32971 cumulative IPC: 1.33546 (Simulation time: 0 hr 15 min 6 sec) 
Cycle: 50000000 FTQ IN: 13387032 FTQ occupancy: 11.1006 DECODE IN: 13387020 DECODE occupancy: 27.5416 ROB IN: 13386965 ROB occupancy: 206.929 ROB OUT: 13386803
Heartbeat_Variant_0 : 1276 0.311523 per_variant_size: 0 1276 0 0 0 0 0 0 0 
Heartbeat_Variant_1 : 1183 0.288818 per_variant_size: 0 581 602 0 0 0 0 0 0 
Heartbeat_Variant_2 : 942 0.22998 per_variant_size: 0 529 254 109 50 0 0 0 0 
Heartbeat_Variant_3 : 691 0.168701 per_variant_size: 0 431 197 46 17 0 0 0 0 
Heartbeat_Variant_0_evicts 0 : 6664 1 : 1042 2 : 773 3 : 625 
Heartbeat_Variant_1_evicts 0 : 1047 1 : 0 2 : 852 3 : 746 
Heartbeat_Variant_2_evicts 0 : 775 1 : 840 2 : 0 3 : 481 
Heartbeat_Variant_3_evicts 0 : 618 1 : 756 2 : 473 3 : 0 
Heartbeat CPU 0 instructions: 100000002 cycles: 51284925 heartbeat IPC: 1.35996 cumulative IPC: 1.34029 (Simulation time: 0 hr 16 min 47 sec) 
Finished CPU 0 instructions: 50000001 cycles: 37305465 cumulative IPC: 1.34029 (Simulation time: 0 hr 16 min 47 sec) 

ChampSim completed all CPUs

Region of Interest Statistics

CPU 0 cumulative IPC: 1.34029 instructions: 50000001 cycles: 37305465
 Fetch stage stalled: 58.9989  Sim cycles: 37305465 fetch stall cycle: 22009813
 Empty decode stage: 44.4915  Sim cycles: 37305465 fetch stall cycle: 16597763
ITLB TOTAL     ACCESS:    5820926  HIT:    5328781  MISS:     492145  HIT %:    91.5452  MISS %:    8.45475   MPKI: 9.8429
ITLB LOAD TRANSLATION INSTRUCTION	ACCESS:    5699925  HIT:    5207780  MISS:     492145  HIT %:    91.3658  MISS %:    8.63424  MPKI: 9.8429
ITLB TRANSLATION FROM L1D PREFETCHER INSTRUCTION	ACCESS:     121001  HIT:     121001  MISS:          0  HIT %:        100  MISS %:          0  MPKI: 0

ITLB AVERAGE MISS LATENCY: 9.05693 cycles
ITLB RQ	ACCESS:    7910692	FORWARD:          0	MERGED:    1642571	TO_CACHE:    6268121

DTLB TOTAL     ACCESS:    8996026  HIT:    8518236  MISS:     477790  HIT %:    94.6889  MISS %:    5.31112   MPKI: 9.5558
DTLB LOAD TRANSLATION DATA	ACCESS:    8996026  HIT:    8518236  MISS:     477790  HIT %:    94.6889  MISS %:    5.31112  MPKI: 9.5558

DTLB AVERAGE MISS LATENCY: 9.34207 cycles
DTLB RQ	ACCESS:   13352465	FORWARD:          0	MERGED:    4319419	TO_CACHE:    9033046

STLB TOTAL     ACCESS:    1221808  HIT:    1219601  MISS:       2207  HIT %:    99.8194  MISS %:   0.180634   MPKI: 0.04414
STLB LOAD TRANSLATION INSTRUCTION	ACCESS:     492145  HIT:     491866  MISS:        279  HIT %:    99.9433  MISS %:  0.0566906  MPKI: 0.00558
STLB LOAD TRANSLATION DATA	ACCESS:     477747  HIT:     475837  MISS:       1910  HIT %:    99.6002  MISS %:   0.399793  MPKI: 0.0382
STLB TRANSLATION FROM L1D PREFETCHER DATA	ACCESS:     251916  HIT:     251898  MISS:         18  HIT %:    99.9929  MISS %: 0.00714524  MPKI: 0.00036

STLB AVERAGE MISS LATENCY: 73.2356 cycles
STLB RQ	ACCESS:    1356154	FORWARD:          0	MERGED:     134313	TO_CACHE:    1221841

STLB Hit, L1D data hit: 0
STLB Hit, L2C data hit: 0
STLB Hit, LLC data hit: 0
STLB Hit, LLC data miss: 0
STLB STLB hints to L2: 0
L1D TOTAL     ACCESS:   13105206  HIT:   11957799  MISS:    1147407  HIT %:    91.2446  MISS %:    8.75535   MPKI: 22.9481
L1D LOAD DATA	ACCESS:    6591978  HIT:    5835182  MISS:     756796  HIT %:    88.5194  MISS %:    11.4806  MPKI: 15.1359
L1D RFO DATA	ACCESS:    6182135  HIT:    5894624  MISS:     287511  HIT %:    95.3493  MISS %:    4.65067  MPKI: 5.75022
L1D PREFETCH DATA	ACCESS:     331093  HIT:     227993  MISS:     103100  HIT %:    68.8607  MISS %:    31.1393  MPKI: 2.062

L1D PREFETCH  REQUESTED:     772750  ISSUED:     772750  USEFUL:      43476  USELESS:      70203
L1D USEFUL LOAD PREFETCHES:      43476 PREFETCH ISSUED TO LOWER LEVEL:     113756  ACCURACY: 38.2186
 TIMELY PREFETCHES:      43476 LATE PREFETCHES: 10602 DROPPED PREFETCHES: 2
L1D AVERAGE MISS LATENCY: 302688 cycles
L1D RQ	ACCESS:   10702387	FORWARD:          0	MERGED:    3910776	TO_CACHE:    6627403
L1D WQ	ACCESS:    6919153	FORWARD:     164520	MERGED:     194091	TO_CACHE:    6725062
L1D PQ	ACCESS:     386531	FORWARD:          0	MERGED:          0	TO_CACHE:     386219

L1D UNIQUE REGIONS ACCESSED: 0
L1D REGIONS CONFLICTS: 0
L1D Cross Page Prefetch Requests: 5925
L1D Same Page Prefetch Requests: 779484
L1D ROI Sum of L1D PQ occupancy: 4895637
L1D PREFETCHES PUSHED FROM L2C: 0
L1I TOTAL     ACCESS:    7129136  HIT:    4378294  MISS:    2750842  HIT %:    61.4141  MISS %:    38.5859   MPKI: 55.0168
L1I LOAD INSTRUCTION	ACCESS:    6491707  HIT:    3740865  MISS:    2750842  HIT %:    57.6253  MISS %:    42.3747  MPKI: 55.0168
L1I PREFETCH INSTRUCTION	ACCESS:     637429  HIT:     637429  MISS:          0  HIT %:        100  MISS %:          0  MPKI: 0

L1I PREFETCH  REQUESTED:    1522096  ISSUED:    1522096  USEFUL:          0  USELESS:          0
L1I USEFUL LOAD PREFETCHES:          0 PREFETCH ISSUED TO LOWER LEVEL:          0  ACCURACY: -nan
 TIMELY PREFETCHES:          0 LATE PREFETCHES: 0 DROPPED PREFETCHES: 0
L1I AVERAGE MISS LATENCY: 17.5337 cycles
L1I RQ	ACCESS:    9490959	FORWARD:          0	MERGED:    2685095	TO_CACHE:    6805864
L1I PQ	ACCESS:    1522096	FORWARD:          0	MERGED:     417268	TO_CACHE:    1104828

L1BTB TOTAL     ACCESS:    5678747  HIT:    2063664  MISS:    3615083  HIT %:    36.3401  MISS %:    63.6599   MPKI: 72.3017
L1BTB BRANCH_DIRECT_JUMP	ACCESS:     545552 HIT:     144054 MISS:     401498 AVERAGE STALL: 45.1819 AVERAGE FETCH STALL: 17.9858 AVERAGE FETCH QUEUE STALL: 14.0215 AVERAGE DECODE STALL: 12.2819 AVERAGE EXECUTE STALL: 1.26547e+15
L1BTB BRANCH_INDIRECT	ACCESS:     182027 HIT:      65598 MISS:     116429 AVERAGE STALL: 100.639 AVERAGE FETCH STALL: 11.8877 AVERAGE FETCH QUEUE STALL: 12.0118 AVERAGE DECODE STALL: 10.7226 AVERAGE EXECUTE STALL: 65.0591
L1BTB BRANCH_CONDITIONAL	ACCESS:    2723310 HIT:    1436093 MISS:    1287217 AVERAGE STALL: 50.2135 AVERAGE FETCH STALL: 22.4459 AVERAGE FETCH QUEUE STALL: 14.5531 AVERAGE DECODE STALL: 12.4759 AVERAGE EXECUTE STALL: 7.92863e+14
L1BTB BRANCH_DIRECT_CALL	ACCESS:     942385 HIT:     105808 MISS:     836577 AVERAGE STALL: 52.0299 AVERAGE FETCH STALL: 23.5194 AVERAGE FETCH QUEUE STALL: 15.0123 AVERAGE DECODE STALL: 12.7425 AVERAGE EXECUTE STALL: 8.49767e+14
L1BTB BRANCH_INDIRECT_CALL	ACCESS:     171545 HIT:      21617 MISS:     149928 AVERAGE STALL: 129.974 AVERAGE FETCH STALL: 14.7366 AVERAGE FETCH QUEUE STALL: 10.9649 AVERAGE DECODE STALL: 9.51761 AVERAGE EXECUTE STALL: 94.2471
L1BTB BRANCH_RETURN	ACCESS:    1113928 HIT:     290494 MISS:     823434 AVERAGE STALL: 45.6179 AVERAGE FETCH STALL: 17.4263 AVERAGE FETCH QUEUE STALL: 6.52668 AVERAGE DECODE STALL: 6.92014 AVERAGE EXECUTE STALL: 3.54037e+14
L1BTB BRANCH_OTHER ACCESS:          0 HIT:          0 MISS:          0 AVERAGE STALL: -nan AVERAGE FETCH STALL: -nan AVERAGE FETCH QUEUE STALL: -nan AVERAGE DECODE STALL: -nan AVERAGE EXECUTE STALL: -nan
L1BTB TOTAL ROB OCCUPANCY AT BTB MISS: 5.25895

L2BTB TOTAL     ACCESS:    3589824  HIT:    3466640  MISS:     123184  HIT %:    96.5685  MISS %:    3.43148   MPKI: 2.46368
L2BTB BRANCH_DIRECT_JUMP	ACCESS:     397364 HIT:     386887 MISS:      10477 AVERAGE STALL: 45.1819 AVERAGE FETCH STALL: 17.9858 AVERAGE FETCH QUEUE STALL: 14.0215 AVERAGE DECODE STALL: 12.2819 AVERAGE EXECUTE STALL: 1.26547e+15
L2BTB BRANCH_INDIRECT	ACCESS:     106198 HIT:     102735 MISS:       3463 AVERAGE STALL: 100.639 AVERAGE FETCH STALL: 11.8877 AVERAGE FETCH QUEUE STALL: 12.0118 AVERAGE DECODE STALL: 10.7226 AVERAGE EXECUTE STALL: 65.0591
L2BTB BRANCH_CONDITIONAL	ACCESS:    1287217 HIT:    1263592 MISS:      23625 AVERAGE STALL: 50.2135 AVERAGE FETCH STALL: 22.4459 AVERAGE FETCH QUEUE STALL: 14.5531 AVERAGE DECODE STALL: 12.4759 AVERAGE EXECUTE STALL: 7.92863e+14
L2BTB BRANCH_DIRECT_CALL	ACCESS:     836577 HIT:     814769 MISS:      21808 AVERAGE STALL: 52.0299 AVERAGE FETCH STALL: 23.5194 AVERAGE FETCH QUEUE STALL: 15.0123 AVERAGE DECODE STALL: 12.7425 AVERAGE EXECUTE STALL: 8.49767e+14
L2BTB BRANCH_INDIRECT_CALL	ACCESS:     140438 HIT:     127409 MISS:      13029 AVERAGE STALL: 129.974 AVERAGE FETCH STALL: 14.7366 AVERAGE FETCH QUEUE STALL: 10.9649 AVERAGE DECODE STALL: 9.51761 AVERAGE EXECUTE STALL: 94.2471
L2BTB BRANCH_RETURN	ACCESS:     822030 HIT:     771248 MISS:      50782 AVERAGE STALL: 45.6179 AVERAGE FETCH STALL: 17.4263 AVERAGE FETCH QUEUE STALL: 6.52668 AVERAGE DECODE STALL: 6.92014 AVERAGE EXECUTE STALL: 3.54037e+14
L2BTB BRANCH_OTHER ACCESS:          0 HIT:          0 MISS:          0 AVERAGE STALL: -nan AVERAGE FETCH STALL: -nan AVERAGE FETCH QUEUE STALL: -nan AVERAGE DECODE STALL: -nan AVERAGE EXECUTE STALL: -nan
L2BTB TOTAL ROB OCCUPANCY AT BTB MISS: 154.335

L2C TOTAL     ACCESS:    4509580  HIT:    3992964  MISS:     516616  HIT %:     88.544  MISS %:     11.456   MPKI: 10.3323
L2C LOAD INSTRUCTION	ACCESS:    2750842  HIT:    2463721  MISS:     287121  HIT %:    89.5624  MISS %:    10.4376  MPKI: 5.74242
L2C LOAD TRANSLATION INSTRUCTION	ACCESS:        314  HIT:         68  MISS:        246  HIT %:    21.6561  MISS %:    78.3439  MPKI: 0.00492
L2C LOAD DATA	ACCESS:     746183  HIT:     666469  MISS:      79714  HIT %:    89.3171  MISS %:    10.6829  MPKI: 1.59428
L2C RFO DATA	ACCESS:     287421  HIT:     230081  MISS:      57340  HIT %:    80.0502  MISS %:    19.9498  MPKI: 1.1468
L2C PREFETCH DATA	ACCESS:     198164  HIT:     124630  MISS:      73534  HIT %:    62.8924  MISS %:    37.1076  MPKI: 1.47068
L2C WRITEBACK DATA	ACCESS:     524608  HIT:     507381  MISS:      17227  HIT %:    96.7162  MISS %:    3.28379  MPKI: 0.34454
L2C LOAD TRANSLATION DATA	ACCESS:       2021  HIT:        597  MISS:       1424  HIT %:    29.5398  MISS %:    70.4602  MPKI: 0.02848
L2C TRANSLATION FROM L1D PREFETCHER DATA	ACCESS:         27  HIT:         17  MISS:         10  HIT %:     62.963  MISS %:     37.037  MPKI: 0.0002

L2C PREFETCH  REQUESTED:      93631  ISSUED:      93631  USEFUL:       9015  USELESS:      65161
L2C USEFUL LOAD PREFETCHES:       9015 PREFETCH ISSUED TO LOWER LEVEL:      74130  ACCURACY: 12.1611
 TIMELY PREFETCHES:       9015 LATE PREFETCHES: 596 DROPPED PREFETCHES: 0
L2C AVERAGE MISS LATENCY: 37.5089 cycles
L2C RQ	ACCESS:    3786855	FORWARD:          0	MERGED:          0	TO_CACHE:    3786808
L2C WQ	ACCESS:     524608	FORWARD:         47	MERGED:          0	TO_CACHE:     524608
L2C PQ	ACCESS:     207387	FORWARD:          0	MERGED:       4014	TO_CACHE:     203373

L2C Dense regions hint from L2: 0
PSCL5 TOTAL     ACCESS:       4424  HIT:       2212  MISS:       2212  HIT %:         50  MISS %:         50   MPKI: 0.04424
PSCL5 LOAD TRANSLATION INSTRUCTION	ACCESS:       4370  HIT:       2185  MISS:       2185  HIT %:         50  MISS %:         50  MPKI: 0.0437
PSCL5 TRANSLATION FROM L1D PREFETCHER INSTRUCTION	ACCESS:         54  HIT:         27  MISS:         27  HIT %:         50  MISS %:         50  MPKI: 0.00054


PSCL4 TOTAL     ACCESS:       4220  HIT:       2106  MISS:       2114  HIT %:    49.9052  MISS %:    50.0948   MPKI: 0.04228
PSCL4 LOAD TRANSLATION INSTRUCTION	ACCESS:       2802  HIT:       2079  MISS:        723  HIT %:     74.197  MISS %:     25.803  MPKI: 0.01446
PSCL4 TRANSLATION FROM L1D PREFETCHER INSTRUCTION	ACCESS:         42  HIT:         27  MISS:         15  HIT %:    64.2857  MISS %:    35.7143  MPKI: 0.0003
PSCL4 LOAD TRANSLATION DATA	ACCESS:       1364  HIT:          0  MISS:       1364  HIT %:          0  MISS %:        100  MPKI: 0.02728
PSCL4 TRANSLATION FROM L1D PREFETCHER DATA	ACCESS:         12  HIT:          0  MISS:         12  HIT %:          0  MISS %:        100  MPKI: 0.00024


PSCL3 TOTAL     ACCESS:       4320  HIT:       2156  MISS:       2164  HIT %:    49.9074  MISS %:    50.0926   MPKI: 0.04328
PSCL3 LOAD TRANSLATION INSTRUCTION	ACCESS:       2852  HIT:       2129  MISS:        723  HIT %:    74.6494  MISS %:    25.3506  MPKI: 0.01446
PSCL3 TRANSLATION FROM L1D PREFETCHER INSTRUCTION	ACCESS:         42  HIT:         27  MISS:         15  HIT %:    64.2857  MISS %:    35.7143  MPKI: 0.0003
PSCL3 LOAD TRANSLATION DATA	ACCESS:       1414  HIT:          0  MISS:       1414  HIT %:          0  MISS %:        100  MPKI: 0.02828
PSCL3 TRANSLATION FROM L1D PREFETCHER DATA	ACCESS:         12  HIT:          0  MISS:         12  HIT %:          0  MISS %:        100  MPKI: 0.00024


PSCL2 TOTAL     ACCESS:       4285  HIT:       2073  MISS:       2212  HIT %:    48.3781  MISS %:    51.6219   MPKI: 0.04424
PSCL2 LOAD TRANSLATION INSTRUCTION	ACCESS:       2330  HIT:       2046  MISS:        284  HIT %:    87.8112  MISS %:    12.1888  MPKI: 0.00568
PSCL2 TRANSLATION FROM L1D PREFETCHER INSTRUCTION	ACCESS:         27  HIT:         27  MISS:          0  HIT %:        100  MISS %:          0  MPKI: 0
PSCL2 LOAD TRANSLATION DATA	ACCESS:       1901  HIT:          0  MISS:       1901  HIT %:          0  MISS %:        100  MPKI: 0.03802
PSCL2 TRANSLATION FROM L1D PREFETCHER DATA	ACCESS:         27  HIT:          0  MISS:         27  HIT %:          0  MISS %:        100  MPKI: 0.00054


LLC TOTAL     ACCESS:     580714  HIT:     552702  MISS:      28012  HIT %:    95.1763  MISS %:    4.82372   MPKI: 0.56024
LLC LOAD INSTRUCTION	ACCESS:     287121  HIT:     285933  MISS:       1188  HIT %:    99.5862  MISS %:   0.413763  MPKI: 0.02376
LLC LOAD TRANSLATION INSTRUCTION	ACCESS:        246  HIT:        211  MISS:         35  HIT %:    85.7724  MISS %:    14.2276  MPKI: 0.0007
LLC LOAD DATA	ACCESS:      79201  HIT:      75776  MISS:       3425  HIT %:    95.6756  MISS %:    4.32444  MPKI: 0.0685
LLC RFO DATA	ACCESS:      57237  HIT:      43949  MISS:      13288  HIT %:    76.7842  MISS %:    23.2158  MPKI: 0.26576
LLC PREFETCH DATA	ACCESS:      74125  HIT:      64513  MISS:       9612  HIT %:    87.0327  MISS %:    12.9673  MPKI: 0.19224
LLC WRITEBACK DATA	ACCESS:      81350  HIT:      80982  MISS:        368  HIT %:    99.5476  MISS %:   0.452366  MPKI: 0.00736
LLC LOAD TRANSLATION DATA	ACCESS:       1424  HIT:       1328  MISS:         96  HIT %:    93.2584  MISS %:    6.74157  MPKI: 0.00192
LLC TRANSLATION FROM L1D PREFETCHER DATA	ACCESS:         10  HIT:         10  MISS:          0  HIT %:        100  MISS %:          0  MPKI: 0

LLC AVERAGE MISS LATENCY: 155.445 cycles
LLC RQ	ACCESS:     425259	FORWARD:          0	MERGED:          0	TO_CACHE:     425239
LLC WQ	ACCESS:      81350	FORWARD:         25	MERGED:          0	TO_CACHE:      81350
LLC PQ	ACCESS:      74130	FORWARD:          0	MERGED:          0	TO_CACHE:      74125

LLC Dense regions hint to LLC: 0

RAW hits: 1909463
Loads Generated: 12611850
Loads sent to L1D: 10702387
Stores Generated: 6919135
Stores sent to L1D: 6919153
Major fault: 0 Minor fault: 2606
Allocated PAGES: 2606

stream: 
stream:times selected: 1223272
stream:pref_filled: 125637
stream:pref_useful: 27449
stream:pref_late: 8997
stream:misses: 9204
stream:misses_by_poll: 0

CS: 
CS:times selected: 188802
CS:pref_filled: 70008
CS:pref_useful: 45698
CS:pref_late: 8573
CS:misses: 20969
CS:misses_by_poll: 6

CPLX: 
CPLX:times selected: 1033311
CPLX:pref_filled: 23228
CPLX:pref_useful: 6921
CPLX:pref_late: 3460
CPLX:misses: 119697
CPLX:misses_by_poll: 0

NL_L1: 
NL:times selected: 12640
NL:pref_filled: 1420
NL:pref_useful: 125
NL:pref_late: 284
NL:misses: 1620
NL:misses_by_poll: 0

total selections: 2458025
total_filled: 103100
total_useful: 43476
total_late: 23296
total_polluted: 6
total_misses_after_warmup: 792222
conflicts: 5526139

test: 118403

DRAM Statistics
 CHANNEL 0
 RQ ROW_BUFFER_HIT:      10222  ROW_BUFFER_MISS:      17392
 DBUS_CONGESTED:         12
 WQ ROW_BUFFER_HIT:       1370  ROW_BUFFER_MISS:      11431  FULL:          0

 AVG_CONGESTED_CYCLE: 6

CPU 0 Branch Prediction Accuracy: 99.8128% MPKI: 0.3428 Average ROB Occupancy at Mispredict: 162.954
Branch types
NOT_BRANCH: 40843605 81.6872%
BRANCH_DIRECT_JUMP: 545552 1.0911%
BRANCH_INDIRECT: 182027 0.364054%
BRANCH_CONDITIONAL: 6201004 12.402%
BRANCH_DIRECT_CALL: 942385 1.88477%
BRANCH_INDIRECT_CALL: 171545 0.34309%
BRANCH_RETURN: 1113928 2.22786%
BRANCH_OTHER: 0 0%

DRAM PAGES: 1048576
Allocated PAGES: 2606
Average_ROB_Occupancy: 208.883
Average_Decode_Occupancy: 27.5648
Average_FTQ_Occupancy: 11.0493
Indirect max targets: 14 Average targets: 1.17296
Branch_type:  BRANCH_DIRECT_JUMP:  Count Percentage: 4.13146 5.06703 4.34755 7.19121 3.29683 6.33824 1.50324 68.1244 
Branch_type:  BRANCH_INDIRECT:  Count Percentage: 11.7616 3.38966 2.50461 9.68306 3.35121 2.81474 0.938063 65.557 
Branch_type:  BRANCH_CONDITIONAL:  Count Percentage: 29.586 2.20044 1.52847 4.02408 2.02068 4.2665 0.495612 55.8783 
Branch_type:  BRANCH_DIRECT_CALL:  Count Percentage: 0.388191 1.78932 0.725925 3.43508 3.20006 2.61695 0.725872 87.1186 
Branch_type:  BRANCH_INDIRECT_CALL:  Count Percentage: 9.55006 0 2.99423 0.000874228 1.13766 1.71494 0.995163 83.6071 
Branch_type:  BRANCH_RETURN:  Count Percentage: 10.4368 1.51259 1.1582 3.42735 4.26649 4.83221 0.589292 73.777 
Branch_type:  BRANCH_DIRECT_JUMP:  Total Count: 45065 55270 47422 78440 35961 69136 16397 743085 
Branch_type:  BRANCH_INDIRECT:  Total Count: 42818 12340 9118 35251 12200 10247 3415 238659 
Branch_type:  BRANCH_CONDITIONAL:  Total Count: 3667712 272784 189481 498857 250500 528910 61440 6927114 
Branch_type:  BRANCH_DIRECT_CALL:  Total Count: 7309 33690 13668 64677 60252 49273 13667 1640302 
Branch_type:  BRANCH_INDIRECT_CALL:  Total Count: 32772 0 10275 3 3904 5885 3415 286906 
Branch_type:  BRANCH_RETURN:  Total Count: 232419 33684 25792 76324 95011 107609 13123 1642949 
Number of unique branch instructions: 11196
Upper 32 bits: 
aaaa
ffff
ffff0000
Unique upper 32 bits: 3
Unique upper 36 bits: 3
Unique upper 40 bits: 5
Unique upper 44 bits: 32
Unique upper 48 bits: 160
Variant_0 : 1276 0.311523
Variant_1 : 1183 0.288818
Variant_2 : 942 0.22998
Variant_3 : 691 0.168701
Offset_3 4624
Offset_4 274
Offset_5 506
Offset_6 569
Offset_7 655
Offset_8 597
Offset_9 563
Offset_10 460
Offset_11 366
Offset_12 325
Offset_13 241
Offset_14 260
Offset_15 213
Offset_16 260
Offset_17 176
Offset_18 152
Offset_19 270
Offset_20 146
Offset_21 241
Offset_22 425
Offset_23 241
Offset_24 373
Offset_25 114
Offset_47 90
decode_dispatch_called: 23474455 62.925
Dispatch_width: 0 12421146 52.9135 33.2958
Dispatch_width: 1 790028 3.36548 2.11773
Dispatch_width: 2 716276 3.0513 1.92003
Dispatch_width: 3 449786 1.91607 1.20568
Dispatch_width: 4 3976770 16.9408 10.66
Dispatch_width: 5 201711 0.859279 0.540701
Dispatch_width: 6 4918738 20.9536 13.185
Empty_decode_cycles: 13831010 37.075
ROB_full_cycles: 6375545 17.0901
Starvation_cycles_per_kilo_instr: 260.112
Starvation_cycles_per_kilo_instr_3: 218.327
Starvation_cycles_per_kilo_instr_0: 198.766
Branch_type_1  (3,1)  (4,10)  (5,40)  (6,80)  (7,127)  (8,153)  (9,147)  (10,118)  (11,79)  (12,55)  (13,12)  (14,2)  (15,3)  (16,4)  (18,1)  (19,5)  (20,2)  (21,1)  (22,3)  (23,2)  (24,10)  (25,12) 
Branch_type_2  (3,1)  (4,1)  (5,1)  (8,4)  (9,4)  (10,1)  (12,1)  (13,1)  (14,1)  (16,3)  (17,2)  (20,2)  (21,2)  (23,5)  (24,1)  (47,40) 
Branch_type_3  (3,4622)  (4,263)  (5,461)  (6,471)  (7,494)  (8,366)  (9,305)  (10,183)  (11,146)  (12,62)  (13,11) 
Branch_type_4  (6,4)  (7,8)  (8,28)  (9,65)  (10,76)  (11,75)  (12,114)  (13,102)  (14,119)  (15,102)  (16,119)  (17,80)  (18,65)  (19,130)  (20,75)  (21,127)  (22,224)  (23,136)  (24,223)  (25,98) 
Branch_type_5  (8,4)  (9,1)  (10,4)  (11,5)  (12,3)  (13,14)  (14,16)  (15,12)  (16,22)  (17,13)  (18,23)  (19,14)  (20,11)  (21,13)  (22,45)  (23,26)  (24,38) 
Branch_type_6  (5,4)  (6,14)  (7,26)  (8,42)  (9,41)  (10,78)  (11,61)  (12,90)  (13,101)  (14,122)  (15,96)  (16,112)  (17,81)  (18,63)  (19,121)  (20,56)  (21,98)  (22,153)  (23,72)  (24,101)  (25,4)  (47,50) 
Unique trigger count: 
Variant_0_evicts_0 : 0
Variant_0_evicts_1 : 0
Variant_0_evicts_2 : 0
Variant_0_evicts_3 : 0
Variant_1_evicts_0 : 0
Variant_1_evicts_1 : 0
Variant_1_evicts_2 : 0
Variant_1_evicts_3 : 0
Variant_2_evicts_0 : 0
Variant_2_evicts_1 : 0
Variant_2_evicts_2 : 0
Variant_2_evicts_3 : 0
Variant_3_evicts_0 : 0
Variant_3_evicts_1 : 0
Variant_3_evicts_2 : 0
Variant_3_evicts_3 : 0
BTB PER SET UNIQUE ADDR: 18 26 22 27 25 25 17 25 17 23 19 27 27 18 26 17 18 22 21 27 22 18 25 23 19 27 24 26 22 21 22 25 26 14 16 23 21 25 17 17 21 17 23 27 20 12 29 16 24 23 28 21 23 26 20 12 20 17 20 23 22 30 23 25 24 23 24 18 30 24 23 21 25 18 19 12 15 26 22 31 25 14 21 30 27 24 27 20 19 40 22 15 25 20 12 27 15 20 28 29 32 30 22 20 23 19 21 24 13 18 18 33 24 22 20 13 24 23 20 25 24 17 21 19 24 21 12 23 33 18 20 29 21 28 19 29 16 28 22 30 19 26 22 23 24 21 27 18 16 21 23 27 17 22 17 30 27 25 27 26 26 22 27 28 21 24 25 17 27 18 21 26 22 21 24 20 21 20 22 26 17 22 21 25 28 27 17 23 27 21 26 17 17 31 23 15 16 19 21 25 27 25 21 23 15 22 23 26 19 19 20 28 20 25 22 25 22 24 18 37 13 25 16 23 17 24 31 28 16 29 20 11 22 28 23 28 28 19 21 15 23 22 28 26 21 21 22 23 25 23 31 26 27 19 26 28 17 16 20 19 24 19 8 20 20 15 19 19 15 21 20 22 18 12 15 19 22 26 21 22 17 23 17 18 27 18 19 35 32 27 27 19 23 27 17 27 22 24 26 23 22 23 21 34 25 33 28 21 30 22 22 28 20 35 23 18 28 24 22 28 21 27 18 19 27 30 23 19 20 16 21 29 16 22 20 25 18 20 18 37 22 22 15 26 27 30 18 24 23 21 24 23 26 20 24 28 22 27 19 17 20 30 18 30 24 23 14 22 23 23 25 16 23 25 19 31 25 28 21 25 22 23 17 14 20 23 28 27 24 23 35 16 24 30 16 17 21 19 29 20 20 21 22 23 27 26 25 23 20 22 25 19 18 26 21 24 24 29 38 30 18 26 26 25 28 20 25 18 21 21 29 21 20 23 29 27 26 21 22 25 27 17 15 27 34 19 17 24 27 24 26 36 25 16 31 33 25 28 18 29 18 21 18 27 31 20 20 22 25 27 25 25 26 23 23 32 27 30 17 24 34 26 21 25 16 29 36 28 28 23 19 27 20 19 19 21 28 26 20 28 20 31 20 33 24 21 18 30 29 27 21 30 25 22 22 26 20 29 16 16 17 24 23 16 24 31 39 16 16 31 28 27 24 23 26 32 22 25 26 24 27 19 27 24 27 30 15 26 17 22 21 34 24 23 19 24 23 26 31 28 21 31 24 23 22 31 19 22 25 28 28 24 26 34 24 29 29 29 21 22 27 27 16 22 26 26 23 23 34 25 21 22 25 15 26 17 14 22 23 18 23 20 25 13 22 26 33 23 17 23 33 25 23 20 12 32 15 29 21 25 31 26 18 19 19 31 23 30 18 24 19 27 31 26 23 23 26 27 20 25 22 25 26 34 24 27 18 26 36 17 17 24 18 19 30 23 24 23 26 19 22 12 27 30 21 25 18 21 19 22 25 21 20 24 30 20 26 27 27 31 20 27 20 30 27 23 20 26 24 26 22 25 20 13 14 21 17 26 20 25 13 27 25 34 13 21 20 17 22 15 21 21 19 22 20 18 29 25 21 29 22 23 20 21 21 18 22 23 21 22 26 21 22 21 22 25 24 31 35 18 19 21 21 25 30 31 23 25 21 19 24 21 23 24 17 24 33 22 20 18 21 14 15 22 26 27 16 25 22 29 23 25 21 17 24 17 27 20 23 30 14 27 23 20 24 21 16 25 20 17 17 14 26 25 23 31 22 20 26 23 35 24 33 27 35 22 24 24 21 19 22 33 31 32 18 27 33 30 13 27 24 32 17 25 25 22 19 23 24 26 22 29 25 22 19 26 23 23 28 24 26 23 21 23 24 26 21 36 21 25 23 19 18 20 31 31 29 28 28 30 22 23 21 24 30 15 23 18 31 19 19 28 26 21 25 14 21 23 19 22 27 14 22 27 25 23 28 20 23 21 25 18 18 19 21 26 31 22 19 18 22 24 26 28 14 23 19 26 22 32 21 22 23 24 26 24 36 21 26 26 24 26 19 25 20 19 13 29 18 17 29 34 32 19 21 30 21 21 25 28 18 32 23 20 19 25 26 27 20 26 21 24 19 25 21 25 25 22 25 22 25 24 25 28 29 19 28 24 19 27 25 25 28 21 27 20 33 31 31 33 20 30 25 21 23 32 37 20 26 21 27 26 25 23 24 19 21 26 30 23 29 30 18 22 28 27 18 30 22 24 27 25 24 17 19 20 15 20 9 17 20 30 22 14 
BTB PER SET COUNT: 713 226 1871 195 277 130 828 109 767 160 110 515 14743 1527 99 109 479 875 388 189 150 207 306 225 94 135 130 169 324 245 233 216 199 64 80 712 131 198 92 712 72 87 202 419 406 96 280 108 459 325 172 514 187 175 148 265 150 122 150 175 98 453 252 155 196 302 147 830 203 176 232 397 165 135 90 90 91 581 137 240 314 89 159 462 185 1060 149 121 102 311 138 737 207 235 59 158 169 233 219 3029 307 504 144 140 1051 86 133 199 839 565 107 258 601 154 125 309 117 205 1316 160 447 103 129 97 127 217 48 182 336 440 138 745 94 192 155 174 1028 187 149 173 108 649 124 124 102 163 304 199 74 243 174 203 1170 117 90 294 794 217 197 222 126 343 269 144 1190 211 116 110 186 420 116 177 149 153 169 1041 156 116 363 337 97 240 945 166 331 233 93 124 359 873 166 71 88 216 143 66 112 166 120 144 235 168 632 126 73 147 203 237 969 494 104 212 113 5739 123 490 124 173 1075 300 71 155 223 127 147 124 172 224 432 222 109 41 123 228 539 4971 360 131 245 85 126 152 216 298 181 350 87 125 130 130 176 124 166 97 140 268 171 150 107 157 321 95 24 219 123 55 98 110 1047 128 95 204 338 65 275 72 121 164 96 298 63 166 544 657 152 100 115 209 218 175 155 82 136 675 91 239 394 144 170 443 113 102 180 236 108 213 273 178 297 371 467 178 100 253 1523 225 185 159 154 235 95 1014 87 141 266 288 278 89 131 112 139 287 97 105 96 177 102 274 70 379 119 1326 62 233 307 146 102 184 131 153 312 322 204 144 122 222 105 236 307 139 101 198 89 172 129 1114 57 116 150 134 156 90 169 194 393 253 182 163 305 841 386 117 586 65 91 94 580 216 227 631 264 73 183 347 84 86 86 131 240 821 126 143 201 136 224 187 161 394 126 182 197 70 93 356 121 146 158 727 410 196 111 196 175 127 206 119 590 98 151 299 213 151 98 123 323 202 131 532 125 135 348 77 100 165 1048 413 397 161 207 121 685 968 157 99 227 367 219 208 97 169 120 104 128 586 238 182 3730 147 104 195 154 170 176 153 134 228 109 373 69 178 210 365 158 145 76 338 249 163 348 241 291 260 1672 127 100 197 763 615 156 191 124 262 122 356 117 122 71 286 193 173 279 586 619 491 143 210 82 237 111 70 64 194 145 178 117 285 632 1257 94 600 228 125 180 128 150 245 599 843 165 295 161 106 164 170 175 479 64 139 95 982 86 175 862 169 139 146 115 138 233 187 131 222 109 187 352 217 120 132 136 680 270 97 140 276 617 199 237 268 128 135 165 173 63 2716 200 189 379 127 302 165 671 122 110 82 156 91 1257 221 225 82 105 141 155 47 172 106 183 808 83 141 221 849 159 89 43 179 49 205 331 430 236 111 57 300 100 193 104 484 1043 131 90 260 523 212 105 279 145 567 112 369 184 155 228 316 404 206 407 216 435 80 69 191 80 143 612 570 164 117 314 180 161 59 170 218 911 213 94 967 1424 152 134 135 482 181 622 272 158 187 216 177 124 199 633 225 493 150 95 189 187 173 111 131 175 62 1701 187 160 1388 119 157 322 198 196 205 61 166 117 128 129 102 290 338 330 157 314 255 345 816 100 637 152 921 127 487 226 86 133 188 991 463 245 3497 145 130 100 422 228 233 316 82 488 97 597 181 346 195 666 155 128 175 1634 112 836 558 233 184 223 1180 131 84 144 88 54 206 794 237 58 298 100 158 169 226 355 65 151 143 194 240 109 269 1045 188 669 87 143 262 93 159 101 111 209 683 146 159 945 424 147 104 170 410 327 163 325 268 466 133 150 136 98 142 141 2977 244 204 184 490 256 291 65 792 173 449 71 196 465 118 130 165 207 431 151 228 207 116 373 624 155 292 211 370 186 311 149 145 1046 153 194 253 119 2536 609 368 71 133 677 218 485 183 228 187 549 117 126 130 479 91 162 78 198 118 148 217 186 110 124 64 115 109 1236 138 184 79 259 252 149 312 194 112 174 119 179 326 529 1277 63 194 268 138 174 129 161 173 165 631 81 182 100 186 268 360 192 321 160 231 173 630 809 697 170 191 149 631 159 525 81 139 34 185 101 106 218 232 438 133 108 648 130 172 600 178 115 1021 168 112 125 140 163 194 132 246 221 841 1087 3119 184 184 228 137 197 217 213 211 463 173 228 105 865 163 91 176 228 502 175 150 658 171 249 160 342 251 603 233 352 326 107 623 744 411 174 124 216 1363 250 525 374 146 102 1611 177 328 206 826 126 143 161 208 119 220 116 156 448 233 211 107 126 156 124 390 46 83 169 720 154 91 
To predecode: 0
Predecoding something: 0
Predecode request dropped: 0
sizeofblock_0 0
sizeofblock_1 131170
sizeofblock_2 68631
sizeofblock_3 18319
sizeofblock_4 3318
sizeofblock_5 603
sizeofblock_6 0
sizeofblock_7 0
sizeofblock_8 0
Variant_0 Correct: 1568020 Incorrect: 0 Accuracy: 1
Variant_1 Correct: 2042978 Incorrect: 0 Accuracy: 1
Variant_2 Correct: 1884844 Incorrect: 0 Accuracy: 1
Variant_3 Correct: 1697260 Incorrect: 7326 Accuracy: 0.995702
