
*** ChampSim Multicore Out-of-Order Simulator ***

Warmup Instructions: 50000000
Simulation Instructions: 50000000
Number of CPUs: 1
LLC sets: 2048
LLC ways: 16
Off-chip DRAM Size: 4096 MB Channels: 1 Width: 64-bit Data Rate: 6400 MT/s
CPU 0 runs ./micro_traces/srv79.trace.gz
.gz
ITLB has LRU replacement policy
DTLB has LRU replacement policy
STLB has LRU replacement policy
FDIP Prefetcher at L1I
L1I has LRU replacement policy
L1D has LRU replacement policy
Initialize SRRIP state for L2C
Initialize DRRIP state for LLC
Heartbeat CPU 0 instructions: 10000003 cycles: 2789689 heartbeat IPC: 3.58463 cumulative IPC: 3.58463 (Simulation time: 0 hr 1 min 41 sec) 
Heartbeat CPU 0 instructions: 20000003 cycles: 5580318 heartbeat IPC: 3.58342 cumulative IPC: 3.58403 (Simulation time: 0 hr 3 min 19 sec) 
Heartbeat CPU 0 instructions: 30000001 cycles: 8371629 heartbeat IPC: 3.58255 cumulative IPC: 3.58353 (Simulation time: 0 hr 4 min 56 sec) 
Heartbeat CPU 0 instructions: 40000003 cycles: 11161233 heartbeat IPC: 3.58474 cumulative IPC: 3.58383 (Simulation time: 0 hr 6 min 32 sec) 
Heartbeat CPU 0 instructions: 50000000 cycles: 13949915 heartbeat IPC: 3.58592 cumulative IPC: 3.58425 (Simulation time: 0 hr 8 min 9 sec) 

Warmup complete CPU 0 instructions: 50000004 cycles: 13949916 (Simulation time: 0 hr 8 min 9 sec) 

Cycle: 20000000 FTQ IN: 58404633 FTQ occupancy: 20.1789 DECODE IN: 58404532 DECODE occupancy: 52.7591 ROB IN: 58404472 ROB occupancy: 317.43 ROB OUT: 58404124
Heartbeat CPU 0 instructions: 60000002 cycles: 21149140 heartbeat IPC: 1.38904 cumulative IPC: 1.38904 (Simulation time: 0 hr 9 min 59 sec) 
Heartbeat CPU 0 instructions: 70000003 cycles: 28339179 heartbeat IPC: 1.39081 cumulative IPC: 1.38993 (Simulation time: 0 hr 11 min 51 sec) 
Cycle: 30000000 FTQ IN: 13974844 FTQ occupancy: 13.9448 DECODE IN: 13974934 DECODE occupancy: 36.5307 ROB IN: 13974994 ROB occupancy: 248.8 ROB OUT: 13975320
Heartbeat CPU 0 instructions: 80000002 cycles: 35527310 heartbeat IPC: 1.39118 cumulative IPC: 1.39034 (Simulation time: 0 hr 13 min 41 sec) 
Cycle: 40000000 FTQ IN: 13942878 FTQ occupancy: 13.9478 DECODE IN: 13942776 DECODE occupancy: 36.5999 ROB IN: 13942716 ROB occupancy: 248.153 ROB OUT: 13942386
Heartbeat CPU 0 instructions: 90000003 cycles: 42616365 heartbeat IPC: 1.41063 cumulative IPC: 1.39536 (Simulation time: 0 hr 15 min 38 sec) 
Heartbeat CPU 0 instructions: 100000002 cycles: 49856853 heartbeat IPC: 1.38112 cumulative IPC: 1.39249 (Simulation time: 0 hr 18 min 50 sec) 
Finished CPU 0 instructions: 50000002 cycles: 35906938 cumulative IPC: 1.39249 (Simulation time: 0 hr 18 min 50 sec) 

ChampSim completed all CPUs

Region of Interest Statistics

CPU 0 cumulative IPC: 1.39249 instructions: 50000002 cycles: 35906938
 Fetch stage stalled: 50.2183  Sim cycles: 35906938 fetch stall cycle: 18031852
 Empty decode stage: 30.5482  Sim cycles: 35906938 fetch stall cycle: 10968922
ITLB TOTAL     ACCESS:    5857936  HIT:    5414283  MISS:     443653  HIT %:    92.4265  MISS %:    7.57354   MPKI: 8.87306
ITLB LOAD TRANSLATION INSTRUCTION	ACCESS:    5721986  HIT:    5278333  MISS:     443653  HIT %:    92.2465  MISS %:    7.75348  MPKI: 8.87306
ITLB TRANSLATION FROM L1D PREFETCHER INSTRUCTION	ACCESS:     135950  HIT:     135950  MISS:          0  HIT %:        100  MISS %:          0  MPKI: 0

ITLB AVERAGE MISS LATENCY: 9.08293 cycles
ITLB RQ	ACCESS:    7871967	FORWARD:          0	MERGED:    1615026	TO_CACHE:    6256941

DTLB TOTAL     ACCESS:    8820422  HIT:    8356209  MISS:     464213  HIT %:    94.7371  MISS %:    5.26293   MPKI: 9.28426
DTLB LOAD TRANSLATION DATA	ACCESS:    8820422  HIT:    8356209  MISS:     464213  HIT %:    94.7371  MISS %:    5.26293  MPKI: 9.28426

DTLB AVERAGE MISS LATENCY: 9.4289 cycles
DTLB RQ	ACCESS:   13125422	FORWARD:          0	MERGED:    4266505	TO_CACHE:    8858917

STLB TOTAL     ACCESS:    1207125  HIT:    1204262  MISS:       2863  HIT %:    99.7628  MISS %:   0.237175   MPKI: 0.05726
STLB LOAD TRANSLATION INSTRUCTION	ACCESS:     443653  HIT:     443210  MISS:        443  HIT %:    99.9001  MISS %:  0.0998528  MPKI: 0.00886
STLB LOAD TRANSLATION DATA	ACCESS:     464213  HIT:     461823  MISS:       2390  HIT %:    99.4852  MISS %:    0.51485  MPKI: 0.0478
STLB TRANSLATION FROM L1D PREFETCHER DATA	ACCESS:     299259  HIT:     299229  MISS:         30  HIT %:      99.99  MISS %:  0.0100248  MPKI: 0.0006

STLB AVERAGE MISS LATENCY: 72.0003 cycles
STLB RQ	ACCESS:    1383132	FORWARD:          0	MERGED:     175930	TO_CACHE:    1207202

STLB Hit, L1D data hit: 0
STLB Hit, L2C data hit: 0
STLB Hit, LLC data hit: 0
STLB Hit, LLC data miss: 0
STLB STLB hints to L2: 0
L1D TOTAL     ACCESS:   12974871  HIT:   11888922  MISS:    1085949  HIT %:    91.6304  MISS %:    8.36963   MPKI: 21.719
L1D LOAD DATA	ACCESS:    6504710  HIT:    5803914  MISS:     700796  HIT %:    89.2263  MISS %:    10.7737  MPKI: 14.0159
L1D RFO DATA	ACCESS:    6072456  HIT:    5797238  MISS:     275218  HIT %:    95.4678  MISS %:    4.53224  MPKI: 5.50436
L1D PREFETCH DATA	ACCESS:     397705  HIT:     287770  MISS:     109935  HIT %:    72.3577  MISS %:    27.6423  MPKI: 2.1987

L1D PREFETCH  REQUESTED:     950906  ISSUED:     950906  USEFUL:      56641  USELESS:      71513
L1D USEFUL LOAD PREFETCHES:      56641 PREFETCH ISSUED TO LOWER LEVEL:     128182  ACCURACY: 44.188
 TIMELY PREFETCHES:      56641 LATE PREFETCHES: 18209 DROPPED PREFETCHES: 41
L1D AVERAGE MISS LATENCY: 538731 cycles
L1D RQ	ACCESS:   10620453	FORWARD:          0	MERGED:    3926911	TO_CACHE:    6543215
L1D WQ	ACCESS:    6762969	FORWARD:     150701	MERGED:     180762	TO_CACHE:    6582207
L1D PQ	ACCESS:     475640	FORWARD:          0	MERGED:          0	TO_CACHE:     475266

L1D UNIQUE REGIONS ACCESSED: 0
L1D REGIONS CONFLICTS: 0
L1D Cross Page Prefetch Requests: 10527
L1D Same Page Prefetch Requests: 955405
L1D ROI Sum of L1D PQ occupancy: 6041345
L1D PREFETCHES PUSHED FROM L2C: 0
L1I TOTAL     ACCESS:    7084965  HIT:    4585597  MISS:    2499368  HIT %:    64.7229  MISS %:    35.2771   MPKI: 49.9874
L1I LOAD INSTRUCTION	ACCESS:    6383801  HIT:    3884433  MISS:    2499368  HIT %:    60.8483  MISS %:    39.1517  MPKI: 49.9874
L1I PREFETCH INSTRUCTION	ACCESS:     701164  HIT:     701164  MISS:          0  HIT %:        100  MISS %:          0  MPKI: 0

L1I PREFETCH  REQUESTED:    1625783  ISSUED:    1625783  USEFUL:          0  USELESS:          0
L1I USEFUL LOAD PREFETCHES:          0 PREFETCH ISSUED TO LOWER LEVEL:          0  ACCURACY: -nan
 TIMELY PREFETCHES:          0 LATE PREFETCHES: 0 DROPPED PREFETCHES: 0
L1I AVERAGE MISS LATENCY: 17.8336 cycles
L1I RQ	ACCESS:    9491193	FORWARD:          0	MERGED:    2796453	TO_CACHE:    6694740
L1I PQ	ACCESS:    1625783	FORWARD:          0	MERGED:     448556	TO_CACHE:    1177227

L1BTB TOTAL     ACCESS:    5848301  HIT:    2467112  MISS:    3381189  HIT %:    42.1851  MISS %:    57.8149   MPKI: 67.6238
L1BTB BRANCH_DIRECT_JUMP	ACCESS:     590736  HIT:     199707  MISS:     391029	AVERAGE STALL: 48.0103
L1BTB BRANCH_INDIRECT	ACCESS:     172946  HIT:      57154  MISS:     115792	AVERAGE STALL: 107.255
L1BTB BRANCH_CONDITIONAL	ACCESS:    3000561  HIT:    1794310  MISS:    1206251	AVERAGE STALL: 71.0909
L1BTB BRANCH_DIRECT_CALL	ACCESS:     882992  HIT:     107923  MISS:     775069	AVERAGE STALL: 103.951
L1BTB BRANCH_INDIRECT_CALL	ACCESS:     159042  HIT:      20139  MISS:     138903	AVERAGE STALL: 131.394
L1BTB BRANCH_RETURN	ACCESS:    1042024  HIT:     287879  MISS:     754145	AVERAGE STALL: 49.6372
L1BTB BRANCH_OTHER ACCESS:          0  HIT:          0  MISS:          0	AVERAGE STALL: -nan
L1BTB TOTAL ROB OCCUPANCY AT BTB MISS: 1.90543

L2BTB TOTAL     ACCESS:    3355861  HIT:    3312803  MISS:      43058  HIT %:    98.7169  MISS %:    1.28307   MPKI: 0.86116
L2BTB BRANCH_DIRECT_JUMP	ACCESS:     385927  HIT:     383148  MISS:       2779	AVERAGE STALL: 48.0103
L2BTB BRANCH_INDIRECT	ACCESS:     105994  HIT:     103533  MISS:       2461	AVERAGE STALL: 107.255
L2BTB BRANCH_CONDITIONAL	ACCESS:    1206251  HIT:    1206161  MISS:         90	AVERAGE STALL: 71.0909
L2BTB BRANCH_DIRECT_CALL	ACCESS:     775069  HIT:     775003  MISS:         66	AVERAGE STALL: 103.951
L2BTB BRANCH_INDIRECT_CALL	ACCESS:     129483  HIT:     120129  MISS:       9354	AVERAGE STALL: 131.394
L2BTB BRANCH_RETURN	ACCESS:     753137  HIT:     724829  MISS:      28308	AVERAGE STALL: 49.6372
L2BTB BRANCH_OTHER ACCESS:          0  HIT:          0  MISS:          0	AVERAGE STALL: -nan
L2BTB TOTAL ROB OCCUPANCY AT BTB MISS: 149.627

L2C TOTAL     ACCESS:    4156565  HIT:    3615552  MISS:     541013  HIT %:    86.9841  MISS %:    13.0159   MPKI: 10.8203
L2C LOAD INSTRUCTION	ACCESS:    2499369  HIT:    2214834  MISS:     284535  HIT %:    88.6157  MISS %:    11.3843  MPKI: 5.6907
L2C LOAD TRANSLATION INSTRUCTION	ACCESS:        517  HIT:        165  MISS:        352  HIT %:    31.9149  MISS %:    68.0851  MPKI: 0.00704
L2C LOAD DATA	ACCESS:     682411  HIT:     587922  MISS:      94489  HIT %:    86.1537  MISS %:    13.8463  MPKI: 1.88978
L2C RFO DATA	ACCESS:     275152  HIT:     216706  MISS:      58446  HIT %:    78.7586  MISS %:    21.2414  MPKI: 1.16892
L2C PREFETCH DATA	ACCESS:     217117  HIT:     128727  MISS:      88390  HIT %:    59.2892  MISS %:    40.7108  MPKI: 1.7678
L2C WRITEBACK DATA	ACCESS:     479273  HIT:     466508  MISS:      12765  HIT %:    97.3366  MISS %:    2.66341  MPKI: 0.2553
L2C LOAD TRANSLATION DATA	ACCESS:       2638  HIT:        654  MISS:       1984  HIT %:    24.7915  MISS %:    75.2085  MPKI: 0.03968
L2C TRANSLATION FROM L1D PREFETCHER DATA	ACCESS:         88  HIT:         36  MISS:         52  HIT %:    40.9091  MISS %:    59.0909  MPKI: 0.00104

L2C PREFETCH  REQUESTED:      99125  ISSUED:      99125  USEFUL:      11264  USELESS:      77891
L2C USEFUL LOAD PREFETCHES:      11264 PREFETCH ISSUED TO LOWER LEVEL:      89150  ACCURACY: 12.6349
 TIMELY PREFETCHES:      11264 LATE PREFETCHES: 760 DROPPED PREFETCHES: 0
L2C AVERAGE MISS LATENCY: 41.2802 cycles
L2C RQ	ACCESS:    3460381	FORWARD:          0	MERGED:          0	TO_CACHE:    3460178
L2C WQ	ACCESS:     479273	FORWARD:        206	MERGED:          0	TO_CACHE:     479273
L2C PQ	ACCESS:     227307	FORWARD:          0	MERGED:       3502	TO_CACHE:     223802

L2C Dense regions hint from L2: 0
PSCL5 TOTAL     ACCESS:       5808  HIT:       2904  MISS:       2904  HIT %:         50  MISS %:         50   MPKI: 0.05808
PSCL5 LOAD TRANSLATION INSTRUCTION	ACCESS:       5652  HIT:       2826  MISS:       2826  HIT %:         50  MISS %:         50  MPKI: 0.05652
PSCL5 TRANSLATION FROM L1D PREFETCHER INSTRUCTION	ACCESS:        156  HIT:         78  MISS:         78  HIT %:         50  MISS %:         50  MPKI: 0.00156


PSCL4 TOTAL     ACCESS:       5383  HIT:       2684  MISS:       2699  HIT %:    49.8607  MISS %:    50.1393   MPKI: 0.05398
PSCL4 LOAD TRANSLATION INSTRUCTION	ACCESS:       2767  HIT:       2609  MISS:        158  HIT %:    94.2898  MISS %:    5.71016  MPKI: 0.00316
PSCL4 TRANSLATION FROM L1D PREFETCHER INSTRUCTION	ACCESS:         75  HIT:         75  MISS:          0  HIT %:        100  MISS %:          0  MPKI: 0
PSCL4 LOAD TRANSLATION DATA	ACCESS:       2466  HIT:          0  MISS:       2466  HIT %:          0  MISS %:        100  MPKI: 0.04932
PSCL4 TRANSLATION FROM L1D PREFETCHER DATA	ACCESS:         75  HIT:          0  MISS:         75  HIT %:          0  MISS %:        100  MPKI: 0.0015


PSCL3 TOTAL     ACCESS:       5685  HIT:       2835  MISS:       2850  HIT %:    49.8681  MISS %:    50.1319   MPKI: 0.057
PSCL3 LOAD TRANSLATION INSTRUCTION	ACCESS:       2917  HIT:       2759  MISS:        158  HIT %:    94.5835  MISS %:    5.41652  MPKI: 0.00316
PSCL3 TRANSLATION FROM L1D PREFETCHER INSTRUCTION	ACCESS:         76  HIT:         76  MISS:          0  HIT %:        100  MISS %:          0  MPKI: 0
PSCL3 LOAD TRANSLATION DATA	ACCESS:       2616  HIT:          0  MISS:       2616  HIT %:          0  MISS %:        100  MPKI: 0.05232
PSCL3 TRANSLATION FROM L1D PREFETCHER DATA	ACCESS:         76  HIT:          0  MISS:         76  HIT %:          0  MISS %:        100  MPKI: 0.00152


PSCL2 TOTAL     ACCESS:       5490  HIT:       2594  MISS:       2896  HIT %:    47.2495  MISS %:    52.7505   MPKI: 0.05792
PSCL2 LOAD TRANSLATION INSTRUCTION	ACCESS:       2968  HIT:       2526  MISS:        442  HIT %:    85.1078  MISS %:    14.8922  MPKI: 0.00884
PSCL2 TRANSLATION FROM L1D PREFETCHER INSTRUCTION	ACCESS:         68  HIT:         68  MISS:          0  HIT %:        100  MISS %:          0  MPKI: 0
PSCL2 LOAD TRANSLATION DATA	ACCESS:       2386  HIT:          0  MISS:       2386  HIT %:          0  MISS %:        100  MPKI: 0.04772
PSCL2 TRANSLATION FROM L1D PREFETCHER DATA	ACCESS:         68  HIT:          0  MISS:         68  HIT %:          0  MISS %:        100  MPKI: 0.00136


LLC TOTAL     ACCESS:     612498  HIT:     573078  MISS:      39420  HIT %:    93.5641  MISS %:    6.43594   MPKI: 0.7884
LLC LOAD INSTRUCTION	ACCESS:     284535  HIT:     283277  MISS:       1258  HIT %:    99.5579  MISS %:   0.442125  MPKI: 0.02516
LLC LOAD TRANSLATION INSTRUCTION	ACCESS:        352  HIT:        313  MISS:         39  HIT %:    88.9205  MISS %:    11.0795  MPKI: 0.00078
LLC LOAD DATA	ACCESS:      93760  HIT:      88826  MISS:       4934  HIT %:    94.7376  MISS %:    5.26237  MPKI: 0.09868
LLC RFO DATA	ACCESS:      58413  HIT:      39500  MISS:      18913  HIT %:    67.6219  MISS %:    32.3781  MPKI: 0.37826
LLC PREFETCH DATA	ACCESS:      89150  HIT:      75424  MISS:      13726  HIT %:    84.6035  MISS %:    15.3965  MPKI: 0.27452
LLC WRITEBACK DATA	ACCESS:      84252  HIT:      83837  MISS:        415  HIT %:    99.5074  MISS %:    0.49257  MPKI: 0.0083
LLC LOAD TRANSLATION DATA	ACCESS:       1984  HIT:       1852  MISS:        132  HIT %:    93.3468  MISS %:    6.65323  MPKI: 0.00264
LLC TRANSLATION FROM L1D PREFETCHER DATA	ACCESS:         52  HIT:         49  MISS:          3  HIT %:    94.2308  MISS %:    5.76923  MPKI: 6e-05

LLC AVERAGE MISS LATENCY: 163.572 cycles
LLC RQ	ACCESS:     439098	FORWARD:          0	MERGED:          0	TO_CACHE:     439096
LLC WQ	ACCESS:      84252	FORWARD:          2	MERGED:          0	TO_CACHE:      84252
LLC PQ	ACCESS:      89150	FORWARD:          0	MERGED:          0	TO_CACHE:      89150

LLC Dense regions hint to LLC: 0

RAW hits: 1832332
Loads Generated: 12452785
Loads sent to L1D: 10620453
Stores Generated: 6762963
Stores sent to L1D: 6762969
Major fault: 0 Minor fault: 2610
Allocated PAGES: 2610

stream: 
stream:times selected: 1487905
stream:pref_filled: 129341
stream:pref_useful: 30768
stream:pref_late: 10964
stream:misses: 13124
stream:misses_by_poll: 0

CS: 
CS:times selected: 237197
CS:pref_filled: 86796
CS:pref_useful: 62316
CS:pref_late: 10877
CS:misses: 29220
CS:misses_by_poll: 21

CPLX: 
CPLX:times selected: 1248532
CPLX:pref_filled: 28654
CPLX:pref_useful: 9527
CPLX:pref_late: 5030
CPLX:misses: 149970
CPLX:misses_by_poll: 4

NL_L1: 
NL:times selected: 28819
NL:pref_filled: 2109
NL:pref_useful: 1066
NL:pref_late: 658
NL:misses: 3782
NL:misses_by_poll: 0

total selections: 3002453
total_filled: 109935
total_useful: 56641
total_late: 30638
total_polluted: 25
total_misses_after_warmup: 739304
conflicts: 5219581

test: 175271

DRAM Statistics
 CHANNEL 0
 RQ ROW_BUFFER_HIT:      13694  ROW_BUFFER_MISS:      25307
 DBUS_CONGESTED:          8
 WQ ROW_BUFFER_HIT:       2156  ROW_BUFFER_MISS:      18607  FULL:          0

 AVG_CONGESTED_CYCLE: 5

CPU 0 Branch Prediction Accuracy: 99.7585% MPKI: 0.44248 Average ROB Occupancy at Mispredict: 186.692
Branch types
NOT_BRANCH: 40840378 81.6808%
BRANCH_DIRECT_JUMP: 590736 1.18147%
BRANCH_INDIRECT: 172946 0.345892%
BRANCH_CONDITIONAL: 6311827 12.6237%
BRANCH_DIRECT_CALL: 882992 1.76598%
BRANCH_INDIRECT_CALL: 159042 0.318084%
BRANCH_RETURN: 1042024 2.08405%
BRANCH_OTHER: 0 0%

DRAM PAGES: 1048576
Allocated PAGES: 2610
Average_ROB_Occupancy: 248.66
Average_Decode_Occupancy: 36.3832
Average_FTQ_Occupancy: 13.8923
Indirect max targets: 14 Average targets: 1.17197
Branch_type:  BRANCH_DIRECT_JUMP:  Count Percentage: 10.3881 5.72462 3.62126 9.64655 4.07949 2.2458 1.42888 62.8653 
Branch_type:  BRANCH_INDIRECT:  Count Percentage: 0.0101631 1.16178 9.19758 10.6721 3.53443 2.94497 3.14678 69.3322 
Branch_type:  BRANCH_CONDITIONAL:  Count Percentage: 30.1053 3.09705 1.38659 4.43828 2.04892 1.95796 0.999226 55.9667 
Branch_type:  BRANCH_DIRECT_CALL:  Count Percentage: 0.830482 1.28119 0.595563 4.36289 2.12053 2.19902 1.0544 87.5559 
Branch_type:  BRANCH_INDIRECT_CALL:  Count Percentage: 8.72089 0 2.97616 0.000939346 0 2.18617 3.39323 82.7226 
Branch_type:  BRANCH_RETURN:  Count Percentage: 8.41812 1.20196 1.18069 4.02828 3.56167 3.35821 1.4241 76.827 
Branch_type:  BRANCH_DIRECT_JUMP:  Total Count: 122305 67399 42635 113574 48030 26441 16823 740146 
Branch_type:  BRANCH_INDIRECT:  Total Count: 35 4001 31675 36753 12172 10142 10837 238769 
Branch_type:  BRANCH_CONDITIONAL:  Total Count: 3795871 390497 174830 559608 258342 246873 125989 7056654 
Branch_type:  BRANCH_DIRECT_CALL:  Total Count: 14717 22704 10554 77315 37578 38969 18685 1551582 
Branch_type:  BRANCH_INDIRECT_CALL:  Total Count: 27852 0 9505 3 0 6982 10837 264192 
Branch_type:  BRANCH_RETURN:  Total Count: 176135 25149 24704 84285 74522 70265 29797 1607475 
Number of unique branch instructions: 10677
Upper 32 bits: 
aaaa
ffff
ffff0000
Unique upper 32 bits: 3
Unique upper 36 bits: 3
Unique upper 40 bits: 5
Unique upper 44 bits: 32
Unique upper 48 bits: 158
Offset_3 4406
Offset_4 261
Offset_5 487
Offset_6 539
Offset_7 638
Offset_8 578
Offset_9 511
Offset_10 404
Offset_11 343
Offset_12 311
Offset_13 246
Offset_14 247
Offset_15 199
Offset_16 228
Offset_17 166
Offset_18 144
Offset_19 258
Offset_20 144
Offset_21 239
Offset_22 410
Offset_23 241
Offset_24 352
Offset_25 117
Offset_47 94
Offset_64 2
decode_dispatch_called: 26044846 72.5343
Dispatch_width: 0 13932593 53.4946 38.802
Dispatch_width: 1 1019705 3.91519 2.83986
Dispatch_width: 2 882122 3.38693 2.45669
Dispatch_width: 3 508651 1.95298 1.41658
Dispatch_width: 4 6195859 23.7892 17.2553
Dispatch_width: 5 128832 0.494654 0.358794
Dispatch_width: 6 3377084 12.9664 9.4051
Empty_decode_cycles: 9862092 27.4657
ROB_full_cycles: 9801747 27.2976
Starvation_cycles_per_kilo_instr: 227.281
Starvation_cycles_per_kilo_instr_3: 164.034
Starvation_cycles_per_kilo_instr_0: 139.929
Branch_type_1  (3,1)  (4,10)  (5,38)  (6,72)  (7,124)  (8,153)  (9,134)  (10,99)  (11,77)  (12,48)  (13,12)  (14,2)  (15,3)  (16,4)  (18,1)  (19,5)  (20,2)  (21,1)  (22,3)  (23,2)  (24,10)  (25,12)  (64,1) 
Branch_type_2  (3,1)  (4,1)  (5,1)  (8,3)  (9,4)  (10,1)  (12,1)  (13,1)  (14,1)  (16,3)  (17,2)  (20,2)  (21,2)  (23,5)  (24,1)  (47,43) 
Branch_type_3  (3,4404)  (4,250)  (5,444)  (6,451)  (7,483)  (8,356)  (9,279)  (10,165)  (11,131)  (12,58)  (13,11)  (64,1) 
Branch_type_4  (6,3)  (7,8)  (8,25)  (9,56)  (10,66)  (11,69)  (12,114)  (13,104)  (14,113)  (15,94)  (16,100)  (17,76)  (18,61)  (19,126)  (20,73)  (21,127)  (22,215)  (23,136)  (24,206)  (25,101) 
Branch_type_5  (8,3)  (9,1)  (10,4)  (11,5)  (12,3)  (13,14)  (14,16)  (15,11)  (16,22)  (17,11)  (18,23)  (19,14)  (20,11)  (21,13)  (22,43)  (23,26)  (24,38) 
Branch_type_6  (5,4)  (6,13)  (7,23)  (8,38)  (9,37)  (10,69)  (11,61)  (12,87)  (13,104)  (14,115)  (15,91)  (16,99)  (17,77)  (18,59)  (19,113)  (20,56)  (21,96)  (22,149)  (23,72)  (24,97)  (25,4)  (47,51) 
Unique trigger count: 
BTB PER SET UNIQUE ADDR: 3 2 4 4 3 2 2 5 2 7 4 4 3 4 2 4 3 4 2 2 3 2 2 4 5 6 3 5 3 3 5 2 3 4 3 2 4 2 3 3 4 6 4 3 4 3 2 4 5 3 4 5 4 4 3 3 3 2 3 6 5 5 3 5 3 3 3 3 3 6 4 4 4 3 4 4 4 3 5 6 6 4 4 4 3 3 3 5 5 5 3 4 5 4 3 2 4 3 3 3 2 4 3 3 4 5 3 4 3 4 5 4 4 5 4 2 3 3 3 4 4 7 4 4 4 4 3 4 4 4 5 3 4 3 4 5 2 1 3 4 3 3 3 4 3 4 3 3 5 4 6 3 4 3 4 6 4 3 5 6 2 3 3 4 2 3 4 4 5 4 4 4 6 4 4 4 3 4 4 3 3 2 4 3 3 3 3 4 4 3 3 3 5 3 4 3 5 3 5 3 5 4 3 3 1 3 2 4 3 8 4 4 4 3 4 5 5 3 4 4 4 5 4 3 4 3 4 3 7 4 3 4 5 3 2 4 4 3 4 3 5 4 5 5 3 3 2 4 5 5 4 5 4 3 4 5 5 5 3 4 6 4 3 4 3 2 5 3 3 6 2 6 6 4 4 4 5 4 3 4 3 4 4 6 4 4 3 4 5 4 3 5 4 4 5 3 6 3 3 4 4 3 4 2 3 5 3 3 5 4 3 2 4 2 3 3 4 3 3 5 3 3 4 4 4 8 3 3 3 6 2 5 4 4 3 4 4 4 4 4 3 4 5 3 4 3 1 4 4 5 3 3 4 4 3 4 5 4 4 2 5 4 3 4 3 4 4 4 3 3 3 5 4 3 3 4 4 6 4 3 4 4 2 5 6 5 4 4 4 4 3 3 4 5 4 5 4 4 2 3 5 3 3 4 3 4 3 5 4 2 2 4 2 4 4 3 4 4 3 2 2 4 3 5 5 5 3 6 1 5 4 3 3 4 4 1 2 3 4 4 4 2 5 4 3 3 3 3 4 6 4 2 4 4 4 5 4 4 4 3 4 4 3 4 2 4 4 4 3 4 3 5 4 4 5 4 3 3 4 4 5 3 3 5 2 4 2 5 5 5 5 4 4 3 5 4 3 3 4 4 4 3 4 4 3 3 2 3 3 3 2 3 4 5 3 3 5 4 5 5 5 5 2 4 3 4 2 5 4 4 2 3 4 4 3 2 3 3 5 3 3 4 5 6 2 3 3 4 3 2 5 5 3 4 4 3 5 2 4 2 5 4 4 4 5 3 2 2 3 4 3 3 3 1 3 3 5 4 2 4 2 4 4 4 3 4 3 4 4 4 2 4 4 5 5 4 5 4 3 2 4 4 3 3 5 3 5 4 3 4 4 2 3 3 2 2 6 5 3 5 4 2 5 4 4 5 3 4 3 4 3 4 4 4 5 3 4 5 4 4 5 6 2 4 5 3 2 3 2 3 3 3 3 3 3 4 3 3 5 3 4 4 2 5 5 4 4 4 5 5 3 5 3 4 4 4 3 5 4 4 3 3 2 4 4 3 3 5 3 3 4 5 3 4 4 4 4 4 3 4 3 4 4 3 4 6 4 3 2 3 4 3 4 5 4 4 4 3 5 4 4 4 3 3 3 3 5 3 3 5 3 4 6 4 6 5 3 4 2 5 4 5 5 6 4 3 3 2 4 4 4 6 5 3 4 3 4 3 3 3 4 5 3 4 3 5 4 4 4 5 5 3 3 4 4 5 4 4 2 4 5 5 3 4 4 2 3 5 5 3 3 4 5 4 4 3 5 4 4 5 4 4 4 2 5 4 4 5 3 3 2 3 2 5 2 4 5 2 5 6 4 4 6 4 3 4 5 2 3 3 5 4 2 5 4 3 5 4 2 4 5 3 3 2 6 3 4 5 4 4 3 3 3 3 5 6 4 2 2 3 4 6 3 4 6 3 4 7 4 5 4 3 4 3 4 4 5 3 2 5 4 6 4 3 6 4 4 6 3 1 5 3 3 2 3 5 3 3 3 3 3 3 5 3 3 5 3 2 2 2 4 4 4 4 3 5 5 3 4 4 3 3 5 3 3 5 3 4 4 4 3 4 3 3 2 4 4 2 2 5 3 4 3 5 4 4 3 4 4 5 5 4 3 4 4 4 4 4 2 3 3 4 4 3 5 3 5 3 4 5 4 5 3 4 3 4 3 4 4 4 3 4 3 4 4 3 6 3 3 4 3 4 3 3 5 4 3 3 4 4 6 2 6 3 5 5 4 3 3 4 3 3 3 4 4 3 4 3 3 4 3 3 3 4 5 4 4 5 4 2 4 4 3 2 4 5 4 5 4 3 3 4 4 3 4 5 5 4 3 3 4 4 4 4 4 3 5 3 4 3 5 4 6 2 2 3 3 4 6 4 4 3 4 4 5 5 6 5 5 6 4 2 4 2 3 2 5 3 4 3 4 3 3 5 3 5 3 4 3 3 6 4 5 5 3 4 4 4 4 4 3 4 4 4 4 4 5 4 5 4 4 4 2 3 5 4 4 3 2 2 2 5 7 3 4 4 3 2 2 4 4 4 6 4 4 3 2 3 5 4 4 4 3 3 3 3 3 3 4 4 4 5 4 3 3 3 3 6 4 5 4 3 3 5 2 2 3 4 2 5 3 3 6 4 3 4 4 3 4 3 5 4 3 2 3 5 5 5 4 4 3 3 3 4 4 3 4 4 4 4 4 4 3 4 3 4 3 3 6 4 7 3 4 4 4 5 3 7 4 2 5 3 2 4 4 4 4 4 4 3 4 4 5 4 3 3 4 3 4 4 3 3 4 6 5 3 4 4 2 5 4 4 4 4 4 2 4 4 4 4 4 3 4 3 5 4 3 4 4 4 3 4 5 4 4 5 3 5 3 5 4 4 4 5 5 4 4 5 4 3 3 3 4 4 5 3 3 3 3 3 5 5 5 4 4 6 4 5 3 5 4 3 4 4 4 3 5 4 6 3 3 7 5 3 3 5 5 4 4 3 3 4 4 5 5 4 4 4 4 4 6 6 5 4 4 5 3 3 6 4 3 5 3 5 3 5 5 5 4 4 3 4 2 3 3 2 4 5 3 4 4 2 5 4 3 4 4 4 3 2 5 5 4 3 2 3 3 4 4 4 5 4 4 2 4 3 3 5 4 5 3 4 5 5 4 4 3 4 3 4 3 3 3 3 4 5 4 4 4 5 8 3 3 2 4 5 3 3 4 4 4 3 4 4 5 3 6 3 3 6 4 4 3 3 4 4 2 2 4 5 4 4 4 4 4 4 5 4 5 5 6 2 4 4 4 3 5 3 5 5 4 6 3 5 5 3 4 4 4 6 3 4 3 4 4 4 4 4 3 4 3 4 3 4 3 4 3 3 4 3 5 4 5 4 2 5 4 5 2 5 3 3 4 5 3 3 4 4 4 4 3 3 5 3 5 4 3 4 3 4 5 3 4 3 2 4 5 4 4 4 4 4 2 3 3 3 4 4 4 2 5 4 3 3 3 4 6 3 3 5 8 3 3 4 4 3 4 2 4 5 3 3 4 4 4 4 3 3 3 3 4 2 3 4 3 3 2 3 3 4 5 4 4 5 3 2 3 3 3 3 4 5 4 4 4 4 4 5 3 4 3 5 5 5 1 3 5 3 3 4 4 4 2 4 3 4 3 2 7 4 2 4 4 3 3 4 4 3 5 3 4 4 3 4 4 2 5 3 4 4 3 3 3 5 4 4 3 5 5 4 5 3 2 4 5 5 2 4 4 3 4 3 3 3 1 4 3 3 5 4 3 4 2 2 3 4 4 4 2 4 3 4 4 4 2 5 3 3 4 4 4 4 3 4 3 4 3 2 2 4 2 2 4 3 2 4 6 4 4 3 4 3 6 4 5 4 4 4 3 5 5 4 4 4 3 5 4 3 6 4 4 4 4 3 4 4 3 3 4 5 3 4 3 5 3 3 3 4 3 3 4 3 3 4 3 4 5 3 4 5 3 3 4 3 3 4 5 1 3 4 2 4 2 3 5 4 3 3 3 6 4 3 4 3 4 3 6 4 4 4 3 3 4 4 5 3 3 3 2 4 1 3 3 6 4 4 3 5 4 4 3 4 4 2 5 4 4 4 4 4 4 3 4 4 3 3 3 4 3 4 4 4 4 6 4 4 5 5 5 4 2 3 4 3 2 3 3 3 5 2 3 2 4 4 3 4 5 5 5 3 3 5 4 3 3 3 3 3 4 2 3 4 3 5 4 4 4 6 4 3 3 2 3 2 4 5 6 1 4 3 4 3 4 3 4 5 3 4 3 2 3 4 4 3 3 4 3 3 4 5 3 2 4 6 3 3 3 4 4 3 5 3 3 3 4 4 4 3 5 4 3 4 3 3 4 4 4 3 2 4 4 5 4 3 4 5 3 6 3 4 3 3 4 3 3 5 4 3 2 3 4 3 4 3 5 3 2 3 3 4 4 3 4 3 6 4 4 3 2 3 3 6 3 7 3 4 5 3 4 4 4 4 4 3 3 3 3 3 3 3 7 4 5 5 5 2 5 4 4 3 4 3 3 2 3 3 3 4 4 5 4 5 2 3 4 4 3 5 
BTB PER SET COUNT: 3 2 4 4 3 2 2 6 2 7 4 7 3 4 2 4 3 4 2 2 3 2 2 5 5 6 3 5 4 10 5 2 3 4 361 2 4 2 3 3 4 6 4 3 1094 3 2 4 5 3 4 6 4 4 3 3 1092 1336 3 95 694 20 4 6 3 3 5 3 3 1072 4 4 6 3 4 4 5 3 5 8 6 8 6 693 3 3 3 5 5 1338 5 4 5 4 3 2 5 3 3 3 2 4 3 3 5 5 3 4 3 5 6 5 4 6 5 2 3 3 4 4 4 7 1341 4 4 5 4 13 4 5 9 3 5 3 6 6 2 1 3 1337 3 696 3 6 7 4 3 4 5 696 7 3 4 4 5 698 5 1336 5 15 2 3 3 4 2 3 4 4 8 4 4 4 11 4 4 4 3 5 4 4 5 2 5 3 3 3 3 5 6 3 3 3 5 3 5 3 699 696 7 3 5 276 5 3 1 3 2 5 3 8 48 43 4 4 4 5 5 343 4 5 5 5 16 347 4 3 7 4 12 4 4 4 5 3 2 4 4 3 4 3 5 5 1094 7 4 3 2 4 5 5 4 273 9 4 5 8 5 6 4 2313 9 4 3 4 3 2 339 3 3 7 2 10 9 4 4 4 5 4 3 4 3 4 136 6 4 4 8 5 5 4 3 5 4 5 409 3 6 4 4 5 9 19 1052 2 4 6 3 3 6 4 1336 2 6 2 3 3 4 3 3 6 3 5 4 4 4 11 12 7 7 6 2 128 4 4 3 4 4 4 4 7 3 5 5 3 4 3 1 4 4 7 3 3 4 5 3 5 5 4 4 2 5 4 3 6 3 4 4 4 3 3 3 14 4 3 3 4 4 6 4 3 4 4 2 9 6 1094 5 6 4 4 3 3 255 6 4 7 963 4 2 3 5 3 3 4 3 4 3 5 4 2 2 4 2 4 4 3 4 346 3 2 2 5 3 6 5 5 27 10 1 5 4 3 4 4 5 1 2 4 6 4 4 2 8 4 3 3 5 32 4 7 4 168 4 4 4 5 6 5 1320 3 27 4 3 4 2 1093 4 4009 692 69 3 42 4 4 756 4 3 3 4 4 5 4 3 5 59 5 2 5 6 5 695 4 6 5 5 693 3 4 4 4 4 3 4 5 3 3 2 3 3 3 2 3 4 2032 3 3 6 404 5 6 5 7 2 4 3 4 2 273 4 4 2 3 4 7 3 2 4 3 6 3 3 11 5 6 2 3 3 5 5 2 7 5 1336 4 4 3 405 2 55 2 1338 8738 4 4 6 3 2 2 3 4 3 3 3 1 3 3 9 4 2 4 4 4 5 4 10 4 3 6 5 4 2 4 4 5 7 1093 7 4 3 2 9 4 3 3 8 3 6 4 3 5 4 2 692 3 2 2 6 5 4 5 4 2 6 6 5 7 3 4 3 4 3 4 4 4 6 4 4 7 346 4 6 6 3 4 6 3 2 3 2 402 3 692 4 4 3 6 3 3 5 3 4 693 2 5 53 4 5 5 5 5 3 5 3 7 4 5 4 5 5 4 3 3 2 4 4 3 3 6 3 3 4 5 3 4 4 4 6 4 3 4 3 5 4 3 4 7 4 3 2 3 4 3 4 5 5 345 697 3 6 252 4 11 3 3 3 3 5 3 5 6 3 5 6 5 8 6 3 4 3 824 4 5 5 6 4 4 3 2 4 5 4 7 6 4 697 3 4 6 187 4 6 6 3 4 3 6 4 4 4 6 5 3 3 4 5 5 4 4 2 4 5 5 3 6 404 2 3 5 175 3 5 4 5 4 4 693 5 4 4 5 4 4 4 2 6 4 4 5 1740 6 2 3 4 5 2 4 1385 2 5 6 5 5 6 6 3 4 6 2 3 18 6 4 2 694 4 3 7 4 2 4 14 3 3 3 6 4 4 5 4 4 3 3 3 403 8 6 5 2 2 3 5 6 3 4 354 3 4 8 4 8 4 361 104 3 364 5 5 3 2 14 4 6 50 3 6 7 1338 6 3 1 5 3 3 2 3 8 1107 3 4 4 3 3 5 3 3 6 4 2 2 2 4 4 5 4 4 5 5 3 4 6 342 692 5 3 3 5 1092 4 4 4 3 4 3 5 2 4 4 2 2 5 3 4 3 7 4 6 3 4 4 7 5 5 3 4 7 5 4 4 2669 3 3 5 4 3 5 3 5 3 4 8 5 5 4 5 4 5 3 4 4 5 3 4 3 4 5 3 6 3 3 4 5 4 3 4 7 5 3 3 4 4 6 2 7 3 5 6 4 1401 1092 4 3 3 3 4 4 4 4 3 5 15 3 403 3 5 7 5 4 6 6 2 4 4 3 3 4 5 4 5 1051 3 3 4 4 3 4 13 9 365 3 3 6 4 4 4 4 3 5 3 4 3 7 4 7 2 2 3 5 4 13 4 4 604 362 4 89 5 6 261 5 10 4 2 4 2 3 106 6 3 4 9 5 3 3 6 3 5 3 4 3 3 6 4 6 5 3 4 61 4 6 4 272 4 4 4 4 4 7 4 5 4 4 4 2 3 5 4 4 3 2 2 2 6 9 3 4 6 3 2 4 4 6 19009 8 4 4 362 2 1336 5 6 4 4 3 3 3 3 3 3 4 4 4 6 5 3 4 4 3 8 5 6 4 3 3 7 2 2 3 4 2 5 41 3 6 4 4 4 7 3 4 3 5 4 3 2 3 6 7 5 99 4 3 3 1092 4 1093 3 4 4 4 272 4 4 3 4 7 5 3 4 6 4 7 4 4 4 4 5 3 7 1094 2 6 3 2 4 4 4 5 4 4 4 4 4 5 5 3 16 4 3 4 6 3 3 6 1134 5 3 4 4 2 5 5 4 4 4 4 2 4 4 4 5 4 3 4 3 5 4 1669 11 5 5 3 4 5 4 4 6 4 5 3 5 5 4 4 6 5 4 5 5 4 3 3 4 4 5 54 3 3 3 3 3 9 7 5 69 4 6 6 1095 3 6 4 3 4 4 4 3 5 1094 10 3 3 13 6 3 3 5 8 5 4 3 3 4 4 5 5 4 5 4 4 4 2186 6 5 4 4 7 4 3 404 8 3 5 3 5 3 5 5 8 4 4 3 4 3 3 3 3 4 45 3 405 4 2 5 4 3 4 5 4 3 2 6 5 5 3 2 3 3 5 5 36 694 4 4 2 8 4 3 5 6 5 3 4 6 1052 1093 6 3 4 3 362 6 3 3 3 693 5 5 4 4 6 40 3 4 1383 4 192 3 3 4 4 4 3 4 7 5 5 8 3 3 9 4 4 3 3 4 4 2 4 4 6 4 5 4 4 4 4 5 4 6 7 8 3 4 4 4 3 5 3 10 5 4 7 3 7 5 3 693 6 4 9 3 4 3 4 4 4 4 4 3 5 3 693 3 4 3 5 3 4 4 16 5 6 5 4 2 25 5 5 2 694 17 3 4 1095 3 3 5 4 693 4 3 3 6 3 5 4 3 4 7 4 6 3 4 3 2 4 5 4 5 4 6 4 2 7 3 3 6 19 4 2 5 6 5 3 3 4 2722 3 5 6 9 4 3 4 4 3 5 2 4 1094 3 3 4 4 4 4 3 3 3 3 4 2 3 4 3 3 2 3 3 4 5 5 4 7 3 2 6 4 3 3 4 5 8 4 4 4 6 5 3 4 3 405 1096 5 2 3 6 3 3 6 5 4 2 4 3 4 3 2 8 4 2 4 4 6 3 4 4 3 6 3 4 4 3 5 10 3 5 3 4 4 3 3 4 5 4 4 3 25 5 4 5 3 2 4 5 5 2 4 5 3 4 3 3 3 1 4 3 3 5 4 3 5 2 2 3 4 4 339 2 4 3 4 6 4 2 6 182 4 4 5 5 4 3 14 3 4 3 2 2 34 2 2 4 3 2 4 349 4 4 3 5 3 1095 4 7 5 4 5 3 5 8 6 5 4 3 5 4 3 6 4 5 4 4 3 267 4 3 3 5 5 3 4 3 10 3 3 6 4 3 3 4 3 3 5 3 4 5 49 4 7 3 3 4 275 3 4 78 1 3 4 2 4 2 3 5 6 3 5 4 6 4 104 5 3 4 4 6 6 4 4 3 3 4 5 6 3 3 42 2 4 1 3 3 695 4 4 3 5 4 6 3 4 5 2 5 4 5 7 4 4 4 4 5 195 4 3 3 4 3 5 4 4 4 6 4 4 104 7 1054 4 2 3 4 7 2 3 57 3 11 3 3 2 4 4 6 33 6 6 5 3 4 5 9 3 123 4 3 3 4 2 3 4 3 24 4 82 5 347 4 3 10863 2 3 2 7 5 6 4 4 3 4 4 4 6 4 5 3 28 3 2 3 15 7 3 3 4 3 3 4 5 4 2 4 695 3 3 3 499 4 3 5 3 3 3 4 4 4 30 7 4 3 4 3 3 5 4 4 3 2 4 4 5 4 4 4 5 5 6 3 1337 3 36 5 4 3 16 5 3 2 3 6 3 4 17 5 12 2 3 4 4 4 3 4 3 7 4 4 3 2 3 3 7 3 7 3 4 963 3 4 343 4 4 5 4 9 3 3 3 3 3 8 14 7 5 5 2 1338 4 4 3 4 3 1340 2 3 3 3 5 5 5 4 8 3 3 4 4 3 5 
