
*** ChampSim Multicore Out-of-Order Simulator ***

Warmup Instructions: 50000000
Simulation Instructions: 50000000
Number of CPUs: 1
LLC sets: 2048
LLC ways: 16
Off-chip DRAM Size: 4096 MB Channels: 1 Width: 64-bit Data Rate: 6400 MT/s
CPU 0 runs ./micro_traces/srv725.trace.gz
.gz
ITLB has LRU replacement policy
DTLB has LRU replacement policy
STLB has LRU replacement policy
CPU 0 L1I next line prefetcher
L1I has LRU replacement policy
L1D has LRU replacement policy
Initialize SRRIP state for L2C
Initialize DRRIP state for LLC
Heartbeat CPU 0 instructions: 10000003 cycles: 2798215 heartbeat IPC: 3.57371 cumulative IPC: 3.57371 (Simulation time: 0 hr 1 min 37 sec) 
Heartbeat CPU 0 instructions: 20000000 cycles: 5594899 heartbeat IPC: 3.57566 cumulative IPC: 3.57468 (Simulation time: 0 hr 3 min 14 sec) 
Heartbeat CPU 0 instructions: 30000002 cycles: 8392315 heartbeat IPC: 3.57473 cumulative IPC: 3.5747 (Simulation time: 0 hr 4 min 52 sec) 
Heartbeat CPU 0 instructions: 40000001 cycles: 11190286 heartbeat IPC: 3.57402 cumulative IPC: 3.57453 (Simulation time: 0 hr 6 min 31 sec) 
Heartbeat CPU 0 instructions: 50000001 cycles: 13988372 heartbeat IPC: 3.57387 cumulative IPC: 3.5744 (Simulation time: 0 hr 8 min 6 sec) 

Warmup complete CPU 0 instructions: 50000001 cycles: 13988372 (Simulation time: 0 hr 8 min 6 sec) 

Cycle: 20000000 FTQ IN: 57615041 FTQ occupancy: 17.8782 DECODE IN: 57615041 DECODE occupancy: 47.0848 ROB IN: 57615041 ROB occupancy: 295.001 ROB OUT: 57614903
Heartbeat CPU 0 instructions: 60000002 cycles: 21818105 heartbeat IPC: 1.27718 cumulative IPC: 1.27718 (Simulation time: 0 hr 9 min 33 sec) 
Heartbeat CPU 0 instructions: 70000003 cycles: 29817163 heartbeat IPC: 1.25015 cumulative IPC: 1.26352 (Simulation time: 0 hr 10 min 58 sec) 
Cycle: 30000000 FTQ IN: 12620368 FTQ occupancy: 6.67549 DECODE IN: 12620320 DECODE occupancy: 18.7158 ROB IN: 12620298 ROB occupancy: 181.082 ROB OUT: 12620254
Heartbeat CPU 0 instructions: 80000001 cycles: 37744964 heartbeat IPC: 1.26138 cumulative IPC: 1.26281 (Simulation time: 0 hr 12 min 23 sec) 
Cycle: 40000000 FTQ IN: 12611409 FTQ occupancy: 6.03726 DECODE IN: 12611457 DECODE occupancy: 17.2549 ROB IN: 12611479 ROB occupancy: 174.267 ROB OUT: 12611634
Heartbeat CPU 0 instructions: 90000003 cycles: 45626210 heartbeat IPC: 1.26884 cumulative IPC: 1.26431 (Simulation time: 0 hr 13 min 45 sec) 
Cycle: 50000000 FTQ IN: 12702861 FTQ occupancy: 5.93173 DECODE IN: 12702846 DECODE occupancy: 16.9153 ROB IN: 12702844 ROB occupancy: 172.913 ROB OUT: 12702857
Heartbeat CPU 0 instructions: 100000001 cycles: 53614948 heartbeat IPC: 1.25176 cumulative IPC: 1.26178 (Simulation time: 0 hr 15 min 10 sec) 
Finished CPU 0 instructions: 50000000 cycles: 39626576 cumulative IPC: 1.26178 (Simulation time: 0 hr 15 min 10 sec) 

ChampSim completed all CPUs

Region of Interest Statistics

CPU 0 cumulative IPC: 1.26178 instructions: 50000000 cycles: 39626576
 Fetch stage stalled: 66.071  Sim cycles: 39626576 fetch stall cycle: 26181655
 Empty decode stage: 48.7988  Sim cycles: 39626576 fetch stall cycle: 19337297
ITLB TOTAL     ACCESS:    7557179  HIT:    6960610  MISS:     596569  HIT %:    92.1059  MISS %:    7.89407   MPKI: 11.9314
ITLB LOAD TRANSLATION INSTRUCTION	ACCESS:    5851395  HIT:    5723577  MISS:     127818  HIT %:    97.8156  MISS %:     2.1844  MPKI: 2.55636
ITLB TRANSLATION FROM L1D PREFETCHER INSTRUCTION	ACCESS:    1705784  HIT:    1237033  MISS:     468751  HIT %:    72.5199  MISS %:    27.4801  MPKI: 9.37502

ITLB AVERAGE MISS LATENCY: 182311 cycles
ITLB RQ	ACCESS:   11395344	FORWARD:          0	MERGED:    3683795	TO_CACHE:    7711549

DTLB TOTAL     ACCESS:    9120690  HIT:    8655306  MISS:     465384  HIT %:    94.8975  MISS %:    5.10251   MPKI: 9.30768
DTLB LOAD TRANSLATION DATA	ACCESS:    9120690  HIT:    8655306  MISS:     465384  HIT %:    94.8975  MISS %:    5.10251  MPKI: 9.30768

DTLB AVERAGE MISS LATENCY: 9.36408 cycles
DTLB RQ	ACCESS:   13459001	FORWARD:          0	MERGED:    4303171	TO_CACHE:    9155830

STLB TOTAL     ACCESS:    1307495  HIT:    1305201  MISS:       2294  HIT %:    99.8245  MISS %:    0.17545   MPKI: 0.04588
STLB LOAD TRANSLATION INSTRUCTION	ACCESS:     124805  HIT:     124606  MISS:        199  HIT %:    99.8406  MISS %:   0.159449  MPKI: 0.00398
STLB TRANSLATION FROM L1D PREFETCHER INSTRUCTION	ACCESS:     471764  HIT:     471561  MISS:        203  HIT %:     99.957  MISS %:    0.04303  MPKI: 0.00406
STLB LOAD TRANSLATION DATA	ACCESS:     465384  HIT:     463521  MISS:       1863  HIT %:    99.5997  MISS %:   0.400315  MPKI: 0.03726
STLB TRANSLATION FROM L1D PREFETCHER DATA	ACCESS:     245542  HIT:     245513  MISS:         29  HIT %:    99.9882  MISS %:  0.0118106  MPKI: 0.00058

STLB AVERAGE MISS LATENCY: 77.7594 cycles
STLB RQ	ACCESS:    1428986	FORWARD:          0	MERGED:     118106	TO_CACHE:    1310880

STLB Hit, L1D data hit: 0
STLB Hit, L2C data hit: 0
STLB Hit, LLC data hit: 0
STLB Hit, LLC data miss: 0
STLB STLB hints to L2: 0
L1D TOTAL     ACCESS:   13211069  HIT:   12116945  MISS:    1094124  HIT %:    91.7181  MISS %:    8.28187   MPKI: 21.8825
L1D LOAD DATA	ACCESS:    6656767  HIT:    5936650  MISS:     720117  HIT %:    89.1822  MISS %:    10.8178  MPKI: 14.4023
L1D RFO DATA	ACCESS:    6230248  HIT:    5948362  MISS:     281886  HIT %:    95.4755  MISS %:    4.52447  MPKI: 5.63772
L1D PREFETCH DATA	ACCESS:     324054  HIT:     231933  MISS:      92121  HIT %:    71.5723  MISS %:    28.4277  MPKI: 1.84242

L1D PREFETCH  REQUESTED:     727759  ISSUED:     727759  USEFUL:      32271  USELESS:      68305
L1D USEFUL LOAD PREFETCHES:      32271 PREFETCH ISSUED TO LOWER LEVEL:     100639  ACCURACY: 32.0661
 TIMELY PREFETCHES:      32271 LATE PREFETCHES: 8438 DROPPED PREFETCHES: 12
L1D AVERAGE MISS LATENCY: 267296 cycles
L1D RQ	ACCESS:   10775565	FORWARD:          0	MERGED:    3914731	TO_CACHE:    6695484
L1D WQ	ACCESS:    6954111	FORWARD:     165733	MERGED:     190594	TO_CACHE:    6763517
L1D PQ	ACCESS:     364071	FORWARD:          0	MERGED:          0	TO_CACHE:     363688

L1D UNIQUE REGIONS ACCESSED: 0
L1D REGIONS CONFLICTS: 0
L1D Cross Page Prefetch Requests: 5885
L1D Same Page Prefetch Requests: 737638
L1D ROI Sum of L1D PQ occupancy: 4650067
L1D PREFETCHES PUSHED FROM L2C: 0
L1I TOTAL     ACCESS:   11003820  HIT:    7441744  MISS:    3562076  HIT %:    67.6287  MISS %:    32.3713   MPKI: 71.2415
L1I LOAD INSTRUCTION	ACCESS:    6599937  HIT:    6013033  MISS:     586904  HIT %:    91.1074  MISS %:    8.89257  MPKI: 11.7381
L1I PREFETCH INSTRUCTION	ACCESS:    4403883  HIT:    1428711  MISS:    2975172  HIT %:    32.4421  MISS %:    67.5579  MPKI: 59.5034

L1I PREFETCH  REQUESTED:    5096838  ISSUED:    5096330  USEFUL:    2319869  USELESS:     753834
L1I USEFUL LOAD PREFETCHES:    2319869 PREFETCH ISSUED TO LOWER LEVEL:    3073746  ACCURACY: 75.4737
 TIMELY PREFETCHES:    2319869 LATE PREFETCHES: 98573 DROPPED PREFETCHES: 10013
L1I AVERAGE MISS LATENCY: 931098 cycles
L1I RQ	ACCESS:    9453373	FORWARD:          0	MERGED:    2815326	TO_CACHE:    6638047
L1I PQ	ACCESS:    5096330	FORWARD:          0	MERGED:     339033	TO_CACHE:    4757297

L1BTB TOTAL     ACCESS:    5682606  HIT:    2089786  MISS:    3592820  HIT %:    36.7751  MISS %:    63.2249   MPKI: 71.8564
L1BTB BRANCH_DIRECT_JUMP	ACCESS:     547467  HIT:     147491  MISS:     399976	AVERAGE STALL: 25.4674
L1BTB BRANCH_INDIRECT	ACCESS:     181663  HIT:      65234  MISS:     116429	AVERAGE STALL: 110.499
L1BTB BRANCH_CONDITIONAL	ACCESS:    2709841  HIT:    1430687  MISS:    1279154	AVERAGE STALL: 27.0538
L1BTB BRANCH_DIRECT_CALL	ACCESS:     950229  HIT:     118517  MISS:     831712	AVERAGE STALL: 29.2189
L1BTB BRANCH_INDIRECT_CALL	ACCESS:     171577  HIT:      23407  MISS:     148170	AVERAGE STALL: 128.182
L1BTB BRANCH_RETURN	ACCESS:    1121829  HIT:     304450  MISS:     817379	AVERAGE STALL: 30.0047
L1BTB BRANCH_OTHER ACCESS:          0  HIT:          0  MISS:          0	AVERAGE STALL: -nan
L1BTB TOTAL ROB OCCUPANCY AT BTB MISS: 16.4888

L2BTB1 TOTAL     ACCESS:    3567697  HIT:    3165390  MISS:     402307  HIT %:    88.7236  MISS %:    11.2764   MPKI: 8.04614
L2BTB1 BRANCH_DIRECT_JUMP	ACCESS:     395836  HIT:     360013  MISS:      35823	AVERAGE STALL: 25.4674
L2BTB1 BRANCH_INDIRECT	ACCESS:     106294  HIT:      84335  MISS:      21959	AVERAGE STALL: 110.499
L2BTB1 BRANCH_CONDITIONAL	ACCESS:    1279154  HIT:    1171382  MISS:     107772	AVERAGE STALL: 27.0538
L2BTB1 BRANCH_DIRECT_CALL	ACCESS:     831712  HIT:     718269  MISS:     113443	AVERAGE STALL: 29.2189
L2BTB1 BRANCH_INDIRECT_CALL	ACCESS:     138718  HIT:     114327  MISS:      24391	AVERAGE STALL: 128.182
L2BTB1 BRANCH_RETURN	ACCESS:     815983  HIT:     717064  MISS:      98919	AVERAGE STALL: 30.0047
L2BTB1 BRANCH_OTHER ACCESS:          0  HIT:          0  MISS:          0	AVERAGE STALL: -nan
L2BTB1 TOTAL ROB OCCUPANCY AT BTB MISS: 147.254

L2C TOTAL     ACCESS:    6481296  HIT:    5462496  MISS:    1018800  HIT %:    84.2809  MISS %:    15.7191   MPKI: 20.376
L2C LOAD INSTRUCTION	ACCESS:     488331  HIT:     397142  MISS:      91189  HIT %:    81.3264  MISS %:    18.6736  MPKI: 1.82378
L2C PREFETCH INSTRUCTION	ACCESS:    3073745  HIT:    2678869  MISS:     394876  HIT %:    87.1533  MISS %:    12.8467  MPKI: 7.89752
L2C LOAD TRANSLATION INSTRUCTION	ACCESS:        225  HIT:         62  MISS:        163  HIT %:    27.5556  MISS %:    72.4444  MPKI: 0.00326
L2C TRANSLATION FROM L1D PREFETCHER INSTRUCTION	ACCESS:       5256  HIT:       4982  MISS:        274  HIT %:    94.7869  MISS %:    5.21309  MPKI: 0.00548
L2C LOAD DATA	ACCESS:     711648  HIT:     562444  MISS:     149204  HIT %:     79.034  MISS %:     20.966  MPKI: 2.98408
L2C RFO DATA	ACCESS:     281784  HIT:     201556  MISS:      80228  HIT %:    71.5285  MISS %:    28.4715  MPKI: 1.60456
L2C PREFETCH DATA	ACCESS:    1404957  HIT:    1143472  MISS:     261485  HIT %:    81.3884  MISS %:    18.6116  MPKI: 5.2297
L2C WRITEBACK DATA	ACCESS:     513312  HIT:     473498  MISS:      39814  HIT %:    92.2437  MISS %:     7.7563  MPKI: 0.79628
L2C LOAD TRANSLATION DATA	ACCESS:       1981  HIT:        430  MISS:       1551  HIT %:    21.7062  MISS %:    78.2938  MPKI: 0.03102
L2C TRANSLATION FROM L1D PREFETCHER DATA	ACCESS:         57  HIT:         41  MISS:         16  HIT %:    71.9298  MISS %:    28.0702  MPKI: 0.00032

L2C PREFETCH  REQUESTED:    3191608  ISSUED:    3191608  USEFUL:      31747  USELESS:     626866
L2C USEFUL LOAD PREFETCHES:      31747 PREFETCH ISSUED TO LOWER LEVEL:     657783  ACCURACY: 4.82636
 TIMELY PREFETCHES:      31747 LATE PREFETCHES: 1422 DROPPED PREFETCHES: 0
L2C AVERAGE MISS LATENCY: 33.6826 cycles
L2C RQ	ACCESS:    1489335	FORWARD:          0	MERGED:          0	TO_CACHE:    1489282
L2C WQ	ACCESS:     513312	FORWARD:         53	MERGED:          0	TO_CACHE:     513312
L2C PQ	ACCESS:    6365993	FORWARD:          0	MERGED:    1866531	TO_CACHE:    4499462

L2C Dense regions hint from L2: 0
PSCL5 TOTAL     ACCESS:      11304  HIT:       5652  MISS:       5652  HIT %:         50  MISS %:         50   MPKI: 0.11304
PSCL5 LOAD TRANSLATION INSTRUCTION	ACCESS:       4094  HIT:       2047  MISS:       2047  HIT %:         50  MISS %:         50  MPKI: 0.04094
PSCL5 TRANSLATION FROM L1D PREFETCHER INSTRUCTION	ACCESS:       7210  HIT:       3605  MISS:       3605  HIT %:         50  MISS %:         50  MPKI: 0.0721


PSCL4 TOTAL     ACCESS:       8583  HIT:       4286  MISS:       4297  HIT %:    49.9359  MISS %:    50.0641   MPKI: 0.08594
PSCL4 LOAD TRANSLATION INSTRUCTION	ACCESS:       2299  HIT:       1578  MISS:        721  HIT %:    68.6385  MISS %:    31.3615  MPKI: 0.01442
PSCL4 TRANSLATION FROM L1D PREFETCHER INSTRUCTION	ACCESS:       3894  HIT:       2708  MISS:       1186  HIT %:    69.5429  MISS %:    30.4571  MPKI: 0.02372
PSCL4 LOAD TRANSLATION DATA	ACCESS:        868  HIT:          0  MISS:        868  HIT %:          0  MISS %:        100  MPKI: 0.01736
PSCL4 TRANSLATION FROM L1D PREFETCHER DATA	ACCESS:       1522  HIT:          0  MISS:       1522  HIT %:          0  MISS %:        100  MPKI: 0.03044


PSCL3 TOTAL     ACCESS:      10189  HIT:       5081  MISS:       5108  HIT %:    49.8675  MISS %:    50.1325   MPKI: 0.10216
PSCL3 LOAD TRANSLATION INSTRUCTION	ACCESS:       2910  HIT:       1854  MISS:       1056  HIT %:    63.7113  MISS %:    36.2887  MPKI: 0.02112
PSCL3 TRANSLATION FROM L1D PREFETCHER INSTRUCTION	ACCESS:       5336  HIT:       3227  MISS:       2109  HIT %:     60.476  MISS %:     39.524  MPKI: 0.04218
PSCL3 LOAD TRANSLATION DATA	ACCESS:        825  HIT:          0  MISS:        825  HIT %:          0  MISS %:        100  MPKI: 0.0165
PSCL3 TRANSLATION FROM L1D PREFETCHER DATA	ACCESS:       1118  HIT:          0  MISS:       1118  HIT %:          0  MISS %:        100  MPKI: 0.02236


PSCL2 TOTAL     ACCESS:       7949  HIT:       3895  MISS:       4054  HIT %:    48.9999  MISS %:    51.0001   MPKI: 0.08108
PSCL2 LOAD TRANSLATION INSTRUCTION	ACCESS:       2137  HIT:       1913  MISS:        224  HIT %:     89.518  MISS %:     10.482  MPKI: 0.00448
PSCL2 TRANSLATION FROM L1D PREFETCHER INSTRUCTION	ACCESS:       3907  HIT:       1982  MISS:       1925  HIT %:    50.7295  MISS %:    49.2705  MPKI: 0.0385
PSCL2 LOAD TRANSLATION DATA	ACCESS:       1848  HIT:          0  MISS:       1848  HIT %:          0  MISS %:        100  MPKI: 0.03696
PSCL2 TRANSLATION FROM L1D PREFETCHER DATA	ACCESS:         57  HIT:          0  MISS:         57  HIT %:          0  MISS %:        100  MPKI: 0.00114


LLC TOTAL     ACCESS:    1102152  HIT:    1071535  MISS:      30617  HIT %:    97.2221  MISS %:    2.77793   MPKI: 0.61234
LLC LOAD INSTRUCTION	ACCESS:      90545  HIT:      89997  MISS:        548  HIT %:    99.3948  MISS %:   0.605224  MPKI: 0.01096
LLC PREFETCH INSTRUCTION	ACCESS:     392240  HIT:     391669  MISS:        571  HIT %:    99.8544  MISS %:   0.145574  MPKI: 0.01142
LLC LOAD TRANSLATION INSTRUCTION	ACCESS:        163  HIT:        132  MISS:         31  HIT %:    80.9816  MISS %:    19.0184  MPKI: 0.00062
LLC TRANSLATION FROM L1D PREFETCHER INSTRUCTION	ACCESS:        274  HIT:        253  MISS:         21  HIT %:    92.3358  MISS %:    7.66423  MPKI: 0.00042
LLC LOAD DATA	ACCESS:     148470  HIT:     144624  MISS:       3846  HIT %:    97.4096  MISS %:    2.59042  MPKI: 0.07692
LLC RFO DATA	ACCESS:      80169  HIT:      65679  MISS:      14490  HIT %:    81.9257  MISS %:    18.0743  MPKI: 0.2898
LLC PREFETCH DATA	ACCESS:     265543  HIT:     254825  MISS:      10718  HIT %:    95.9637  MISS %:    4.03626  MPKI: 0.21436
LLC WRITEBACK DATA	ACCESS:     123181  HIT:     122909  MISS:        272  HIT %:    99.7792  MISS %:   0.220813  MPKI: 0.00544
LLC LOAD TRANSLATION DATA	ACCESS:       1551  HIT:       1431  MISS:        120  HIT %:    92.2631  MISS %:    7.73694  MPKI: 0.0024
LLC TRANSLATION FROM L1D PREFETCHER DATA	ACCESS:         16  HIT:         16  MISS:          0  HIT %:        100  MISS %:          0  MPKI: 0

LLC AVERAGE MISS LATENCY: 160.188 cycles
LLC RQ	ACCESS:     321203	FORWARD:          0	MERGED:          0	TO_CACHE:     321188
LLC WQ	ACCESS:     123181	FORWARD:         15	MERGED:          0	TO_CACHE:     123181
LLC PQ	ACCESS:     657783	FORWARD:          0	MERGED:          0	TO_CACHE:     657783

LLC Dense regions hint to LLC: 0

RAW hits: 1882732
Loads Generated: 12658298
Loads sent to L1D: 10775565
Stores Generated: 6954106
Stores sent to L1D: 6954111
Major fault: 0 Minor fault: 2551
Allocated PAGES: 2551
I-Shadow cache 408 bytes
Touched + WorthPF tables 12288 bytes 
MMA filter 174 bytes 
FNL filter 272 bytes 
TOTAL PREFETCHER STORAGE SIZE: 31318 bytes
CPU 0 L1I next line prefetcher final stats

stream: 
stream:times selected: 1172432
stream:pref_filled: 117623
stream:pref_useful: 21622
stream:pref_late: 6886
stream:misses: 6785
stream:misses_by_poll: 0

CS: 
CS:times selected: 173269
CS:pref_filled: 52135
CS:pref_useful: 28578
CS:pref_late: 12590
CS:misses: 22010
CS:misses_by_poll: 2

CPLX: 
CPLX:times selected: 998009
CPLX:pref_filled: 19314
CPLX:pref_useful: 3755
CPLX:pref_late: 3465
CPLX:misses: 91672
CPLX:misses_by_poll: 1

NL_L1: 
NL:times selected: 19065
NL:pref_filled: 485
NL:pref_useful: 185
NL:pref_late: 199
NL:misses: 986
NL:misses_by_poll: 0

total selections: 2362775
total_filled: 92121
total_useful: 32271
total_late: 24811
total_polluted: 3
total_misses_after_warmup: 758838
conflicts: 5586719

test: 115152

DRAM Statistics
 CHANNEL 0
 RQ ROW_BUFFER_HIT:      11123  ROW_BUFFER_MISS:      19208
 DBUS_CONGESTED:         12
 WQ ROW_BUFFER_HIT:       1545  ROW_BUFFER_MISS:      12901  FULL:          0

 AVG_CONGESTED_CYCLE: 4

CPU 0 Branch Prediction Accuracy: 99.8174% MPKI: 0.3343 Average ROB Occupancy at Mispredict: 162.979
Branch types
NOT_BRANCH: 40845530 81.6911%
BRANCH_DIRECT_JUMP: 547467 1.09493%
BRANCH_INDIRECT: 181663 0.363326%
BRANCH_CONDITIONAL: 6181650 12.3633%
BRANCH_DIRECT_CALL: 950229 1.90046%
BRANCH_INDIRECT_CALL: 171577 0.343154%
BRANCH_RETURN: 1121829 2.24366%
BRANCH_OTHER: 0 0%

DRAM PAGES: 1048576
Allocated PAGES: 2551
Average_ROB_Occupancy: 176.197
Average_Decode_Occupancy: 17.512
Average_FTQ_Occupancy: 6.18339
Indirect max targets: 14 Average targets: 1.15772
Branch_type:  BRANCH_DIRECT_JUMP:  Count Percentage: 3.28522 6.60305 3.64701 2.96783 3.60006 6.48185 2.04066 71.3743 
Branch_type:  BRANCH_INDIRECT:  Count Percentage: 11.708 3.45373 2.52353 0 3.33982 2.80596 2.41264 73.7563 
Branch_type:  BRANCH_CONDITIONAL:  Count Percentage: 20.8755 3.14807 3.20216 2.44039 1.5165 4.77044 4.03829 60.0087 
Branch_type:  BRANCH_DIRECT_CALL:  Count Percentage: 0.383299 1.74878 1.62175 1.93568 3.34939 2.82467 1.1859 86.9505 
Branch_type:  BRANCH_INDIRECT_CALL:  Count Percentage: 9.5011 0 2.97721 0.00378484 0 2.20336 1.28277 84.0318 
Branch_type:  BRANCH_RETURN:  Count Percentage: 3.90943 1.97979 0.71452 2.04898 2.74209 5.53115 4.17202 78.902 
Branch_type:  BRANCH_DIRECT_JUMP:  Total Count: 35968 72293 39929 32493 39415 70966 22342 781436 
Branch_type:  BRANCH_INDIRECT:  Total Count: 42656 12583 9194 0 12168 10223 8790 268717 
Branch_type:  BRANCH_CONDITIONAL:  Total Count: 2578445 388836 395517 301426 187311 589224 498792 7412011 
Branch_type:  BRANCH_DIRECT_CALL:  Total Count: 7272 33178 30768 36724 63545 53590 22499 1649636 
Branch_type:  BRANCH_INDIRECT_CALL:  Total Count: 32634 0 10226 13 0 7568 4406 288629 
Branch_type:  BRANCH_RETURN:  Total Count: 87630 44377 16016 45928 61464 123981 93516 1768592 
Number of unique branch instructions: 10213
Upper 32 bits: 
aaaa
ffff
ffff0000
Unique upper 32 bits: 3
Unique upper 36 bits: 3
Unique upper 40 bits: 5
Unique upper 44 bits: 32
Unique upper 48 bits: 156
Offset_3 4212
Offset_4 256
Offset_5 465
Offset_6 516
Offset_7 619
Offset_8 525
Offset_9 481
Offset_10 398
Offset_11 326
Offset_12 285
Offset_13 216
Offset_14 244
Offset_15 190
Offset_16 225
Offset_17 155
Offset_18 125
Offset_19 256
Offset_20 139
Offset_21 235
Offset_22 404
Offset_23 242
Offset_24 333
Offset_25 95
Offset_47 84
Offset_64 2
decode_dispatch_called: 21865956 55.18
Dispatch_width: 0 10905747 49.8755 27.5213
Dispatch_width: 1 749403 3.42726 1.89116
Dispatch_width: 2 908930 4.15683 2.29374
Dispatch_width: 3 616005 2.81719 1.55452
Dispatch_width: 4 3071950 14.049 7.75225
Dispatch_width: 5 386604 1.76806 0.975618
Dispatch_width: 6 5227317 23.9062 13.1914
Empty_decode_cycles: 17760620 44.82
ROB_full_cycles: 4643424 11.718
Starvation_cycles_per_kilo_instr: 297.558
Starvation_cycles_per_kilo_instr_3: 262.973
Starvation_cycles_per_kilo_instr_0: 240.229
Branch_type_1  (3,1)  (4,9)  (5,38)  (6,72)  (7,121)  (8,129)  (9,126)  (10,101)  (11,69)  (12,43)  (13,8)  (14,2)  (15,3)  (16,4)  (18,1)  (19,4)  (20,2)  (21,1)  (22,3)  (23,2)  (24,10)  (25,13) 
Branch_type_2  (3,1)  (4,1)  (5,1)  (8,3)  (9,3)  (12,1)  (13,1)  (14,1)  (16,3)  (17,2)  (20,2)  (21,2)  (23,5)  (24,1)  (47,38) 
Branch_type_3  (3,4210)  (4,246)  (5,422)  (6,429)  (7,467)  (8,329)  (9,257)  (10,161)  (11,126)  (12,50)  (13,7)  (64,2) 
Branch_type_4  (6,3)  (7,8)  (8,25)  (9,57)  (10,64)  (11,66)  (12,106)  (13,92)  (14,108)  (15,90)  (16,100)  (17,72)  (18,57)  (19,126)  (20,72)  (21,124)  (22,214)  (23,136)  (24,193)  (25,78) 
Branch_type_5  (8,2)  (9,1)  (10,4)  (11,6)  (12,3)  (13,14)  (14,17)  (15,11)  (16,20)  (17,11)  (18,16)  (19,13)  (20,11)  (21,13)  (22,42)  (23,26)  (24,37) 
Branch_type_6  (5,4)  (6,12)  (7,23)  (8,37)  (9,37)  (10,68)  (11,59)  (12,82)  (13,94)  (14,116)  (15,86)  (16,98)  (17,70)  (18,51)  (19,113)  (20,52)  (21,95)  (22,145)  (23,73)  (24,92)  (25,4)  (47,46) 
Unique trigger count: 
L2BTB1 768 4
L2BTB2 768 4
L2BTB3 768 4
L2BTB4 112 4
