
*** ChampSim Multicore Out-of-Order Simulator ***

Warmup Instructions: 50000000
Simulation Instructions: 50000000
Number of CPUs: 1
LLC sets: 2048
LLC ways: 16
Off-chip DRAM Size: 4096 MB Channels: 1 Width: 64-bit Data Rate: 6400 MT/s
CPU 0 runs ./micro_traces/srv714.trace.gz
.gz
ITLB has LRU replacement policy
DTLB has LRU replacement policy
STLB has LRU replacement policy
CPU 0 L1I next line prefetcher
L1I has LRU replacement policy
L1D has LRU replacement policy
Initialize SRRIP state for L2C
Initialize DRRIP state for LLC
Heartbeat CPU 0 instructions: 10000003 cycles: 2795836 heartbeat IPC: 3.57675 cumulative IPC: 3.57675 (Simulation time: 0 hr 1 min 45 sec) 
Heartbeat CPU 0 instructions: 20000000 cycles: 5591391 heartbeat IPC: 3.57711 cumulative IPC: 3.57693 (Simulation time: 0 hr 3 min 21 sec) 
Heartbeat CPU 0 instructions: 30000002 cycles: 8386324 heartbeat IPC: 3.5779 cumulative IPC: 3.57725 (Simulation time: 0 hr 5 min 0 sec) 
Heartbeat CPU 0 instructions: 40000003 cycles: 11183837 heartbeat IPC: 3.5746 cumulative IPC: 3.57659 (Simulation time: 0 hr 6 min 36 sec) 
Heartbeat CPU 0 instructions: 50000001 cycles: 13980885 heartbeat IPC: 3.5752 cumulative IPC: 3.57631 (Simulation time: 0 hr 8 min 16 sec) 

Warmup complete CPU 0 instructions: 50000001 cycles: 13980885 (Simulation time: 0 hr 8 min 16 sec) 

Cycle: 20000000 FTQ IN: 57552805 FTQ occupancy: 17.8341 DECODE IN: 57552793 DECODE occupancy: 46.9928 ROB IN: 57552793 ROB occupancy: 295.992 ROB OUT: 57552538
Heartbeat CPU 0 instructions: 60000002 cycles: 21908740 heartbeat IPC: 1.26138 cumulative IPC: 1.26138 (Simulation time: 0 hr 9 min 42 sec) 
Heartbeat CPU 0 instructions: 70000001 cycles: 29824376 heartbeat IPC: 1.26332 cumulative IPC: 1.26235 (Simulation time: 0 hr 11 min 8 sec) 
Cycle: 30000000 FTQ IN: 12666831 FTQ occupancy: 6.14416 DECODE IN: 12666843 DECODE occupancy: 17.5689 ROB IN: 12666843 ROB occupancy: 179.679 ROB OUT: 12667022
Heartbeat CPU 0 instructions: 80000000 cycles: 37705586 heartbeat IPC: 1.26884 cumulative IPC: 1.2645 (Simulation time: 0 hr 12 min 32 sec) 
Cycle: 40000000 FTQ IN: 12699417 FTQ occupancy: 5.97353 DECODE IN: 12699410 DECODE occupancy: 16.9639 ROB IN: 12699405 ROB occupancy: 174.042 ROB OUT: 12699419
Heartbeat CPU 0 instructions: 90000000 cycles: 45654384 heartbeat IPC: 1.25805 cumulative IPC: 1.26289 (Simulation time: 0 hr 13 min 59 sec) 
Cycle: 50000000 FTQ IN: 12628061 FTQ occupancy: 6.13716 DECODE IN: 12628068 DECODE occupancy: 17.4316 ROB IN: 12628045 ROB occupancy: 177.242 ROB OUT: 12627795
Heartbeat CPU 0 instructions: 100000002 cycles: 53473186 heartbeat IPC: 1.27897 cumulative IPC: 1.26607 (Simulation time: 0 hr 15 min 19 sec) 
Finished CPU 0 instructions: 50000001 cycles: 39492301 cumulative IPC: 1.26607 (Simulation time: 0 hr 15 min 19 sec) 

ChampSim completed all CPUs

Region of Interest Statistics

CPU 0 cumulative IPC: 1.26607 instructions: 50000001 cycles: 39492301
 Fetch stage stalled: 66.3271  Sim cycles: 39492301 fetch stall cycle: 26194101
 Empty decode stage: 49.7492  Sim cycles: 39492301 fetch stall cycle: 19647091
ITLB TOTAL     ACCESS:    7552119  HIT:    6933672  MISS:     618447  HIT %:    91.8109  MISS %:    8.18905   MPKI: 12.3689
ITLB LOAD TRANSLATION INSTRUCTION	ACCESS:    5818290  HIT:    5686008  MISS:     132282  HIT %:    97.7264  MISS %:    2.27355  MPKI: 2.64564
ITLB TRANSLATION FROM L1D PREFETCHER INSTRUCTION	ACCESS:    1733829  HIT:    1247664  MISS:     486165  HIT %:      71.96  MISS %:      28.04  MPKI: 9.7233

ITLB AVERAGE MISS LATENCY: 152257 cycles
ITLB RQ	ACCESS:   11446207	FORWARD:          0	MERGED:    3738405	TO_CACHE:    7707802

DTLB TOTAL     ACCESS:    9082304  HIT:    8604393  MISS:     477911  HIT %:     94.738  MISS %:      5.262   MPKI: 9.55822
DTLB LOAD TRANSLATION DATA	ACCESS:    9082304  HIT:    8604393  MISS:     477911  HIT %:     94.738  MISS %:      5.262  MPKI: 9.55822

DTLB AVERAGE MISS LATENCY: 9.3582 cycles
DTLB RQ	ACCESS:   13412595	FORWARD:          0	MERGED:    4294016	TO_CACHE:    9118579

STLB TOTAL     ACCESS:    1348773  HIT:    1346582  MISS:       2191  HIT %:    99.8376  MISS %:   0.162444   MPKI: 0.04382
STLB LOAD TRANSLATION INSTRUCTION	ACCESS:     129548  HIT:     129395  MISS:        153  HIT %:    99.8819  MISS %:   0.118103  MPKI: 0.00306
STLB TRANSLATION FROM L1D PREFETCHER INSTRUCTION	ACCESS:     488899  HIT:     488792  MISS:        107  HIT %:    99.9781  MISS %:  0.0218859  MPKI: 0.00214
STLB LOAD TRANSLATION DATA	ACCESS:     477911  HIT:     475987  MISS:       1924  HIT %:    99.5974  MISS %:   0.402585  MPKI: 0.03848
STLB TRANSLATION FROM L1D PREFETCHER DATA	ACCESS:     252415  HIT:     252408  MISS:          7  HIT %:    99.9972  MISS %: 0.00277321  MPKI: 0.00014

STLB AVERAGE MISS LATENCY: 78.0406 cycles
STLB RQ	ACCESS:    1488370	FORWARD:          0	MERGED:     135965	TO_CACHE:    1352405

STLB Hit, L1D data hit: 0
STLB Hit, L2C data hit: 0
STLB Hit, LLC data hit: 0
STLB Hit, LLC data miss: 0
STLB STLB hints to L2: 0
L1D TOTAL     ACCESS:   13158334  HIT:   12010996  MISS:    1147338  HIT %:    91.2805  MISS %:    8.71948   MPKI: 22.9468
L1D LOAD DATA	ACCESS:    6639594  HIT:    5881383  MISS:     758211  HIT %:    88.5805  MISS %:    11.4195  MPKI: 15.1642
L1D RFO DATA	ACCESS:    6188454  HIT:    5900821  MISS:     287633  HIT %:    95.3521  MISS %:     4.6479  MPKI: 5.75266
L1D PREFETCH DATA	ACCESS:     330286  HIT:     228792  MISS:     101494  HIT %:    69.2709  MISS %:    30.7291  MPKI: 2.02988

L1D PREFETCH  REQUESTED:     777316  ISSUED:     777316  USEFUL:      43402  USELESS:      70186
L1D USEFUL LOAD PREFETCHES:      43402 PREFETCH ISSUED TO LOWER LEVEL:     113687  ACCURACY: 38.1767
 TIMELY PREFETCHES:      43402 LATE PREFETCHES: 12121 DROPPED PREFETCHES: 6
L1D AVERAGE MISS LATENCY: 358664 cycles
L1D RQ	ACCESS:   10744171	FORWARD:          0	MERGED:    3901048	TO_CACHE:    6679740
L1D WQ	ACCESS:    6919153	FORWARD:     163861	MERGED:     186298	TO_CACHE:    6732855
L1D PQ	ACCESS:     388897	FORWARD:          0	MERGED:          0	TO_CACHE:     388419

L1D UNIQUE REGIONS ACCESSED: 0
L1D REGIONS CONFLICTS: 0
L1D Cross Page Prefetch Requests: 5888
L1D Same Page Prefetch Requests: 782029
L1D ROI Sum of L1D PQ occupancy: 4926811
L1D PREFETCHES PUSHED FROM L2C: 0
L1I TOTAL     ACCESS:   11054587  HIT:    7429543  MISS:    3625044  HIT %:    67.2078  MISS %:    32.7922   MPKI: 72.5009
L1I LOAD INSTRUCTION	ACCESS:    6563115  HIT:    5975008  MISS:     588107  HIT %:    91.0392  MISS %:    8.96079  MPKI: 11.7621
L1I PREFETCH INSTRUCTION	ACCESS:    4491472  HIT:    1454535  MISS:    3036937  HIT %:    32.3844  MISS %:    67.6156  MPKI: 60.7387

L1I PREFETCH  REQUESTED:    5195662  ISSUED:    5195172  USEFUL:    2342727  USELESS:     786656
L1I USEFUL LOAD PREFETCHES:    2342727 PREFETCH ISSUED TO LOWER LEVEL:    3129329  ACCURACY: 74.8636
 TIMELY PREFETCHES:    2342727 LATE PREFETCHES: 92392 DROPPED PREFETCHES: 9946
L1I AVERAGE MISS LATENCY: 845871 cycles
L1I RQ	ACCESS:    9447383	FORWARD:          0	MERGED:    2839839	TO_CACHE:    6607544
L1I PQ	ACCESS:    5195172	FORWARD:          0	MERGED:     356509	TO_CACHE:    4838663

L1BTB TOTAL     ACCESS:    5678732  HIT:    2063639  MISS:    3615093  HIT %:    36.3398  MISS %:    63.6602   MPKI: 72.3019
L1BTB BRANCH_DIRECT_JUMP	ACCESS:     545551  HIT:     144052  MISS:     401499	AVERAGE STALL: 23.6195
L1BTB BRANCH_INDIRECT	ACCESS:     182027  HIT:      65595  MISS:     116432	AVERAGE STALL: 111.942
L1BTB BRANCH_CONDITIONAL	ACCESS:    2723299  HIT:    1436076  MISS:    1287223	AVERAGE STALL: 27.8519
L1BTB BRANCH_DIRECT_CALL	ACCESS:     942384  HIT:     105805  MISS:     836579	AVERAGE STALL: 28.8946
L1BTB BRANCH_INDIRECT_CALL	ACCESS:     171545  HIT:      21616  MISS:     149929	AVERAGE STALL: 124.949
L1BTB BRANCH_RETURN	ACCESS:    1113926  HIT:     290495  MISS:     823431	AVERAGE STALL: 30.2664
L1BTB BRANCH_OTHER ACCESS:          0  HIT:          0  MISS:          0	AVERAGE STALL: -nan
L1BTB TOTAL ROB OCCUPANCY AT BTB MISS: 16.9691

L2BTB1 TOTAL     ACCESS:    3589829  HIT:    3183207  MISS:     406622  HIT %:    88.6729  MISS %:    11.3271   MPKI: 8.13244
L2BTB1 BRANCH_DIRECT_JUMP	ACCESS:     397362  HIT:     361165  MISS:      36197	AVERAGE STALL: 23.6195
L2BTB1 BRANCH_INDIRECT	ACCESS:     106199  HIT:      83994  MISS:      22205	AVERAGE STALL: 111.942
L2BTB1 BRANCH_CONDITIONAL	ACCESS:    1287223  HIT:    1178691  MISS:     108532	AVERAGE STALL: 27.8519
L2BTB1 BRANCH_DIRECT_CALL	ACCESS:     836579  HIT:     721498  MISS:     115081	AVERAGE STALL: 28.8946
L2BTB1 BRANCH_INDIRECT_CALL	ACCESS:     140439  HIT:     116044  MISS:      24395	AVERAGE STALL: 124.949
L2BTB1 BRANCH_RETURN	ACCESS:     822027  HIT:     721815  MISS:     100212	AVERAGE STALL: 30.2664
L2BTB1 BRANCH_OTHER ACCESS:          0  HIT:          0  MISS:          0	AVERAGE STALL: -nan
L2BTB1 TOTAL ROB OCCUPANCY AT BTB MISS: 150.865

L2C TOTAL     ACCESS:    6623907  HIT:    5634951  MISS:     988956  HIT %:    85.0699  MISS %:    14.9301   MPKI: 19.7791
L2C LOAD INSTRUCTION	ACCESS:     495715  HIT:     403183  MISS:      92532  HIT %:    81.3336  MISS %:    18.6664  MPKI: 1.85064
L2C PREFETCH INSTRUCTION	ACCESS:    3129329  HIT:    2748973  MISS:     380356  HIT %:    87.8454  MISS %:    12.1546  MPKI: 7.60712
L2C LOAD TRANSLATION INSTRUCTION	ACCESS:        168  HIT:         60  MISS:        108  HIT %:    35.7143  MISS %:    64.2857  MPKI: 0.00216
L2C TRANSLATION FROM L1D PREFETCHER INSTRUCTION	ACCESS:       4750  HIT:       4577  MISS:        173  HIT %:    96.3579  MISS %:    3.64211  MPKI: 0.00346
L2C LOAD DATA	ACCESS:     746068  HIT:     600837  MISS:     145231  HIT %:    80.5338  MISS %:    19.4662  MPKI: 2.90462
L2C RFO DATA	ACCESS:     287534  HIT:     205735  MISS:      81799  HIT %:    71.5515  MISS %:    28.4485  MPKI: 1.63598
L2C PREFETCH DATA	ACCESS:    1433737  HIT:    1182155  MISS:     251582  HIT %:    82.4527  MISS %:    17.5473  MPKI: 5.03164
L2C WRITEBACK DATA	ACCESS:     524551  HIT:     488930  MISS:      35621  HIT %:    93.2092  MISS %:    6.79076  MPKI: 0.71242
L2C LOAD TRANSLATION DATA	ACCESS:       2032  HIT:        489  MISS:       1543  HIT %:     24.065  MISS %:     75.935  MPKI: 0.03086
L2C TRANSLATION FROM L1D PREFETCHER DATA	ACCESS:         23  HIT:         12  MISS:         11  HIT %:    52.1739  MISS %:    47.8261  MPKI: 0.00022

L2C PREFETCH  REQUESTED:    3238998  ISSUED:    3238998  USEFUL:      33213  USELESS:     601533
L2C USEFUL LOAD PREFETCHES:      33213 PREFETCH ISSUED TO LOWER LEVEL:     633832  ACCURACY: 5.24003
 TIMELY PREFETCHES:      33213 LATE PREFETCHES: 1894 DROPPED PREFETCHES: 0
L2C AVERAGE MISS LATENCY: 33.5346 cycles
L2C RQ	ACCESS:    1536339	FORWARD:          0	MERGED:          0	TO_CACHE:    1536290
L2C WQ	ACCESS:     524551	FORWARD:         49	MERGED:          0	TO_CACHE:     524551
L2C PQ	ACCESS:    6482014	FORWARD:          0	MERGED:    1898425	TO_CACHE:    4583589

L2C Dense regions hint from L2: 0
PSCL5 TOTAL     ACCESS:      11586  HIT:       5793  MISS:       5793  HIT %:         50  MISS %:         50   MPKI: 0.11586
PSCL5 LOAD TRANSLATION INSTRUCTION	ACCESS:       4142  HIT:       2071  MISS:       2071  HIT %:         50  MISS %:         50  MPKI: 0.04142
PSCL5 TRANSLATION FROM L1D PREFETCHER INSTRUCTION	ACCESS:       7444  HIT:       3722  MISS:       3722  HIT %:         50  MISS %:         50  MPKI: 0.07444


PSCL4 TOTAL     ACCESS:      11276  HIT:       5634  MISS:       5642  HIT %:    49.9645  MISS %:    50.0355   MPKI: 0.11284
PSCL4 LOAD TRANSLATION INSTRUCTION	ACCESS:       2668  HIT:       1976  MISS:        692  HIT %:     74.063  MISS %:     25.937  MPKI: 0.01384
PSCL4 TRANSLATION FROM L1D PREFETCHER INSTRUCTION	ACCESS:       5130  HIT:       3658  MISS:       1472  HIT %:     71.306  MISS %:     28.694  MPKI: 0.02944
PSCL4 LOAD TRANSLATION DATA	ACCESS:       1292  HIT:          0  MISS:       1292  HIT %:          0  MISS %:        100  MPKI: 0.02584
PSCL4 TRANSLATION FROM L1D PREFETCHER DATA	ACCESS:       2186  HIT:          0  MISS:       2186  HIT %:          0  MISS %:        100  MPKI: 0.04372


PSCL3 TOTAL     ACCESS:      11376  HIT:       5684  MISS:       5692  HIT %:    49.9648  MISS %:    50.0352   MPKI: 0.11384
PSCL3 LOAD TRANSLATION INSTRUCTION	ACCESS:       2718  HIT:       2026  MISS:        692  HIT %:    74.5401  MISS %:    25.4599  MPKI: 0.01384
PSCL3 TRANSLATION FROM L1D PREFETCHER INSTRUCTION	ACCESS:       5130  HIT:       3658  MISS:       1472  HIT %:     71.306  MISS %:     28.694  MPKI: 0.02944
PSCL3 LOAD TRANSLATION DATA	ACCESS:       1342  HIT:          0  MISS:       1342  HIT %:          0  MISS %:        100  MPKI: 0.02684
PSCL3 TRANSLATION FROM L1D PREFETCHER DATA	ACCESS:       2186  HIT:          0  MISS:       2186  HIT %:          0  MISS %:        100  MPKI: 0.04372


PSCL2 TOTAL     ACCESS:       9429  HIT:       4646  MISS:       4783  HIT %:    49.2735  MISS %:    50.7265   MPKI: 0.09566
PSCL2 LOAD TRANSLATION INSTRUCTION	ACCESS:       2129  HIT:       1953  MISS:        176  HIT %:    91.7332  MISS %:    8.26679  MPKI: 0.00352
PSCL2 TRANSLATION FROM L1D PREFETCHER INSTRUCTION	ACCESS:       5365  HIT:       2693  MISS:       2672  HIT %:    50.1957  MISS %:    49.8043  MPKI: 0.05344
PSCL2 LOAD TRANSLATION DATA	ACCESS:       1914  HIT:          0  MISS:       1914  HIT %:          0  MISS %:        100  MPKI: 0.03828
PSCL2 TRANSLATION FROM L1D PREFETCHER DATA	ACCESS:         21  HIT:          0  MISS:         21  HIT %:          0  MISS %:        100  MPKI: 0.00042


LLC TOTAL     ACCESS:    1079223  HIT:    1050134  MISS:      29089  HIT %:    97.3046  MISS %:    2.69537   MPKI: 0.58178
LLC LOAD INSTRUCTION	ACCESS:      91478  HIT:      90890  MISS:        588  HIT %:    99.3572  MISS %:   0.642777  MPKI: 0.01176
LLC PREFETCH INSTRUCTION	ACCESS:     378685  HIT:     378128  MISS:        557  HIT %:    99.8529  MISS %:   0.147088  MPKI: 0.01114
LLC LOAD TRANSLATION INSTRUCTION	ACCESS:        108  HIT:         81  MISS:         27  HIT %:         75  MISS %:         25  MPKI: 0.00054
LLC TRANSLATION FROM L1D PREFETCHER INSTRUCTION	ACCESS:        173  HIT:        158  MISS:         15  HIT %:    91.3295  MISS %:    8.67052  MPKI: 0.0003
LLC LOAD DATA	ACCESS:     144545  HIT:     140795  MISS:       3750  HIT %:    97.4057  MISS %:    2.59435  MPKI: 0.075
LLC RFO DATA	ACCESS:      81633  HIT:      68299  MISS:      13334  HIT %:    83.6659  MISS %:    16.3341  MPKI: 0.26668
LLC PREFETCH DATA	ACCESS:     255144  HIT:     244741  MISS:      10403  HIT %:    95.9227  MISS %:    4.07731  MPKI: 0.20806
LLC WRITEBACK DATA	ACCESS:     125903  HIT:     125592  MISS:        311  HIT %:     99.753  MISS %:   0.247016  MPKI: 0.00622
LLC LOAD TRANSLATION DATA	ACCESS:       1543  HIT:       1439  MISS:        104  HIT %:    93.2599  MISS %:    6.74012  MPKI: 0.00208
LLC TRANSLATION FROM L1D PREFETCHER DATA	ACCESS:         11  HIT:         11  MISS:          0  HIT %:        100  MISS %:          0  MPKI: 0

LLC AVERAGE MISS LATENCY: 155.667 cycles
LLC RQ	ACCESS:     319503	FORWARD:          0	MERGED:          0	TO_CACHE:     319491
LLC WQ	ACCESS:     125903	FORWARD:         15	MERGED:          0	TO_CACHE:     125903
LLC PQ	ACCESS:     633832	FORWARD:          0	MERGED:          0	TO_CACHE:     633829

LLC Dense regions hint to LLC: 0

RAW hits: 1867679
Loads Generated: 12611850
Loads sent to L1D: 10744171
Stores Generated: 6919135
Stores sent to L1D: 6919153
Major fault: 0 Minor fault: 2606
Allocated PAGES: 2606
I-Shadow cache 408 bytes
Touched + WorthPF tables 12288 bytes 
MMA filter 174 bytes 
FNL filter 272 bytes 
TOTAL PREFETCHER STORAGE SIZE: 31318 bytes
CPU 0 L1I next line prefetcher final stats

stream: 
stream:times selected: 1222147
stream:pref_filled: 121799
stream:pref_useful: 25539
stream:pref_late: 9832
stream:misses: 9166
stream:misses_by_poll: 0

CS: 
CS:times selected: 185887
CS:pref_filled: 63804
CS:pref_useful: 39506
CS:pref_late: 15294
CS:misses: 27513
CS:misses_by_poll: 3

CPLX: 
CPLX:times selected: 1035122
CPLX:pref_filled: 22866
CPLX:pref_useful: 5980
CPLX:pref_late: 4134
CPLX:misses: 121935
CPLX:misses_by_poll: 0

NL_L1: 
NL:times selected: 12625
NL:pref_filled: 1409
NL:pref_useful: 122
NL:pref_late: 294
NL:misses: 1637
NL:misses_by_poll: 0

total selections: 2455781
total_filled: 101494
total_useful: 43402
total_late: 31751
total_polluted: 3
total_misses_after_warmup: 798358
conflicts: 5555304

test: 118887

DRAM Statistics
 CHANNEL 0
 RQ ROW_BUFFER_HIT:      10201  ROW_BUFFER_MISS:      18553
 DBUS_CONGESTED:         11
 WQ ROW_BUFFER_HIT:       1542  ROW_BUFFER_MISS:      12126  FULL:          0

 AVG_CONGESTED_CYCLE: 6

CPU 0 Branch Prediction Accuracy: 99.8128% MPKI: 0.3428 Average ROB Occupancy at Mispredict: 162.447
Branch types
NOT_BRANCH: 40843473 81.6869%
BRANCH_DIRECT_JUMP: 545551 1.0911%
BRANCH_INDIRECT: 182027 0.364054%
BRANCH_CONDITIONAL: 6200989 12.402%
BRANCH_DIRECT_CALL: 942384 1.88477%
BRANCH_INDIRECT_CALL: 171545 0.34309%
BRANCH_RETURN: 1113926 2.22785%
BRANCH_OTHER: 0 0%

DRAM PAGES: 1048576
Allocated PAGES: 2606
Average_ROB_Occupancy: 177.611
Average_Decode_Occupancy: 17.1971
Average_FTQ_Occupancy: 6.04373
Indirect max targets: 14 Average targets: 1.17296
Branch_type:  BRANCH_DIRECT_JUMP:  Count Percentage: 4.13147 5.06704 4.34755 7.19122 3.02757 6.33825 1.50324 68.3937 
Branch_type:  BRANCH_INDIRECT:  Count Percentage: 11.7616 3.38966 2.50461 9.68306 3.35121 2.81474 0.938063 65.557 
Branch_type:  BRANCH_CONDITIONAL:  Count Percentage: 29.5859 2.20044 1.52847 4.02408 1.94961 4.26651 0.495612 55.9494 
Branch_type:  BRANCH_DIRECT_CALL:  Count Percentage: 0.388191 1.78932 0.725926 3.43508 3.04408 2.61696 0.725873 87.2746 
Branch_type:  BRANCH_INDIRECT_CALL:  Count Percentage: 9.55006 0 2.99423 0.000874228 1.13766 1.71494 0.995163 83.6071 
Branch_type:  BRANCH_RETURN:  Count Percentage: 10.4368 1.51259 1.1582 3.42735 4.2665 4.83221 0.589292 73.7771 
Branch_type:  BRANCH_DIRECT_JUMP:  Total Count: 45065 55270 47422 78440 33024 69136 16397 746021 
Branch_type:  BRANCH_INDIRECT:  Total Count: 42818 12340 9118 35251 12200 10247 3415 238659 
Branch_type:  BRANCH_CONDITIONAL:  Total Count: 3667700 272784 189481 498857 241689 528910 61440 6935922 
Branch_type:  BRANCH_DIRECT_CALL:  Total Count: 7309 33690 13668 64677 57315 49273 13667 1643238 
Branch_type:  BRANCH_INDIRECT_CALL:  Total Count: 32772 0 10275 3 3904 5885 3415 286906 
Branch_type:  BRANCH_RETURN:  Total Count: 232417 33684 25792 76324 95011 107609 13123 1642949 
Number of unique branch instructions: 11196
Upper 32 bits: 
aaaa
ffff
ffff0000
Unique upper 32 bits: 3
Unique upper 36 bits: 3
Unique upper 40 bits: 5
Unique upper 44 bits: 32
Unique upper 48 bits: 160
Offset_3 4624
Offset_4 274
Offset_5 506
Offset_6 569
Offset_7 655
Offset_8 597
Offset_9 563
Offset_10 460
Offset_11 366
Offset_12 325
Offset_13 241
Offset_14 260
Offset_15 213
Offset_16 260
Offset_17 176
Offset_18 152
Offset_19 270
Offset_20 146
Offset_21 241
Offset_22 425
Offset_23 241
Offset_24 373
Offset_25 114
Offset_47 90
decode_dispatch_called: 21758155 55.0947
Dispatch_width: 0 10778159 49.5362 27.2918
Dispatch_width: 1 757782 3.48275 1.91881
Dispatch_width: 2 921402 4.23474 2.33312
Dispatch_width: 3 611808 2.81186 1.54918
Dispatch_width: 4 3089571 14.1996 7.82322
Dispatch_width: 5 390966 1.79687 0.98998
Dispatch_width: 6 5208467 23.938 13.1886
Empty_decode_cycles: 17734146 44.9053
ROB_full_cycles: 4593792 11.6321
Starvation_cycles_per_kilo_instr: 296.9
Starvation_cycles_per_kilo_instr_3: 262.095
Starvation_cycles_per_kilo_instr_0: 239.185
Branch_type_1  (3,1)  (4,10)  (5,40)  (6,80)  (7,127)  (8,153)  (9,147)  (10,118)  (11,79)  (12,55)  (13,12)  (14,2)  (15,3)  (16,4)  (18,1)  (19,5)  (20,2)  (21,1)  (22,3)  (23,2)  (24,10)  (25,12) 
Branch_type_2  (3,1)  (4,1)  (5,1)  (8,4)  (9,4)  (10,1)  (12,1)  (13,1)  (14,1)  (16,3)  (17,2)  (20,2)  (21,2)  (23,5)  (24,1)  (47,40) 
Branch_type_3  (3,4622)  (4,263)  (5,461)  (6,471)  (7,494)  (8,366)  (9,305)  (10,183)  (11,146)  (12,62)  (13,11) 
Branch_type_4  (6,4)  (7,8)  (8,28)  (9,65)  (10,76)  (11,75)  (12,114)  (13,102)  (14,119)  (15,102)  (16,119)  (17,80)  (18,65)  (19,130)  (20,75)  (21,127)  (22,224)  (23,136)  (24,223)  (25,98) 
Branch_type_5  (8,4)  (9,1)  (10,4)  (11,5)  (12,3)  (13,14)  (14,16)  (15,12)  (16,22)  (17,13)  (18,23)  (19,14)  (20,11)  (21,13)  (22,45)  (23,26)  (24,38) 
Branch_type_6  (5,4)  (6,14)  (7,26)  (8,42)  (9,41)  (10,78)  (11,61)  (12,90)  (13,101)  (14,122)  (15,96)  (16,112)  (17,81)  (18,63)  (19,121)  (20,56)  (21,98)  (22,153)  (23,72)  (24,101)  (25,4)  (47,50) 
Unique trigger count: 
L2BTB1 768 4
L2BTB2 768 4
L2BTB3 768 4
L2BTB4 112 4
