
*** ChampSim Multicore Out-of-Order Simulator ***

Warmup Instructions: 50000000
Simulation Instructions: 50000000
Number of CPUs: 1
LLC sets: 2048
LLC ways: 16
Off-chip DRAM Size: 4096 MB Channels: 1 Width: 64-bit Data Rate: 6400 MT/s
CPU 0 runs ./micro_traces/srv763.trace.gz
.gz
ITLB has LRU replacement policy
DTLB has LRU replacement policy
STLB has LRU replacement policy
FDIP Prefetcher at L1I
L1I has LRU replacement policy
L1D has LRU replacement policy
Initialize SRRIP state for L2C
Initialize DRRIP state for LLC
Heartbeat_Variant_0 : 1354 0.330566 per_variant_size: 0 1354 0 0 0 0 0 0 0 
Heartbeat_Variant_1 : 2466 0.602051 per_variant_size: 0 335 2131 0 0 0 0 0 0 
Heartbeat_Variant_2 : 0 0 per_variant_size: 0 0 0 0 0 0 0 0 0 
Heartbeat_Variant_3 : 0 0 per_variant_size: 0 0 0 0 0 0 0 0 0 
Heartbeat_Variant_0_evicts 0 : 5648 1 : 41 2 : 0 3 : 0 
Heartbeat_Variant_1_evicts 0 : 38 1 : 0 2 : 0 3 : 0 
Heartbeat_Variant_2_evicts 0 : 0 1 : 0 2 : 0 3 : 0 
Heartbeat_Variant_3_evicts 0 : 0 1 : 0 2 : 0 3 : 0 
Heartbeat CPU 0 instructions: 10000000 cycles: 2796931 heartbeat IPC: 3.57535 cumulative IPC: 3.57535 (Simulation time: 0 hr 1 min 15 sec) 
Heartbeat_Variant_0 : 1385 0.338135 per_variant_size: 0 1385 0 0 0 0 0 0 0 
Heartbeat_Variant_1 : 2531 0.61792 per_variant_size: 0 293 2238 0 0 0 0 0 0 
Heartbeat_Variant_2 : 0 0 per_variant_size: 0 0 0 0 0 0 0 0 0 
Heartbeat_Variant_3 : 0 0 per_variant_size: 0 0 0 0 0 0 0 0 0 
Heartbeat_Variant_0_evicts 0 : 5597 1 : 34 2 : 0 3 : 0 
Heartbeat_Variant_1_evicts 0 : 39 1 : 0 2 : 0 3 : 0 
Heartbeat_Variant_2_evicts 0 : 0 1 : 0 2 : 0 3 : 0 
Heartbeat_Variant_3_evicts 0 : 0 1 : 0 2 : 0 3 : 0 
Heartbeat CPU 0 instructions: 20000002 cycles: 5593814 heartbeat IPC: 3.57541 cumulative IPC: 3.57538 (Simulation time: 0 hr 2 min 29 sec) 
Heartbeat_Variant_0 : 1434 0.350098 per_variant_size: 0 1434 0 0 0 0 0 0 0 
Heartbeat_Variant_1 : 2626 0.641113 per_variant_size: 0 204 2422 0 0 0 0 0 0 
Heartbeat_Variant_2 : 0 0 per_variant_size: 0 0 0 0 0 0 0 0 0 
Heartbeat_Variant_3 : 0 0 per_variant_size: 0 0 0 0 0 0 0 0 0 
Heartbeat_Variant_0_evicts 0 : 5588 1 : 276 2 : 0 3 : 0 
Heartbeat_Variant_1_evicts 0 : 273 1 : 0 2 : 0 3 : 0 
Heartbeat_Variant_2_evicts 0 : 0 1 : 0 2 : 0 3 : 0 
Heartbeat_Variant_3_evicts 0 : 0 1 : 0 2 : 0 3 : 0 
Heartbeat CPU 0 instructions: 30000003 cycles: 8389750 heartbeat IPC: 3.57662 cumulative IPC: 3.57579 (Simulation time: 0 hr 3 min 45 sec) 
Heartbeat_Variant_0 : 1432 0.349609 per_variant_size: 0 1432 0 0 0 0 0 0 0 
Heartbeat_Variant_1 : 2628 0.641602 per_variant_size: 0 194 2434 0 0 0 0 0 0 
Heartbeat_Variant_2 : 0 0 per_variant_size: 0 0 0 0 0 0 0 0 0 
Heartbeat_Variant_3 : 0 0 per_variant_size: 0 0 0 0 0 0 0 0 0 
Heartbeat_Variant_0_evicts 0 : 5629 1 : 11 2 : 0 3 : 0 
Heartbeat_Variant_1_evicts 0 : 13 1 : 0 2 : 0 3 : 0 
Heartbeat_Variant_2_evicts 0 : 0 1 : 0 2 : 0 3 : 0 
Heartbeat_Variant_3_evicts 0 : 0 1 : 0 2 : 0 3 : 0 
Heartbeat CPU 0 instructions: 40000003 cycles: 11185862 heartbeat IPC: 3.57639 cumulative IPC: 3.57594 (Simulation time: 0 hr 5 min 0 sec) 
Heartbeat_Variant_0 : 1436 0.350586 per_variant_size: 0 1436 0 0 0 0 0 0 0 
Heartbeat_Variant_1 : 2635 0.643311 per_variant_size: 0 176 2459 0 0 0 0 0 0 
Heartbeat_Variant_2 : 0 0 per_variant_size: 0 0 0 0 0 0 0 0 0 
Heartbeat_Variant_3 : 0 0 per_variant_size: 0 0 0 0 0 0 0 0 0 
Heartbeat_Variant_0_evicts 0 : 5613 1 : 83 2 : 0 3 : 0 
Heartbeat_Variant_1_evicts 0 : 82 1 : 0 2 : 0 3 : 0 
Heartbeat_Variant_2_evicts 0 : 0 1 : 0 2 : 0 3 : 0 
Heartbeat_Variant_3_evicts 0 : 0 1 : 0 2 : 0 3 : 0 
Heartbeat CPU 0 instructions: 50000001 cycles: 13982770 heartbeat IPC: 3.57538 cumulative IPC: 3.57583 (Simulation time: 0 hr 6 min 20 sec) 

Warmup complete CPU 0 instructions: 50000001 cycles: 13982770 (Simulation time: 0 hr 6 min 20 sec) 

Cycle: 20000000 FTQ IN: 58358848 FTQ occupancy: 19.9526 DECODE IN: 58358728 DECODE occupancy: 52.0798 ROB IN: 58358668 ROB occupancy: 315.012 ROB OUT: 58358316
Heartbeat_Variant_0 : 1436 0.350586 per_variant_size: 0 1436 0 0 0 0 0 0 0 
Heartbeat_Variant_1 : 2641 0.644775 per_variant_size: 0 204 2437 0 0 0 0 0 0 
Heartbeat_Variant_2 : 0 0 per_variant_size: 0 0 0 0 0 0 0 0 0 
Heartbeat_Variant_3 : 0 0 per_variant_size: 0 0 0 0 0 0 0 0 0 
Heartbeat_Variant_0_evicts 0 : 5626 1 : 80 2 : 0 3 : 0 
Heartbeat_Variant_1_evicts 0 : 81 1 : 0 2 : 0 3 : 0 
Heartbeat_Variant_2_evicts 0 : 0 1 : 0 2 : 0 3 : 0 
Heartbeat_Variant_3_evicts 0 : 0 1 : 0 2 : 0 3 : 0 
Heartbeat CPU 0 instructions: 60000003 cycles: 21185241 heartbeat IPC: 1.38841 cumulative IPC: 1.38841 (Simulation time: 0 hr 7 min 41 sec) 
Heartbeat_Variant_0 : 1441 0.351807 per_variant_size: 0 1441 0 0 0 0 0 0 0 
Heartbeat_Variant_1 : 2639 0.644287 per_variant_size: 0 215 2424 0 0 0 0 0 0 
Heartbeat_Variant_2 : 0 0 per_variant_size: 0 0 0 0 0 0 0 0 0 
Heartbeat_Variant_3 : 0 0 per_variant_size: 0 0 0 0 0 0 0 0 0 
Heartbeat_Variant_0_evicts 0 : 5586 1 : 80 2 : 0 3 : 0 
Heartbeat_Variant_1_evicts 0 : 76 1 : 0 2 : 0 3 : 0 
Heartbeat_Variant_2_evicts 0 : 0 1 : 0 2 : 0 3 : 0 
Heartbeat_Variant_3_evicts 0 : 0 1 : 0 2 : 0 3 : 0 
Heartbeat CPU 0 instructions: 70000002 cycles: 28498945 heartbeat IPC: 1.3673 cumulative IPC: 1.37777 (Simulation time: 0 hr 8 min 59 sec) 
Cycle: 30000000 FTQ IN: 13727680 FTQ occupancy: 13.0179 DECODE IN: 13727765 DECODE occupancy: 33.4429 ROB IN: 13727823 ROB occupancy: 236.23 ROB OUT: 13728020
Heartbeat_Variant_0 : 1442 0.352051 per_variant_size: 0 1442 0 0 0 0 0 0 0 
Heartbeat_Variant_1 : 2643 0.645264 per_variant_size: 0 210 2433 0 0 0 0 0 0 
Heartbeat_Variant_2 : 0 0 per_variant_size: 0 0 0 0 0 0 0 0 0 
Heartbeat_Variant_3 : 0 0 per_variant_size: 0 0 0 0 0 0 0 0 0 
Heartbeat_Variant_0_evicts 0 : 5676 1 : 27 2 : 0 3 : 0 
Heartbeat_Variant_1_evicts 0 : 30 1 : 0 2 : 0 3 : 0 
Heartbeat_Variant_2_evicts 0 : 0 1 : 0 2 : 0 3 : 0 
Heartbeat_Variant_3_evicts 0 : 0 1 : 0 2 : 0 3 : 0 
Heartbeat CPU 0 instructions: 80000001 cycles: 35710867 heartbeat IPC: 1.38659 cumulative IPC: 1.3807 (Simulation time: 0 hr 10 min 18 sec) 
Cycle: 40000000 FTQ IN: 13751306 FTQ occupancy: 13.0093 DECODE IN: 13751320 DECODE occupancy: 33.5304 ROB IN: 13751307 ROB occupancy: 236.459 ROB OUT: 13751123
Heartbeat_Variant_0 : 1438 0.351074 per_variant_size: 0 1438 0 0 0 0 0 0 0 
Heartbeat_Variant_1 : 2647 0.64624 per_variant_size: 0 228 2419 0 0 0 0 0 0 
Heartbeat_Variant_2 : 0 0 per_variant_size: 0 0 0 0 0 0 0 0 0 
Heartbeat_Variant_3 : 0 0 per_variant_size: 0 0 0 0 0 0 0 0 0 
Heartbeat_Variant_0_evicts 0 : 5612 1 : 49 2 : 0 3 : 0 
Heartbeat_Variant_1_evicts 0 : 53 1 : 0 2 : 0 3 : 0 
Heartbeat_Variant_2_evicts 0 : 0 1 : 0 2 : 0 3 : 0 
Heartbeat_Variant_3_evicts 0 : 0 1 : 0 2 : 0 3 : 0 
Heartbeat CPU 0 instructions: 90000001 cycles: 42996592 heartbeat IPC: 1.37255 cumulative IPC: 1.37865 (Simulation time: 0 hr 11 min 39 sec) 
Cycle: 50000000 FTQ IN: 13851104 FTQ occupancy: 13.0038 DECODE IN: 13851069 DECODE occupancy: 33.8744 ROB IN: 13851064 ROB occupancy: 237.535 ROB OUT: 13851326
Heartbeat_Variant_0 : 1440 0.351562 per_variant_size: 0 1440 0 0 0 0 0 0 0 
Heartbeat_Variant_1 : 2647 0.64624 per_variant_size: 0 228 2419 0 0 0 0 0 0 
Heartbeat_Variant_2 : 0 0 per_variant_size: 0 0 0 0 0 0 0 0 0 
Heartbeat_Variant_3 : 0 0 per_variant_size: 0 0 0 0 0 0 0 0 0 
Heartbeat_Variant_0_evicts 0 : 5582 1 : 54 2 : 0 3 : 0 
Heartbeat_Variant_1_evicts 0 : 52 1 : 0 2 : 0 3 : 0 
Heartbeat_Variant_2_evicts 0 : 0 1 : 0 2 : 0 3 : 0 
Heartbeat_Variant_3_evicts 0 : 0 1 : 0 2 : 0 3 : 0 
Heartbeat CPU 0 instructions: 100000003 cycles: 50224245 heartbeat IPC: 1.38358 cumulative IPC: 1.37963 (Simulation time: 0 hr 13 min 3 sec) 
Finished CPU 0 instructions: 50000002 cycles: 36241475 cumulative IPC: 1.37963 (Simulation time: 0 hr 13 min 3 sec) 

ChampSim completed all CPUs

Region of Interest Statistics

CPU 0 cumulative IPC: 1.37963 instructions: 50000002 cycles: 36241475
 Fetch stage stalled: 53.5756  Sim cycles: 36241475 fetch stall cycle: 19416594
 Empty decode stage: 35.4695  Sim cycles: 36241475 fetch stall cycle: 12854673
ITLB TOTAL     ACCESS:    5860224  HIT:    5370525  MISS:     489699  HIT %:    91.6437  MISS %:    8.35632   MPKI: 9.79398
ITLB LOAD TRANSLATION INSTRUCTION	ACCESS:    5735680  HIT:    5245981  MISS:     489699  HIT %:    91.4622  MISS %:    8.53777  MPKI: 9.79398
ITLB TRANSLATION FROM L1D PREFETCHER INSTRUCTION	ACCESS:     124544  HIT:     124544  MISS:          0  HIT %:        100  MISS %:          0  MPKI: 0

ITLB AVERAGE MISS LATENCY: 9.05526 cycles
ITLB RQ	ACCESS:    7994416	FORWARD:          0	MERGED:    1694275	TO_CACHE:    6300141

DTLB TOTAL     ACCESS:    8943001  HIT:    8468250  MISS:     474751  HIT %:    94.6914  MISS %:    5.30863   MPKI: 9.49502
DTLB LOAD TRANSLATION DATA	ACCESS:    8943001  HIT:    8468250  MISS:     474751  HIT %:    94.6914  MISS %:    5.30863  MPKI: 9.49502

DTLB AVERAGE MISS LATENCY: 9.30264 cycles
DTLB RQ	ACCESS:   13304216	FORWARD:          0	MERGED:    4324202	TO_CACHE:    8980014

STLB TOTAL     ACCESS:    1217496  HIT:    1215545  MISS:       1951  HIT %:    99.8398  MISS %:   0.160247   MPKI: 0.03902
STLB LOAD TRANSLATION INSTRUCTION	ACCESS:     489699  HIT:     489464  MISS:        235  HIT %:     99.952  MISS %:  0.0479887  MPKI: 0.0047
STLB LOAD TRANSLATION DATA	ACCESS:     474751  HIT:     473049  MISS:       1702  HIT %:    99.6415  MISS %:   0.358504  MPKI: 0.03404
STLB TRANSLATION FROM L1D PREFETCHER DATA	ACCESS:     253046  HIT:     253032  MISS:         14  HIT %:    99.9945  MISS %: 0.00553259  MPKI: 0.00028

STLB AVERAGE MISS LATENCY: 70.837 cycles
STLB RQ	ACCESS:    1353430	FORWARD:          0	MERGED:     135904	TO_CACHE:    1217526

STLB Hit, L1D data hit: 0
STLB Hit, L2C data hit: 0
STLB Hit, LLC data hit: 0
STLB Hit, LLC data miss: 0
STLB STLB hints to L2: 0
L1D TOTAL     ACCESS:   13063183  HIT:   11921732  MISS:    1141451  HIT %:    91.2621  MISS %:    8.73792   MPKI: 22.829
L1D LOAD DATA	ACCESS:    6554006  HIT:    5801782  MISS:     752224  HIT %:    88.5227  MISS %:    11.4773  MPKI: 15.0445
L1D RFO DATA	ACCESS:    6175192  HIT:    5887583  MISS:     287609  HIT %:    95.3425  MISS %:    4.65749  MPKI: 5.75218
L1D PREFETCH DATA	ACCESS:     333985  HIT:     232367  MISS:     101618  HIT %:    69.5741  MISS %:    30.4259  MPKI: 2.03236

L1D PREFETCH  REQUESTED:     778357  ISSUED:     778357  USEFUL:      42448  USELESS:      70353
L1D USEFUL LOAD PREFETCHES:      42448 PREFETCH ISSUED TO LOWER LEVEL:     112859  ACCURACY: 37.6115
 TIMELY PREFETCHES:      42448 LATE PREFETCHES: 11177 DROPPED PREFETCHES: 3
L1D AVERAGE MISS LATENCY: 316298 cycles
L1D RQ	ACCESS:   10682805	FORWARD:          0	MERGED:    3931573	TO_CACHE:    6588132
L1D WQ	ACCESS:    6912607	FORWARD:     163497	MERGED:     196523	TO_CACHE:    6716084
L1D PQ	ACCESS:     389377	FORWARD:          0	MERGED:          0	TO_CACHE:     388980

L1D UNIQUE REGIONS ACCESSED: 0
L1D REGIONS CONFLICTS: 0
L1D Cross Page Prefetch Requests: 5991
L1D Same Page Prefetch Requests: 784714
L1D ROI Sum of L1D PQ occupancy: 4948485
L1D PREFETCHES PUSHED FROM L2C: 0
L1I TOTAL     ACCESS:    7164319  HIT:    4424147  MISS:    2740172  HIT %:    61.7525  MISS %:    38.2475   MPKI: 54.8034
L1I LOAD INSTRUCTION	ACCESS:    6492859  HIT:    3752687  MISS:    2740172  HIT %:    57.7971  MISS %:    42.2029  MPKI: 54.8034
L1I PREFETCH INSTRUCTION	ACCESS:     671460  HIT:     671460  MISS:          0  HIT %:        100  MISS %:          0  MPKI: 0

L1I PREFETCH  REQUESTED:    1608332  ISSUED:    1608332  USEFUL:          0  USELESS:          0
L1I USEFUL LOAD PREFETCHES:          0 PREFETCH ISSUED TO LOWER LEVEL:          0  ACCURACY: -nan
 TIMELY PREFETCHES:          0 LATE PREFETCHES: 0 DROPPED PREFETCHES: 0
L1I AVERAGE MISS LATENCY: 17.3443 cycles
L1I RQ	ACCESS:    9510446	FORWARD:          0	MERGED:    2694211	TO_CACHE:    6816235
L1I PQ	ACCESS:    1608332	FORWARD:          0	MERGED:     430151	TO_CACHE:    1178181

L1BTB TOTAL     ACCESS:    5678639  HIT:    2075660  MISS:    3602979  HIT %:    36.5521  MISS %:    63.4479   MPKI: 72.0596
L1BTB BRANCH_DIRECT_JUMP	ACCESS:     546212 HIT:     145243 MISS:     400969 AVERAGE STALL: 47.1589 AVERAGE FETCH STALL: 15.9373 AVERAGE FETCH QUEUE STALL: 12.3669 AVERAGE DECODE STALL: 17.9289 AVERAGE EXECUTE STALL: 2.09242e+15
L1BTB BRANCH_INDIRECT	ACCESS:     182640 HIT:      66214 MISS:     116426 AVERAGE STALL: 105.873 AVERAGE FETCH STALL: 11.3386 AVERAGE FETCH QUEUE STALL: 18.0586 AVERAGE DECODE STALL: 13.2008 AVERAGE EXECUTE STALL: 62.314
L1BTB BRANCH_CONDITIONAL	ACCESS:    2728590 HIT:    1445485 MISS:    1283105 AVERAGE STALL: 61.8455 AVERAGE FETCH STALL: 21.1684 AVERAGE FETCH QUEUE STALL: 20.2819 AVERAGE DECODE STALL: 19.6372 AVERAGE EXECUTE STALL: 3.23174e+15
L1BTB BRANCH_DIRECT_CALL	ACCESS:     939598 HIT:     106230 MISS:     833368 AVERAGE STALL: 59.9454 AVERAGE FETCH STALL: 23.4239 AVERAGE FETCH QUEUE STALL: 20.0434 AVERAGE DECODE STALL: 15.5585 AVERAGE EXECUTE STALL: 7.41131e+15
L1BTB BRANCH_INDIRECT_CALL	ACCESS:     171011 HIT:      21612 MISS:     149399 AVERAGE STALL: 133.032 AVERAGE FETCH STALL: 12.6583 AVERAGE FETCH QUEUE STALL: 12.7579 AVERAGE DECODE STALL: 9.73727 AVERAGE EXECUTE STALL: 97.3928
L1BTB BRANCH_RETURN	ACCESS:    1110588 HIT:     290876 MISS:     819712 AVERAGE STALL: 45.8829 AVERAGE FETCH STALL: 16.9419 AVERAGE FETCH QUEUE STALL: 4.97426 AVERAGE DECODE STALL: 5.60439 AVERAGE EXECUTE STALL: 4.3804e+14
L1BTB BRANCH_OTHER ACCESS:          0 HIT:          0 MISS:          0 AVERAGE STALL: -nan AVERAGE FETCH STALL: -nan AVERAGE FETCH QUEUE STALL: -nan AVERAGE DECODE STALL: -nan AVERAGE EXECUTE STALL: -nan
L1BTB TOTAL ROB OCCUPANCY AT BTB MISS: 2.73158

L2BTB TOTAL     ACCESS:    3577634  HIT:    3511272  MISS:      66362  HIT %:    98.1451  MISS %:    1.85491   MPKI: 1.32724
L2BTB BRANCH_DIRECT_JUMP	ACCESS:     396776 HIT:     392150 MISS:       4626 AVERAGE STALL: 47.1589 AVERAGE FETCH STALL: 15.9373 AVERAGE FETCH QUEUE STALL: 12.3669 AVERAGE DECODE STALL: 17.9289 AVERAGE EXECUTE STALL: 2.09242e+15
L2BTB BRANCH_INDIRECT	ACCESS:     106220 HIT:     103550 MISS:       2670 AVERAGE STALL: 105.873 AVERAGE FETCH STALL: 11.3386 AVERAGE FETCH QUEUE STALL: 18.0586 AVERAGE DECODE STALL: 13.2008 AVERAGE EXECUTE STALL: 62.314
L2BTB BRANCH_CONDITIONAL	ACCESS:    1283105 HIT:    1277383 MISS:       5722 AVERAGE STALL: 61.8455 AVERAGE FETCH STALL: 21.1684 AVERAGE FETCH QUEUE STALL: 20.2819 AVERAGE DECODE STALL: 19.6372 AVERAGE EXECUTE STALL: 3.23174e+15
L2BTB BRANCH_DIRECT_CALL	ACCESS:     833368 HIT:     830873 MISS:       2495 AVERAGE STALL: 59.9454 AVERAGE FETCH STALL: 23.4239 AVERAGE FETCH QUEUE STALL: 20.0434 AVERAGE DECODE STALL: 15.5585 AVERAGE EXECUTE STALL: 7.41131e+15
L2BTB BRANCH_INDIRECT_CALL	ACCESS:     139844 HIT:     129725 MISS:      10119 AVERAGE STALL: 133.032 AVERAGE FETCH STALL: 12.6583 AVERAGE FETCH QUEUE STALL: 12.7579 AVERAGE DECODE STALL: 9.73727 AVERAGE EXECUTE STALL: 97.3928
L2BTB BRANCH_RETURN	ACCESS:     818321 HIT:     777591 MISS:      40730 AVERAGE STALL: 45.8829 AVERAGE FETCH STALL: 16.9419 AVERAGE FETCH QUEUE STALL: 4.97426 AVERAGE DECODE STALL: 5.60439 AVERAGE EXECUTE STALL: 4.3804e+14
L2BTB BRANCH_OTHER ACCESS:          0 HIT:          0 MISS:          0 AVERAGE STALL: -nan AVERAGE FETCH STALL: -nan AVERAGE FETCH QUEUE STALL: -nan AVERAGE DECODE STALL: -nan AVERAGE EXECUTE STALL: -nan
L2BTB TOTAL ROB OCCUPANCY AT BTB MISS: 148.305

L2C TOTAL     ACCESS:    4491824  HIT:    4003514  MISS:     488310  HIT %:    89.1289  MISS %:    10.8711   MPKI: 9.7662
L2C LOAD INSTRUCTION	ACCESS:    2740173  HIT:    2468433  MISS:     271740  HIT %:    90.0831  MISS %:    9.91689  MPKI: 5.4348
L2C LOAD TRANSLATION INSTRUCTION	ACCESS:        269  HIT:         55  MISS:        214  HIT %:    20.4461  MISS %:    79.5539  MPKI: 0.00428
L2C LOAD DATA	ACCESS:     741017  HIT:     661642  MISS:      79375  HIT %:    89.2884  MISS %:    10.7116  MPKI: 1.5875
L2C RFO DATA	ACCESS:     287516  HIT:     239736  MISS:      47780  HIT %:    83.3818  MISS %:    16.6182  MPKI: 0.9556
L2C PREFETCH DATA	ACCESS:     198274  HIT:     123556  MISS:      74718  HIT %:    62.3158  MISS %:    37.6842  MPKI: 1.49436
L2C WRITEBACK DATA	ACCESS:     522763  HIT:     509608  MISS:      13155  HIT %:    97.4836  MISS %:    2.51644  MPKI: 0.2631
L2C LOAD TRANSLATION DATA	ACCESS:       1786  HIT:        468  MISS:       1318  HIT %:    26.2038  MISS %:    73.7962  MPKI: 0.02636
L2C TRANSLATION FROM L1D PREFETCHER DATA	ACCESS:         26  HIT:         16  MISS:         10  HIT %:    61.5385  MISS %:    38.4615  MPKI: 0.0002

L2C PREFETCH  REQUESTED:      92804  ISSUED:      92804  USEFUL:       7841  USELESS:      67235
L2C USEFUL LOAD PREFETCHES:       7841 PREFETCH ISSUED TO LOWER LEVEL:      75072  ACCURACY: 10.4446
 TIMELY PREFETCHES:       7841 LATE PREFETCHES: 354 DROPPED PREFETCHES: 0
L2C AVERAGE MISS LATENCY: 38.1169 cycles
L2C RQ	ACCESS:    3770847	FORWARD:          0	MERGED:          0	TO_CACHE:    3770788
L2C WQ	ACCESS:     522763	FORWARD:         59	MERGED:          0	TO_CACHE:     522763
L2C PQ	ACCESS:     205663	FORWARD:          0	MERGED:       3440	TO_CACHE:     202223

L2C Dense regions hint from L2: 0
PSCL5 TOTAL     ACCESS:       3916  HIT:       1958  MISS:       1958  HIT %:         50  MISS %:         50   MPKI: 0.03916
PSCL5 LOAD TRANSLATION INSTRUCTION	ACCESS:       3864  HIT:       1932  MISS:       1932  HIT %:         50  MISS %:         50  MPKI: 0.03864
PSCL5 TRANSLATION FROM L1D PREFETCHER INSTRUCTION	ACCESS:         52  HIT:         26  MISS:         26  HIT %:         50  MISS %:         50  MPKI: 0.00052


PSCL4 TOTAL     ACCESS:       3601  HIT:       1796  MISS:       1805  HIT %:     49.875  MISS %:     50.125   MPKI: 0.0361
PSCL4 LOAD TRANSLATION INSTRUCTION	ACCESS:       2577  HIT:       1771  MISS:        806  HIT %:    68.7233  MISS %:    31.2767  MPKI: 0.01612
PSCL4 TRANSLATION FROM L1D PREFETCHER INSTRUCTION	ACCESS:         42  HIT:         25  MISS:         17  HIT %:    59.5238  MISS %:    40.4762  MPKI: 0.00034
PSCL4 LOAD TRANSLATION DATA	ACCESS:        974  HIT:          0  MISS:        974  HIT %:          0  MISS %:        100  MPKI: 0.01948
PSCL4 TRANSLATION FROM L1D PREFETCHER DATA	ACCESS:          8  HIT:          0  MISS:          8  HIT %:          0  MISS %:        100  MPKI: 0.00016


PSCL3 TOTAL     ACCESS:       3611  HIT:       1801  MISS:       1810  HIT %:    49.8754  MISS %:    50.1246   MPKI: 0.0362
PSCL3 LOAD TRANSLATION INSTRUCTION	ACCESS:       2582  HIT:       1776  MISS:        806  HIT %:    68.7839  MISS %:    31.2161  MPKI: 0.01612
PSCL3 TRANSLATION FROM L1D PREFETCHER INSTRUCTION	ACCESS:         42  HIT:         25  MISS:         17  HIT %:    59.5238  MISS %:    40.4762  MPKI: 0.00034
PSCL3 LOAD TRANSLATION DATA	ACCESS:        979  HIT:          0  MISS:        979  HIT %:          0  MISS %:        100  MPKI: 0.01958
PSCL3 TRANSLATION FROM L1D PREFETCHER DATA	ACCESS:          8  HIT:          0  MISS:          8  HIT %:          0  MISS %:        100  MPKI: 0.00016


PSCL2 TOTAL     ACCESS:       3811  HIT:       1853  MISS:       1958  HIT %:    48.6224  MISS %:    51.3776   MPKI: 0.03916
PSCL2 LOAD TRANSLATION INSTRUCTION	ACCESS:       2061  HIT:       1827  MISS:        234  HIT %:    88.6463  MISS %:    11.3537  MPKI: 0.00468
PSCL2 TRANSLATION FROM L1D PREFETCHER INSTRUCTION	ACCESS:         26  HIT:         26  MISS:          0  HIT %:        100  MISS %:          0  MPKI: 0
PSCL2 LOAD TRANSLATION DATA	ACCESS:       1698  HIT:          0  MISS:       1698  HIT %:          0  MISS %:        100  MPKI: 0.03396
PSCL2 TRANSLATION FROM L1D PREFETCHER DATA	ACCESS:         26  HIT:          0  MISS:         26  HIT %:          0  MISS %:        100  MPKI: 0.00052


LLC TOTAL     ACCESS:     545766  HIT:     518272  MISS:      27494  HIT %:    94.9623  MISS %:    5.03769   MPKI: 0.54988
LLC LOAD INSTRUCTION	ACCESS:     271740  HIT:     270996  MISS:        744  HIT %:    99.7262  MISS %:   0.273791  MPKI: 0.01488
LLC LOAD TRANSLATION INSTRUCTION	ACCESS:        214  HIT:        179  MISS:         35  HIT %:    83.6449  MISS %:    16.3551  MPKI: 0.0007
LLC LOAD DATA	ACCESS:      79035  HIT:      75696  MISS:       3339  HIT %:    95.7753  MISS %:    4.22471  MPKI: 0.06678
LLC RFO DATA	ACCESS:      47763  HIT:      34465  MISS:      13298  HIT %:    72.1584  MISS %:    27.8416  MPKI: 0.26596
LLC PREFETCH DATA	ACCESS:      75072  HIT:      65429  MISS:       9643  HIT %:     87.155  MISS %:     12.845  MPKI: 0.19286
LLC WRITEBACK DATA	ACCESS:      70614  HIT:      70239  MISS:        375  HIT %:    99.4689  MISS %:   0.531056  MPKI: 0.0075
LLC LOAD TRANSLATION DATA	ACCESS:       1318  HIT:       1259  MISS:         59  HIT %:    95.5235  MISS %:    4.47648  MPKI: 0.00118
LLC TRANSLATION FROM L1D PREFETCHER DATA	ACCESS:         10  HIT:          9  MISS:          1  HIT %:         90  MISS %:         10  MPKI: 2e-05

LLC AVERAGE MISS LATENCY: 157.077 cycles
LLC RQ	ACCESS:     400083	FORWARD:          0	MERGED:          0	TO_CACHE:     400080
LLC WQ	ACCESS:      70614	FORWARD:          3	MERGED:          0	TO_CACHE:      70614
LLC PQ	ACCESS:      75072	FORWARD:          0	MERGED:          0	TO_CACHE:      75072

LLC Dense regions hint to LLC: 0

RAW hits: 1929032
Loads Generated: 12611837
Loads sent to L1D: 10682805
Stores Generated: 6912591
Stores sent to L1D: 6912607
Major fault: 0 Minor fault: 2577
Allocated PAGES: 2577

stream: 
stream:times selected: 1232304
stream:pref_filled: 126141
stream:pref_useful: 27975
stream:pref_late: 8315
stream:misses: 9053
stream:misses_by_poll: 0

CS: 
CS:times selected: 190133
CS:pref_filled: 68535
CS:pref_useful: 44267
CS:pref_late: 8929
CS:misses: 21781
CS:misses_by_poll: 3

CPLX: 
CPLX:times selected: 1041064
CPLX:pref_filled: 23443
CPLX:pref_useful: 6947
CPLX:pref_late: 3333
CPLX:misses: 117419
CPLX:misses_by_poll: 1

NL_L1: 
NL:times selected: 12472
NL:pref_filled: 1430
NL:pref_useful: 243
NL:pref_late: 189
NL:misses: 1556
NL:misses_by_poll: 0

total selections: 2475973
total_filled: 101618
total_useful: 42448
total_late: 22562
total_polluted: 4
total_misses_after_warmup: 786354
conflicts: 5495361

test: 119231

DRAM Statistics
 CHANNEL 0
 RQ ROW_BUFFER_HIT:      10072  ROW_BUFFER_MISS:      17042
 DBUS_CONGESTED:          3
 WQ ROW_BUFFER_HIT:       1387  ROW_BUFFER_MISS:      11837  FULL:          0

 AVG_CONGESTED_CYCLE: 5

CPU 0 Branch Prediction Accuracy: 99.8226% MPKI: 0.32482 Average ROB Occupancy at Mispredict: 188.485
Branch types
NOT_BRANCH: 40846683 81.6934%
BRANCH_DIRECT_JUMP: 546212 1.09242%
BRANCH_INDIRECT: 182640 0.36528%
BRANCH_CONDITIONAL: 6203157 12.4063%
BRANCH_DIRECT_CALL: 939598 1.8792%
BRANCH_INDIRECT_CALL: 171011 0.342022%
BRANCH_RETURN: 1110588 2.22118%
BRANCH_OTHER: 0 0%

DRAM PAGES: 1048576
Allocated PAGES: 2577
Average_ROB_Occupancy: 237.997
Average_Decode_Occupancy: 33.5963
Average_FTQ_Occupancy: 12.9835
Indirect max targets: 14 Average targets: 1.17089
Branch_type:  BRANCH_DIRECT_JUMP:  Count Percentage: 3.32051 6.19414 4.304 8.81397 1.87568 6.0095 1.91814 67.5641 
Branch_type:  BRANCH_INDIRECT:  Count Percentage: 6.17261 3.47733 8.1595 9.69184 3.33604 2.80016 3.86041 62.5021 
Branch_type:  BRANCH_CONDITIONAL:  Count Percentage: 26.1017 3.20765 1.6015 4.18098 2.53422 3.64856 2.43582 56.2895 
Branch_type:  BRANCH_DIRECT_CALL:  Count Percentage: 0.38922 1.76596 0.758726 3.64087 3.49152 2.73797 3.17716 84.0386 
Branch_type:  BRANCH_INDIRECT_CALL:  Count Percentage: 9.53062 0 2.98707 0.000878722 1.12213 2.03014 4.98206 79.3471 
Branch_type:  BRANCH_RETURN:  Count Percentage: 7.52239 1.79183 1.29973 4.14133 4.11902 3.55167 3.80763 73.7664 
Branch_type:  BRANCH_DIRECT_JUMP:  Total Count: 36291 67698 47040 96331 20500 65680 20964 738432 
Branch_type:  BRANCH_INDIRECT:  Total Count: 22542 12699 29798 35394 12183 10226 14098 228254 
Branch_type:  BRANCH_CONDITIONAL:  Total Count: 3237257 397827 198625 518544 314306 452511 302102 6981281 
Branch_type:  BRANCH_DIRECT_CALL:  Total Count: 7305 33144 14240 68333 65530 51387 59630 1577262 
Branch_type:  BRANCH_INDIRECT_CALL:  Total Count: 32538 0 10198 3 3831 6931 17009 270895 
Branch_type:  BRANCH_RETURN:  Total Count: 166927 39762 28842 91899 91404 78814 84494 1636927 
Number of unique branch instructions: 10531
Upper 32 bits: 
aaaa
ffff
ffff0000
Unique upper 32 bits: 3
Unique upper 36 bits: 3
Unique upper 40 bits: 5
Unique upper 44 bits: 32
Unique upper 48 bits: 158
Variant_0 : 1440 0.351562
Variant_1 : 2647 0.64624
Variant_2 : 0 0
Variant_3 : 0 0
Offset_3 4360
Offset_4 258
Offset_5 477
Offset_6 532
Offset_7 618
Offset_8 563
Offset_9 503
Offset_10 414
Offset_11 333
Offset_12 295
Offset_13 228
Offset_14 233
Offset_15 198
Offset_16 228
Offset_17 163
Offset_18 146
Offset_19 260
Offset_20 141
Offset_21 235
Offset_22 402
Offset_23 241
Offset_24 348
Offset_25 114
Offset_47 92
decode_dispatch_called: 25323789 69.8752
Dispatch_width: 0 13535561 53.45 37.3483
Dispatch_width: 1 953479 3.76515 2.63091
Dispatch_width: 2 827870 3.26914 2.28432
Dispatch_width: 3 489944 1.93472 1.35189
Dispatch_width: 4 5513422 21.7717 15.213
Dispatch_width: 5 153912 0.607776 0.424685
Dispatch_width: 6 3849601 15.2015 10.6221
Empty_decode_cycles: 10917686 30.1248
ROB_full_cycles: 8788732 24.2505
Starvation_cycles_per_kilo_instr: 236.031
Starvation_cycles_per_kilo_instr_3: 179.358
Starvation_cycles_per_kilo_instr_0: 156.645
Branch_type_1  (3,1)  (4,9)  (5,39)  (6,73)  (7,122)  (8,146)  (9,135)  (10,108)  (11,76)  (12,47)  (13,11)  (14,2)  (15,3)  (16,4)  (18,1)  (19,5)  (20,2)  (21,1)  (22,3)  (23,2)  (24,10)  (25,12) 
Branch_type_2  (3,1)  (4,1)  (5,1)  (8,4)  (9,4)  (10,1)  (12,1)  (13,1)  (14,1)  (16,3)  (17,2)  (20,2)  (21,2)  (23,5)  (24,1)  (47,42) 
Branch_type_3  (3,4358)  (4,248)  (5,433)  (6,443)  (7,466)  (8,346)  (9,274)  (10,168)  (11,130)  (12,54)  (13,10) 
Branch_type_4  (6,3)  (7,8)  (8,25)  (9,56)  (10,65)  (11,66)  (12,106)  (13,96)  (14,104)  (15,94)  (16,101)  (17,72)  (18,62)  (19,127)  (20,73)  (21,124)  (22,212)  (23,136)  (24,203)  (25,98) 
Branch_type_5  (8,3)  (9,1)  (10,4)  (11,5)  (12,3)  (13,14)  (14,16)  (15,11)  (16,22)  (17,13)  (18,23)  (19,14)  (20,11)  (21,13)  (22,43)  (23,26)  (24,38) 
Branch_type_6  (5,4)  (6,13)  (7,22)  (8,39)  (9,33)  (10,68)  (11,56)  (12,84)  (13,96)  (14,110)  (15,90)  (16,98)  (17,76)  (18,60)  (19,114)  (20,53)  (21,95)  (22,144)  (23,72)  (24,96)  (25,4)  (47,50) 
Unique trigger count: 
Variant_0_evicts_0 : 0
Variant_0_evicts_1 : 0
Variant_0_evicts_2 : 0
Variant_0_evicts_3 : 0
Variant_1_evicts_0 : 0
Variant_1_evicts_1 : 0
Variant_1_evicts_2 : 0
Variant_1_evicts_3 : 0
Variant_2_evicts_0 : 0
Variant_2_evicts_1 : 0
Variant_2_evicts_2 : 0
Variant_2_evicts_3 : 0
Variant_3_evicts_0 : 0
Variant_3_evicts_1 : 0
Variant_3_evicts_2 : 0
Variant_3_evicts_3 : 0
BTB PER SET UNIQUE ADDR: 17 19 16 19 18 23 17 15 18 19 21 13 25 16 15 17 17 23 20 16 26 15 14 15 22 16 15 19 14 22 20 14 14 17 16 16 21 17 17 18 18 17 13 25 13 18 23 13 18 16 16 18 14 23 25 17 16 20 23 16 19 15 16 20 17 23 22 14 24 14 22 20 22 19 17 15 14 19 21 18 14 14 15 29 18 16 19 16 17 19 29 15 26 14 18 29 15 16 18 23 17 25 23 18 11 20 19 15 23 19 16 25 16 23 21 14 26 17 16 24 20 15 17 19 17 18 22 17 16 22 25 17 24 14 20 21 19 14 19 27 18 19 25 16 20 17 19 24 19 16 24 11 16 21 22 16 19 15 13 21 17 17 15 23 15 22 22 15 16 21 19 18 21 16 19 25 15 20 20 14 24 19 15 26 24 13 19 18 13 28 22 16 18 17 17 21 16 20 23 14 16 25 22 18 16 14 24 23 17 16 20 16 23 13 17 20 21 16 17 19 17 18 19 17 14 24 23 13 23 18 15 19 20 19 18 18 15 17 23 13 21 15 17 24 15 27 17 21 14 21 23 17 23 15 14 15 17 22 19 16 26 16 16 18 25 13 25 21 17 23 20 14 20 16 17 22 16 22 18 18 14 25 26 18 22 17 18 22 20 17 17 22 15 22 21 18 18 23 22 18 18 15 19 19 18 21 21 16 24 17 19 18 17 13 18 21 15 21 22 12 23 17 16 19 17 25 21 16 17 21 17 13 20 19 18 21 15 22 15 18 19 13 17 15 17 22 19 25 13 23 25 15 15 30 29 19 17 16 18 21 21 13 17 23 18 21 19 15 19 17 16 22 16 22 18 16 17 21 26 18 20 11 15 21 15 21 14 25 13 24 21 13 15 20 26 17 25 16 15 21 13 22 27 16 25 18 16 24 24 16 18 24 24 21 14 17 17 21 20 18 20 15 17 23 20 13 18 20 13 19 20 16 21 12 15 22 19 17 25 19 16 31 24 15 21 15 18 24 17 18 23 14 22 16 14 25 18 13 15 21 16 20 22 14 21 15 12 15 18 21 27 16 17 26 28 19 23 17 19 16 17 14 14 24 18 26 24 15 14 19 21 16 20 15 16 17 14 20 21 18 21 14 15 21 17 14 14 20 13 27 17 16 
BTB PER SET COUNT: 17 19 1225 1014 108 475 2426 15 26 660 559 355 32 239 975 19 19 2441 22 106 193 15 512 270 24 16 17 270 378 502 20 1746 15 17 19 21 1590 17 21 24 570 20 13 28 13 21 29 13 1474 16 21 1092 1007 31 27 23 278 24 24 17 30 17 18 858 18 24 724 16 997 24 392 340 22 20 17 15 15 22 22 20 14 17 17 1529 978 1471 21 19 24 20 32 16 224 16 19 1043 18 20 509 99 17 523 25 3490 124 23 19 1170 452 19 17 26 1474 24 1011 16 30 18 16 28 704 15 21 4702 17 19 517 18 18 26 25 18 90 16 60 140 21 15 23 1605 404 1945 28 627 21 9327 1476 24 19 17 25 11 25 22 445 135 117 15 509 22 977 17 18 26 1497 27 2103 418 274 21 19 4445 154 1225 20 27 18 21 25 14 27 21 16 31 448 15 22 147 13 895 2095 1471 18 2486 20 21 19 1011 25 14 21 33 26 18 22 14 62 31 25 16 23 18 24 13 18 354 21 18 19 240 21 20 23 26 15 25 106 1005 40 19 1521 1297 20 19 20 21 42 19 25 973 1346 15 17 801 15 30 19 22 1998 1259 25 407 27 15 479 15 17 26 19 18 26 18 2929 19 31 13 32 23 17 27 49 14 25 1348 52 25 16 25 21 21 16 547 30 19 23 19 21 25 66 19 17 676 16 24 25 485 33 319 97 523 20 15 20 1107 19 22 40 17 27 274 4427 18 17 16 18 29 18 25 26 12 7366 17 264 19 17 27 30 1008 18 25 680 13 23 25 18 1381 15 23 17 746 22 17 18 15 17 1354 1246 804 14 229 28 15 376 174 33 19 983 19 18 25 28 15 18 1341 284 1000 484 15 49 17 16 24 988 135 1281 16 21 1480 28 1648 233 11 21 23 25 196 14 28 14 296 22 3120 15 20 31 20 904 17 334 42 13 412 29 18 156 18 515 24 31 18 19 1316 26 683 509 522 17 22 148 1938 24 17 23 479 23 508 18 150 15 20 8706 20 29 1002 16 31 23 565 27 22 16 43 1100 16 22 512 21 1137 20 20 1478 14 23 1153 14 523 19 16 15 24 18 751 29 14 16568 15 13 1470 21 87 562 20 32 95 1469 19 39 19 22 314 1728 15 17 26 18 34 25 638 17 1474 23 577 26 15 1655 17 14 20 22 22 518 15 16 854 304 14 18 21 15 224 319 21 
To predecode: 0
Predecoding something: 0
Predecode request dropped: 0
sizeofblock_0 0
sizeofblock_1 48142
sizeofblock_2 89198
sizeofblock_3 0
sizeofblock_4 0
sizeofblock_5 0
sizeofblock_6 0
sizeofblock_7 0
sizeofblock_8 0
Variant_0 Correct: 1604668 Incorrect: 0 Accuracy: 1
Variant_1 Correct: 5696284 Incorrect: 0 Accuracy: 1
Variant_2 Correct: 0 Incorrect: 0 Accuracy: -nan
Variant_3 Correct: 0 Incorrect: 0 Accuracy: -nan
