
*** ChampSim Multicore Out-of-Order Simulator ***

Warmup Instructions: 50000000
Simulation Instructions: 50000000
Number of CPUs: 1
LLC sets: 2048
LLC ways: 16
Off-chip DRAM Size: 4096 MB Channels: 1 Width: 64-bit Data Rate: 6400 MT/s
CPU 0 runs ./micro_traces/srv763.trace.gz
.gz
ITLB has LRU replacement policy
DTLB has LRU replacement policy
STLB has LRU replacement policy
FDIP Prefetcher at L1I
L1I has LRU replacement policy
L1D has LRU replacement policy
Initialize SRRIP state for L2C
Initialize DRRIP state for LLC
Heartbeat_Variant_0 : 1080 0.263672 per_variant_size: 0 1080 0 0 0 0 0 0 0 
Heartbeat_Variant_1 : 1206 0.294434 per_variant_size: 0 852 354 0 0 0 0 0 0 
Heartbeat_Variant_2 : 1531 0.373779 per_variant_size: 0 913 425 137 56 0 0 0 0 
Heartbeat_Variant_3 : 0 0 per_variant_size: 0 0 0 0 0 0 0 0 0 
Heartbeat_Variant_0_evicts 0 : 14147 1 : 10232 2 : 11954 3 : 0 
Heartbeat_Variant_1_evicts 0 : 10070 1 : 0 2 : 11570 3 : 0 
Heartbeat_Variant_2_evicts 0 : 12067 1 : 11417 2 : 0 3 : 0 
Heartbeat_Variant_3_evicts 0 : 0 1 : 0 2 : 0 3 : 0 
Heartbeat CPU 0 instructions: 10000000 cycles: 2796898 heartbeat IPC: 3.57539 cumulative IPC: 3.57539 (Simulation time: 0 hr 2 min 1 sec) 
Heartbeat_Variant_0 : 1058 0.258301 per_variant_size: 0 1058 0 0 0 0 0 0 0 
Heartbeat_Variant_1 : 1224 0.298828 per_variant_size: 0 833 391 0 0 0 0 0 0 
Heartbeat_Variant_2 : 1553 0.37915 per_variant_size: 0 916 438 135 64 0 0 0 0 
Heartbeat_Variant_3 : 0 0 per_variant_size: 0 0 0 0 0 0 0 0 0 
Heartbeat_Variant_0_evicts 0 : 13909 1 : 9740 2 : 11734 3 : 0 
Heartbeat_Variant_1_evicts 0 : 9676 1 : 0 2 : 11236 3 : 0 
Heartbeat_Variant_2_evicts 0 : 11820 1 : 11164 2 : 0 3 : 0 
Heartbeat_Variant_3_evicts 0 : 0 1 : 0 2 : 0 3 : 0 
Heartbeat CPU 0 instructions: 20000002 cycles: 5593529 heartbeat IPC: 3.57573 cumulative IPC: 3.57556 (Simulation time: 0 hr 3 min 51 sec) 
Heartbeat_Variant_0 : 1062 0.259277 per_variant_size: 0 1062 0 0 0 0 0 0 0 
Heartbeat_Variant_1 : 1243 0.303467 per_variant_size: 0 840 403 0 0 0 0 0 0 
Heartbeat_Variant_2 : 1581 0.385986 per_variant_size: 0 905 445 163 68 0 0 0 0 
Heartbeat_Variant_3 : 0 0 per_variant_size: 0 0 0 0 0 0 0 0 0 
Heartbeat_Variant_0_evicts 0 : 13720 1 : 9732 2 : 11682 3 : 0 
Heartbeat_Variant_1_evicts 0 : 9678 1 : 0 2 : 11189 3 : 0 
Heartbeat_Variant_2_evicts 0 : 11740 1 : 11130 2 : 0 3 : 0 
Heartbeat_Variant_3_evicts 0 : 0 1 : 0 2 : 0 3 : 0 
Heartbeat CPU 0 instructions: 30000003 cycles: 8389379 heartbeat IPC: 3.57673 cumulative IPC: 3.57595 (Simulation time: 0 hr 5 min 51 sec) 
Heartbeat_Variant_0 : 1083 0.264404 per_variant_size: 0 1083 0 0 0 0 0 0 0 
Heartbeat_Variant_1 : 1240 0.302734 per_variant_size: 0 841 399 0 0 0 0 0 0 
Heartbeat_Variant_2 : 1564 0.381836 per_variant_size: 0 897 448 153 66 0 0 0 0 
Heartbeat_Variant_3 : 0 0 per_variant_size: 0 0 0 0 0 0 0 0 0 
Heartbeat_Variant_0_evicts 0 : 13933 1 : 9991 2 : 12002 3 : 0 
Heartbeat_Variant_1_evicts 0 : 9919 1 : 0 2 : 11526 3 : 0 
Heartbeat_Variant_2_evicts 0 : 12054 1 : 11457 2 : 0 3 : 0 
Heartbeat_Variant_3_evicts 0 : 0 1 : 0 2 : 0 3 : 0 
Heartbeat CPU 0 instructions: 40000003 cycles: 11185305 heartbeat IPC: 3.57663 cumulative IPC: 3.57612 (Simulation time: 0 hr 7 min 49 sec) 
Heartbeat_Variant_0 : 1064 0.259766 per_variant_size: 0 1064 0 0 0 0 0 0 0 
Heartbeat_Variant_1 : 1250 0.305176 per_variant_size: 0 836 414 0 0 0 0 0 0 
Heartbeat_Variant_2 : 1580 0.385742 per_variant_size: 0 886 458 163 73 0 0 0 0 
Heartbeat_Variant_3 : 0 0 per_variant_size: 0 0 0 0 0 0 0 0 0 
Heartbeat_Variant_0_evicts 0 : 13868 1 : 9902 2 : 11922 3 : 0 
Heartbeat_Variant_1_evicts 0 : 9900 1 : 0 2 : 11372 3 : 0 
Heartbeat_Variant_2_evicts 0 : 11944 1 : 11364 2 : 0 3 : 0 
Heartbeat_Variant_3_evicts 0 : 0 1 : 0 2 : 0 3 : 0 
Heartbeat CPU 0 instructions: 50000001 cycles: 13982036 heartbeat IPC: 3.5756 cumulative IPC: 3.57602 (Simulation time: 0 hr 10 min 3 sec) 

Warmup complete CPU 0 instructions: 50000001 cycles: 13982036 (Simulation time: 0 hr 10 min 3 sec) 

Cycle: 20000000 FTQ IN: 56693679 FTQ occupancy: 17.9209 DECODE IN: 56693677 DECODE occupancy: 45.8576 ROB IN: 56693677 ROB occupancy: 277.949 ROB OUT: 56693629
Heartbeat_Variant_0 : 1087 0.265381 per_variant_size: 0 1087 0 0 0 0 0 0 0 
Heartbeat_Variant_1 : 1240 0.302734 per_variant_size: 0 836 404 0 0 0 0 0 0 
Heartbeat_Variant_2 : 1568 0.382812 per_variant_size: 0 902 442 151 73 0 0 0 0 
Heartbeat_Variant_3 : 0 0 per_variant_size: 0 0 0 0 0 0 0 0 0 
Heartbeat_Variant_0_evicts 0 : 13812 1 : 9821 2 : 11724 3 : 0 
Heartbeat_Variant_1_evicts 0 : 9749 1 : 0 2 : 11159 3 : 0 
Heartbeat_Variant_2_evicts 0 : 11773 1 : 11098 2 : 0 3 : 0 
Heartbeat_Variant_3_evicts 0 : 0 1 : 0 2 : 0 3 : 0 
Heartbeat CPU 0 instructions: 60000003 cycles: 23009445 heartbeat IPC: 1.10774 cumulative IPC: 1.10774 (Simulation time: 0 hr 11 min 57 sec) 
Cycle: 30000000 FTQ IN: 10877119 FTQ occupancy: 6.24654 DECODE IN: 10877094 DECODE occupancy: 13.0485 ROB IN: 10877094 ROB occupancy: 112.315 ROB OUT: 10877124
Heartbeat_Variant_0 : 1078 0.263184 per_variant_size: 0 1078 0 0 0 0 0 0 0 
Heartbeat_Variant_1 : 1257 0.306885 per_variant_size: 0 854 403 0 0 0 0 0 0 
Heartbeat_Variant_2 : 1563 0.381592 per_variant_size: 0 896 439 153 75 0 0 0 0 
Heartbeat_Variant_3 : 0 0 per_variant_size: 0 0 0 0 0 0 0 0 0 
Heartbeat_Variant_0_evicts 0 : 13623 1 : 9796 2 : 11960 3 : 0 
Heartbeat_Variant_1_evicts 0 : 9757 1 : 0 2 : 11390 3 : 0 
Heartbeat_Variant_2_evicts 0 : 12008 1 : 11335 2 : 0 3 : 0 
Heartbeat_Variant_3_evicts 0 : 0 1 : 0 2 : 0 3 : 0 
Heartbeat CPU 0 instructions: 70000002 cycles: 32204609 heartbeat IPC: 1.08753 cumulative IPC: 1.09754 (Simulation time: 0 hr 13 min 46 sec) 
Cycle: 40000000 FTQ IN: 10983834 FTQ occupancy: 6.10413 DECODE IN: 10983858 DECODE occupancy: 12.787 ROB IN: 10983858 ROB occupancy: 110.499 ROB OUT: 10983584
Heartbeat_Variant_0 : 1072 0.261719 per_variant_size: 0 1072 0 0 0 0 0 0 0 
Heartbeat_Variant_1 : 1261 0.307861 per_variant_size: 0 862 399 0 0 0 0 0 0 
Heartbeat_Variant_2 : 1567 0.382568 per_variant_size: 0 868 480 147 72 0 0 0 0 
Heartbeat_Variant_3 : 0 0 per_variant_size: 0 0 0 0 0 0 0 0 0 
Heartbeat_Variant_0_evicts 0 : 14065 1 : 10162 2 : 12171 3 : 0 
Heartbeat_Variant_1_evicts 0 : 10047 1 : 0 2 : 11627 3 : 0 
Heartbeat_Variant_2_evicts 0 : 12292 1 : 11509 2 : 0 3 : 0 
Heartbeat_Variant_3_evicts 0 : 0 1 : 0 2 : 0 3 : 0 
Heartbeat CPU 0 instructions: 80000001 cycles: 41330047 heartbeat IPC: 1.09584 cumulative IPC: 1.09697 (Simulation time: 0 hr 15 min 39 sec) 
Cycle: 50000000 FTQ IN: 10862784 FTQ occupancy: 6.27168 DECODE IN: 10862741 DECODE occupancy: 13.0686 ROB IN: 10862717 ROB occupancy: 111.02 ROB OUT: 10863009
Heartbeat_Variant_0 : 1085 0.264893 per_variant_size: 0 1085 0 0 0 0 0 0 0 
Heartbeat_Variant_1 : 1244 0.303711 per_variant_size: 0 851 393 0 0 0 0 0 0 
Heartbeat_Variant_2 : 1571 0.383545 per_variant_size: 0 899 454 148 70 0 0 0 0 
Heartbeat_Variant_3 : 0 0 per_variant_size: 0 0 0 0 0 0 0 0 0 
Heartbeat_Variant_0_evicts 0 : 13788 1 : 9949 2 : 11857 3 : 0 
Heartbeat_Variant_1_evicts 0 : 9929 1 : 0 2 : 11448 3 : 0 
Heartbeat_Variant_2_evicts 0 : 11864 1 : 11445 2 : 0 3 : 0 
Heartbeat_Variant_3_evicts 0 : 0 1 : 0 2 : 0 3 : 0 
Heartbeat CPU 0 instructions: 90000001 cycles: 50525606 heartbeat IPC: 1.08748 cumulative IPC: 1.09458 (Simulation time: 0 hr 17 min 28 sec) 
Heartbeat_Variant_0 : 1086 0.265137 per_variant_size: 0 1086 0 0 0 0 0 0 0 
Heartbeat_Variant_1 : 1251 0.30542 per_variant_size: 0 846 405 0 0 0 0 0 0 
Heartbeat_Variant_2 : 1566 0.382324 per_variant_size: 0 896 449 151 70 0 0 0 0 
Heartbeat_Variant_3 : 0 0 per_variant_size: 0 0 0 0 0 0 0 0 0 
Heartbeat_Variant_0_evicts 0 : 13870 1 : 9719 2 : 12175 3 : 0 
Heartbeat_Variant_1_evicts 0 : 9690 1 : 0 2 : 11261 3 : 0 
Heartbeat_Variant_2_evicts 0 : 12203 1 : 11225 2 : 0 3 : 0 
Heartbeat_Variant_3_evicts 0 : 0 1 : 0 2 : 0 3 : 0 
Heartbeat CPU 0 instructions: 100000003 cycles: 59598976 heartbeat IPC: 1.10213 cumulative IPC: 1.09608 (Simulation time: 0 hr 19 min 7 sec) 
Finished CPU 0 instructions: 50000002 cycles: 45616940 cumulative IPC: 1.09608 (Simulation time: 0 hr 19 min 7 sec) 

ChampSim completed all CPUs

Region of Interest Statistics

CPU 0 cumulative IPC: 1.09608 instructions: 50000002 cycles: 45616940
 Fetch stage stalled: 72.4746  Sim cycles: 45616940 fetch stall cycle: 33060684
 Empty decode stage: 64.2102  Sim cycles: 45616940 fetch stall cycle: 29290723
ITLB TOTAL     ACCESS:    5726482  HIT:    5236676  MISS:     489806  HIT %:    91.4467  MISS %:    8.55335   MPKI: 9.79612
ITLB LOAD TRANSLATION INSTRUCTION	ACCESS:    5622327  HIT:    5132521  MISS:     489806  HIT %:    91.2882  MISS %:     8.7118  MPKI: 9.79612
ITLB TRANSLATION FROM L1D PREFETCHER INSTRUCTION	ACCESS:     104155  HIT:     104155  MISS:          0  HIT %:        100  MISS %:          0  MPKI: 0

ITLB AVERAGE MISS LATENCY: 9.03897 cycles
ITLB RQ	ACCESS:    7517389	FORWARD:          0	MERGED:    1354902	TO_CACHE:    6162487

DTLB TOTAL     ACCESS:    9356769  HIT:    8880432  MISS:     476337  HIT %:    94.9092  MISS %:    5.09083   MPKI: 9.52674
DTLB LOAD TRANSLATION DATA	ACCESS:    9356769  HIT:    8880432  MISS:     476337  HIT %:    94.9092  MISS %:    5.09083  MPKI: 9.52674

DTLB AVERAGE MISS LATENCY: 9.28485 cycles
DTLB RQ	ACCESS:   13627056	FORWARD:          0	MERGED:    4235738	TO_CACHE:    9391318

STLB TOTAL     ACCESS:    1220154  HIT:    1218204  MISS:       1950  HIT %:    99.8402  MISS %:   0.159816   MPKI: 0.039
STLB LOAD TRANSLATION INSTRUCTION	ACCESS:     489806  HIT:     489571  MISS:        235  HIT %:     99.952  MISS %:  0.0479782  MPKI: 0.0047
STLB LOAD TRANSLATION DATA	ACCESS:     476025  HIT:     474321  MISS:       1704  HIT %:     99.642  MISS %:   0.357964  MPKI: 0.03408
STLB TRANSLATION FROM L1D PREFETCHER DATA	ACCESS:     254323  HIT:     254312  MISS:         11  HIT %:    99.9957  MISS %: 0.00432521  MPKI: 0.00022

STLB AVERAGE MISS LATENCY: 66.2677 cycles
STLB RQ	ACCESS:    1354806	FORWARD:          0	MERGED:     134619	TO_CACHE:    1220187

STLB Hit, L1D data hit: 0
STLB Hit, L2C data hit: 0
STLB Hit, LLC data hit: 0
STLB Hit, LLC data miss: 0
STLB STLB hints to L2: 0
L1D TOTAL     ACCESS:   13402749  HIT:   12262296  MISS:    1140453  HIT %:    91.4909  MISS %:     8.5091   MPKI: 22.8091
L1D LOAD DATA	ACCESS:    6853426  HIT:    6102739  MISS:     750687  HIT %:    89.0465  MISS %:    10.9535  MPKI: 15.0137
L1D RFO DATA	ACCESS:    6214542  HIT:    5926697  MISS:     287845  HIT %:    95.3682  MISS %:     4.6318  MPKI: 5.7569
L1D PREFETCH DATA	ACCESS:     334781  HIT:     232860  MISS:     101921  HIT %:    69.5559  MISS %:    30.4441  MPKI: 2.03842

L1D PREFETCH  REQUESTED:     777641  ISSUED:     777641  USEFUL:      42820  USELESS:      69637
L1D USEFUL LOAD PREFETCHES:      42820 PREFETCH ISSUED TO LOWER LEVEL:     112504  ACCURACY: 38.0609
 TIMELY PREFETCHES:      42820 LATE PREFETCHES: 10537 DROPPED PREFETCHES: 4
L1D AVERAGE MISS LATENCY: 340035 cycles
L1D RQ	ACCESS:   10908066	FORWARD:          0	MERGED:    3862861	TO_CACHE:    6884162
L1D WQ	ACCESS:    6912607	FORWARD:     161358	MERGED:     169713	TO_CACHE:    6742894
L1D PQ	ACCESS:     388978	FORWARD:          0	MERGED:          0	TO_CACHE:     388663

L1D UNIQUE REGIONS ACCESSED: 0
L1D REGIONS CONFLICTS: 0
L1D Cross Page Prefetch Requests: 5945
L1D Same Page Prefetch Requests: 784174
L1D ROI Sum of L1D PQ occupancy: 4928321
L1D PREFETCHES PUSHED FROM L2C: 0
L1I TOTAL     ACCESS:    7013164  HIT:    4272460  MISS:    2740704  HIT %:    60.9206  MISS %:    39.0794   MPKI: 54.8141
L1I LOAD INSTRUCTION	ACCESS:    6526941  HIT:    3786237  MISS:    2740704  HIT %:    58.0094  MISS %:    41.9906  MPKI: 54.8141
L1I PREFETCH INSTRUCTION	ACCESS:     486223  HIT:     486223  MISS:          0  HIT %:        100  MISS %:          0  MPKI: 0

L1I PREFETCH  REQUESTED:    1066123  ISSUED:    1066123  USEFUL:          0  USELESS:          0
L1I USEFUL LOAD PREFETCHES:          0 PREFETCH ISSUED TO LOWER LEVEL:          0  ACCURACY: -nan
 TIMELY PREFETCHES:          0 LATE PREFETCHES: 0 DROPPED PREFETCHES: 0
L1I AVERAGE MISS LATENCY: 17.0562 cycles
L1I RQ	ACCESS:    9442976	FORWARD:          0	MERGED:    2683926	TO_CACHE:    6759050
L1I PQ	ACCESS:    1066123	FORWARD:          0	MERGED:     307784	TO_CACHE:     758339

L1BTB TOTAL     ACCESS:    5678781  HIT:    2075815  MISS:    3602966  HIT %:    36.5539  MISS %:    63.4461   MPKI: 72.0593
L1BTB BRANCH_DIRECT_JUMP	ACCESS:     546210  HIT:     145249  MISS:     400961	AVERAGE STALL: 35.156
L1BTB BRANCH_INDIRECT	ACCESS:     182640  HIT:      66218  MISS:     116422	AVERAGE STALL: 85.6192
L1BTB BRANCH_CONDITIONAL	ACCESS:    2728736  HIT:    1445630  MISS:    1283106	AVERAGE STALL: 35.2679
L1BTB BRANCH_DIRECT_CALL	ACCESS:     939596  HIT:     106230  MISS:     833366	AVERAGE STALL: 36.3542
L1BTB BRANCH_INDIRECT_CALL	ACCESS:     171011  HIT:      21612  MISS:     149399	AVERAGE STALL: 109.194
L1BTB BRANCH_RETURN	ACCESS:    1110588  HIT:     290876  MISS:     819712	AVERAGE STALL: 37.0408
L1BTB BRANCH_OTHER ACCESS:          0  HIT:          0  MISS:          0	AVERAGE STALL: -nan
L1BTB TOTAL ROB OCCUPANCY AT BTB MISS: 12.9778

L2BTB TOTAL     ACCESS:    3577618  HIT:    3088260  MISS:     489358  HIT %:    86.3217  MISS %:    13.6783   MPKI: 9.78716
L2BTB BRANCH_DIRECT_JUMP	ACCESS:     396771  HIT:     346420  MISS:      50351	AVERAGE STALL: 35.156
L2BTB BRANCH_INDIRECT	ACCESS:     106210  HIT:      97552  MISS:       8658	AVERAGE STALL: 85.6192
L2BTB BRANCH_CONDITIONAL	ACCESS:    1283106  HIT:    1143161  MISS:     139945	AVERAGE STALL: 35.2679
L2BTB BRANCH_DIRECT_CALL	ACCESS:     833366  HIT:     674545  MISS:     158821	AVERAGE STALL: 36.3542
L2BTB BRANCH_INDIRECT_CALL	ACCESS:     139844  HIT:     105431  MISS:      34413	AVERAGE STALL: 109.194
L2BTB BRANCH_RETURN	ACCESS:     818321  HIT:     721151  MISS:      97170	AVERAGE STALL: 37.0408
L2BTB BRANCH_OTHER ACCESS:          0  HIT:          0  MISS:          0	AVERAGE STALL: -nan
L2BTB TOTAL ROB OCCUPANCY AT BTB MISS: 95.5509

L2C TOTAL     ACCESS:    4492709  HIT:    4031794  MISS:     460915  HIT %:    89.7408  MISS %:    10.2592   MPKI: 9.2183
L2C LOAD INSTRUCTION	ACCESS:    2740703  HIT:    2493247  MISS:     247456  HIT %:    90.9711  MISS %:    9.02892  MPKI: 4.94912
L2C LOAD TRANSLATION INSTRUCTION	ACCESS:        269  HIT:         58  MISS:        211  HIT %:    21.5613  MISS %:    78.4387  MPKI: 0.00422
L2C LOAD DATA	ACCESS:     740126  HIT:     661259  MISS:      78867  HIT %:    89.3441  MISS %:    10.6559  MPKI: 1.57734
L2C RFO DATA	ACCESS:     287768  HIT:     239822  MISS:      47946  HIT %:    83.3387  MISS %:    16.6613  MPKI: 0.95892
L2C PREFETCH DATA	ACCESS:     199537  HIT:     125981  MISS:      73556  HIT %:    63.1367  MISS %:    36.8633  MPKI: 1.47112
L2C WRITEBACK DATA	ACCESS:     522497  HIT:     510868  MISS:      11629  HIT %:    97.7743  MISS %:    2.22566  MPKI: 0.23258
L2C LOAD TRANSLATION DATA	ACCESS:       1788  HIT:        545  MISS:       1243  HIT %:     30.481  MISS %:     69.519  MPKI: 0.02486
L2C TRANSLATION FROM L1D PREFETCHER DATA	ACCESS:         21  HIT:         14  MISS:          7  HIT %:    66.6667  MISS %:    33.3333  MPKI: 0.00014

L2C PREFETCH  REQUESTED:      94488  ISSUED:      94488  USEFUL:       8657  USELESS:      65320
L2C USEFUL LOAD PREFETCHES:       8657 PREFETCH ISSUED TO LOWER LEVEL:      73968  ACCURACY: 11.7037
 TIMELY PREFETCHES:       8657 LATE PREFETCHES: 412 DROPPED PREFETCHES: 0
L2C AVERAGE MISS LATENCY: 38.3582 cycles
L2C RQ	ACCESS:    3770730	FORWARD:          0	MERGED:          0	TO_CACHE:    3770675
L2C WQ	ACCESS:     522497	FORWARD:         55	MERGED:          0	TO_CACHE:     522497
L2C PQ	ACCESS:     206992	FORWARD:          0	MERGED:       3547	TO_CACHE:     203445

L2C Dense regions hint from L2: 0
PSCL5 TOTAL     ACCESS:       3910  HIT:       1955  MISS:       1955  HIT %:         50  MISS %:         50   MPKI: 0.0391
PSCL5 LOAD TRANSLATION INSTRUCTION	ACCESS:       3868  HIT:       1934  MISS:       1934  HIT %:         50  MISS %:         50  MPKI: 0.03868
PSCL5 TRANSLATION FROM L1D PREFETCHER INSTRUCTION	ACCESS:         42  HIT:         21  MISS:         21  HIT %:         50  MISS %:         50  MPKI: 0.00042


PSCL4 TOTAL     ACCESS:       3597  HIT:       1794  MISS:       1803  HIT %:    49.8749  MISS %:    50.1251   MPKI: 0.03606
PSCL4 LOAD TRANSLATION INSTRUCTION	ACCESS:       2581  HIT:       1774  MISS:        807  HIT %:     68.733  MISS %:     31.267  MPKI: 0.01614
PSCL4 TRANSLATION FROM L1D PREFETCHER INSTRUCTION	ACCESS:         34  HIT:         20  MISS:         14  HIT %:    58.8235  MISS %:    41.1765  MPKI: 0.00028
PSCL4 LOAD TRANSLATION DATA	ACCESS:        976  HIT:          0  MISS:        976  HIT %:          0  MISS %:        100  MPKI: 0.01952
PSCL4 TRANSLATION FROM L1D PREFETCHER DATA	ACCESS:          6  HIT:          0  MISS:          6  HIT %:          0  MISS %:        100  MPKI: 0.00012


PSCL3 TOTAL     ACCESS:       3607  HIT:       1799  MISS:       1808  HIT %:    49.8752  MISS %:    50.1248   MPKI: 0.03616
PSCL3 LOAD TRANSLATION INSTRUCTION	ACCESS:       2586  HIT:       1779  MISS:        807  HIT %:    68.7935  MISS %:    31.2065  MPKI: 0.01614
PSCL3 TRANSLATION FROM L1D PREFETCHER INSTRUCTION	ACCESS:         34  HIT:         20  MISS:         14  HIT %:    58.8235  MISS %:    41.1765  MPKI: 0.00028
PSCL3 LOAD TRANSLATION DATA	ACCESS:        981  HIT:          0  MISS:        981  HIT %:          0  MISS %:        100  MPKI: 0.01962
PSCL3 TRANSLATION FROM L1D PREFETCHER DATA	ACCESS:          6  HIT:          0  MISS:          6  HIT %:          0  MISS %:        100  MPKI: 0.00012


PSCL2 TOTAL     ACCESS:       3805  HIT:       1850  MISS:       1955  HIT %:    48.6202  MISS %:    51.3798   MPKI: 0.0391
PSCL2 LOAD TRANSLATION INSTRUCTION	ACCESS:       2063  HIT:       1829  MISS:        234  HIT %:    88.6573  MISS %:    11.3427  MPKI: 0.00468
PSCL2 TRANSLATION FROM L1D PREFETCHER INSTRUCTION	ACCESS:         21  HIT:         21  MISS:          0  HIT %:        100  MISS %:          0  MPKI: 0
PSCL2 LOAD TRANSLATION DATA	ACCESS:       1700  HIT:          0  MISS:       1700  HIT %:          0  MISS %:        100  MPKI: 0.034
PSCL2 TRANSLATION FROM L1D PREFETCHER DATA	ACCESS:         21  HIT:          0  MISS:         21  HIT %:          0  MISS %:        100  MPKI: 0.00042


LLC TOTAL     ACCESS:     518753  HIT:     491737  MISS:      27016  HIT %:    94.7921  MISS %:    5.20787   MPKI: 0.54032
LLC LOAD INSTRUCTION	ACCESS:     247456  HIT:     246745  MISS:        711  HIT %:    99.7127  MISS %:   0.287324  MPKI: 0.01422
LLC LOAD TRANSLATION INSTRUCTION	ACCESS:        211  HIT:        190  MISS:         21  HIT %:    90.0474  MISS %:    9.95261  MPKI: 0.00042
LLC LOAD DATA	ACCESS:      78462  HIT:      75182  MISS:       3280  HIT %:    95.8196  MISS %:    4.18037  MPKI: 0.0656
LLC RFO DATA	ACCESS:      47933  HIT:      34685  MISS:      13248  HIT %:    72.3614  MISS %:    27.6386  MPKI: 0.26496
LLC PREFETCH DATA	ACCESS:      73968  HIT:      64595  MISS:       9373  HIT %:    87.3283  MISS %:    12.6717  MPKI: 0.18746
LLC WRITEBACK DATA	ACCESS:      69473  HIT:      69148  MISS:        325  HIT %:    99.5322  MISS %:   0.467808  MPKI: 0.0065
LLC LOAD TRANSLATION DATA	ACCESS:       1243  HIT:       1185  MISS:         58  HIT %:    95.3339  MISS %:    4.66613  MPKI: 0.00116
LLC TRANSLATION FROM L1D PREFETCHER DATA	ACCESS:          7  HIT:          7  MISS:          0  HIT %:        100  MISS %:          0  MPKI: 0

LLC AVERAGE MISS LATENCY: 154.268 cycles
LLC RQ	ACCESS:     375318	FORWARD:          0	MERGED:          0	TO_CACHE:     375312
LLC WQ	ACCESS:      69473	FORWARD:          6	MERGED:          0	TO_CACHE:      69473
LLC PQ	ACCESS:      73968	FORWARD:          0	MERGED:          0	TO_CACHE:      73968

LLC Dense regions hint to LLC: 0

RAW hits: 1703771
Loads Generated: 12611837
Loads sent to L1D: 10908066
Stores Generated: 6912591
Stores sent to L1D: 6912607
Major fault: 0 Minor fault: 2577
Allocated PAGES: 2577

stream: 
stream:times selected: 1231781
stream:pref_filled: 124903
stream:pref_useful: 27279
stream:pref_late: 8510
stream:misses: 8981
stream:misses_by_poll: 0

CS: 
CS:times selected: 189876
CS:pref_filled: 69540
CS:pref_useful: 45202
CS:pref_late: 8332
CS:misses: 21046
CS:misses_by_poll: 8

CPLX: 
CPLX:times selected: 1040880
CPLX:pref_filled: 23426
CPLX:pref_useful: 7032
CPLX:pref_late: 3392
CPLX:misses: 117254
CPLX:misses_by_poll: 1

NL_L1: 
NL:times selected: 12290
NL:pref_filled: 1433
NL:pref_useful: 238
NL:pref_late: 196
NL:misses: 1518
NL:misses_by_poll: 0

total selections: 2474827
total_filled: 101921
total_useful: 42820
total_late: 22396
total_polluted: 9
total_misses_after_warmup: 781427
conflicts: 5636711

test: 118515

DRAM Statistics
 CHANNEL 0
 RQ ROW_BUFFER_HIT:       9923  ROW_BUFFER_MISS:      16749
 DBUS_CONGESTED:          8
 WQ ROW_BUFFER_HIT:       1172  ROW_BUFFER_MISS:      11795  FULL:          0

 AVG_CONGESTED_CYCLE: 4

CPU 0 Branch Prediction Accuracy: 99.8226% MPKI: 0.32482 Average ROB Occupancy at Mispredict: 122.965
Branch types
NOT_BRANCH: 40846581 81.6932%
BRANCH_DIRECT_JUMP: 546210 1.09242%
BRANCH_INDIRECT: 182640 0.36528%
BRANCH_CONDITIONAL: 6203144 12.4063%
BRANCH_DIRECT_CALL: 939596 1.87919%
BRANCH_INDIRECT_CALL: 171011 0.342022%
BRANCH_RETURN: 1110588 2.22118%
BRANCH_OTHER: 0 0%

DRAM PAGES: 1048576
Allocated PAGES: 2577
Average_ROB_Occupancy: 112.845
Average_Decode_Occupancy: 12.9468
Average_FTQ_Occupancy: 6.18211
Indirect max targets: 14 Average targets: 1.17089
Branch_type:  BRANCH_DIRECT_JUMP:  Count Percentage: 3.32051 6.19415 4.30401 8.81398 1.87569 6.00951 1.91814 67.564 
Branch_type:  BRANCH_INDIRECT:  Count Percentage: 6.17261 3.47733 8.1595 9.69184 3.33604 2.80016 3.86041 62.5021 
Branch_type:  BRANCH_CONDITIONAL:  Count Percentage: 26.1018 3.20765 1.6015 4.18098 2.53423 3.64856 2.43583 56.2895 
Branch_type:  BRANCH_DIRECT_CALL:  Count Percentage: 0.38922 1.76596 0.758727 3.64088 3.49153 2.73797 3.17717 84.0386 
Branch_type:  BRANCH_INDIRECT_CALL:  Count Percentage: 9.53062 0 2.98707 0.000878722 1.12213 2.03014 4.98206 79.3471 
Branch_type:  BRANCH_RETURN:  Count Percentage: 7.52239 1.79183 1.29973 4.14133 4.11902 3.55167 3.80763 73.7664 
Branch_type:  BRANCH_DIRECT_JUMP:  Total Count: 36291 67698 47040 96331 20500 65680 20964 738430 
Branch_type:  BRANCH_INDIRECT:  Total Count: 22542 12699 29798 35394 12183 10226 14098 228254 
Branch_type:  BRANCH_CONDITIONAL:  Total Count: 3237257 397827 198625 518544 314306 452511 302102 6981268 
Branch_type:  BRANCH_DIRECT_CALL:  Total Count: 7305 33144 14240 68333 65530 51387 59630 1577260 
Branch_type:  BRANCH_INDIRECT_CALL:  Total Count: 32538 0 10198 3 3831 6931 17009 270895 
Branch_type:  BRANCH_RETURN:  Total Count: 166927 39762 28842 91899 91404 78814 84494 1636927 
Number of unique branch instructions: 10531
Upper 32 bits: 
aaaa
ffff
ffff0000
Unique upper 32 bits: 3
Unique upper 36 bits: 3
Unique upper 40 bits: 5
Unique upper 44 bits: 32
Unique upper 48 bits: 158
Variant_0 : 1086 0.265137
Variant_1 : 1251 0.30542
Variant_2 : 1566 0.382324
Variant_3 : 0 0
Offset_3 4360
Offset_4 258
Offset_5 477
Offset_6 532
Offset_7 618
Offset_8 563
Offset_9 503
Offset_10 414
Offset_11 333
Offset_12 295
Offset_13 228
Offset_14 233
Offset_15 198
Offset_16 228
Offset_17 163
Offset_18 146
Offset_19 260
Offset_20 141
Offset_21 235
Offset_22 402
Offset_23 241
Offset_24 348
Offset_25 114
Offset_47 92
decode_dispatch_called: 20131253 44.1311
Dispatch_width: 0 10060940 49.9767 22.0553
Dispatch_width: 1 546207 2.71323 1.19738
Dispatch_width: 2 700236 3.47835 1.53504
Dispatch_width: 3 474086 2.35498 1.03928
Dispatch_width: 4 1552717 7.71297 3.40382
Dispatch_width: 5 362268 1.79953 0.794152
Dispatch_width: 6 6434799 31.9642 14.1062
Empty_decode_cycles: 25485687 55.8689
ROB_full_cycles: 1889650 4.14243
Starvation_cycles_per_kilo_instr: 372.925
Starvation_cycles_per_kilo_instr_3: 353.775
Starvation_cycles_per_kilo_instr_0: 336.57
Branch_type_1  (3,1)  (4,9)  (5,39)  (6,73)  (7,122)  (8,146)  (9,135)  (10,108)  (11,76)  (12,47)  (13,11)  (14,2)  (15,3)  (16,4)  (18,1)  (19,5)  (20,2)  (21,1)  (22,3)  (23,2)  (24,10)  (25,12) 
Branch_type_2  (3,1)  (4,1)  (5,1)  (8,4)  (9,4)  (10,1)  (12,1)  (13,1)  (14,1)  (16,3)  (17,2)  (20,2)  (21,2)  (23,5)  (24,1)  (47,42) 
Branch_type_3  (3,4358)  (4,248)  (5,433)  (6,443)  (7,466)  (8,346)  (9,274)  (10,168)  (11,130)  (12,54)  (13,10) 
Branch_type_4  (6,3)  (7,8)  (8,25)  (9,56)  (10,65)  (11,66)  (12,106)  (13,96)  (14,104)  (15,94)  (16,101)  (17,72)  (18,62)  (19,127)  (20,73)  (21,124)  (22,212)  (23,136)  (24,203)  (25,98) 
Branch_type_5  (8,3)  (9,1)  (10,4)  (11,5)  (12,3)  (13,14)  (14,16)  (15,11)  (16,22)  (17,13)  (18,23)  (19,14)  (20,11)  (21,13)  (22,43)  (23,26)  (24,38) 
Branch_type_6  (5,4)  (6,13)  (7,22)  (8,39)  (9,33)  (10,68)  (11,56)  (12,84)  (13,96)  (14,110)  (15,90)  (16,98)  (17,76)  (18,60)  (19,114)  (20,53)  (21,95)  (22,144)  (23,72)  (24,96)  (25,4)  (47,50) 
Unique trigger count: 
Variant_0_evicts_0 : 0
Variant_0_evicts_1 : 0
Variant_0_evicts_2 : 0
Variant_0_evicts_3 : 0
Variant_1_evicts_0 : 0
Variant_1_evicts_1 : 0
Variant_1_evicts_2 : 0
Variant_1_evicts_3 : 0
Variant_2_evicts_0 : 0
Variant_2_evicts_1 : 0
Variant_2_evicts_2 : 0
Variant_2_evicts_3 : 0
Variant_3_evicts_0 : 0
Variant_3_evicts_1 : 0
Variant_3_evicts_2 : 0
Variant_3_evicts_3 : 0
BTB PER SET UNIQUE ADDR: 2 7 3 8 5 5 7 6 2 6 5 4 2 5 11 8 5 4 4 2 4 9 7 9 5 6 4 5 6 7 6 5 3 7 5 9 6 3 5 8 4 8 5 4 8 6 3 5 6 8 9 6 5 4 2 8 5 3 7 4 4 8 6 8 7 2 6 4 4 8 7 6 5 7 7 9 3 5 6 7 9 7 5 11 6 3 6 2 5 7 6 9 7 7 4 2 4 3 4 6 6 3 4 7 4 5 4 6 6 10 8 1 3 8 2 5 5 7 6 11 5 4 5 5 8 5 4 6 6 2 4 6 3 5 8 6 5 2 7 7 3 4 9 7 6 8 6 5 5 7 4 2 3 10 2 5 6 3 6 6 2 6 4 5 9 2 1 6 9 9 5 6 6 4 3 6 4 7 6 6 5 5 5 8 6 6 4 5 5 5 5 3 6 7 3 7 6 6 6 5 7 7 3 4 1 8 5 4 8 5 2 2 8 6 6 5 8 6 4 5 4 9 6 8 6 10 8 5 9 9 3 5 6 11 3 6 4 6 5 6 4 7 6 5 6 4 4 5 5 8 3 8 4 4 5 6 4 5 7 1 7 7 6 4 3 4 6 5 7 6 7 7 6 6 5 5 6 2 6 8 8 2 4 8 5 5 9 6 8 4 4 2 10 7 8 5 6 3 8 4 13 3 5 11 4 3 5 8 7 4 7 3 8 6 5 5 5 8 6 3 10 8 3 6 10 6 3 6 3 8 4 10 3 5 5 4 7 9 6 7 2 6 7 3 5 5 4 8 2 4 7 8 5 2 7 5 3 5 5 4 11 6 5 8 7 9 6 7 4 3 9 8 8 5 5 5 6 7 5 2 4 6 5 4 8 4 4 5 3 5 5 2 4 6 4 3 6 1 5 3 7 7 7 4 3 11 11 5 10 1 5 4 1 5 6 4 5 4 4 6 4 3 5 6 7 4 6 8 6 8 9 3 3 5 8 1 4 2 2 4 9 5 3 1 3 1 3 5 7 4 9 2 6 4 5 2 7 3 13 5 5 6 4 11 2 10 4 5 3 9 5 9 3 6 4 7 3 2 5 7 5 3 6 5 3 5 5 6 7 7 7 4 6 6 8 4 7 6 3 8 3 3 4 4 7 6 6 2 2 4 6 5 6 3 5 6 9 6 7 5 7 6 9 5 5 11 2 3 5 3 10 7 5 4 2 6 9 9 4 6 3 10 14 13 6 4 7 10 4 3 2 8 3 5 6 8 7 1 7 6 4 2 7 8 6 3 4 4 11 4 4 4 2 7 2 7 10 2 7 6 2 8 2 9 2 4 3 1 7 8 8 7 7 7 3 6 12 8 5 5 10 3 4 2 5 10 8 1 5 4 4 4 4 7 1 6 10 3 8 8 5 5 6 1 8 6 3 5 4 5 6 7 4 5 6 6 3 9 5 11 3 5 4 3 4 6 6 5 5 4 4 5 5 8 5 8 6 3 3 4 4 6 5 8 4 5 3 9 9 6 7 6 6 4 8 4 5 7 4 7 8 7 3 8 8 9 4 9 8 3 7 3 5 8 4 9 6 8 5 10 7 6 4 4 10 4 3 6 7 6 5 2 3 8 5 5 7 6 5 3 5 6 3 8 6 9 9 7 5 9 4 5 9 5 6 2 7 5 3 11 4 11 5 6 5 3 6 4 5 5 7 4 7 4 9 9 9 2 3 6 7 5 7 7 7 9 8 12 5 6 8 5 1 7 6 6 5 7 5 7 8 5 4 6 9 6 5 6 5 9 6 5 4 6 8 6 8 3 5 6 7 7 8 4 7 2 6 4 6 4 7 3 1 6 9 7 11 5 8 4 9 4 5 4 6 6 7 7 9 5 7 6 4 7 5 4 8 4 2 5 2 9 5 4 5 5 5 5 3 4 4 7 5 4 6 3 9 9 4 4 1 6 3 8 6 6 7 6 5 5 4 4 5 3 3 3 4 7 1 6 6 5 6 4 5 6 7 10 3 0 9 4 3 1 5 7 4 7 7 2 9 2 7 5 5 2 4 5 6 11 8 4 5 8 9 8 6 8 9 6 8 1 6 10 2 5 6 6 7 4 4 8 7 4 6 5 4 4 2 6 7 5 4 3 5 3 4 4 7 4 8 7 6 2 12 6 8 3 4 2 4 4 8 4 6 3 7 4 2 4 5 3 5 6 2 4 3 10 7 5 4 6 8 5 9 4 3 4 6 4 3 5 7 11 7 4 5 5 4 5 7 4 8 5 4 5 6 10 5 6 6 7 12 7 6 4 4 7 3 4 6 3 8 6 10 4 7 7 4 5 5 4 6 5 5 7 8 7 2 4 6 5 7 8 7 5 4 6 3 4 5 6 6 4 3 7 9 8 4 3 2 7 5 5 4 8 8 6 10 7 2 5 3 8 8 4 6 6 7 4 8 3 4 5 6 7 4 3 3 10 8 9 4 5 6 4 4 4 5 3 5 11 7 10 3 7 3 6 2 3 5 6 3 5 10 3 5 6 6 6 6 7 4 9 3 8 6 7 3 2 5 6 8 3 6 4 5 5 3 7 8 11 7 3 6 5 3 7 5 5 6 5 2 5 3 3 4 7 7 6 4 2 7 5 2 3 6 9 7 8 8 4 5 4 3 9 4 7 5 6 11 2 11 4 4 4 8 3 6 8 10 9 5 2 8 5 9 5 6 2 7 3 4 3 8 6 5 4 9 4 5 3 6 7 1 6 8 3 9 5 10 4 6 5 5 8 10 5 6 6 5 4 5 3 8 5 3 6 3 2 7 5 6 5 7 5 9 5 2 7 5 9 4 4 6 2 3 4 2 6 3 4 5 5 5 3 6 6 4 9 6 4 11 3 4 5 6 7 8 3 9 5 10 8 6 6 5 7 13 9 7 6 7 11 4 5 7 5 5 7 2 5 4 8 8 7 8 9 8 8 13 7 5 5 11 8 5 5 5 5 4 6 6 6 6 3 5 4 9 12 6 6 3 7 8 4 7 6 6 7 5 6 7 7 8 13 4 5 8 7 5 3 5 7 5 2 8 2 3 6 4 9 8 8 6 2 4 6 6 6 3 6 5 14 8 9 5 4 2 6 2 5 3 6 4 4 6 6 6 2 2 6 8 8 2 5 7 6 5 4 7 7 9 2 3 5 10 9 5 6 2 5 9 4 9 7 3 4 2 7 8 6 5 9 8 10 7 4 3 7 8 3 7 7 10 7 6 10 7 5 9 7 7 4 5 5 8 4 8 4 4 7 3 6 6 4 5 6 12 6 8 4 5 7 12 6 4 7 4 9 5 3 7 1 5 3 8 4 6 11 4 9 4 8 7 4 4 4 7 5 6 6 5 8 5 10 6 5 8 2 7 4 9 7 8 7 10 4 9 3 6 7 10 4 4 5 8 9 7 11 9 1 6 8 6 4 13 6 6 3 4 5 5 3 5 8 7 6 3 7 4 4 7 7 7 7 5 9 4 1 5 6 5 5 4 7 3 8 6 4 2 8 6 4 5 4 5 9 6 7 8 4 7 4 3 6 5 8 7 2 5 5 4 6 3 6 7 5 4 7 6 5 5 5 6 3 3 7 4 7 7 5 6 6 4 5 11 7 9 7 4 6 8 4 4 7 4 5 8 4 3 11 8 8 5 7 3 3 3 4 5 6 8 5 8 7 8 4 6 6 5 6 11 2 7 6 7 5 4 10 10 6 4 6 6 4 4 4 6 4 3 6 4 5 7 5 5 4 2 2 7 4 3 3 5 5 1 5 5 5 7 5 7 2 1 5 6 9 13 3 4 9 2 3 6 3 3 5 4 4 2 5 4 2 4 7 9 4 4 5 1 2 8 7 5 4 4 6 4 6 1 4 3 9 7 5 8 4 4 3 5 4 4 6 5 6 4 4 7 8 5 4 8 4 4 6 4 7 7 6 8 3 4 4 4 6 1 1 3 5 7 9 3 8 6 7 5 5 7 4 2 4 7 10 0 7 4 9 5 11 5 9 3 7 10 8 6 4 3 7 4 7 3 6 4 6 8 5 4 6 5 5 3 4 2 1 5 2 6 2 7 4 7 2 5 4 5 7 2 6 3 4 6 7 7 7 6 4 6 4 5 8 4 3 6 5 5 4 8 8 5 5 3 3 6 6 5 6 4 7 4 4 5 9 6 3 4 8 6 5 2 4 7 4 5 6 2 6 4 4 3 8 3 7 5 4 4 8 4 10 4 5 3 4 5 10 5 8 3 3 3 3 3 5 3 11 1 5 2 5 3 4 3 5 4 5 3 1 3 8 2 5 4 4 3 7 6 3 4 6 6 7 7 2 5 9 1 4 12 4 1 1 9 11 2 7 8 9 6 6 6 4 10 6 7 8 5 3 5 3 5 8 5 8 8 9 4 4 2 7 3 7 5 9 7 8 6 5 7 9 7 4 5 7 6 6 5 7 3 11 4 7 5 13 8 3 5 8 3 6 4 5 3 3 7 7 4 6 4 6 2 5 7 7 5 4 2 3 6 6 0 4 6 9 4 5 5 8 7 8 4 10 7 5 3 9 5 6 8 3 3 11 3 3 7 5 4 14 5 9 3 5 4 6 3 4 7 8 
BTB PER SET COUNT: 2 1916 818 1030 963 276 504 913 2 1002 922 343 2 819 1086 199 750 211 1246 6 444 1457 842 490 530 640 248 329 681 802 795 129 202 1144 679 822 887 166 452 1539 9 1640 5 10 3033 800 163 252 205 1008 1600 629 1035 5 2 814 943 1164 735 15 1129 931 295 285 179 3 265 251 5 1254 807 298 210 613 376 1627 3 892 1204 251 762 427 178 1579 625 162 1075 2 639 1769 685 1140 1051 1224 5 60 274 6 240 612 622 3 422 201 109 172 52 505 729 1025 347 1 126 1320 3 246 404 20 516 2577 387 507 1808 252 14 1277 12 448 951 2 26 448 3 368 606 675 268 149 1030 981 6 525 1582 602 9 460 16 455 352 928 252 471 4 921 3 1709 230 793 598 267 2 416 5 405 765 84 1 20 302 784 142 713 451 198 376 394 128 274 59 780 72 792 322 651 526 487 4 53 14 159 34 3 1019 672 3 419 194 735 1472 6 441 417 134 149 1 1033 8 572 678 6 6 6 1123 708 285 491 919 314 357 216 158 904 277 1272 1969 1507 166 167 439 1629 182 168 239 5356 280 773 4 399 415 895 698 85 803 226 410 378 187 642 269 483 3 691 7 217 600 128 236 398 330 1 453 528 484 296 128 555 13 584 785 227 371 647 157 491 586 1003 163 305 472 725 579 2 319 1028 6 581 1751 395 595 11 7 2 1280 669 856 215 12 18 510 178 1078 241 1463 767 285 4 653 8 435 9 189 4 880 271 6 374 7 764 382 4 640 413 272 428 1418 378 424 199 3 480 7 1848 141 744 169 234 896 395 275 681 2 326 328 3 744 266 4 785 2 302 369 189 428 2 670 10 383 562 807 146 1944 322 350 1151 316 3098 925 1345 4 3 660 527 3136 10 427 297 658 548 303 2 112 700 86 526 1028 274 5 497 99 259 341 2 684 296 128 3 1710 1 480 52 593 659 359 278 431 1397 2553 816 828 1 134 316 2 477 960 191 381 419 255 658 408 3 5 675 852 781 495 725 1198 392 1627 36 3 446 869 2 352 5 2 112 2134 347 3 1 482 1 4 40 751 500 1631 361 426 282 571 2 584 4 1646 191 1186 376 45 924 9 1106 326 321 3 649 482 535 35 415 965 263 154 3 344 741 119 156 203 508 6 446 139 373 309 849 448 442 108 615 703 950 986 507 80 831 3 283 5 252 445 531 229 130 2 62 1074 331 1092 1140 5 487 1070 1376 1035 690 424 499 1578 8 515 2057 49 3 332 5 2293 798 193 57 2 162 564 609 567 320 261 644 1275 1923 471 1117 1200 1733 730 62 2 1402 997 650 451 728 1152 1 203 163 882 7791 438 880 601 4 1179 193 2146 553 230 302 2 1425 2 1200 1342 2 424 288 4 768 2 962 2 327 204 1 9 2192 751 592 871 1456 225 1761 1253 960 302 285 997 5 528 123 180 946 1322 1 217 259 430 122 1137 452 1 255 1146 285 11034 912 313 318 460 2 657 292 618 263 496 437 525 1071 93 914 681 741 3 997 523 2299 3 300 465 4 11 1035 243 200 194 727 720 324 176 1004 189 429 369 280 3 65 409 636 304 139 259 821 3 1793 565 859 448 388 699 261 854 431 398 1418 348 772 1075 797 134 1559 587 1127 358 1117 133 39 564 4 398 912 238 1535 127 1682 395 1573 656 1303 6 6 1353 136 3 477 1654 750 342 2 236 864 150 972 516 512 333 196 366 598 815 901 427 1144 779 803 978 642 329 257 754 385 17 2 9 482 173 2530 4 1980 254 344 249 4 394 191 6 791 503 338 276 391 246 828 784 3 3 783 592 292 270 173 200 369 747 2227 656 7 157 352 2 342 743 1087 328 729 368 705 678 125 190 214 708 7 712 636 298 1169 451 423 826 13 150 979 235 209 258 184 182 18 638 875 366 2 146 4 290 152 406 3 1 212 1021 612 1947 343 816 96 792 325 325 127 413 1040 379 632 1761 462 707 493 190 827 29 111 1298 183 2 450 12 1656 502 623 325 9 197 848 6 864 4 544 57 233 734 68 909 165 251 7 1 402 3 202 501 286 1265 283 861 122 768 291 439 6 3 26 1338 1126 1 1009 454 1097 513 118 7 631 366 1714 104 0 1747 18 111 1 7 650 629 1034 925 214 961 213 733 1001 343 162 5 103 375 1066 748 295 575 659 901 1031 229 617 1603 923 1680 1 98 534 167 6 1463 420 251 368 5 809 1373 394 234 453 193 324 85 1069 980 32 13 4 1073 317 6 45 317 4 1209 1063 552 2 2269 404 1551 3 1732 258 631 153 676 410 282 7 591 543 2 263 6 4 268 1210 2 114 74 1196 745 424 373 298 916 20 641 114 3 1000 10 220 3 470 1078 1081 388 11 313 1733 7 15 591 286 644 1377 305 12 332 1321 974 483 13 689 1245 477 545 128 216 1229 3 15 396 283 502 146 601 238 947 1197 5 206 761 4 884 552 637 848 546 404 1457 129 385 721 47 557 439 814 499 46 109 4 363 271 292 138 445 15 987 1781 281 3 2 724 450 745 516 560 975 709 490 615 2 426 4 1219 944 210 164 759 190 10 1269 3 202 420 498 345 12 90 46 743 1023 1040 617 9 418 488 221 6 227 3 295 2035 659 1766 372 978 11 254 2 216 161 667 79 1314 790 3 5 712 8 298 369 11 468 134 3 998 485 457 3 2 169 527 587 6 524 176 157 717 3 376 961 8679 1232 305 800 16 6 558 73 332 91 414 2 211 3 935 5 1272 1265 151 42 2 626 285 394 7 196 585 184 675 959 4 443 429 75 1272 7 138 447 772 909 45 1531 366 315 277 232 304 1157 589 1181 755 192 2 1770 182 991 445 647 148 559 39 8 3 721 766 1230 4 1000 373 799 3 339 1494 1 230 870 72 768 247 862 24 581 49 398 836 702 203 561 139 5 78 448 3 1322 295 11 535 118 2 455 474 23 264 335 274 40 157 63 417 301 494 5 283 499 2 3 108 2 11 3 254 5 6 688 3 504 241 202 681 383 237 1172 3 149 497 310 1226 705 410 1437 36 155 567 239 472 123 1368 1814 1500 67 727 278 1460 276 645 785 338 320 704 3 330 365 502 1047 472 575 1160 853 917 785 151 30 380 777 783 14 103 504 200 4 379 10 423 74 10 90 1485 410 1926 434 367 3 718 513 167 224 1067 518 423 616 651 188 500 922 1145 162 387 1138 660 2188 3 298 202 12 2 749 2 8 356 427 523 939 572 88 2 297 195 213 686 3 219 289 1802 1185 556 477 162 2 728 2 694 249 243 186 235 11 243 328 246 2 161 453 399 2 344 522 45 13 4 1003 299 251 83 13 376 956 198 144 478 2 406 967 54 1246 1092 213 421 106 988 1332 476 459 611 315 999 406 75 238 1843 1279 3 475 1841 1088 1047 948 565 893 100 459 1321 111 77 317 6 513 160 521 9 4 329 3 783 360 6 5 569 968 315 413 4 15 315 1250 352 228 16 8 1598 134 298 960 1 7 17 314 319 629 1506 179 758 408 513 680 677 13 191 18 237 466 198 381 594 422 1716 704 185 364 2 969 672 581 243 1504 731 956 234 799 85 351 531 1847 243 5 996 97 753 978 1970 1381 1 61 854 482 700 1282 592 1190 3 484 17 778 171 130 1052 200 636 7 928 4 5 282 268 11 491 530 871 232 1 955 450 291 19 102 321 3 444 95 1132 732 865 305 390 453 203 3906 825 406 466 902 9 68 319 3 546 327 1303 253 1384 452 250 103 563 3 463 1012 10 193 467 165 301 5 537 422 122 165 634 139 428 257 398 349 693 717 516 957 108 1435 454 4 720 1274 187 221 213 6 688 756 4 245 789 605 1071 177 795 168 4 3 153 307 538 1448 150 732 657 1179 43 378 6 5 787 585 133 722 782 291 525 4 817 597 288 511 245 84 182 492 565 702 807 450 308 7 99 390 7 829 421 2 320 203 236 3 7 382 440 1 592 5 372 236 7 279 2 1 211 195 473 3057 102 414 1088 2 280 309 9 3 320 541 163 31 348 96 2 7 1129 1029 204 4 52 1 169 547 441 461 235 4 393 388 417 1 299 8 2035 243 510 434 415 219 354 182 84 49 230 193 631 367 4 629 518 215 31 986 5 123 714 445 1198 362 460 815 3 4 10 180 624 1 1 6 719 483 1180 3 1109 316 455 827 695 1504 320 2 4 423 1411 0 387 91 836 196 1953 413 772 4 661 2577 526 222 267 3 1135 6 994 3 374 318 517 527 61 4 491 336 297 3 4 3 1 270 2 825 2 668 463 391 4 203 4 12 420 101 984 114 329 588 1010 181 767 988 140 512 86 247 1258 6 678 154 6 364 820 584 1240 271 523 251 339 342 1209 845 618 7 1321 7 301 369 742 6 6 231 1006 1772 414 2 86 917 254 350 773 2 871 13453 252 119 1312 294 1243 687 4 353 1160 768 1561 526 460 401 9 601 1425 569 620 55 221 8 3 4 912 10 1103 1 428 820 239 3 281 288 159 145 376 3 1 3 1248 2 126 751 680 55 1248 502 50 221 1339 163 377 861 2 388 1208 1 664 1264 105 2 1 635 683 2 394 644 1331 80 198 675 427 649 37 1232 430 160 4 522 344 317 1022 271 630 1307 241 272 78 2 884 202 682 817 426 361 1634 594 1319 1279 1201 875 138 194 522 3173 818 228 602 499 1440 4 619 432 1666 29 184 549 1323 206 637 512 233 84 6 1203 1466 445 563 48 539 2 259 206 506 7 325 894 450 675 229 0 79 421 1380 189 176 5 1201 388 674 303 1741 371 878 3 996 1483 223 552 3 12 1840 74 136 418 502 137 2728 180 1168 97 588 481 6 69 227 690 1036 
To predecode: 0
Predecoding something: 0
Predecode request dropped: 0
sizeofblock_0 0
sizeofblock_1 502218
sizeofblock_2 146409
sizeofblock_3 27613
sizeofblock_4 6865
sizeofblock_5 0
sizeofblock_6 0
sizeofblock_7 0
sizeofblock_8 0
Variant_0 Correct: 1299445 Incorrect: 0 Accuracy: 1
Variant_1 Correct: 1812006 Incorrect: 0 Accuracy: 1
Variant_2 Correct: 3322396 Incorrect: 0 Accuracy: 1
Variant_3 Correct: 0 Incorrect: 0 Accuracy: -nan
