
*** ChampSim Multicore Out-of-Order Simulator ***

Warmup Instructions: 50000000
Simulation Instructions: 50000000
Number of CPUs: 1
LLC sets: 2048
LLC ways: 16
Off-chip DRAM Size: 4096 MB Channels: 1 Width: 64-bit Data Rate: 6400 MT/s
CPU 0 runs ./micro_traces/srv741.trace.gz
.gz
ITLB has LRU replacement policy
DTLB has LRU replacement policy
STLB has LRU replacement policy
FDIP Prefetcher at L1I
L1I has LRU replacement policy
L1D has LRU replacement policy
Initialize SRRIP state for L2C
Initialize DRRIP state for LLC
Heartbeat_Variant_0 : 1296 0.316406 per_variant_size: 0 1296 0 0 0 0 0 0 0 
Heartbeat_Variant_1 : 2478 0.60498 per_variant_size: 0 589 1889 0 0 0 0 0 0 
Heartbeat_Variant_2 : 0 0 per_variant_size: 0 0 0 0 0 0 0 0 0 
Heartbeat_Variant_3 : 0 0 per_variant_size: 0 0 0 0 0 0 0 0 0 
Heartbeat_Variant_0_evicts 0 : 5847 1 : 308 2 : 0 3 : 0 
Heartbeat_Variant_1_evicts 0 : 282 1 : 0 2 : 0 3 : 0 
Heartbeat_Variant_2_evicts 0 : 0 1 : 0 2 : 0 3 : 0 
Heartbeat_Variant_3_evicts 0 : 0 1 : 0 2 : 0 3 : 0 
Heartbeat CPU 0 instructions: 10000001 cycles: 2796645 heartbeat IPC: 3.57571 cumulative IPC: 3.57571 (Simulation time: 0 hr 1 min 32 sec) 
Heartbeat_Variant_0 : 1347 0.328857 per_variant_size: 0 1347 0 0 0 0 0 0 0 
Heartbeat_Variant_1 : 2605 0.635986 per_variant_size: 0 540 2065 0 0 0 0 0 0 
Heartbeat_Variant_2 : 0 0 per_variant_size: 0 0 0 0 0 0 0 0 0 
Heartbeat_Variant_3 : 0 0 per_variant_size: 0 0 0 0 0 0 0 0 0 
Heartbeat_Variant_0_evicts 0 : 5788 1 : 422 2 : 0 3 : 0 
Heartbeat_Variant_1_evicts 0 : 415 1 : 0 2 : 0 3 : 0 
Heartbeat_Variant_2_evicts 0 : 0 1 : 0 2 : 0 3 : 0 
Heartbeat_Variant_3_evicts 0 : 0 1 : 0 2 : 0 3 : 0 
Heartbeat CPU 0 instructions: 20000001 cycles: 5592512 heartbeat IPC: 3.57671 cumulative IPC: 3.57621 (Simulation time: 0 hr 3 min 2 sec) 
Heartbeat_Variant_0 : 1349 0.329346 per_variant_size: 0 1349 0 0 0 0 0 0 0 
Heartbeat_Variant_1 : 2606 0.63623 per_variant_size: 0 537 2069 0 0 0 0 0 0 
Heartbeat_Variant_2 : 0 0 per_variant_size: 0 0 0 0 0 0 0 0 0 
Heartbeat_Variant_3 : 0 0 per_variant_size: 0 0 0 0 0 0 0 0 0 
Heartbeat_Variant_0_evicts 0 : 5572 1 : 22 2 : 0 3 : 0 
Heartbeat_Variant_1_evicts 0 : 20 1 : 0 2 : 0 3 : 0 
Heartbeat_Variant_2_evicts 0 : 0 1 : 0 2 : 0 3 : 0 
Heartbeat_Variant_3_evicts 0 : 0 1 : 0 2 : 0 3 : 0 
Heartbeat CPU 0 instructions: 30000002 cycles: 8388361 heartbeat IPC: 3.57673 cumulative IPC: 3.57638 (Simulation time: 0 hr 4 min 31 sec) 
Heartbeat_Variant_0 : 1367 0.33374 per_variant_size: 0 1367 0 0 0 0 0 0 0 
Heartbeat_Variant_1 : 2611 0.637451 per_variant_size: 0 503 2108 0 0 0 0 0 0 
Heartbeat_Variant_2 : 0 0 per_variant_size: 0 0 0 0 0 0 0 0 0 
Heartbeat_Variant_3 : 0 0 per_variant_size: 0 0 0 0 0 0 0 0 0 
Heartbeat_Variant_0_evicts 0 : 5742 1 : 264 2 : 0 3 : 0 
Heartbeat_Variant_1_evicts 0 : 250 1 : 0 2 : 0 3 : 0 
Heartbeat_Variant_2_evicts 0 : 0 1 : 0 2 : 0 3 : 0 
Heartbeat_Variant_3_evicts 0 : 0 1 : 0 2 : 0 3 : 0 
Heartbeat CPU 0 instructions: 40000003 cycles: 11184343 heartbeat IPC: 3.57656 cumulative IPC: 3.57643 (Simulation time: 0 hr 6 min 0 sec) 
Heartbeat_Variant_0 : 1366 0.333496 per_variant_size: 0 1366 0 0 0 0 0 0 0 
Heartbeat_Variant_1 : 2612 0.637695 per_variant_size: 0 500 2112 0 0 0 0 0 0 
Heartbeat_Variant_2 : 0 0 per_variant_size: 0 0 0 0 0 0 0 0 0 
Heartbeat_Variant_3 : 0 0 per_variant_size: 0 0 0 0 0 0 0 0 0 
Heartbeat_Variant_0_evicts 0 : 5660 1 : 17 2 : 0 3 : 0 
Heartbeat_Variant_1_evicts 0 : 18 1 : 0 2 : 0 3 : 0 
Heartbeat_Variant_2_evicts 0 : 0 1 : 0 2 : 0 3 : 0 
Heartbeat_Variant_3_evicts 0 : 0 1 : 0 2 : 0 3 : 0 
Heartbeat CPU 0 instructions: 50000002 cycles: 13981625 heartbeat IPC: 3.5749 cumulative IPC: 3.57612 (Simulation time: 0 hr 7 min 32 sec) 

Warmup complete CPU 0 instructions: 50000002 cycles: 13981625 (Simulation time: 0 hr 7 min 32 sec) 

Cycle: 20000000 FTQ IN: 58366119 FTQ occupancy: 20.9113 DECODE IN: 58366049 DECODE occupancy: 53.9702 ROB IN: 58365989 ROB occupancy: 319.889 ROB OUT: 58365637
Heartbeat_Variant_0 : 1373 0.335205 per_variant_size: 0 1373 0 0 0 0 0 0 0 
Heartbeat_Variant_1 : 2615 0.638428 per_variant_size: 0 517 2098 0 0 0 0 0 0 
Heartbeat_Variant_2 : 0 0 per_variant_size: 0 0 0 0 0 0 0 0 0 
Heartbeat_Variant_3 : 0 0 per_variant_size: 0 0 0 0 0 0 0 0 0 
Heartbeat_Variant_0_evicts 0 : 5625 1 : 91 2 : 0 3 : 0 
Heartbeat_Variant_1_evicts 0 : 85 1 : 0 2 : 0 3 : 0 
Heartbeat_Variant_2_evicts 0 : 0 1 : 0 2 : 0 3 : 0 
Heartbeat_Variant_3_evicts 0 : 0 1 : 0 2 : 0 3 : 0 
Heartbeat CPU 0 instructions: 60000000 cycles: 21157252 heartbeat IPC: 1.39361 cumulative IPC: 1.39361 (Simulation time: 0 hr 9 min 16 sec) 
Heartbeat_Variant_0 : 1377 0.336182 per_variant_size: 0 1377 0 0 0 0 0 0 0 
Heartbeat_Variant_1 : 2626 0.641113 per_variant_size: 0 526 2100 0 0 0 0 0 0 
Heartbeat_Variant_2 : 0 0 per_variant_size: 0 0 0 0 0 0 0 0 0 
Heartbeat_Variant_3 : 0 0 per_variant_size: 0 0 0 0 0 0 0 0 0 
Heartbeat_Variant_0_evicts 0 : 5635 1 : 110 2 : 0 3 : 0 
Heartbeat_Variant_1_evicts 0 : 110 1 : 0 2 : 0 3 : 0 
Heartbeat_Variant_2_evicts 0 : 0 1 : 0 2 : 0 3 : 0 
Heartbeat_Variant_3_evicts 0 : 0 1 : 0 2 : 0 3 : 0 
Heartbeat CPU 0 instructions: 70000000 cycles: 28274872 heartbeat IPC: 1.40496 cumulative IPC: 1.39926 (Simulation time: 0 hr 11 min 4 sec) 
Cycle: 30000000 FTQ IN: 14075045 FTQ occupancy: 16.0945 DECODE IN: 14075115 DECODE occupancy: 40.244 ROB IN: 14075175 ROB occupancy: 254.305 ROB OUT: 14075464
Heartbeat_Variant_0 : 1378 0.336426 per_variant_size: 0 1378 0 0 0 0 0 0 0 
Heartbeat_Variant_1 : 2626 0.641113 per_variant_size: 0 521 2105 0 0 0 0 0 0 
Heartbeat_Variant_2 : 0 0 per_variant_size: 0 0 0 0 0 0 0 0 0 
Heartbeat_Variant_3 : 0 0 per_variant_size: 0 0 0 0 0 0 0 0 0 
Heartbeat_Variant_0_evicts 0 : 5542 1 : 35 2 : 0 3 : 0 
Heartbeat_Variant_1_evicts 0 : 34 1 : 0 2 : 0 3 : 0 
Heartbeat_Variant_2_evicts 0 : 0 1 : 0 2 : 0 3 : 0 
Heartbeat_Variant_3_evicts 0 : 0 1 : 0 2 : 0 3 : 0 
Heartbeat CPU 0 instructions: 80000003 cycles: 35469799 heartbeat IPC: 1.38987 cumulative IPC: 1.39612 (Simulation time: 0 hr 12 min 49 sec) 
Cycle: 40000000 FTQ IN: 13919953 FTQ occupancy: 16.2586 DECODE IN: 13919820 DECODE occupancy: 40.3767 ROB IN: 13919760 ROB occupancy: 253.689 ROB OUT: 13919690
Heartbeat_Variant_0 : 1381 0.337158 per_variant_size: 0 1381 0 0 0 0 0 0 0 
Heartbeat_Variant_1 : 2625 0.640869 per_variant_size: 0 506 2119 0 0 0 0 0 0 
Heartbeat_Variant_2 : 0 0 per_variant_size: 0 0 0 0 0 0 0 0 0 
Heartbeat_Variant_3 : 0 0 per_variant_size: 0 0 0 0 0 0 0 0 0 
Heartbeat_Variant_0_evicts 0 : 5603 1 : 53 2 : 0 3 : 0 
Heartbeat_Variant_1_evicts 0 : 50 1 : 0 2 : 0 3 : 0 
Heartbeat_Variant_2_evicts 0 : 0 1 : 0 2 : 0 3 : 0 
Heartbeat_Variant_3_evicts 0 : 0 1 : 0 2 : 0 3 : 0 
Heartbeat CPU 0 instructions: 90000001 cycles: 42588823 heartbeat IPC: 1.40469 cumulative IPC: 1.39825 (Simulation time: 0 hr 14 min 36 sec) 
Heartbeat_Variant_0 : 1380 0.336914 per_variant_size: 0 1380 0 0 0 0 0 0 0 
Heartbeat_Variant_1 : 2627 0.641357 per_variant_size: 0 504 2123 0 0 0 0 0 0 
Heartbeat_Variant_2 : 0 0 per_variant_size: 0 0 0 0 0 0 0 0 0 
Heartbeat_Variant_3 : 0 0 per_variant_size: 0 0 0 0 0 0 0 0 0 
Heartbeat_Variant_0_evicts 0 : 5557 1 : 10 2 : 0 3 : 0 
Heartbeat_Variant_1_evicts 0 : 12 1 : 0 2 : 0 3 : 0 
Heartbeat_Variant_2_evicts 0 : 0 1 : 0 2 : 0 3 : 0 
Heartbeat_Variant_3_evicts 0 : 0 1 : 0 2 : 0 3 : 0 
Heartbeat CPU 0 instructions: 100000002 cycles: 49790670 heartbeat IPC: 1.38853 cumulative IPC: 1.3963 (Simulation time: 0 hr 16 min 22 sec) 
Finished CPU 0 instructions: 50000000 cycles: 35809045 cumulative IPC: 1.3963 (Simulation time: 0 hr 16 min 22 sec) 

ChampSim completed all CPUs

Region of Interest Statistics

CPU 0 cumulative IPC: 1.3963 instructions: 50000000 cycles: 35809045
 Fetch stage stalled: 37.6255  Sim cycles: 35809045 fetch stall cycle: 13473336
 Empty decode stage: 19.6719  Sim cycles: 35809045 fetch stall cycle: 7044314
ITLB TOTAL     ACCESS:    5850584  HIT:    5356426  MISS:     494158  HIT %:    91.5537  MISS %:     8.4463   MPKI: 9.88316
ITLB LOAD TRANSLATION INSTRUCTION	ACCESS:    5700960  HIT:    5206802  MISS:     494158  HIT %:     91.332  MISS %:    8.66798  MPKI: 9.88316
ITLB TRANSLATION FROM L1D PREFETCHER INSTRUCTION	ACCESS:     149624  HIT:     149624  MISS:          0  HIT %:        100  MISS %:          0  MPKI: 0

ITLB AVERAGE MISS LATENCY: 9.06697 cycles
ITLB RQ	ACCESS:    7897954	FORWARD:          0	MERGED:    1528262	TO_CACHE:    6369692

DTLB TOTAL     ACCESS:    8963226  HIT:    8491164  MISS:     472062  HIT %:    94.7333  MISS %:    5.26665   MPKI: 9.44124
DTLB LOAD TRANSLATION DATA	ACCESS:    8963226  HIT:    8491164  MISS:     472062  HIT %:    94.7333  MISS %:    5.26665  MPKI: 9.44124

DTLB AVERAGE MISS LATENCY: 9.32918 cycles
DTLB RQ	ACCESS:   13334892	FORWARD:          0	MERGED:    4335525	TO_CACHE:    8999367

STLB TOTAL     ACCESS:    1215661  HIT:    1213531  MISS:       2130  HIT %:    99.8248  MISS %:   0.175213   MPKI: 0.0426
STLB LOAD TRANSLATION INSTRUCTION	ACCESS:     494158  HIT:     493892  MISS:        266  HIT %:    99.9462  MISS %:  0.0538289  MPKI: 0.00532
STLB LOAD TRANSLATION DATA	ACCESS:     472062  HIT:     470229  MISS:       1833  HIT %:    99.6117  MISS %:   0.388296  MPKI: 0.03666
STLB TRANSLATION FROM L1D PREFETCHER DATA	ACCESS:     249441  HIT:     249410  MISS:         31  HIT %:    99.9876  MISS %:  0.0124278  MPKI: 0.00062

STLB AVERAGE MISS LATENCY: 74.77 cycles
STLB RQ	ACCESS:    1337367	FORWARD:          0	MERGED:     121663	TO_CACHE:    1215704

STLB Hit, L1D data hit: 0
STLB Hit, L2C data hit: 0
STLB Hit, LLC data hit: 0
STLB Hit, LLC data miss: 0
STLB STLB hints to L2: 0
L1D TOTAL     ACCESS:   13082238  HIT:   11961816  MISS:    1120422  HIT %:    91.4355  MISS %:    8.56445   MPKI: 22.4084
L1D LOAD DATA	ACCESS:    6544878  HIT:    5808161  MISS:     736717  HIT %:    88.7436  MISS %:    11.2564  MPKI: 14.7343
L1D RFO DATA	ACCESS:    6207629  HIT:    5920781  MISS:     286848  HIT %:    95.3791  MISS %:    4.62089  MPKI: 5.73696
L1D PREFETCH DATA	ACCESS:     329731  HIT:     232874  MISS:      96857  HIT %:    70.6254  MISS %:    29.3746  MPKI: 1.93714

L1D PREFETCH  REQUESTED:     742678  ISSUED:     742678  USEFUL:      35193  USELESS:      69606
L1D USEFUL LOAD PREFETCHES:      35193 PREFETCH ISSUED TO LOWER LEVEL:     104860  ACCURACY: 33.5619
 TIMELY PREFETCHES:      35193 LATE PREFETCHES: 7949 DROPPED PREFETCHES: 8
L1D AVERAGE MISS LATENCY: 229297 cycles
L1D RQ	ACCESS:   10691654	FORWARD:          0	MERGED:    3946945	TO_CACHE:    6579514
L1D WQ	ACCESS:    6952733	FORWARD:     165579	MERGED:     197355	TO_CACHE:    6755378
L1D PQ	ACCESS:     371531	FORWARD:          0	MERGED:          0	TO_CACHE:     371147

L1D UNIQUE REGIONS ACCESSED: 0
L1D REGIONS CONFLICTS: 0
L1D Cross Page Prefetch Requests: 6972
L1D Same Page Prefetch Requests: 755929
L1D ROI Sum of L1D PQ occupancy: 4727439
L1D PREFETCHES PUSHED FROM L2C: 0
L1I TOTAL     ACCESS:    7096013  HIT:    4329462  MISS:    2766551  HIT %:    61.0126  MISS %:    38.9874   MPKI: 55.331
L1I LOAD INSTRUCTION	ACCESS:    6424804  HIT:    3658253  MISS:    2766551  HIT %:    56.9395  MISS %:    43.0605  MPKI: 55.331
L1I PREFETCH INSTRUCTION	ACCESS:     671209  HIT:     671209  MISS:          0  HIT %:        100  MISS %:          0  MPKI: 0

L1I PREFETCH  REQUESTED:    1621514  ISSUED:    1621514  USEFUL:          0  USELESS:          0
L1I USEFUL LOAD PREFETCHES:          0 PREFETCH ISSUED TO LOWER LEVEL:          0  ACCURACY: -nan
 TIMELY PREFETCHES:          0 LATE PREFETCHES: 0 DROPPED PREFETCHES: 0
L1I AVERAGE MISS LATENCY: 17.2357 cycles
L1I RQ	ACCESS:    9662712	FORWARD:          0	MERGED:    2961306	TO_CACHE:    6701406
L1I PQ	ACCESS:    1621514	FORWARD:          0	MERGED:     424966	TO_CACHE:    1196548

L1BTB TOTAL     ACCESS:    5672503  HIT:    2041504  MISS:    3630999  HIT %:    35.9895  MISS %:    64.0105   MPKI: 72.62
L1BTB BRANCH_DIRECT_JUMP	ACCESS:     549038 HIT:     144766 MISS:     404272 AVERAGE STALL: 66.4313 AVERAGE FETCH STALL: 17.2096 AVERAGE FETCH QUEUE STALL: 18.8866 AVERAGE DECODE STALL: 29.3977 AVERAGE EXECUTE STALL: 2.21051e+15
L1BTB BRANCH_INDIRECT	ACCESS:     183066 HIT:      66026 MISS:     117040 AVERAGE STALL: 117.627 AVERAGE FETCH STALL: 11.5314 AVERAGE FETCH QUEUE STALL: 20.294 AVERAGE DECODE STALL: 14.019 AVERAGE EXECUTE STALL: 70.821
L1BTB BRANCH_CONDITIONAL	ACCESS:    2708366 HIT:    1414603 MISS:    1293763 AVERAGE STALL: 80.0486 AVERAGE FETCH STALL: 21.0553 AVERAGE FETCH QUEUE STALL: 33.9379 AVERAGE DECODE STALL: 24.367 AVERAGE EXECUTE STALL: 2.6906e+15
L1BTB BRANCH_DIRECT_CALL	ACCESS:     944675 HIT:     105649 MISS:     839026 AVERAGE STALL: 84.7591 AVERAGE FETCH STALL: 25.3999 AVERAGE FETCH QUEUE STALL: 41.3964 AVERAGE DECODE STALL: 17.3557 AVERAGE EXECUTE STALL: 1.29179e+16
L1BTB BRANCH_INDIRECT_CALL	ACCESS:     171345 HIT:      20871 MISS:     150474 AVERAGE STALL: 145.44 AVERAGE FETCH STALL: 12.1912 AVERAGE FETCH QUEUE STALL: 21.1857 AVERAGE DECODE STALL: 12.3054 AVERAGE EXECUTE STALL: 99.2671
L1BTB BRANCH_RETURN	ACCESS:    1116013 HIT:     289589 MISS:     826424 AVERAGE STALL: 52.6987 AVERAGE FETCH STALL: 16.8624 AVERAGE FETCH QUEUE STALL: 5.82032 AVERAGE DECODE STALL: 6.17267 AVERAGE EXECUTE STALL: 4.38259e+14
L1BTB BRANCH_OTHER ACCESS:          0 HIT:          0 MISS:          0 AVERAGE STALL: -nan AVERAGE FETCH STALL: -nan AVERAGE FETCH QUEUE STALL: -nan AVERAGE DECODE STALL: -nan AVERAGE EXECUTE STALL: -nan
L1BTB TOTAL ROB OCCUPANCY AT BTB MISS: 2.80707

L2BTB TOTAL     ACCESS:    3605699  HIT:    3539679  MISS:      66020  HIT %:     98.169  MISS %:    1.83099   MPKI: 1.3204
L2BTB BRANCH_DIRECT_JUMP	ACCESS:     400137 HIT:     395927 MISS:       4210 AVERAGE STALL: 66.4313 AVERAGE FETCH STALL: 17.2096 AVERAGE FETCH QUEUE STALL: 18.8866 AVERAGE DECODE STALL: 29.3977 AVERAGE EXECUTE STALL: 2.21051e+15
L2BTB BRANCH_INDIRECT	ACCESS:     106780 HIT:     104037 MISS:       2743 AVERAGE STALL: 117.627 AVERAGE FETCH STALL: 11.5314 AVERAGE FETCH QUEUE STALL: 20.294 AVERAGE DECODE STALL: 14.019 AVERAGE EXECUTE STALL: 70.821
L2BTB BRANCH_CONDITIONAL	ACCESS:    1293763 HIT:    1286886 MISS:       6877 AVERAGE STALL: 80.0486 AVERAGE FETCH STALL: 21.0553 AVERAGE FETCH QUEUE STALL: 33.9379 AVERAGE DECODE STALL: 24.367 AVERAGE EXECUTE STALL: 2.6906e+15
L2BTB BRANCH_DIRECT_CALL	ACCESS:     839026 HIT:     837589 MISS:       1437 AVERAGE STALL: 84.7591 AVERAGE FETCH STALL: 25.3999 AVERAGE FETCH QUEUE STALL: 41.3964 AVERAGE DECODE STALL: 17.3557 AVERAGE EXECUTE STALL: 1.29179e+16
L2BTB BRANCH_INDIRECT_CALL	ACCESS:     140977 HIT:     130913 MISS:      10064 AVERAGE STALL: 145.44 AVERAGE FETCH STALL: 12.1912 AVERAGE FETCH QUEUE STALL: 21.1857 AVERAGE DECODE STALL: 12.3054 AVERAGE EXECUTE STALL: 99.2671
L2BTB BRANCH_RETURN	ACCESS:     825016 HIT:     784327 MISS:      40689 AVERAGE STALL: 52.6987 AVERAGE FETCH STALL: 16.8624 AVERAGE FETCH QUEUE STALL: 5.82032 AVERAGE DECODE STALL: 6.17267 AVERAGE EXECUTE STALL: 4.38259e+14
L2BTB BRANCH_OTHER ACCESS:          0 HIT:          0 MISS:          0 AVERAGE STALL: -nan AVERAGE FETCH STALL: -nan AVERAGE FETCH QUEUE STALL: -nan AVERAGE DECODE STALL: -nan AVERAGE EXECUTE STALL: -nan
L2BTB TOTAL ROB OCCUPANCY AT BTB MISS: 154.384

L2C TOTAL     ACCESS:    4489363  HIT:    4031259  MISS:     458104  HIT %:    89.7958  MISS %:    10.2042   MPKI: 9.16208
L2C LOAD INSTRUCTION	ACCESS:    2766551  HIT:    2512083  MISS:     254468  HIT %:     90.802  MISS %:    9.19802  MPKI: 5.08936
L2C LOAD TRANSLATION INSTRUCTION	ACCESS:        307  HIT:         61  MISS:        246  HIT %:    19.8697  MISS %:    80.1303  MPKI: 0.00492
L2C LOAD DATA	ACCESS:     728731  HIT:     658599  MISS:      70132  HIT %:    90.3761  MISS %:    9.62385  MPKI: 1.40264
L2C RFO DATA	ACCESS:     286782  HIT:     237453  MISS:      49329  HIT %:    82.7991  MISS %:    17.2009  MPKI: 0.98658
L2C PREFETCH DATA	ACCESS:     182023  HIT:     111574  MISS:      70449  HIT %:    61.2966  MISS %:    38.7034  MPKI: 1.40898
L2C WRITEBACK DATA	ACCESS:     523005  HIT:     510877  MISS:      12128  HIT %:    97.6811  MISS %:    2.31891  MPKI: 0.24256
L2C LOAD TRANSLATION DATA	ACCESS:       1914  HIT:        574  MISS:       1340  HIT %:    29.9896  MISS %:    70.0104  MPKI: 0.0268
L2C TRANSLATION FROM L1D PREFETCHER DATA	ACCESS:         50  HIT:         38  MISS:         12  HIT %:         76  MISS %:         24  MPKI: 0.00024

L2C PREFETCH  REQUESTED:      85090  ISSUED:      85090  USEFUL:       7327  USELESS:      63652
L2C USEFUL LOAD PREFETCHES:       7327 PREFETCH ISSUED TO LOWER LEVEL:      70888  ACCURACY: 10.336
 TIMELY PREFETCHES:       7327 LATE PREFETCHES: 439 DROPPED PREFETCHES: 0
L2C AVERAGE MISS LATENCY: 39.9403 cycles
L2C RQ	ACCESS:    3784384	FORWARD:          0	MERGED:          0	TO_CACHE:    3784335
L2C WQ	ACCESS:     523005	FORWARD:         49	MERGED:          0	TO_CACHE:     523005
L2C PQ	ACCESS:     189950	FORWARD:          0	MERGED:       4315	TO_CACHE:     185635

L2C Dense regions hint from L2: 0
PSCL5 TOTAL     ACCESS:       4284  HIT:       2142  MISS:       2142  HIT %:         50  MISS %:         50   MPKI: 0.04284
PSCL5 LOAD TRANSLATION INSTRUCTION	ACCESS:       4184  HIT:       2092  MISS:       2092  HIT %:         50  MISS %:         50  MPKI: 0.04184
PSCL5 TRANSLATION FROM L1D PREFETCHER INSTRUCTION	ACCESS:        100  HIT:         50  MISS:         50  HIT %:         50  MISS %:         50  MPKI: 0.001


PSCL4 TOTAL     ACCESS:       4170  HIT:       2080  MISS:       2090  HIT %:    49.8801  MISS %:    50.1199   MPKI: 0.0418
PSCL4 LOAD TRANSLATION INSTRUCTION	ACCESS:       3188  HIT:       2039  MISS:       1149  HIT %:    63.9586  MISS %:    36.0414  MPKI: 0.02298
PSCL4 TRANSLATION FROM L1D PREFETCHER INSTRUCTION	ACCESS:         66  HIT:         41  MISS:         25  HIT %:    62.1212  MISS %:    37.8788  MPKI: 0.0005
PSCL4 LOAD TRANSLATION DATA	ACCESS:        900  HIT:          0  MISS:        900  HIT %:          0  MISS %:        100  MPKI: 0.018
PSCL4 TRANSLATION FROM L1D PREFETCHER DATA	ACCESS:         16  HIT:          0  MISS:         16  HIT %:          0  MISS %:        100  MPKI: 0.00032


PSCL3 TOTAL     ACCESS:       4234  HIT:       2112  MISS:       2122  HIT %:    49.8819  MISS %:    50.1181   MPKI: 0.04244
PSCL3 LOAD TRANSLATION INSTRUCTION	ACCESS:       3220  HIT:       2071  MISS:       1149  HIT %:    64.3168  MISS %:    35.6832  MPKI: 0.02298
PSCL3 TRANSLATION FROM L1D PREFETCHER INSTRUCTION	ACCESS:         66  HIT:         41  MISS:         25  HIT %:    62.1212  MISS %:    37.8788  MPKI: 0.0005
PSCL3 LOAD TRANSLATION DATA	ACCESS:        932  HIT:          0  MISS:        932  HIT %:          0  MISS %:        100  MPKI: 0.01864
PSCL3 TRANSLATION FROM L1D PREFETCHER DATA	ACCESS:         16  HIT:          0  MISS:         16  HIT %:          0  MISS %:        100  MPKI: 0.00032


PSCL2 TOTAL     ACCESS:       4175  HIT:       2033  MISS:       2142  HIT %:    48.6946  MISS %:    51.3054   MPKI: 0.04284
PSCL2 LOAD TRANSLATION INSTRUCTION	ACCESS:       2248  HIT:       1983  MISS:        265  HIT %:    88.2117  MISS %:    11.7883  MPKI: 0.0053
PSCL2 TRANSLATION FROM L1D PREFETCHER INSTRUCTION	ACCESS:         50  HIT:         50  MISS:          0  HIT %:        100  MISS %:          0  MPKI: 0
PSCL2 LOAD TRANSLATION DATA	ACCESS:       1827  HIT:          0  MISS:       1827  HIT %:          0  MISS %:        100  MPKI: 0.03654
PSCL2 TRANSLATION FROM L1D PREFETCHER DATA	ACCESS:         50  HIT:          0  MISS:         50  HIT %:          0  MISS %:        100  MPKI: 0.001


LLC TOTAL     ACCESS:     515352  HIT:     484823  MISS:      30529  HIT %:    94.0761  MISS %:    5.92391   MPKI: 0.61058
LLC LOAD INSTRUCTION	ACCESS:     254468  HIT:     253450  MISS:       1018  HIT %:    99.5999  MISS %:    0.40005  MPKI: 0.02036
LLC LOAD TRANSLATION INSTRUCTION	ACCESS:        246  HIT:        202  MISS:         44  HIT %:    82.1138  MISS %:    17.8862  MPKI: 0.00088
LLC LOAD DATA	ACCESS:      69719  HIT:      66122  MISS:       3597  HIT %:    94.8407  MISS %:    5.15928  MPKI: 0.07194
LLC RFO DATA	ACCESS:      49302  HIT:      33966  MISS:      15336  HIT %:    68.8938  MISS %:    31.1062  MPKI: 0.30672
LLC PREFETCH DATA	ACCESS:      70888  HIT:      60808  MISS:      10080  HIT %:    85.7804  MISS %:    14.2196  MPKI: 0.2016
LLC WRITEBACK DATA	ACCESS:      69377  HIT:      68996  MISS:        381  HIT %:    99.4508  MISS %:   0.549173  MPKI: 0.00762
LLC LOAD TRANSLATION DATA	ACCESS:       1340  HIT:       1267  MISS:         73  HIT %:    94.5522  MISS %:    5.44776  MPKI: 0.00146
LLC TRANSLATION FROM L1D PREFETCHER DATA	ACCESS:         12  HIT:         12  MISS:          0  HIT %:        100  MISS %:          0  MPKI: 0

LLC AVERAGE MISS LATENCY: 159.755 cycles
LLC RQ	ACCESS:     375088	FORWARD:          0	MERGED:          0	TO_CACHE:     375087
LLC WQ	ACCESS:      69377	FORWARD:          1	MERGED:          0	TO_CACHE:      69377
LLC PQ	ACCESS:      70888	FORWARD:          0	MERGED:          0	TO_CACHE:      70888

LLC Dense regions hint to LLC: 0

RAW hits: 1950925
Loads Generated: 12642579
Loads sent to L1D: 10691654
Stores Generated: 6952714
Stores sent to L1D: 6952733
Major fault: 0 Minor fault: 2560
Allocated PAGES: 2560

stream: 
stream:times selected: 1194494
stream:pref_filled: 121653
stream:pref_useful: 24039
stream:pref_late: 6699
stream:misses: 8026
stream:misses_by_poll: 0

CS: 
CS:times selected: 180535
CS:pref_filled: 60055
CS:pref_useful: 36482
CS:pref_late: 6986
CS:misses: 16747
CS:misses_by_poll: 3

CPLX: 
CPLX:times selected: 1012800
CPLX:pref_filled: 19524
CPLX:pref_useful: 4544
CPLX:pref_late: 3012
CPLX:misses: 92939
CPLX:misses_by_poll: 0

NL_L1: 
NL:times selected: 20957
NL:pref_filled: 805
NL:pref_useful: 381
NL:pref_late: 290
NL:misses: 1704
NL:misses_by_poll: 0

total selections: 2408786
total_filled: 96857
total_useful: 35193
total_late: 18280
total_polluted: 3
total_misses_after_warmup: 771352
conflicts: 5508565

test: 118752

DRAM Statistics
 CHANNEL 0
 RQ ROW_BUFFER_HIT:      11245  ROW_BUFFER_MISS:      18891
 DBUS_CONGESTED:         14
 WQ ROW_BUFFER_HIT:       1527  ROW_BUFFER_MISS:      13209  FULL:          0

 AVG_CONGESTED_CYCLE: 6

CPU 0 Branch Prediction Accuracy: 99.8237% MPKI: 0.32256 Average ROB Occupancy at Mispredict: 201.26
Branch types
NOT_BRANCH: 40853558 81.7071%
BRANCH_DIRECT_JUMP: 549038 1.09808%
BRANCH_INDIRECT: 183066 0.366132%
BRANCH_CONDITIONAL: 6182075 12.3642%
BRANCH_DIRECT_CALL: 944675 1.88935%
BRANCH_INDIRECT_CALL: 171345 0.34269%
BRANCH_RETURN: 1116013 2.23203%
BRANCH_OTHER: 0 0%

DRAM PAGES: 1048576
Allocated PAGES: 2560
Average_ROB_Occupancy: 255.025
Average_Decode_Occupancy: 40.2387
Average_FTQ_Occupancy: 16.1694
Indirect max targets: 14 Average targets: 1.14576
Branch_type:  BRANCH_DIRECT_JUMP:  Count Percentage: 3.41964 4.36706 4.41006 9.46245 1.69588 5.96374 3.0608 67.6204 
Branch_type:  BRANCH_INDIRECT:  Count Percentage: 11.7066 3.46145 2.57959 0 2.54414 9.71436 19.2698 50.7241 
Branch_type:  BRANCH_CONDITIONAL:  Count Percentage: 15.9437 2.6521 6.94737 8.60669 1.48272 4.85202 2.40903 57.1063 
Branch_type:  BRANCH_DIRECT_CALL:  Count Percentage: 0.744509 1.2585 1.47186 4.99077 2.24824 2.60209 0.772766 85.9113 
Branch_type:  BRANCH_INDIRECT_CALL:  Count Percentage: 9.54173 0.581307 2.98866 4.85241 0 2.35504 1.29092 78.3899 
Branch_type:  BRANCH_RETURN:  Count Percentage: 3.95386 0.697056 1.28803 9.26324 2.49226 6.50862 3.15104 72.6459 
Branch_type:  BRANCH_DIRECT_JUMP:  Total Count: 37538 47938 48410 103871 18616 65465 33599 742281 
Branch_type:  BRANCH_INDIRECT:  Total Count: 42931 12694 9460 0 9330 35625 70667 186018 
Branch_type:  BRANCH_CONDITIONAL:  Total Count: 1971163 327886 858921 1064067 183313 599868 297834 7060203 
Branch_type:  BRANCH_DIRECT_CALL:  Total Count: 14017 23694 27711 93962 42328 48990 14549 1617466 
Branch_type:  BRANCH_INDIRECT_CALL:  Total Count: 32648 1989 10226 16603 0 8058 4417 268219 
Branch_type:  BRANCH_RETURN:  Total Count: 87999 15514 28667 206167 55469 144859 70131 1616841 
Number of unique branch instructions: 9706
Upper 32 bits: 
aaaa
ffff
ffff0000
Unique upper 32 bits: 3
Unique upper 36 bits: 3
Unique upper 40 bits: 5
Unique upper 44 bits: 32
Unique upper 48 bits: 153
Variant_0 : 1380 0.336914
Variant_1 : 2627 0.641357
Variant_2 : 0 0
Variant_3 : 0 0
Offset_3 3999
Offset_4 240
Offset_5 443
Offset_6 493
Offset_7 570
Offset_8 503
Offset_9 459
Offset_10 368
Offset_11 299
Offset_12 265
Offset_13 198
Offset_14 225
Offset_15 177
Offset_16 216
Offset_17 144
Offset_18 118
Offset_19 229
Offset_20 132
Offset_21 235
Offset_22 388
Offset_23 243
Offset_24 328
Offset_25 88
Offset_47 82
Offset_64 1
decode_dispatch_called: 26800314 74.8423
Dispatch_width: 0 14526857 54.2041 40.5676
Dispatch_width: 1 1041274 3.88531 2.90785
Dispatch_width: 2 869795 3.24547 2.42898
Dispatch_width: 3 490896 1.83168 1.37087
Dispatch_width: 4 6698213 24.993 18.7054
Dispatch_width: 5 86142 0.321422 0.240559
Dispatch_width: 6 3087137 11.519 8.62111
Empty_decode_cycles: 9008731 25.1577
ROB_full_cycles: 10691203 29.8562
Starvation_cycles_per_kilo_instr: 220.307
Starvation_cycles_per_kilo_instr_3: 152.463
Starvation_cycles_per_kilo_instr_0: 128.444
Branch_type_1  (3,1)  (4,7)  (5,36)  (6,68)  (7,115)  (8,127)  (9,124)  (10,97)  (11,67)  (12,43)  (13,5)  (14,2)  (15,3)  (16,4)  (18,1)  (19,4)  (20,2)  (21,1)  (22,3)  (23,2)  (24,10)  (25,12) 
Branch_type_2  (3,1)  (5,1)  (8,3)  (9,3)  (12,1)  (13,1)  (14,1)  (16,3)  (17,2)  (20,2)  (21,2)  (23,5)  (24,1)  (47,38) 
Branch_type_3  (3,3997)  (4,233)  (5,402)  (6,410)  (7,426)  (8,314)  (9,251)  (10,148)  (11,121)  (12,50)  (13,4)  (64,1) 
Branch_type_4  (6,3)  (7,8)  (8,25)  (9,49)  (10,59)  (11,56)  (12,93)  (13,85)  (14,99)  (15,82)  (16,96)  (17,64)  (18,53)  (19,112)  (20,69)  (21,124)  (22,206)  (23,137)  (24,190)  (25,72) 
Branch_type_5  (8,2)  (9,1)  (10,3)  (11,5)  (12,3)  (13,14)  (14,16)  (15,11)  (16,20)  (17,11)  (18,16)  (19,12)  (20,10)  (21,13)  (22,42)  (23,26)  (24,36) 
Branch_type_6  (5,4)  (6,12)  (7,21)  (8,32)  (9,31)  (10,61)  (11,50)  (12,75)  (13,89)  (14,107)  (15,81)  (16,93)  (17,67)  (18,48)  (19,101)  (20,49)  (21,95)  (22,137)  (23,73)  (24,91)  (25,4)  (47,44) 
Unique trigger count: 
Variant_0_evicts_0 : 0
Variant_0_evicts_1 : 0
Variant_0_evicts_2 : 0
Variant_0_evicts_3 : 0
Variant_1_evicts_0 : 0
Variant_1_evicts_1 : 0
Variant_1_evicts_2 : 0
Variant_1_evicts_3 : 0
Variant_2_evicts_0 : 0
Variant_2_evicts_1 : 0
Variant_2_evicts_2 : 0
Variant_2_evicts_3 : 0
Variant_3_evicts_0 : 0
Variant_3_evicts_1 : 0
Variant_3_evicts_2 : 0
Variant_3_evicts_3 : 0
BTB PER SET UNIQUE ADDR: 6 10 6 12 10 11 9 7 7 10 7 12 9 11 8 6 12 10 10 8 9 9 11 14 8 7 11 10 8 12 8 10 8 7 6 11 8 13 6 7 9 8 12 8 10 9 9 8 8 7 13 8 14 9 10 7 11 9 7 10 12 11 12 9 10 10 9 4 12 8 8 10 13 6 7 7 7 12 6 12 6 7 9 9 10 9 11 8 6 13 8 9 9 9 9 11 10 12 18 10 15 8 7 9 12 11 4 8 5 8 9 11 14 7 6 9 7 9 14 8 4 6 8 7 10 6 4 11 13 10 7 13 7 14 11 11 9 8 11 14 10 9 9 9 8 9 11 8 6 8 14 11 12 10 8 12 9 11 9 7 9 7 11 10 9 12 11 8 13 8 10 11 10 9 9 6 9 10 9 8 7 9 10 7 14 16 4 12 10 7 7 9 8 11 10 10 5 11 7 11 11 9 8 8 7 10 9 11 7 11 12 11 7 9 9 11 8 11 9 10 7 11 6 10 9 9 9 10 7 11 8 7 9 8 10 10 8 9 9 8 8 9 8 10 9 9 8 5 12 9 9 9 10 7 10 10 6 5 8 10 7 11 7 11 10 7 9 9 12 13 11 14 8 8 11 8 11 9 13 9 11 12 8 8 8 8 9 8 11 8 7 7 12 8 5 11 12 9 8 6 6 13 6 10 9 11 7 12 10 10 7 13 7 12 15 6 11 11 12 13 7 9 9 8 11 9 10 7 11 6 9 12 7 12 10 7 8 11 9 13 8 10 5 10 9 10 9 8 9 9 12 9 10 11 8 8 8 12 6 10 8 13 7 17 9 13 5 12 10 9 8 10 9 11 7 14 11 10 12 8 10 4 6 10 8 8 11 12 10 11 7 8 9 9 4 7 11 6 7 6 8 12 7 13 13 8 11 9 10 8 12 9 10 7 9 8 7 11 13 12 10 9 5 10 11 12 10 11 11 10 9 9 7 8 12 10 14 8 8 9 12 9 5 10 11 8 9 12 12 12 8 14 9 10 13 13 11 9 8 11 9 10 6 10 11 10 10 9 6 9 9 8 10 8 13 17 9 13 6 8 13 12 9 10 8 15 11 11 13 11 6 9 8 4 9 9 11 11 8 12 10 13 9 8 8 8 7 10 12 11 10 11 12 9 11 12 10 15 8 8 7 7 8 7 9 9 13 8 5 8 9 10 11 8 11 15 8 14 11 10 10 10 7 9 13 12 7 10 9 10 11 12 8 10 6 13 6 9 15 9 8 10 9 13 9 10 10 9 9 13 14 9 13 11 7 11 10 9 10 7 12 9 8 10 10 6 9 12 8 10 6 10 13 8 10 7 9 12 9 11 9 11 9 6 7 11 12 5 11 11 12 11 8 10 6 13 8 8 8 13 7 10 7 7 10 14 8 11 7 12 7 14 11 12 7 8 12 10 6 8 6 11 13 9 7 14 8 8 10 5 7 11 6 7 9 8 9 9 11 7 12 7 11 13 8 10 10 10 6 9 7 9 11 11 13 13 14 14 8 9 10 12 10 14 11 8 9 7 10 10 10 9 9 7 8 10 8 13 10 10 6 11 8 11 7 12 12 7 9 9 11 12 9 8 7 7 14 12 9 11 6 13 10 7 7 10 13 10 9 8 12 8 12 10 8 8 7 12 14 10 10 10 8 11 12 13 6 9 10 7 12 12 11 9 8 7 13 6 10 8 7 5 7 11 13 10 9 16 10 9 11 9 8 7 6 10 9 10 10 9 10 13 13 9 10 8 9 9 6 6 6 7 10 8 10 8 8 8 10 9 8 11 14 9 8 10 11 8 10 5 10 9 10 12 12 9 11 11 7 10 10 14 3 11 9 11 5 11 11 16 15 11 11 6 8 8 9 11 12 8 12 13 12 7 11 10 9 11 9 8 11 8 7 9 6 15 9 13 9 9 7 7 11 7 12 9 12 11 12 11 7 10 11 7 12 6 10 11 7 9 7 6 10 8 8 15 14 10 10 8 9 8 9 6 9 12 13 6 6 8 9 9 8 9 6 9 10 12 11 11 10 10 9 11 12 9 13 11 10 6 9 10 8 9 10 7 5 9 9 8 15 10 8 9 7 8 8 12 10 9 6 13 11 9 11 11 10 11 9 12 8 13 7 10 8 9 10 12 13 12 10 13 9 14 13 8 10 7 10 12 9 7 10 10 11 6 15 10 14 8 9 9 9 10 9 14 13 7 12 9 8 7 11 9 13 8 9 12 12 8 6 11 7 7 13 8 8 11 8 7 11 9 8 8 6 8 5 9 4 8 6 15 11 7 
BTB PER SET COUNT: 999 15 1995 16 13 17 1400 7 1469 10 13 13 123 14 10 6 1289 11 13 8 11 9 508 74 12 8 21 247 8 15 8 10 8 8 6 508 8 19 8 7 12 8 16 8 11 11 10 9 10 7 21 334 24 13 11 381 14 10 7 11 12 15 268 11 13 11 10 5 16 11 1471 12 15 6 8 8 8 50 7 16 6 10 10 12 12 16 11 9 1468 36 10 860 11 10 13 12 17 15 23 16 17 9 9 9 1481 12 14 8 5 2404 9 14 71 7 6 209 7 9 1477 8 4 6 12 9 10 138 4 19 21 578 10 4398 7 18 20 15 973 8 13 15 16 10 10 9 8 10 214 1001 6 10 17 306 951 12 9 12 9 13 9 7 9 200 16 11 900 14 12 8 16 1603 10 14 14 11 12 8 9 14 13 985 8 11 152 7 17 1081 5 14 13 426 8 10 11 14 48 11 6 1004 7 17 15 12 971 11 7 12 9 12 971 1475 19 14 7 10923 21 12 8 15 2927 13 9 15 384 10 11 10 14 12 656 15 9 7 12 9 10 20079 8 507 10 8 8 9 8 1076 13 10 8 6 13 12 9 10 13 9 11 16 93 5 8 11 7 12 7 17 12 7 16 14 663 15 12 453 8 9 894 8 13 11 16 11 13 14 626 178 8 9 9 10 12 8 12 7 13 532 5 13 689 9 9 59 6 15 6 20 10 186 7 189 11 25 972 13 9 17 1789 1000 11 19 16 16 7 2930 9 12 189 13 11 8 19 6 9 25 11 12 12 9 9 16 11 13 11 1177 5 13 16 10 14 12 9 114 12 1471 14 13 8 8 9 13 239 28 9 18 7 32 10 1923 5 14 13 10 8 16 11 1468 376 15 17 10 17 10 1004 4 9 13 8 9 13 15 11 19 7 10 13 959 4 1003 12 7 9 7 8 14 8 18 20 9 17 506 10 10 17 13 12 977 9 8 9 412 16 19 10 14 5 19 13 17 245 13 13 10 9 11 9 9 337 14 19 143 10 10 132 11 5 11 898 8 917 14 15 15 9 15 9 12 13 512 19 10 8 14 9 501 6 14 16 11 12 12 9 12 14 9 16 9 26 21 11 28 6 9 20 17 9 10 10 28 11 11 15 11 6 11 971 5 9 9 553 616 8 19 11 24 10 145 9 8 7 11 14 16 320 237 87 508 14 14 34 19 15 10 9 10 8 7 9 13 687 1475 5 1967 11 15 11 9 15 20 10 17 12 695 15 10 35 13 17 16 7 13 9 973 12 13 10 12 8 23 7 11 23 10 10 99 10 19 15 14 131 9 9 16 21 10 16 15 7 14 11 9 10 7 19 11 10 538 12 6 10 14 15 10 8 15 16 9 10 10 1547 844 251 13 10 13 12 8 8 15 17 5 11 13 15 1294 11 12 12 18 8 12 8 653 8 10 9 10 10 19 10 14 7 377 8 19 13 15 8 9 17 1008 7 8 7 17 14 362 2060 22 83 9 395 5 7 13 6 7 11 507 13 11 27 10 385 9 13 17 10 10 22 1565 1467 14 7 12 977 14 517 17 15 20 8 14 15 18 11 17 1716 10 9 8 11 14 11 10 9 9 2902 19 8 30 12 10 6 16 11 12 8 435 16 7 9 16 149 14 1244 10 9 120 567 16 21 440 6 1148 13 1468 7 12 18 12 1003 9 472 3707 16 12 10 8 504 12 15 13 1307 14 8 14 600 27 313 10 13 7 19 18 12 12 17 9 16 1265 13 9 8 5 7 11 16 11 14 21 13 180 13 244 9 7 6 13 12 914 11 12 215 18 215 9 12 12 13 12 6 6 6 648 11 8 284 11 199 8 12 123 9 12 17 11 478 17 12 8 10 54 14 8384 11 12 15 820 532 969 7 1891 12 1003 3 17 12 11 7 14 16 26 20 13 13 6 497 11 10 12 14 11 21 1021 16 9 1403 10 11 13 9 10 795 9 8 11 6 19 11 18 19 9 1000 8 12 7 1000 10 12 14 16 13 7 16 17 7 13 6 13 13 8 11 7 6 124 8 504 388 17 16 11 20 9 1499 10 6 11 13 16 6 6 8 9 9 8 321 11 20 13 15 143 20 88 10 19 13 12 1232 15 611 14 6 9 11 8 11 13 8 6 10 9 10 21 11 8 13 49 2994 10 16 13 11 7 820 13 10 11 14 10 12 11 14 8 1007 7 1173 10 9 251 13 23 20 362 21 9 18 20 8 1471 8 10 29 18 8 10 10 15 6 31 16 19 13 15 1501 10 473 12 1000 16 7 18 12 13 7 15 1253 18 11 10 1475 12 10 6 13 9 7 16 8 10 13 8 7 66 14 8 10 6 8 6 9 4 8 6 478 15 7 
To predecode: 0
Predecoding something: 0
Predecode request dropped: 0
sizeofblock_0 0
sizeofblock_1 57687
sizeofblock_2 79619
sizeofblock_3 0
sizeofblock_4 0
sizeofblock_5 0
sizeofblock_6 0
sizeofblock_7 0
sizeofblock_8 0
Variant_0 Correct: 1610279 Incorrect: 0 Accuracy: 1
Variant_1 Correct: 5719318 Incorrect: 0 Accuracy: 1
Variant_2 Correct: 0 Incorrect: 0 Accuracy: -nan
Variant_3 Correct: 0 Incorrect: 0 Accuracy: -nan
