
*** ChampSim Multicore Out-of-Order Simulator ***

Warmup Instructions: 50000000
Simulation Instructions: 50000000
Number of CPUs: 1
LLC sets: 2048
LLC ways: 16
Off-chip DRAM Size: 4096 MB Channels: 1 Width: 64-bit Data Rate: 6400 MT/s
CPU 0 runs ./micro_traces/srv724.trace.gz
.gz
ITLB has LRU replacement policy
DTLB has LRU replacement policy
STLB has LRU replacement policy
FDIP Prefetcher at L1I
L1I has LRU replacement policy
L1D has LRU replacement policy
Initialize SRRIP state for L2C
Initialize DRRIP state for LLC
Heartbeat_Variant_0 : 1344 0.328125 per_variant_size: 0 1344 0 0 0 0 0 0 0 
Heartbeat_Variant_1 : 2571 0.627686 per_variant_size: 0 483 2088 0 0 0 0 0 0 
Heartbeat_Variant_2 : 0 0 per_variant_size: 0 0 0 0 0 0 0 0 0 
Heartbeat_Variant_3 : 0 0 per_variant_size: 0 0 0 0 0 0 0 0 0 
Heartbeat_Variant_0_evicts 0 : 5755 1 : 505 2 : 0 3 : 0 
Heartbeat_Variant_1_evicts 0 : 452 1 : 0 2 : 0 3 : 0 
Heartbeat_Variant_2_evicts 0 : 0 1 : 0 2 : 0 3 : 0 
Heartbeat_Variant_3_evicts 0 : 0 1 : 0 2 : 0 3 : 0 
Heartbeat CPU 0 instructions: 10000002 cycles: 2902342 heartbeat IPC: 3.44549 cumulative IPC: 3.44549 (Simulation time: 0 hr 1 min 35 sec) 
Heartbeat_Variant_0 : 1347 0.328857 per_variant_size: 0 1347 0 0 0 0 0 0 0 
Heartbeat_Variant_1 : 2579 0.629639 per_variant_size: 0 498 2081 0 0 0 0 0 0 
Heartbeat_Variant_2 : 0 0 per_variant_size: 0 0 0 0 0 0 0 0 0 
Heartbeat_Variant_3 : 0 0 per_variant_size: 0 0 0 0 0 0 0 0 0 
Heartbeat_Variant_0_evicts 0 : 5605 1 : 80 2 : 0 3 : 0 
Heartbeat_Variant_1_evicts 0 : 77 1 : 0 2 : 0 3 : 0 
Heartbeat_Variant_2_evicts 0 : 0 1 : 0 2 : 0 3 : 0 
Heartbeat_Variant_3_evicts 0 : 0 1 : 0 2 : 0 3 : 0 
Heartbeat CPU 0 instructions: 20000000 cycles: 5803340 heartbeat IPC: 3.44709 cumulative IPC: 3.44629 (Simulation time: 0 hr 3 min 9 sec) 
Heartbeat_Variant_0 : 1347 0.328857 per_variant_size: 0 1347 0 0 0 0 0 0 0 
Heartbeat_Variant_1 : 2581 0.630127 per_variant_size: 0 502 2079 0 0 0 0 0 0 
Heartbeat_Variant_2 : 0 0 per_variant_size: 0 0 0 0 0 0 0 0 0 
Heartbeat_Variant_3 : 0 0 per_variant_size: 0 0 0 0 0 0 0 0 0 
Heartbeat_Variant_0_evicts 0 : 5573 1 : 6 2 : 0 3 : 0 
Heartbeat_Variant_1_evicts 0 : 7 1 : 0 2 : 0 3 : 0 
Heartbeat_Variant_2_evicts 0 : 0 1 : 0 2 : 0 3 : 0 
Heartbeat_Variant_3_evicts 0 : 0 1 : 0 2 : 0 3 : 0 
Heartbeat CPU 0 instructions: 30000001 cycles: 8702842 heartbeat IPC: 3.44887 cumulative IPC: 3.44715 (Simulation time: 0 hr 4 min 42 sec) 
Heartbeat_Variant_0 : 1365 0.333252 per_variant_size: 0 1365 0 0 0 0 0 0 0 
Heartbeat_Variant_1 : 2597 0.634033 per_variant_size: 0 496 2101 0 0 0 0 0 0 
Heartbeat_Variant_2 : 0 0 per_variant_size: 0 0 0 0 0 0 0 0 0 
Heartbeat_Variant_3 : 0 0 per_variant_size: 0 0 0 0 0 0 0 0 0 
Heartbeat_Variant_0_evicts 0 : 5709 1 : 167 2 : 0 3 : 0 
Heartbeat_Variant_1_evicts 0 : 157 1 : 0 2 : 0 3 : 0 
Heartbeat_Variant_2_evicts 0 : 0 1 : 0 2 : 0 3 : 0 
Heartbeat_Variant_3_evicts 0 : 0 1 : 0 2 : 0 3 : 0 
Heartbeat CPU 0 instructions: 40000000 cycles: 11605545 heartbeat IPC: 3.44506 cumulative IPC: 3.44663 (Simulation time: 0 hr 6 min 16 sec) 
Heartbeat_Variant_0 : 1365 0.333252 per_variant_size: 0 1365 0 0 0 0 0 0 0 
Heartbeat_Variant_1 : 2597 0.634033 per_variant_size: 0 496 2101 0 0 0 0 0 0 
Heartbeat_Variant_2 : 0 0 per_variant_size: 0 0 0 0 0 0 0 0 0 
Heartbeat_Variant_3 : 0 0 per_variant_size: 0 0 0 0 0 0 0 0 0 
Heartbeat_Variant_0_evicts 0 : 5550 1 : 0 2 : 0 3 : 0 
Heartbeat_Variant_1_evicts 0 : 0 1 : 0 2 : 0 3 : 0 
Heartbeat_Variant_2_evicts 0 : 0 1 : 0 2 : 0 3 : 0 
Heartbeat_Variant_3_evicts 0 : 0 1 : 0 2 : 0 3 : 0 
Heartbeat CPU 0 instructions: 50000002 cycles: 14509612 heartbeat IPC: 3.44345 cumulative IPC: 3.44599 (Simulation time: 0 hr 7 min 50 sec) 

Warmup complete CPU 0 instructions: 50000002 cycles: 14509612 (Simulation time: 0 hr 7 min 50 sec) 

Cycle: 20000000 FTQ IN: 55904310 FTQ occupancy: 21.0457 DECODE IN: 55904294 DECODE occupancy: 54.6996 ROB IN: 55904285 ROB occupancy: 327.276 ROB OUT: 55904279
Heartbeat_Variant_0 : 1369 0.334229 per_variant_size: 0 1369 0 0 0 0 0 0 0 
Heartbeat_Variant_1 : 2614 0.638184 per_variant_size: 0 502 2112 0 0 0 0 0 0 
Heartbeat_Variant_2 : 0 0 per_variant_size: 0 0 0 0 0 0 0 0 0 
Heartbeat_Variant_3 : 0 0 per_variant_size: 0 0 0 0 0 0 0 0 0 
Heartbeat_Variant_0_evicts 0 : 5733 1 : 191 2 : 0 3 : 0 
Heartbeat_Variant_1_evicts 0 : 195 1 : 0 2 : 0 3 : 0 
Heartbeat_Variant_2_evicts 0 : 0 1 : 0 2 : 0 3 : 0 
Heartbeat_Variant_3_evicts 0 : 0 1 : 0 2 : 0 3 : 0 
Heartbeat CPU 0 instructions: 60000001 cycles: 23740464 heartbeat IPC: 1.08332 cumulative IPC: 1.08332 (Simulation time: 0 hr 9 min 53 sec) 
Cycle: 30000000 FTQ IN: 10981981 FTQ occupancy: 15.8915 DECODE IN: 10981985 DECODE occupancy: 41.4959 ROB IN: 10981994 ROB occupancy: 273.708 ROB OUT: 10981953
Heartbeat_Variant_0 : 1368 0.333984 per_variant_size: 0 1368 0 0 0 0 0 0 0 
Heartbeat_Variant_1 : 2616 0.638672 per_variant_size: 0 507 2109 0 0 0 0 0 0 
Heartbeat_Variant_2 : 0 0 per_variant_size: 0 0 0 0 0 0 0 0 0 
Heartbeat_Variant_3 : 0 0 per_variant_size: 0 0 0 0 0 0 0 0 0 
Heartbeat_Variant_0_evicts 0 : 5549 1 : 11 2 : 0 3 : 0 
Heartbeat_Variant_1_evicts 0 : 12 1 : 0 2 : 0 3 : 0 
Heartbeat_Variant_2_evicts 0 : 0 1 : 0 2 : 0 3 : 0 
Heartbeat_Variant_3_evicts 0 : 0 1 : 0 2 : 0 3 : 0 
Heartbeat CPU 0 instructions: 70000000 cycles: 32839780 heartbeat IPC: 1.09898 cumulative IPC: 1.0911 (Simulation time: 0 hr 11 min 58 sec) 
Cycle: 40000000 FTQ IN: 10749929 FTQ occupancy: 15.5422 DECODE IN: 10749926 DECODE occupancy: 40.3296 ROB IN: 10749926 ROB occupancy: 268.913 ROB OUT: 10749666
Heartbeat_Variant_0 : 1373 0.335205 per_variant_size: 0 1373 0 0 0 0 0 0 0 
Heartbeat_Variant_1 : 2677 0.653564 per_variant_size: 0 464 2213 0 0 0 0 0 0 
Heartbeat_Variant_2 : 0 0 per_variant_size: 0 0 0 0 0 0 0 0 0 
Heartbeat_Variant_3 : 0 0 per_variant_size: 0 0 0 0 0 0 0 0 0 
Heartbeat_Variant_0_evicts 0 : 5950 1 : 819 2 : 0 3 : 0 
Heartbeat_Variant_1_evicts 0 : 830 1 : 0 2 : 0 3 : 0 
Heartbeat_Variant_2_evicts 0 : 0 1 : 0 2 : 0 3 : 0 
Heartbeat_Variant_3_evicts 0 : 0 1 : 0 2 : 0 3 : 0 
Heartbeat CPU 0 instructions: 80000003 cycles: 42171434 heartbeat IPC: 1.07162 cumulative IPC: 1.08453 (Simulation time: 0 hr 14 min 2 sec) 
Cycle: 50000000 FTQ IN: 10983741 FTQ occupancy: 15.4364 DECODE IN: 10983672 DECODE occupancy: 40.3552 ROB IN: 10983612 ROB occupancy: 270.711 ROB OUT: 10983567
Heartbeat_Variant_0 : 1379 0.33667 per_variant_size: 0 1379 0 0 0 0 0 0 0 
Heartbeat_Variant_1 : 2676 0.65332 per_variant_size: 0 468 2208 0 0 0 0 0 0 
Heartbeat_Variant_2 : 0 0 per_variant_size: 0 0 0 0 0 0 0 0 0 
Heartbeat_Variant_3 : 0 0 per_variant_size: 0 0 0 0 0 0 0 0 0 
Heartbeat_Variant_0_evicts 0 : 5772 1 : 225 2 : 0 3 : 0 
Heartbeat_Variant_1_evicts 0 : 219 1 : 0 2 : 0 3 : 0 
Heartbeat_Variant_2_evicts 0 : 0 1 : 0 2 : 0 3 : 0 
Heartbeat_Variant_3_evicts 0 : 0 1 : 0 2 : 0 3 : 0 
Heartbeat CPU 0 instructions: 90000000 cycles: 51248399 heartbeat IPC: 1.10169 cumulative IPC: 1.08877 (Simulation time: 0 hr 16 min 8 sec) 
Cycle: 60000000 FTQ IN: 10957109 FTQ occupancy: 15.8867 DECODE IN: 10957119 DECODE occupancy: 41.3219 ROB IN: 10957119 ROB occupancy: 273.572 ROB OUT: 10957119
Heartbeat_Variant_0 : 1386 0.338379 per_variant_size: 0 1386 0 0 0 0 0 0 0 
Heartbeat_Variant_1 : 2674 0.652832 per_variant_size: 0 438 2236 0 0 0 0 0 0 
Heartbeat_Variant_2 : 0 0 per_variant_size: 0 0 0 0 0 0 0 0 0 
Heartbeat_Variant_3 : 0 0 per_variant_size: 0 0 0 0 0 0 0 0 0 
Heartbeat_Variant_0_evicts 0 : 5663 1 : 255 2 : 0 3 : 0 
Heartbeat_Variant_1_evicts 0 : 248 1 : 0 2 : 0 3 : 0 
Heartbeat_Variant_2_evicts 0 : 0 1 : 0 2 : 0 3 : 0 
Heartbeat_Variant_3_evicts 0 : 0 1 : 0 2 : 0 3 : 0 
Heartbeat CPU 0 instructions: 100000000 cycles: 60388392 heartbeat IPC: 1.09409 cumulative IPC: 1.08983 (Simulation time: 0 hr 17 min 55 sec) 
Finished CPU 0 instructions: 50000002 cycles: 45878781 cumulative IPC: 1.08983 (Simulation time: 0 hr 17 min 55 sec) 

ChampSim completed all CPUs

Region of Interest Statistics

CPU 0 cumulative IPC: 1.08983 instructions: 50000002 cycles: 45878781
 Fetch stage stalled: 42.4995  Sim cycles: 45878781 fetch stall cycle: 19498266
 Empty decode stage: 17.7325  Sim cycles: 45878781 fetch stall cycle: 8135439
ITLB TOTAL     ACCESS:    5950902  HIT:    5459787  MISS:     491115  HIT %:    91.7472  MISS %:    8.25278   MPKI: 9.8223
ITLB LOAD TRANSLATION INSTRUCTION	ACCESS:    5815900  HIT:    5324785  MISS:     491115  HIT %:    91.5556  MISS %:    8.44435  MPKI: 9.8223
ITLB TRANSLATION FROM L1D PREFETCHER INSTRUCTION	ACCESS:     135002  HIT:     135002  MISS:          0  HIT %:        100  MISS %:          0  MPKI: 0

ITLB AVERAGE MISS LATENCY: 9.06986 cycles
ITLB RQ	ACCESS:    8010513	FORWARD:          0	MERGED:    1601087	TO_CACHE:    6409426

DTLB TOTAL     ACCESS:    8994217  HIT:    8519265  MISS:     474952  HIT %:    94.7194  MISS %:    5.28064   MPKI: 9.49904
DTLB LOAD TRANSLATION DATA	ACCESS:    8994217  HIT:    8519265  MISS:     474952  HIT %:    94.7194  MISS %:    5.28064  MPKI: 9.49904

DTLB AVERAGE MISS LATENCY: 9.36208 cycles
DTLB RQ	ACCESS:   13365274	FORWARD:          0	MERGED:    4336295	TO_CACHE:    9028979

STLB TOTAL     ACCESS:    1209206  HIT:    1206969  MISS:       2237  HIT %:     99.815  MISS %:   0.184997   MPKI: 0.04474
STLB LOAD TRANSLATION INSTRUCTION	ACCESS:     491115  HIT:     490826  MISS:        289  HIT %:    99.9412  MISS %:  0.0588457  MPKI: 0.00578
STLB LOAD TRANSLATION DATA	ACCESS:     474951  HIT:     473003  MISS:       1948  HIT %:    99.5899  MISS %:   0.410148  MPKI: 0.03896
STLB TRANSLATION FROM L1D PREFETCHER DATA	ACCESS:     243140  HIT:     243140  MISS:          0  HIT %:        100  MISS %:          0  MPKI: 0

STLB AVERAGE MISS LATENCY: 80.1761 cycles
STLB RQ	ACCESS:    1330709	FORWARD:          0	MERGED:     121502	TO_CACHE:    1209207

STLB Hit, L1D data hit: 0
STLB Hit, L2C data hit: 0
STLB Hit, LLC data hit: 0
STLB Hit, LLC data miss: 0
STLB STLB hints to L2: 0
L1D TOTAL     ACCESS:   10720535  HIT:    4176763  MISS:    6543772  HIT %:    38.9604  MISS %:    61.0396   MPKI: 130.875
L1D LOAD DATA	ACCESS:    6279677  HIT:    2192845  MISS:    4086832  HIT %:    34.9197  MISS %:    65.0803  MPKI: 81.7366
L1D RFO DATA	ACCESS:    4160453  HIT:    1890422  MISS:    2270031  HIT %:    45.4379  MISS %:    54.5621  MPKI: 45.4006
L1D PREFETCH DATA	ACCESS:     280405  HIT:      93496  MISS:     186909  HIT %:    33.3432  MISS %:    66.6568  MPKI: 3.73818

L1D PREFETCH  REQUESTED:     729376  ISSUED:     729376  USEFUL:      32144  USELESS:     174904
L1D USEFUL LOAD PREFETCHES:      32144 PREFETCH ISSUED TO LOWER LEVEL:     207753  ACCURACY: 15.4722
 TIMELY PREFETCHES:      32144 LATE PREFETCHES: 20137 DROPPED PREFETCHES: 0
L1D AVERAGE MISS LATENCY: 116116 cycles
L1D RQ	ACCESS:   10668523	FORWARD:          0	MERGED:    3892203	TO_CACHE:    6620978
L1D WQ	ACCESS:    6927438	FORWARD:     155436	MERGED:     183142	TO_CACHE:    6744296
L1D PQ	ACCESS:     364735	FORWARD:          0	MERGED:          0	TO_CACHE:     364641

L1D UNIQUE REGIONS ACCESSED: 0
L1D REGIONS CONFLICTS: 0
L1D Cross Page Prefetch Requests: 3011
L1D Same Page Prefetch Requests: 743167
L1D ROI Sum of L1D PQ occupancy: 4598937
L1D PREFETCHES PUSHED FROM L2C: 0
L1I TOTAL     ACCESS:    7217284  HIT:    4467777  MISS:    2749507  HIT %:    61.9039  MISS %:    38.0961   MPKI: 54.9901
L1I LOAD INSTRUCTION	ACCESS:    6530318  HIT:    3780811  MISS:    2749507  HIT %:    57.8963  MISS %:    42.1037  MPKI: 54.9901
L1I PREFETCH INSTRUCTION	ACCESS:     686966  HIT:     686966  MISS:          0  HIT %:        100  MISS %:          0  MPKI: 0

L1I PREFETCH  REQUESTED:    1611265  ISSUED:    1611265  USEFUL:          0  USELESS:          0
L1I USEFUL LOAD PREFETCHES:          0 PREFETCH ISSUED TO LOWER LEVEL:          0  ACCURACY: -nan
 TIMELY PREFETCHES:          0 LATE PREFETCHES: 0 DROPPED PREFETCHES: 0
L1I AVERAGE MISS LATENCY: 17.3462 cycles
L1I RQ	ACCESS:    9602241	FORWARD:          0	MERGED:    2783651	TO_CACHE:    6818590
L1I PQ	ACCESS:    1611265	FORWARD:          0	MERGED:     419342	TO_CACHE:    1191923

L1BTB TOTAL     ACCESS:    5676277  HIT:    2066338  MISS:    3609939  HIT %:    36.4031  MISS %:    63.5969   MPKI: 72.1988
L1BTB BRANCH_DIRECT_JUMP	ACCESS:     547867 HIT:     145271 MISS:     402596 AVERAGE STALL: 81.5666 AVERAGE FETCH STALL: 15.5142 AVERAGE FETCH QUEUE STALL: 33.4124 AVERAGE DECODE STALL: 31.7566 AVERAGE EXECUTE STALL: 1.95183e+15
L1BTB BRANCH_INDIRECT	ACCESS:     182931 HIT:      66163 MISS:     116768 AVERAGE STALL: 154.508 AVERAGE FETCH STALL: 11.3242 AVERAGE FETCH QUEUE STALL: 21.8162 AVERAGE DECODE STALL: 16.6068 AVERAGE EXECUTE STALL: 103.8
L1BTB BRANCH_CONDITIONAL	ACCESS:    2728919 HIT:    1441855 MISS:    1287064 AVERAGE STALL: 73.8184 AVERAGE FETCH STALL: 24.7988 AVERAGE FETCH QUEUE STALL: 25.4613 AVERAGE DECODE STALL: 22.8582 AVERAGE EXECUTE STALL: 2.82449e+15
L1BTB BRANCH_DIRECT_CALL	ACCESS:     938113 HIT:     104730 MISS:     833383 AVERAGE STALL: 100.426 AVERAGE FETCH STALL: 26.7148 AVERAGE FETCH QUEUE STALL: 42.525 AVERAGE DECODE STALL: 30.3786 AVERAGE EXECUTE STALL: 5.88413e+15
L1BTB BRANCH_INDIRECT_CALL	ACCESS:     170181 HIT:      20581 MISS:     149600 AVERAGE STALL: 188.216 AVERAGE FETCH STALL: 12.6295 AVERAGE FETCH QUEUE STALL: 23.7452 AVERAGE DECODE STALL: 16.7103 AVERAGE EXECUTE STALL: 134.641
L1BTB BRANCH_RETURN	ACCESS:    1108266 HIT:     287738 MISS:     820528 AVERAGE STALL: 58.0872 AVERAGE FETCH STALL: 17.1943 AVERAGE FETCH QUEUE STALL: 6.44449 AVERAGE DECODE STALL: 7.33691 AVERAGE EXECUTE STALL: 4.19645e+14
L1BTB BRANCH_OTHER ACCESS:          0 HIT:          0 MISS:          0 AVERAGE STALL: -nan AVERAGE FETCH STALL: -nan AVERAGE FETCH QUEUE STALL: -nan AVERAGE DECODE STALL: -nan AVERAGE EXECUTE STALL: -nan
L1BTB TOTAL ROB OCCUPANCY AT BTB MISS: 3.38273

L2BTB TOTAL     ACCESS:    3584573  HIT:    3513610  MISS:      70963  HIT %:    98.0203  MISS %:    1.97968   MPKI: 1.41926
L2BTB BRANCH_DIRECT_JUMP	ACCESS:     398418 HIT:     393109 MISS:       5309 AVERAGE STALL: 81.5666 AVERAGE FETCH STALL: 15.5142 AVERAGE FETCH QUEUE STALL: 33.4124 AVERAGE DECODE STALL: 31.7566 AVERAGE EXECUTE STALL: 1.95183e+15
L2BTB BRANCH_INDIRECT	ACCESS:     106518 HIT:     103724 MISS:       2794 AVERAGE STALL: 154.508 AVERAGE FETCH STALL: 11.3242 AVERAGE FETCH QUEUE STALL: 21.8162 AVERAGE DECODE STALL: 16.6068 AVERAGE EXECUTE STALL: 103.8
L2BTB BRANCH_CONDITIONAL	ACCESS:    1287064 HIT:    1280399 MISS:       6665 AVERAGE STALL: 73.8184 AVERAGE FETCH STALL: 24.7988 AVERAGE FETCH QUEUE STALL: 25.4613 AVERAGE DECODE STALL: 22.8582 AVERAGE EXECUTE STALL: 2.82449e+15
L2BTB BRANCH_DIRECT_CALL	ACCESS:     833383 HIT:     830189 MISS:       3194 AVERAGE STALL: 100.426 AVERAGE FETCH STALL: 26.7148 AVERAGE FETCH QUEUE STALL: 42.525 AVERAGE DECODE STALL: 30.3786 AVERAGE EXECUTE STALL: 5.88413e+15
L2BTB BRANCH_INDIRECT_CALL	ACCESS:     140059 HIT:     129659 MISS:      10400 AVERAGE STALL: 188.216 AVERAGE FETCH STALL: 12.6295 AVERAGE FETCH QUEUE STALL: 23.7452 AVERAGE DECODE STALL: 16.7103 AVERAGE EXECUTE STALL: 134.641
L2BTB BRANCH_RETURN	ACCESS:     819131 HIT:     776530 MISS:      42601 AVERAGE STALL: 58.0872 AVERAGE FETCH STALL: 17.1943 AVERAGE FETCH QUEUE STALL: 6.44449 AVERAGE DECODE STALL: 7.33691 AVERAGE EXECUTE STALL: 4.19645e+14
L2BTB BRANCH_OTHER ACCESS:          0 HIT:          0 MISS:          0 AVERAGE STALL: -nan AVERAGE FETCH STALL: -nan AVERAGE FETCH QUEUE STALL: -nan AVERAGE DECODE STALL: -nan AVERAGE EXECUTE STALL: -nan
L2BTB TOTAL ROB OCCUPANCY AT BTB MISS: 172.082

L2C TOTAL     ACCESS:   11568463  HIT:   11105877  MISS:     462586  HIT %:    96.0013  MISS %:    3.99868   MPKI: 9.25172
L2C LOAD INSTRUCTION	ACCESS:    2749508  HIT:    2487742  MISS:     261766  HIT %:    90.4795  MISS %:    9.52047  MPKI: 5.23532
L2C LOAD TRANSLATION INSTRUCTION	ACCESS:        338  HIT:         85  MISS:        253  HIT %:    25.1479  MISS %:    74.8521  MPKI: 0.00506
L2C LOAD DATA	ACCESS:    4010254  HIT:    3936460  MISS:      73794  HIT %:    98.1599  MISS %:    1.84013  MPKI: 1.47588
L2C RFO DATA	ACCESS:    2171205  HIT:    2121438  MISS:      49767  HIT %:    97.7079  MISS %:    2.29214  MPKI: 0.99534
L2C PREFETCH DATA	ACCESS:     303801  HIT:     233344  MISS:      70457  HIT %:    76.8082  MISS %:    23.1918  MPKI: 1.40914
L2C WRITEBACK DATA	ACCESS:    2331280  HIT:    2326270  MISS:       5010  HIT %:    99.7851  MISS %:   0.214903  MPKI: 0.1002
L2C LOAD TRANSLATION DATA	ACCESS:       2077  HIT:        538  MISS:       1539  HIT %:    25.9027  MISS %:    74.0973  MPKI: 0.03078

L2C PREFETCH  REQUESTED:     105343  ISSUED:     105343  USEFUL:      13689  USELESS:      57543
L2C USEFUL LOAD PREFETCHES:      13689 PREFETCH ISSUED TO LOWER LEVEL:      71084  ACCURACY: 19.2575
 TIMELY PREFETCHES:      13689 LATE PREFETCHES: 627 DROPPED PREFETCHES: 0
L2C AVERAGE MISS LATENCY: 40.0236 cycles
L2C RQ	ACCESS:    9087952	FORWARD:          0	MERGED:          0	TO_CACHE:    8933392
L2C WQ	ACCESS:    2389153	FORWARD:     156032	MERGED:      57871	TO_CACHE:    2331282
L2C PQ	ACCESS:     313096	FORWARD:          0	MERGED:       3527	TO_CACHE:     308097

L2C Dense regions hint from L2: 0
PSCL5 TOTAL     ACCESS:       4474  HIT:       2237  MISS:       2237  HIT %:         50  MISS %:         50   MPKI: 0.04474
PSCL5 LOAD TRANSLATION INSTRUCTION	ACCESS:       4474  HIT:       2237  MISS:       2237  HIT %:         50  MISS %:         50  MPKI: 0.04474


PSCL4 TOTAL     ACCESS:       4269  HIT:       2126  MISS:       2143  HIT %:    49.8009  MISS %:    50.1991   MPKI: 0.04286
PSCL4 LOAD TRANSLATION INSTRUCTION	ACCESS:       2284  HIT:       2126  MISS:        158  HIT %:    93.0823  MISS %:    6.91769  MPKI: 0.00316
PSCL4 LOAD TRANSLATION DATA	ACCESS:       1985  HIT:          0  MISS:       1985  HIT %:          0  MISS %:        100  MPKI: 0.0397


PSCL3 TOTAL     ACCESS:       4353  HIT:       2168  MISS:       2185  HIT %:    49.8047  MISS %:    50.1953   MPKI: 0.0437
PSCL3 LOAD TRANSLATION INSTRUCTION	ACCESS:       2326  HIT:       2168  MISS:        158  HIT %:    93.2072  MISS %:    6.79278  MPKI: 0.00316
PSCL3 LOAD TRANSLATION DATA	ACCESS:       2027  HIT:          0  MISS:       2027  HIT %:          0  MISS %:        100  MPKI: 0.04054


PSCL2 TOTAL     ACCESS:       4328  HIT:       2091  MISS:       2237  HIT %:    48.3133  MISS %:    51.6867   MPKI: 0.04474
PSCL2 LOAD TRANSLATION INSTRUCTION	ACCESS:       2393  HIT:       2091  MISS:        302  HIT %:    87.3799  MISS %:    12.6201  MPKI: 0.00604
PSCL2 LOAD TRANSLATION DATA	ACCESS:       1935  HIT:          0  MISS:       1935  HIT %:          0  MISS %:        100  MPKI: 0.0387


LLC TOTAL     ACCESS:     529377  HIT:     498703  MISS:      30674  HIT %:    94.2056  MISS %:    5.79436   MPKI: 0.61348
LLC LOAD INSTRUCTION	ACCESS:     261766  HIT:     260564  MISS:       1202  HIT %:    99.5408  MISS %:   0.459189  MPKI: 0.02404
LLC LOAD TRANSLATION INSTRUCTION	ACCESS:        253  HIT:        209  MISS:         44  HIT %:    82.6087  MISS %:    17.3913  MPKI: 0.00088
LLC LOAD DATA	ACCESS:      73237  HIT:      68932  MISS:       4305  HIT %:    94.1218  MISS %:    5.87818  MPKI: 0.0861
LLC RFO DATA	ACCESS:      49676  HIT:      33576  MISS:      16100  HIT %:      67.59  MISS %:      32.41  MPKI: 0.322
LLC PREFETCH DATA	ACCESS:      71084  HIT:      62508  MISS:       8576  HIT %:    87.9354  MISS %:    12.0646  MPKI: 0.17152
LLC WRITEBACK DATA	ACCESS:      71822  HIT:      71488  MISS:        334  HIT %:     99.535  MISS %:   0.465039  MPKI: 0.00668
LLC LOAD TRANSLATION DATA	ACCESS:       1539  HIT:       1426  MISS:        113  HIT %:    92.6576  MISS %:    7.34243  MPKI: 0.00226

LLC AVERAGE MISS LATENCY: 154.617 cycles
LLC RQ	ACCESS:     386494	FORWARD:          0	MERGED:          0	TO_CACHE:     386473
LLC WQ	ACCESS:      71822	FORWARD:         21	MERGED:          0	TO_CACHE:      71822
LLC PQ	ACCESS:      71084	FORWARD:          0	MERGED:          0	TO_CACHE:      71084

LLC Dense regions hint to LLC: 0

RAW hits: 1961749
Loads Generated: 12630271
Loads sent to L1D: 10668523
Stores Generated: 6927429
Stores sent to L1D: 6927438
Major fault: 0 Minor fault: 2623
Allocated PAGES: 2623

stream: 
stream:times selected: 1229984
stream:pref_filled: 328086
stream:pref_useful: 22823
stream:pref_late: 39210
stream:misses: 83592
stream:misses_by_poll: 0

CS: 
CS:times selected: 187412
CS:pref_filled: 8669
CS:pref_useful: 3482
CS:pref_late: 7165
CS:misses: 5829
CS:misses_by_poll: 0

CPLX: 
CPLX:times selected: 1228175
CPLX:pref_filled: 39981
CPLX:pref_useful: 5484
CPLX:pref_late: 8916
CPLX:misses: 716630
CPLX:misses_by_poll: 0

NL_L1: 
NL:times selected: 6413
NL:pref_filled: 1696
NL:pref_useful: 155
NL:pref_late: 209
NL:misses: 4148
NL:misses_by_poll: 0

total selections: 2651984
total_filled: 186909
total_useful: 32144
total_late: 60027
total_polluted: 0
total_misses_after_warmup: 4428133
conflicts: 5593883

test: 121372

DRAM Statistics
 CHANNEL 0
 RQ ROW_BUFFER_HIT:      11060  ROW_BUFFER_MISS:      19265
 DBUS_CONGESTED:         13
 WQ ROW_BUFFER_HIT:       1596  ROW_BUFFER_MISS:      13213  FULL:          0

 AVG_CONGESTED_CYCLE: 3

CPU 0 Branch Prediction Accuracy: 99.8135% MPKI: 0.34118 Average ROB Occupancy at Mispredict: 196.52
Branch types
NOT_BRANCH: 40852003 81.704%
BRANCH_DIRECT_JUMP: 547867 1.09573%
BRANCH_INDIRECT: 182931 0.365862%
BRANCH_CONDITIONAL: 6200235 12.4005%
BRANCH_DIRECT_CALL: 938113 1.87623%
BRANCH_INDIRECT_CALL: 170181 0.340362%
BRANCH_RETURN: 1108266 2.21653%
BRANCH_OTHER: 0 0%

DRAM PAGES: 1048576
Allocated PAGES: 2623
Average_ROB_Occupancy: 272.48
Average_Decode_Occupancy: 40.8155
Average_FTQ_Occupancy: 15.679
Indirect max targets: 14 Average targets: 1.17363
Branch_type:  BRANCH_DIRECT_JUMP:  Count Percentage: 2.11367 6.3018 4.72495 9.16677 2.22831 5.96436 1.93028 67.5699 
Branch_type:  BRANCH_INDIRECT:  Count Percentage: 6.14968 3.46303 8.15364 0 1.33524 9.68531 5.20893 66.0042 
Branch_type:  BRANCH_CONDITIONAL:  Count Percentage: 22.1427 6.41835 1.81536 5.32998 1.34078 4.71233 2.9529 55.2876 
Branch_type:  BRANCH_DIRECT_CALL:  Count Percentage: 0.260062 1.98026 1.29051 4.76862 1.91012 2.82856 3.35923 83.6026 
Branch_type:  BRANCH_INDIRECT_CALL:  Count Percentage: 9.57705 0 3.00282 8.72254 0 2.55122 6.4367 69.7097 
Branch_type:  BRANCH_RETURN:  Count Percentage: 4.10787 5.43978 0.726082 6.17834 3.19336 6.01699 4.68968 69.6479 
Branch_type:  BRANCH_DIRECT_JUMP:  Total Count: 23120 68931 51683 100269 24374 65240 21114 739100 
Branch_type:  BRANCH_INDIRECT:  Total Count: 22448 12641 29763 0 4874 35354 19014 240933 
Branch_type:  BRANCH_CONDITIONAL:  Total Count: 2745149 795717 225060 660786 166223 584212 366087 6854294 
Branch_type:  BRANCH_DIRECT_CALL:  Total Count: 4883 37182 24231 89537 35865 53110 63074 1569749 
Branch_type:  BRANCH_INDIRECT_CALL:  Total Count: 32659 0 10240 29745 0 8700 21950 237719 
Branch_type:  BRANCH_RETURN:  Total Count: 91172 120733 16115 137125 70875 133544 104085 1545798 
Number of unique branch instructions: 10364
Upper 32 bits: 
aaaa
ffff
ffff0000
Unique upper 32 bits: 3
Unique upper 36 bits: 3
Unique upper 40 bits: 5
Unique upper 44 bits: 32
Unique upper 48 bits: 157
Variant_0 : 1386 0.338379
Variant_1 : 2674 0.652832
Variant_2 : 0 0
Variant_3 : 0 0
Offset_3 4292
Offset_4 258
Offset_5 467
Offset_6 525
Offset_7 610
Offset_8 550
Offset_9 489
Offset_10 406
Offset_11 328
Offset_12 293
Offset_13 220
Offset_14 229
Offset_15 203
Offset_16 222
Offset_17 153
Offset_18 144
Offset_19 249
Offset_20 138
Offset_21 235
Offset_22 399
Offset_23 243
Offset_24 336
Offset_25 114
Offset_47 90
decode_dispatch_called: 34567932 75.3462
Dispatch_width: 0 21700944 62.7777 47.3006
Dispatch_width: 1 1309875 3.78928 2.85508
Dispatch_width: 2 1020267 2.95148 2.22383
Dispatch_width: 3 571095 1.65209 1.24479
Dispatch_width: 4 7382380 21.3562 16.0911
Dispatch_width: 5 93765 0.271249 0.204376
Dispatch_width: 6 2489606 7.20207 5.42649
Empty_decode_cycles: 11310849 24.6538
ROB_full_cycles: 18691227 40.7405
Starvation_cycles_per_kilo_instr: 246.979
Starvation_cycles_per_kilo_instr_3: 172.218
Starvation_cycles_per_kilo_instr_0: 143.206
Branch_type_1  (3,1)  (4,9)  (5,38)  (6,73)  (7,122)  (8,144)  (9,132)  (10,108)  (11,75)  (12,47)  (13,11)  (14,2)  (15,3)  (16,4)  (18,1)  (19,5)  (20,2)  (21,1)  (22,3)  (23,2)  (24,10)  (25,12) 
Branch_type_2  (3,1)  (4,1)  (5,1)  (8,4)  (9,4)  (10,1)  (12,1)  (13,1)  (14,1)  (16,3)  (17,2)  (20,2)  (21,2)  (23,5)  (24,1)  (47,40) 
Branch_type_3  (3,4290)  (4,248)  (5,424)  (6,436)  (7,460)  (8,339)  (9,266)  (10,162)  (11,126)  (12,56)  (13,10)  (22,1) 
Branch_type_4  (6,3)  (7,8)  (8,25)  (9,53)  (10,64)  (11,65)  (12,103)  (13,92)  (14,102)  (15,97)  (16,97)  (17,69)  (18,61)  (19,121)  (20,71)  (21,124)  (22,208)  (23,137)  (24,192)  (25,98) 
Branch_type_5  (8,3)  (9,1)  (10,4)  (11,5)  (12,3)  (13,14)  (14,16)  (15,11)  (16,22)  (17,11)  (18,23)  (19,14)  (20,11)  (21,13)  (22,43)  (23,26)  (24,37) 
Branch_type_6  (5,4)  (6,13)  (7,20)  (8,35)  (9,33)  (10,67)  (11,57)  (12,83)  (13,92)  (14,108)  (15,92)  (16,96)  (17,71)  (18,59)  (19,109)  (20,52)  (21,95)  (22,144)  (23,73)  (24,96)  (25,4)  (47,50) 
Unique trigger count: 
Variant_0_evicts_0 : 0
Variant_0_evicts_1 : 0
Variant_0_evicts_2 : 0
Variant_0_evicts_3 : 0
Variant_1_evicts_0 : 0
Variant_1_evicts_1 : 0
Variant_1_evicts_2 : 0
Variant_1_evicts_3 : 0
Variant_2_evicts_0 : 0
Variant_2_evicts_1 : 0
Variant_2_evicts_2 : 0
Variant_2_evicts_3 : 0
Variant_3_evicts_0 : 0
Variant_3_evicts_1 : 0
Variant_3_evicts_2 : 0
Variant_3_evicts_3 : 0
BTB PER SET UNIQUE ADDR: 13 12 10 12 9 9 9 13 8 12 11 11 14 11 10 12 9 11 11 13 7 15 12 17 10 15 11 13 12 9 12 16 17 10 11 12 9 19 8 10 10 10 15 13 13 14 13 11 10 12 13 10 12 9 11 5 13 11 13 16 11 16 7 12 10 8 14 9 9 11 9 10 10 9 15 11 10 14 8 14 15 6 13 17 14 11 12 13 12 19 12 7 12 13 6 12 9 12 11 13 9 11 10 9 9 10 11 13 9 12 9 20 14 11 11 7 12 10 14 16 15 12 7 10 12 14 4 14 18 11 8 17 12 10 13 10 10 11 13 17 10 13 11 9 13 16 14 11 7 12 12 10 9 13 10 13 15 12 16 12 9 9 15 13 13 12 13 8 13 11 10 15 11 12 13 10 11 10 12 13 9 9 9 11 13 14 5 10 13 9 14 11 8 11 13 7 10 10 10 6 16 14 10 10 11 8 12 10 8 11 12 12 10 14 13 10 13 16 10 12 9 14 8 14 10 13 15 15 10 10 14 9 11 13 11 14 12 11 13 9 13 14 17 14 11 11 10 8 13 13 11 18 14 8 8 13 11 9 12 12 13 12 4 10 8 9 8 12 11 11 12 10 9 7 8 9 10 16 10 12 12 10 10 9 13 10 10 13 17 12 9 8 11 13 6 12 11 12 11 11 8 13 9 19 16 12 13 9 10 13 10 19 7 20 17 10 15 12 12 16 7 15 9 14 13 15 11 11 7 10 11 17 10 14 8 16 10 11 9 18 13 14 9 11 12 7 12 14 14 11 8 10 10 10 13 11 7 11 16 6 9 11 9 17 10 12 8 14 16 12 8 6 13 11 11 12 11 13 15 10 13 10 8 13 11 12 10 12 13 11 17 14 14 15 7 10 9 9 12 9 9 13 9 16 15 11 9 17 13 12 10 10 10 13 10 14 14 12 17 14 13 10 11 12 13 6 16 13 14 11 18 12 13 11 12 19 17 6 12 15 17 7 8 10 18 11 12 13 13 13 11 17 13 10 14 13 13 14 7 13 10 14 11 12 16 11 12 13 9 13 12 15 13 10 12 14 10 17 10 15 9 11 13 12 10 13 17 15 12 12 12 9 11 9 7 10 14 13 6 13 10 16 10 13 10 8 10 15 11 10 11 14 13 9 12 15 10 14 10 10 11 12 11 9 13 15 17 8 12 15 14 11 10 8 12 10 12 9 11 11 11 10 12 9 14 13 9 12 10 11 11 19 13 8 14 12 12 10 11 19 12 14 11 15 13 19 14 15 8 16 17 12 11 13 10 12 16 18 14 12 14 10 7 12 9 16 12 12 12 14 10 10 11 11 9 8 10 11 14 9 14 12 10 7 8 13 10 12 11 10 14 13 9 11 7 16 9 11 11 17 16 14 8 8 13 13 9 16 8 12 10 19 14 9 11 13 15 13 9 12 6 13 10 11 11 12 11 8 15 14 10 15 8 10 10 10 12 11 18 13 12 8 13 16 9 16 8 11 12 6 13 9 10 15 17 10 12 14 13 11 12 17 10 11 12 11 12 13 11 15 13 11 9 8 12 9 8 13 6 13 8 15 16 12 11 11 13 11 10 8 10 13 9 11 11 8 14 14 7 11 9 12 10 12 8 9 14 8 11 14 12 7 10 10 12 18 14 12 15 12 13 9 8 10 17 17 13 15 12 11 14 15 11 11 9 12 19 11 8 9 12 8 11 11 18 15 10 15 12 14 10 13 8 7 13 12 14 13 13 13 6 12 12 10 11 11 9 11 7 11 7 8 11 14 15 14 7 11 14 11 16 13 15 18 12 11 13 10 12 10 15 11 12 13 10 15 13 16 8 12 13 18 11 10 10 10 9 9 10 14 15 14 11 11 13 13 11 9 15 10 16 14 10 11 11 9 14 15 11 12 11 10 12 13 12 13 13 18 13 13 14 11 9 13 12 10 10 7 15 11 8 14 11 10 9 9 8 9 12 17 15 7 11 13 13 12 14 7 10 11 14 9 11 9 11 13 16 14 7 12 12 14 14 12 8 16 9 12 13 12 14 8 12 14 9 10 13 10 12 15 11 12 10 13 9 9 7 11 11 9 14 13 11 9 11 13 11 12 10 19 9 16 12 9 9 10 9 17 11 11 11 11 12 7 8 10 7 11 16 11 8 12 14 14 16 12 12 7 13 11 12 15 9 9 13 9 17 10 13 16 13 11 14 17 11 18 24 14 13 12 15 10 15 14 10 10 12 13 17 10 15 13 11 12 13 14 11 10 10 9 12 13 10 9 9 10 7 10 8 8 8 19 13 8 
BTB PER SET COUNT: 567 17 1481 15 10 13 16 15 11 15 14 55 292 54 11 14 2316 14 285 23 14 45 732 399 21 21 13 23 12 9 21 101 26 15 16 20 15 25 12 2208 12 16 32 1854 1483 18 18 16 14 19 23 61 18 12 18 365 18 15 480 26 14 21 495 14 13 9 16 3259 13 15 24 10 14 9 23 20 13 17 12 17 20 8 207 26 17 32 17 19 318 24 247 797 21 422 6 13 9 985 16 15 22 16 10 352 2031 12 15 21 247 17 12 37 549 15 15 37 13 13 1214 655 440 29 8 13 12 174 4 1771 21 989 13 19 16 19 19 14 155 15 18 26 13 25 11 10 16 145 152 12 8 21 22 12 10 18 22 23 994 14 129 17 17 14 23 16 83 14 17 9 13 1733 18 19 13 12 17 15 19 10 79 374 753 14 12 15 15 55 5 13 28 126 24 11 9 15 14 159 14 12 12 6 18 33 15 13 14 8 14 11 11 1490 15 19 10 17 17 510 17 24 2602 21 19 15 220 17 11 16 21 18 290 14 24 12 16 14 451 50 18 483 21 9 18 26 939 34 16 193 15 9 181 21 14 27 24 12 8 25 98 15 13 26 566 14 4 501 8 11 11 16 14 15 14 13 10 12 476 11 15 21 15 16 31 15 12 11 17 14 11 25 25 17 11 8 13 566 7 17 38 13 20 29 8 20 9 35 21 17 18 244 10 135 11 27 11 33 35 401 26 17 27 20 10 3658 12 20 15 1141 168 16 9 12 23 27 10 23 9 26 12 16 10 20 19 255 12 17 33 8 19 18 19 127 8 10 12 15 18 17 7 18 451 8 10 13 10 22 12 1013 11 25 25 17 131 286 17 17 20 171 14 21 16 1155 22 14 11 15 19 14 292 14 17 1467 30 21 19 20 7 10 13 12 450 19 14 21 1461 26 19 21 9 124 16 17 12 12 14 15 12 18 22 9082 73 21 21 19 20 13 19 6 1090 19 21 13 50 23 19 14 270 25 22 203 12 20 341 9 13 11 23 343 127 23 14 13 758 29 22 13 17 21 20 21 8 14 30 21 12 15 26 13 7874 15 11 16 16 22 13 13 17 27 14 26 15 25 10 789 18 18 991 14 434 18 76 16 775 11 209 105 9 16 897 246 8 19 12 21 19 21 16 9 10 18 16 11 16 137 786 1267 12 30 12 22 13 242 20 16 13 498 21 439 442 9 17 2218 17 16 13 10 16 11 1322 989 13 13 15 13 29 11 19 166 16 19 16 1010 12 28 903 275 22 19 19 11 18 38 21 53 16 18 19 29 128 26 12 603 115 16 14 19 153 14 43 224 21 18 15 16 15 2740 11 29 13 23 17 28 13 19 14 11 12 10 15 378 137 10 20 22 11 8 11 14 15 2457 14 10 18 15 12 15 8 26 373 18 15 27 22 17 13 992 17 22 13 22 9 752 21 37 99 91 13 15 29 910 12 17 8 20 11 15 14 21 13 9 18 20 10 34 9 10 106 471 17 44 24 913 97 8 16 18 11392 24 10 990 21 8 23 9 17 23 35 14 20 18 25 20 16 21 1477 14 866 12 18 21 453 27 16 14 12 10 2452 15 104 29 6 15 17 31 180 22 21 880 18 13 10 10 369 34 989 15 119 11 471 21 12 374 11 361 10 30 8 9 21 9 14 2457 504 6817 150 12 16 1516 106 12 314 19 1239 15 980 14 1053 23 239 22 15 11 1177 25 14 1470 1474 15 34 566 11 10 16 15 14 13 108 22 11 21 17 105 16 14 14 9 19 16 17 853 25 20 1273 18 100 12 14 11 9 15 8 26 7 14 11 24 1041 214 173 13 19 1161 40 18 240 41 13 18 21 13 18 65 22 7816 17 17 16 1058 20 2268 8 18 20 692 16 13 155 17 14 12 16 31 23 15 17 12 31 1959 12 13 21 15 19 973 14 13 25 10 222 19 15 14 19 14 15 20 22 18 399 30 25 16 243 1430 9 19 20 14 14 13 24 43 549 21 16 14 13 9 8 18 94 30 18 8 19 18 503 68 17 13 11 11 26 13 97 38 13 19 26 19 12 15 16 20 22 15 11 30 9 18 14 96 20 9 19 20 13 14 1042 1298 16 25 18 1005 165 15 12 11 11 17 18 20 17 19 699 12 51 2801 13 18 19 25 12 1085 21 10 11 37 13 34 13 15 132 15 226 143 10 15 167 13 68 12 10 19 212 19 25 13 363 7 44 13 57 27 22 10 773 10 115 14 18 25 1207 15 160 26 14 30 388 22 19 189 20 14 24 15 1342 17 13 1488 23 1575 22 1480 18 24 15 1036 17 21 12 11 335 361 10 13 20 13 9 13 9 10 137 121 24 8 
To predecode: 0
Predecoding something: 0
Predecode request dropped: 0
sizeofblock_0 0
sizeofblock_1 52330
sizeofblock_2 89228
sizeofblock_3 0
sizeofblock_4 0
sizeofblock_5 0
sizeofblock_6 0
sizeofblock_7 0
sizeofblock_8 0
Variant_0 Correct: 1606548 Incorrect: 0 Accuracy: 1
Variant_1 Correct: 5711466 Incorrect: 0 Accuracy: 1
Variant_2 Correct: 0 Incorrect: 0 Accuracy: -nan
Variant_3 Correct: 0 Incorrect: 0 Accuracy: -nan
