
*** ChampSim Multicore Out-of-Order Simulator ***

Warmup Instructions: 50000000
Simulation Instructions: 50000000
Number of CPUs: 1
LLC sets: 2048
LLC ways: 16
Off-chip DRAM Size: 4096 MB Channels: 1 Width: 64-bit Data Rate: 6400 MT/s
CPU 0 runs ./micro_traces/srv737.trace.gz
.gz
ITLB has LRU replacement policy
DTLB has LRU replacement policy
STLB has LRU replacement policy
FDIP Prefetcher at L1I
L1I has LRU replacement policy
L1D has LRU replacement policy
Initialize SRRIP state for L2C
Initialize DRRIP state for LLC
Heartbeat_Variant_0 : 1353 0.220215 per_variant_size: 0 1353 0 0 0 0 0 0 0 
Heartbeat_Variant_1 : 2844 0.462891 per_variant_size: 0 990 1854 0 0 0 0 0 0 
Heartbeat_Variant_2 : 0 0 per_variant_size: 0 0 0 0 0 0 0 0 0 
Heartbeat_Variant_3 : 0 0 per_variant_size: 0 0 0 0 0 0 0 0 0 
Heartbeat_Variant_0_evicts 0 : 5479 1 : 30 2 : 0 3 : 0 
Heartbeat_Variant_1_evicts 0 : 23 1 : 0 2 : 0 3 : 0 
Heartbeat_Variant_2_evicts 0 : 0 1 : 0 2 : 0 3 : 0 
Heartbeat_Variant_3_evicts 0 : 0 1 : 0 2 : 0 3 : 0 
Heartbeat CPU 0 instructions: 10000002 cycles: 2793926 heartbeat IPC: 3.57919 cumulative IPC: 3.57919 (Simulation time: 0 hr 1 min 26 sec) 
Heartbeat_Variant_0 : 1440 0.234375 per_variant_size: 0 1440 0 0 0 0 0 0 0 
Heartbeat_Variant_1 : 3037 0.494303 per_variant_size: 0 986 2051 0 0 0 0 0 0 
Heartbeat_Variant_2 : 0 0 per_variant_size: 0 0 0 0 0 0 0 0 0 
Heartbeat_Variant_3 : 0 0 per_variant_size: 0 0 0 0 0 0 0 0 0 
Heartbeat_Variant_0_evicts 0 : 5428 1 : 22 2 : 0 3 : 0 
Heartbeat_Variant_1_evicts 0 : 16 1 : 0 2 : 0 3 : 0 
Heartbeat_Variant_2_evicts 0 : 0 1 : 0 2 : 0 3 : 0 
Heartbeat_Variant_3_evicts 0 : 0 1 : 0 2 : 0 3 : 0 
Heartbeat CPU 0 instructions: 20000000 cycles: 5587626 heartbeat IPC: 3.57948 cumulative IPC: 3.57934 (Simulation time: 0 hr 2 min 55 sec) 
Heartbeat_Variant_0 : 1442 0.234701 per_variant_size: 0 1442 0 0 0 0 0 0 0 
Heartbeat_Variant_1 : 3047 0.495931 per_variant_size: 0 989 2058 0 0 0 0 0 0 
Heartbeat_Variant_2 : 0 0 per_variant_size: 0 0 0 0 0 0 0 0 0 
Heartbeat_Variant_3 : 0 0 per_variant_size: 0 0 0 0 0 0 0 0 0 
Heartbeat_Variant_0_evicts 0 : 5524 1 : 2 2 : 0 3 : 0 
Heartbeat_Variant_1_evicts 0 : 3 1 : 0 2 : 0 3 : 0 
Heartbeat_Variant_2_evicts 0 : 0 1 : 0 2 : 0 3 : 0 
Heartbeat_Variant_3_evicts 0 : 0 1 : 0 2 : 0 3 : 0 
Heartbeat CPU 0 instructions: 30000000 cycles: 8381465 heartbeat IPC: 3.5793 cumulative IPC: 3.57933 (Simulation time: 0 hr 4 min 23 sec) 
Heartbeat_Variant_0 : 1448 0.235677 per_variant_size: 0 1448 0 0 0 0 0 0 0 
Heartbeat_Variant_1 : 3055 0.497233 per_variant_size: 0 984 2071 0 0 0 0 0 0 
Heartbeat_Variant_2 : 0 0 per_variant_size: 0 0 0 0 0 0 0 0 0 
Heartbeat_Variant_3 : 0 0 per_variant_size: 0 0 0 0 0 0 0 0 0 
Heartbeat_Variant_0_evicts 0 : 5592 1 : 3 2 : 0 3 : 0 
Heartbeat_Variant_1_evicts 0 : 0 1 : 0 2 : 0 3 : 0 
Heartbeat_Variant_2_evicts 0 : 0 1 : 0 2 : 0 3 : 0 
Heartbeat_Variant_3_evicts 0 : 0 1 : 0 2 : 0 3 : 0 
Heartbeat CPU 0 instructions: 40000002 cycles: 11175842 heartbeat IPC: 3.57862 cumulative IPC: 3.57915 (Simulation time: 0 hr 5 min 51 sec) 
Heartbeat_Variant_0 : 1457 0.237142 per_variant_size: 0 1457 0 0 0 0 0 0 0 
Heartbeat_Variant_1 : 3069 0.499512 per_variant_size: 0 989 2080 0 0 0 0 0 0 
Heartbeat_Variant_2 : 0 0 per_variant_size: 0 0 0 0 0 0 0 0 0 
Heartbeat_Variant_3 : 0 0 per_variant_size: 0 0 0 0 0 0 0 0 0 
Heartbeat_Variant_0_evicts 0 : 5462 1 : 2 2 : 0 3 : 0 
Heartbeat_Variant_1_evicts 0 : 1 1 : 0 2 : 0 3 : 0 
Heartbeat_Variant_2_evicts 0 : 0 1 : 0 2 : 0 3 : 0 
Heartbeat_Variant_3_evicts 0 : 0 1 : 0 2 : 0 3 : 0 
Heartbeat CPU 0 instructions: 50000000 cycles: 13968434 heartbeat IPC: 3.5809 cumulative IPC: 3.5795 (Simulation time: 0 hr 7 min 21 sec) 

Warmup complete CPU 0 instructions: 50000004 cycles: 13968435 (Simulation time: 0 hr 7 min 21 sec) 

*** Reached end of trace for Core: 0 Repeating trace: ./micro_traces/srv737.trace.gz
Cycle: 20000000 FTQ IN: 58384648 FTQ occupancy: 20.5721 DECODE IN: 58384626 DECODE occupancy: 53.4316 ROB IN: 58384566 ROB occupancy: 319.277 ROB OUT: 58384214
Heartbeat_Variant_0 : 1457 0.237142 per_variant_size: 0 1457 0 0 0 0 0 0 0 
Heartbeat_Variant_1 : 3070 0.499674 per_variant_size: 0 1002 2068 0 0 0 0 0 0 
Heartbeat_Variant_2 : 0 0 per_variant_size: 0 0 0 0 0 0 0 0 0 
Heartbeat_Variant_3 : 0 0 per_variant_size: 0 0 0 0 0 0 0 0 0 
Heartbeat_Variant_0_evicts 0 : 5471 1 : 1 2 : 0 3 : 0 
Heartbeat_Variant_1_evicts 0 : 1 1 : 0 2 : 0 3 : 0 
Heartbeat_Variant_2_evicts 0 : 0 1 : 0 2 : 0 3 : 0 
Heartbeat_Variant_3_evicts 0 : 0 1 : 0 2 : 0 3 : 0 
Heartbeat CPU 0 instructions: 60000003 cycles: 21160582 heartbeat IPC: 1.39041 cumulative IPC: 1.39041 (Simulation time: 0 hr 9 min 6 sec) 
Heartbeat_Variant_0 : 1458 0.237305 per_variant_size: 0 1458 0 0 0 0 0 0 0 
Heartbeat_Variant_1 : 3076 0.500651 per_variant_size: 0 1007 2069 0 0 0 0 0 0 
Heartbeat_Variant_2 : 0 0 per_variant_size: 0 0 0 0 0 0 0 0 0 
Heartbeat_Variant_3 : 0 0 per_variant_size: 0 0 0 0 0 0 0 0 0 
Heartbeat_Variant_0_evicts 0 : 5427 1 : 2 2 : 0 3 : 0 
Heartbeat_Variant_1_evicts 0 : 1 1 : 0 2 : 0 3 : 0 
Heartbeat_Variant_2_evicts 0 : 0 1 : 0 2 : 0 3 : 0 
Heartbeat_Variant_3_evicts 0 : 0 1 : 0 2 : 0 3 : 0 
Heartbeat CPU 0 instructions: 70000001 cycles: 28440245 heartbeat IPC: 1.37369 cumulative IPC: 1.382 (Simulation time: 0 hr 10 min 50 sec) 
Cycle: 30000000 FTQ IN: 13787063 FTQ occupancy: 15.1513 DECODE IN: 13787058 DECODE occupancy: 38.4788 ROB IN: 13787058 ROB occupancy: 252.094 ROB OUT: 13787058
Heartbeat_Variant_0 : 1458 0.237305 per_variant_size: 0 1458 0 0 0 0 0 0 0 
Heartbeat_Variant_1 : 3076 0.500651 per_variant_size: 0 1008 2068 0 0 0 0 0 0 
Heartbeat_Variant_2 : 0 0 per_variant_size: 0 0 0 0 0 0 0 0 0 
Heartbeat_Variant_3 : 0 0 per_variant_size: 0 0 0 0 0 0 0 0 0 
Heartbeat_Variant_0_evicts 0 : 5525 1 : 0 2 : 0 3 : 0 
Heartbeat_Variant_1_evicts 0 : 0 1 : 0 2 : 0 3 : 0 
Heartbeat_Variant_2_evicts 0 : 0 1 : 0 2 : 0 3 : 0 
Heartbeat_Variant_3_evicts 0 : 0 1 : 0 2 : 0 3 : 0 
Heartbeat CPU 0 instructions: 80000002 cycles: 35618889 heartbeat IPC: 1.39302 cumulative IPC: 1.38565 (Simulation time: 0 hr 12 min 36 sec) 
Cycle: 40000000 FTQ IN: 13989952 FTQ occupancy: 15.1215 DECODE IN: 13989875 DECODE occupancy: 38.5233 ROB IN: 13989875 ROB occupancy: 250.832 ROB OUT: 13990043
Heartbeat_Variant_0 : 1458 0.237305 per_variant_size: 0 1458 0 0 0 0 0 0 0 
Heartbeat_Variant_1 : 3076 0.500651 per_variant_size: 0 1014 2062 0 0 0 0 0 0 
Heartbeat_Variant_2 : 0 0 per_variant_size: 0 0 0 0 0 0 0 0 0 
Heartbeat_Variant_3 : 0 0 per_variant_size: 0 0 0 0 0 0 0 0 0 
Heartbeat_Variant_0_evicts 0 : 5619 1 : 0 2 : 0 3 : 0 
Heartbeat_Variant_1_evicts 0 : 0 1 : 0 2 : 0 3 : 0 
Heartbeat_Variant_2_evicts 0 : 0 1 : 0 2 : 0 3 : 0 
Heartbeat_Variant_3_evicts 0 : 0 1 : 0 2 : 0 3 : 0 
Heartbeat CPU 0 instructions: 90000001 cycles: 42826146 heartbeat IPC: 1.38749 cumulative IPC: 1.38611 (Simulation time: 0 hr 14 min 19 sec) 
Cycle: 50000000 FTQ IN: 13834220 FTQ occupancy: 15.1014 DECODE IN: 13834324 DECODE occupancy: 38.2947 ROB IN: 13834384 ROB occupancy: 252.126 ROB OUT: 13834321
Heartbeat_Variant_0 : 1458 0.237305 per_variant_size: 0 1458 0 0 0 0 0 0 0 
Heartbeat_Variant_1 : 3077 0.500814 per_variant_size: 0 1006 2071 0 0 0 0 0 0 
Heartbeat_Variant_2 : 0 0 per_variant_size: 0 0 0 0 0 0 0 0 0 
Heartbeat_Variant_3 : 0 0 per_variant_size: 0 0 0 0 0 0 0 0 0 
Heartbeat_Variant_0_evicts 0 : 5419 1 : 0 2 : 0 3 : 0 
Heartbeat_Variant_1_evicts 0 : 1 1 : 0 2 : 0 3 : 0 
Heartbeat_Variant_2_evicts 0 : 0 1 : 0 2 : 0 3 : 0 
Heartbeat_Variant_3_evicts 0 : 0 1 : 0 2 : 0 3 : 0 
Heartbeat CPU 0 instructions: 100000000 cycles: 50003707 heartbeat IPC: 1.39323 cumulative IPC: 1.38753 (Simulation time: 0 hr 15 min 59 sec) 
Finished CPU 0 instructions: 50000000 cycles: 36035282 cumulative IPC: 1.38753 (Simulation time: 0 hr 15 min 59 sec) 

ChampSim completed all CPUs

Region of Interest Statistics

CPU 0 cumulative IPC: 1.38753 instructions: 50000000 cycles: 36035282
 Fetch stage stalled: 45.3296  Sim cycles: 36035282 fetch stall cycle: 16334665
 Empty decode stage: 25.0931  Sim cycles: 36035282 fetch stall cycle: 9042354
ITLB TOTAL     ACCESS:    5814645  HIT:    5326671  MISS:     487974  HIT %:    91.6078  MISS %:    8.39215   MPKI: 9.75948
ITLB LOAD TRANSLATION INSTRUCTION	ACCESS:    5678436  HIT:    5190462  MISS:     487974  HIT %:    91.4065  MISS %:    8.59346  MPKI: 9.75948
ITLB TRANSLATION FROM L1D PREFETCHER INSTRUCTION	ACCESS:     136209  HIT:     136209  MISS:          0  HIT %:        100  MISS %:          0  MPKI: 0

ITLB AVERAGE MISS LATENCY: 9.07571 cycles
ITLB RQ	ACCESS:    7899003	FORWARD:          0	MERGED:    1606024	TO_CACHE:    6292979

DTLB TOTAL     ACCESS:    8877903  HIT:    8404535  MISS:     473368  HIT %:     94.668  MISS %:    5.33198   MPKI: 9.46736
DTLB LOAD TRANSLATION DATA	ACCESS:    8877903  HIT:    8404535  MISS:     473368  HIT %:     94.668  MISS %:    5.33198  MPKI: 9.46736

DTLB AVERAGE MISS LATENCY: 9.29149 cycles
DTLB RQ	ACCESS:   13232206	FORWARD:          0	MERGED:    4316767	TO_CACHE:    8915439

STLB TOTAL     ACCESS:    1226782  HIT:    1224274  MISS:       2508  HIT %:    99.7956  MISS %:   0.204437   MPKI: 0.05016
STLB LOAD TRANSLATION INSTRUCTION	ACCESS:     487974  HIT:     487567  MISS:        407  HIT %:    99.9166  MISS %:  0.0834061  MPKI: 0.00814
STLB LOAD TRANSLATION DATA	ACCESS:     473368  HIT:     471308  MISS:       2060  HIT %:    99.5648  MISS %:   0.435179  MPKI: 0.0412
STLB TRANSLATION FROM L1D PREFETCHER DATA	ACCESS:     265440  HIT:     265399  MISS:         41  HIT %:    99.9846  MISS %:  0.0154461  MPKI: 0.00082

STLB AVERAGE MISS LATENCY: 59.6192 cycles
STLB RQ	ACCESS:    1407314	FORWARD:          0	MERGED:     180502	TO_CACHE:    1226812

STLB Hit, L1D data hit: 0
STLB Hit, L2C data hit: 0
STLB Hit, LLC data hit: 0
STLB Hit, LLC data miss: 0
STLB STLB hints to L2: 0
L1D TOTAL     ACCESS:   12991681  HIT:   11764702  MISS:    1226979  HIT %:    90.5557  MISS %:    9.44434   MPKI: 24.5396
L1D LOAD DATA	ACCESS:    6532139  HIT:    5720940  MISS:     811199  HIT %:    87.5814  MISS %:    12.4186  MPKI: 16.224
L1D RFO DATA	ACCESS:    6110566  HIT:    5815362  MISS:     295204  HIT %:     95.169  MISS %:    4.83104  MPKI: 5.90408
L1D PREFETCH DATA	ACCESS:     348976  HIT:     228400  MISS:     120576  HIT %:    65.4486  MISS %:    34.5514  MPKI: 2.41152

L1D PREFETCH  REQUESTED:     892420  ISSUED:     892420  USEFUL:      68052  USELESS:      74025
L1D USEFUL LOAD PREFETCHES:      68052 PREFETCH ISSUED TO LOWER LEVEL:     142134  ACCURACY: 47.8788
 TIMELY PREFETCHES:      68052 LATE PREFETCHES: 21499 DROPPED PREFETCHES: 2
L1D AVERAGE MISS LATENCY: 565279 cycles
L1D RQ	ACCESS:   10638870	FORWARD:          0	MERGED:    3905112	TO_CACHE:    6569085
L1D WQ	ACCESS:    6858817	FORWARD:     165149	MERGED:     195696	TO_CACHE:    6663121
L1D PQ	ACCESS:     446448	FORWARD:          0	MERGED:          0	TO_CACHE:     445972

L1D UNIQUE REGIONS ACCESSED: 0
L1D REGIONS CONFLICTS: 0
L1D Cross Page Prefetch Requests: 8857
L1D Same Page Prefetch Requests: 894771
L1D ROI Sum of L1D PQ occupancy: 5646899
L1D PREFETCHES PUSHED FROM L2C: 0
L1I TOTAL     ACCESS:    7070355  HIT:    4334909  MISS:    2735446  HIT %:    61.3111  MISS %:    38.6889   MPKI: 54.7089
L1I LOAD INSTRUCTION	ACCESS:    6412101  HIT:    3676655  MISS:    2735446  HIT %:    57.3393  MISS %:    42.6607  MPKI: 54.7089
L1I PREFETCH INSTRUCTION	ACCESS:     658254  HIT:     658254  MISS:          0  HIT %:        100  MISS %:          0  MPKI: 0

L1I PREFETCH  REQUESTED:    1622916  ISSUED:    1622916  USEFUL:          0  USELESS:          0
L1I USEFUL LOAD PREFETCHES:          0 PREFETCH ISSUED TO LOWER LEVEL:          0  ACCURACY: -nan
 TIMELY PREFETCHES:          0 LATE PREFETCHES: 0 DROPPED PREFETCHES: 0
L1I AVERAGE MISS LATENCY: 17.7645 cycles
L1I RQ	ACCESS:    9594389	FORWARD:          0	MERGED:    2879808	TO_CACHE:    6714581
L1I PQ	ACCESS:    1622916	FORWARD:          0	MERGED:     438494	TO_CACHE:    1184422

L1BTB TOTAL     ACCESS:    5698677  HIT:    2111665  MISS:    3587012  HIT %:    37.0554  MISS %:    62.9446   MPKI: 71.7402
L1BTB BRANCH_DIRECT_JUMP	ACCESS:     540742 HIT:     142390 MISS:     398352 AVERAGE STALL: 53.1054 AVERAGE FETCH STALL: 12.4988 AVERAGE FETCH QUEUE STALL: 17.6646 AVERAGE DECODE STALL: 22.0415 AVERAGE EXECUTE STALL: 2.53494e+15
L1BTB BRANCH_INDIRECT	ACCESS:     180201 HIT:      64935 MISS:     115266 AVERAGE STALL: 112.506 AVERAGE FETCH STALL: 10.8182 AVERAGE FETCH QUEUE STALL: 17.7281 AVERAGE DECODE STALL: 12.8872 AVERAGE EXECUTE STALL: 70.1095
L1BTB BRANCH_CONDITIONAL	ACCESS:    2772265 HIT:    1494866 MISS:    1277399 AVERAGE STALL: 88.205 AVERAGE FETCH STALL: 22.3437 AVERAGE FETCH QUEUE STALL: 39.5426 AVERAGE DECODE STALL: 25.663 AVERAGE EXECUTE STALL: 3.74477e+15
L1BTB BRANCH_DIRECT_CALL	ACCESS:     933618 HIT:     102650 MISS:     830968 AVERAGE STALL: 49.7925 AVERAGE FETCH STALL: 15.031 AVERAGE FETCH QUEUE STALL: 18.6038 AVERAGE DECODE STALL: 15.3922 AVERAGE EXECUTE STALL: 2.48608e+16
L1BTB BRANCH_INDIRECT_CALL	ACCESS:     169133 HIT:      20665 MISS:     148468 AVERAGE STALL: 147.291 AVERAGE FETCH STALL: 13.4048 AVERAGE FETCH QUEUE STALL: 19.0505 AVERAGE DECODE STALL: 13.265 AVERAGE EXECUTE STALL: 101.078
L1BTB BRANCH_RETURN	ACCESS:    1102718 HIT:     286159 MISS:     816559 AVERAGE STALL: 50.2884 AVERAGE FETCH STALL: 16.9522 AVERAGE FETCH QUEUE STALL: 4.92064 AVERAGE DECODE STALL: 5.9907 AVERAGE EXECUTE STALL: 4.49176e+14
L1BTB BRANCH_OTHER ACCESS:          0 HIT:          0 MISS:          0 AVERAGE STALL: -nan AVERAGE FETCH STALL: -nan AVERAGE FETCH QUEUE STALL: -nan AVERAGE DECODE STALL: -nan AVERAGE EXECUTE STALL: -nan
L1BTB TOTAL ROB OCCUPANCY AT BTB MISS: 2.56927

L2BTB TOTAL     ACCESS:    3562200  HIT:    3500815  MISS:      61385  HIT %:    98.2768  MISS %:    1.72323   MPKI: 1.2277
L2BTB BRANCH_DIRECT_JUMP	ACCESS:     394286 HIT:     391075 MISS:       3211 AVERAGE STALL: 53.1054 AVERAGE FETCH STALL: 12.4988 AVERAGE FETCH QUEUE STALL: 17.6646 AVERAGE DECODE STALL: 22.0415 AVERAGE EXECUTE STALL: 2.53494e+15
L2BTB BRANCH_INDIRECT	ACCESS:     105120 HIT:     102502 MISS:       2618 AVERAGE STALL: 112.506 AVERAGE FETCH STALL: 10.8182 AVERAGE FETCH QUEUE STALL: 17.7281 AVERAGE DECODE STALL: 12.8872 AVERAGE EXECUTE STALL: 70.1095
L2BTB BRANCH_CONDITIONAL	ACCESS:    1277399 HIT:    1272403 MISS:       4996 AVERAGE STALL: 88.205 AVERAGE FETCH STALL: 22.3437 AVERAGE FETCH QUEUE STALL: 39.5426 AVERAGE DECODE STALL: 25.663 AVERAGE EXECUTE STALL: 3.74477e+15
L2BTB BRANCH_DIRECT_CALL	ACCESS:     830968 HIT:     830223 MISS:        745 AVERAGE STALL: 49.7925 AVERAGE FETCH STALL: 15.031 AVERAGE FETCH QUEUE STALL: 18.6038 AVERAGE DECODE STALL: 15.3922 AVERAGE EXECUTE STALL: 2.48608e+16
L2BTB BRANCH_INDIRECT_CALL	ACCESS:     139100 HIT:     129128 MISS:       9972 AVERAGE STALL: 147.291 AVERAGE FETCH STALL: 13.4048 AVERAGE FETCH QUEUE STALL: 19.0505 AVERAGE DECODE STALL: 13.265 AVERAGE EXECUTE STALL: 101.078
L2BTB BRANCH_RETURN	ACCESS:     815327 HIT:     775484 MISS:      39843 AVERAGE STALL: 50.2884 AVERAGE FETCH STALL: 16.9522 AVERAGE FETCH QUEUE STALL: 4.92064 AVERAGE DECODE STALL: 5.9907 AVERAGE EXECUTE STALL: 4.49176e+14
L2BTB BRANCH_OTHER ACCESS:          0 HIT:          0 MISS:          0 AVERAGE STALL: -nan AVERAGE FETCH STALL: -nan AVERAGE FETCH QUEUE STALL: -nan AVERAGE DECODE STALL: -nan AVERAGE EXECUTE STALL: -nan
L2BTB TOTAL ROB OCCUPANCY AT BTB MISS: 150.135

L2C TOTAL     ACCESS:    4603032  HIT:    4020490  MISS:     582542  HIT %:    87.3444  MISS %:    12.6556   MPKI: 11.6508
L2C LOAD INSTRUCTION	ACCESS:    2735445  HIT:    2431635  MISS:     303810  HIT %:    88.8936  MISS %:    11.1064  MPKI: 6.0762
L2C LOAD TRANSLATION INSTRUCTION	ACCESS:        466  HIT:        114  MISS:        352  HIT %:    24.4635  MISS %:    75.5365  MPKI: 0.00704
L2C LOAD DATA	ACCESS:     789670  HIT:     685223  MISS:     104447  HIT %:    86.7733  MISS %:    13.2267  MPKI: 2.08894
L2C RFO DATA	ACCESS:     295114  HIT:     233319  MISS:      61795  HIT %:    79.0606  MISS %:    20.9394  MPKI: 1.2359
L2C PREFETCH DATA	ACCESS:     240376  HIT:     147028  MISS:      93348  HIT %:    61.1658  MISS %:    38.8342  MPKI: 1.86696
L2C WRITEBACK DATA	ACCESS:     539722  HIT:     522519  MISS:      17203  HIT %:    96.8126  MISS %:    3.18738  MPKI: 0.34406
L2C LOAD TRANSLATION DATA	ACCESS:       2183  HIT:        609  MISS:       1574  HIT %:    27.8974  MISS %:    72.1026  MPKI: 0.03148
L2C TRANSLATION FROM L1D PREFETCHER DATA	ACCESS:         56  HIT:         43  MISS:         13  HIT %:    76.7857  MISS %:    23.2143  MPKI: 0.00026

L2C PREFETCH  REQUESTED:     106552  ISSUED:     106552  USEFUL:      10338  USELESS:      83540
L2C USEFUL LOAD PREFETCHES:      10338 PREFETCH ISSUED TO LOWER LEVEL:      93849  ACCURACY: 11.0156
 TIMELY PREFETCHES:      10338 LATE PREFETCHES: 501 DROPPED PREFETCHES: 0
L2C AVERAGE MISS LATENCY: 38.1416 cycles
L2C RQ	ACCESS:    3822996	FORWARD:          0	MERGED:          0	TO_CACHE:    3822935
L2C WQ	ACCESS:     539722	FORWARD:         62	MERGED:          0	TO_CACHE:     539722
L2C PQ	ACCESS:     248686	FORWARD:          0	MERGED:       3927	TO_CACHE:     244758

L2C Dense regions hint from L2: 0
PSCL5 TOTAL     ACCESS:       5022  HIT:       2511  MISS:       2511  HIT %:         50  MISS %:         50   MPKI: 0.05022
PSCL5 LOAD TRANSLATION INSTRUCTION	ACCESS:       4910  HIT:       2455  MISS:       2455  HIT %:         50  MISS %:         50  MPKI: 0.0491
PSCL5 TRANSLATION FROM L1D PREFETCHER INSTRUCTION	ACCESS:        112  HIT:         56  MISS:         56  HIT %:         50  MISS %:         50  MPKI: 0.00112


PSCL4 TOTAL     ACCESS:       3666  HIT:       1828  MISS:       1838  HIT %:    49.8636  MISS %:    50.1364   MPKI: 0.03676
PSCL4 LOAD TRANSLATION INSTRUCTION	ACCESS:       2553  HIT:       1783  MISS:        770  HIT %:    69.8394  MISS %:    30.1606  MPKI: 0.0154
PSCL4 TRANSLATION FROM L1D PREFETCHER INSTRUCTION	ACCESS:         68  HIT:         45  MISS:         23  HIT %:    66.1765  MISS %:    33.8235  MPKI: 0.00046
PSCL4 LOAD TRANSLATION DATA	ACCESS:       1023  HIT:          0  MISS:       1023  HIT %:          0  MISS %:        100  MPKI: 0.02046
PSCL4 TRANSLATION FROM L1D PREFETCHER DATA	ACCESS:         22  HIT:          0  MISS:         22  HIT %:          0  MISS %:        100  MPKI: 0.00044


PSCL3 TOTAL     ACCESS:       4910  HIT:       2445  MISS:       2465  HIT %:    49.7963  MISS %:    50.2037   MPKI: 0.0493
PSCL3 LOAD TRANSLATION INSTRUCTION	ACCESS:       3424  HIT:       2402  MISS:       1022  HIT %:    70.1519  MISS %:    29.8481  MPKI: 0.02044
PSCL3 TRANSLATION FROM L1D PREFETCHER INSTRUCTION	ACCESS:         59  HIT:         43  MISS:         16  HIT %:    72.8814  MISS %:    27.1186  MPKI: 0.00032
PSCL3 LOAD TRANSLATION DATA	ACCESS:       1400  HIT:          0  MISS:       1400  HIT %:          0  MISS %:        100  MPKI: 0.028
PSCL3 TRANSLATION FROM L1D PREFETCHER DATA	ACCESS:         27  HIT:          0  MISS:         27  HIT %:          0  MISS %:        100  MPKI: 0.00054


PSCL2 TOTAL     ACCESS:       4858  HIT:       2347  MISS:       2511  HIT %:    48.3121  MISS %:    51.6879   MPKI: 0.05022
PSCL2 LOAD TRANSLATION INSTRUCTION	ACCESS:       2707  HIT:       2291  MISS:        416  HIT %:    84.6324  MISS %:    15.3676  MPKI: 0.00832
PSCL2 TRANSLATION FROM L1D PREFETCHER INSTRUCTION	ACCESS:         56  HIT:         56  MISS:          0  HIT %:        100  MISS %:          0  MPKI: 0
PSCL2 LOAD TRANSLATION DATA	ACCESS:       2039  HIT:          0  MISS:       2039  HIT %:          0  MISS %:        100  MPKI: 0.04078
PSCL2 TRANSLATION FROM L1D PREFETCHER DATA	ACCESS:         56  HIT:          0  MISS:         56  HIT %:          0  MISS %:        100  MPKI: 0.00112


LLC TOTAL     ACCESS:     656095  HIT:     630293  MISS:      25802  HIT %:    96.0673  MISS %:    3.93266   MPKI: 0.51604
LLC LOAD INSTRUCTION	ACCESS:     303810  HIT:     302931  MISS:        879  HIT %:    99.7107  MISS %:   0.289326  MPKI: 0.01758
LLC LOAD TRANSLATION INSTRUCTION	ACCESS:        352  HIT:        319  MISS:         33  HIT %:     90.625  MISS %:      9.375  MPKI: 0.00066
LLC LOAD DATA	ACCESS:     104013  HIT:     101160  MISS:       2853  HIT %:    97.2571  MISS %:    2.74293  MPKI: 0.05706
LLC RFO DATA	ACCESS:      61724  HIT:      48530  MISS:      13194  HIT %:    78.6242  MISS %:    21.3758  MPKI: 0.26388
LLC PREFETCH DATA	ACCESS:      93849  HIT:      85258  MISS:       8591  HIT %:    90.8459  MISS %:    9.15407  MPKI: 0.17182
LLC WRITEBACK DATA	ACCESS:      90760  HIT:      90565  MISS:        195  HIT %:    99.7851  MISS %:   0.214852  MPKI: 0.0039
LLC LOAD TRANSLATION DATA	ACCESS:       1574  HIT:       1517  MISS:         57  HIT %:    96.3787  MISS %:    3.62135  MPKI: 0.00114
LLC TRANSLATION FROM L1D PREFETCHER DATA	ACCESS:         13  HIT:         13  MISS:          0  HIT %:        100  MISS %:          0  MPKI: 0

LLC AVERAGE MISS LATENCY: 204.111 cycles
LLC RQ	ACCESS:     471491	FORWARD:          0	MERGED:          0	TO_CACHE:     471486
LLC WQ	ACCESS:      90760	FORWARD:          5	MERGED:          0	TO_CACHE:      90760
LLC PQ	ACCESS:      93849	FORWARD:          0	MERGED:          0	TO_CACHE:      93849

LLC Dense regions hint to LLC: 0

RAW hits: 1925850
Loads Generated: 12564720
Loads sent to L1D: 10638870
Stores Generated: 6858814
Stores sent to L1D: 6858817
Major fault: 0 Minor fault: 2281
Allocated PAGES: 2281

stream: 
stream:times selected: 1324112
stream:pref_filled: 134645
stream:pref_useful: 35043
stream:pref_late: 12576
stream:misses: 12520
stream:misses_by_poll: 0

CS: 
CS:times selected: 215309
CS:pref_filled: 91692
CS:pref_useful: 67709
CS:pref_late: 12924
CS:misses: 33434
CS:misses_by_poll: 3

CPLX: 
CPLX:times selected: 1107399
CPLX:pref_filled: 32953
CPLX:pref_useful: 12011
CPLX:pref_late: 6771
CPLX:misses: 179224
CPLX:misses_by_poll: 1

NL_L1: 
NL:times selected: 22858
NL:pref_filled: 1167
NL:pref_useful: 773
NL:pref_late: 1018
NL:misses: 4194
NL:misses_by_poll: 0

total selections: 2669678
total_filled: 120576
total_useful: 68052
total_late: 36946
total_polluted: 4
total_misses_after_warmup: 848150
conflicts: 5448440

test: 124175

DRAM Statistics
 CHANNEL 0
 RQ ROW_BUFFER_HIT:       9194  ROW_BUFFER_MISS:      16405
 DBUS_CONGESTED:         14
 WQ ROW_BUFFER_HIT:       2058  ROW_BUFFER_MISS:      12417  FULL:          0

 AVG_CONGESTED_CYCLE: 4

CPU 0 Branch Prediction Accuracy: 99.8259% MPKI: 0.31964 Average ROB Occupancy at Mispredict: 210.66
Branch types
NOT_BRANCH: 40817350 81.6347%
BRANCH_DIRECT_JUMP: 540742 1.08148%
BRANCH_INDIRECT: 180201 0.360402%
BRANCH_CONDITIONAL: 6255846 12.5117%
BRANCH_DIRECT_CALL: 933618 1.86724%
BRANCH_INDIRECT_CALL: 169133 0.338266%
BRANCH_RETURN: 1102718 2.20544%
BRANCH_OTHER: 0 0%

DRAM PAGES: 1048576
Allocated PAGES: 2281
Average_ROB_Occupancy: 253.074
Average_Decode_Occupancy: 38.3942
Average_FTQ_Occupancy: 15.0976
Indirect max targets: 14 Average targets: 1.14815
Branch_type:  BRANCH_DIRECT_JUMP:  Count Percentage: 3.29371 6.75782 3.58891 7.63379 2.2268 6.33154 1.29994 68.8675 
Branch_type:  BRANCH_INDIRECT:  Count Percentage: 6.11084 3.45569 8.14159 9.70078 3.33946 2.80577 3.07622 63.3696 
Branch_type:  BRANCH_CONDITIONAL:  Count Percentage: 27.0545 3.41412 0.878307 3.9721 1.65318 4.00603 1.08744 57.9343 
Branch_type:  BRANCH_DIRECT_CALL:  Count Percentage: 0.394682 1.26401 0.41651 3.31712 2.13994 2.83915 1.00942 88.6192 
Branch_type:  BRANCH_INDIRECT_CALL:  Count Percentage: 9.56744 0 3.00951 0 0 2.34688 3.28207 81.7941 
Branch_type:  BRANCH_RETURN:  Count Percentage: 7.88939 1.34967 1.21722 3.90675 3.6774 4.73586 1.38557 75.8381 
Branch_type:  BRANCH_DIRECT_JUMP:  Total Count: 35604 73050 38795 82519 24071 68442 14052 744437 
Branch_type:  BRANCH_INDIRECT:  Total Count: 22030 12458 29351 34972 12039 10115 11090 228452 
Branch_type:  BRANCH_CONDITIONAL:  Total Count: 3383407 426966 109840 496746 206745 500989 135994 7245193 
Branch_type:  BRANCH_DIRECT_CALL:  Total Count: 7359 23568 7766 61849 39900 52937 18821 1652340 
Branch_type:  BRANCH_INDIRECT_CALL:  Total Count: 32328 0 10169 0 0 7930 11090 276379 
Branch_type:  BRANCH_RETURN:  Total Count: 173820 29736 26818 86074 81021 104341 30527 1670875 
Number of unique branch instructions: 10324
Upper 32 bits: 
aaaa
ffff
ffff0000
Unique upper 32 bits: 3
Unique upper 36 bits: 3
Unique upper 40 bits: 5
Unique upper 44 bits: 32
Unique upper 48 bits: 157
Variant_0 : 1458 0.237305
Variant_1 : 3077 0.500814
Variant_2 : 0 0
Variant_3 : 0 0
Offset_3 4251
Offset_4 257
Offset_5 470
Offset_6 532
Offset_7 611
Offset_8 527
Offset_9 508
Offset_10 409
Offset_11 338
Offset_12 278
Offset_13 213
Offset_14 229
Offset_15 201
Offset_16 235
Offset_17 158
Offset_18 135
Offset_19 251
Offset_20 147
Offset_21 245
Offset_22 404
Offset_23 241
Offset_24 333
Offset_25 88
Offset_47 80
decode_dispatch_called: 26581772 73.766
Dispatch_width: 0 14375757 54.0813 39.8936
Dispatch_width: 1 1043244 3.92466 2.89506
Dispatch_width: 2 847858 3.18962 2.35286
Dispatch_width: 3 509934 1.91836 1.4151
Dispatch_width: 4 6497425 24.4432 18.0307
Dispatch_width: 5 104000 0.391246 0.288606
Dispatch_width: 6 3203554 12.0517 8.89005
Empty_decode_cycles: 9453510 26.234
ROB_full_cycles: 10433603 28.9539
Starvation_cycles_per_kilo_instr: 223.981
Starvation_cycles_per_kilo_instr_3: 157.967
Starvation_cycles_per_kilo_instr_0: 133.957
Branch_type_1  (3,1)  (4,9)  (5,38)  (6,75)  (7,117)  (8,129)  (9,131)  (10,105)  (11,77)  (12,45)  (13,4)  (14,2)  (15,3)  (16,4)  (18,1)  (19,4)  (20,2)  (21,1)  (22,3)  (23,2)  (24,10)  (25,12) 
Branch_type_2  (3,1)  (5,1)  (8,3)  (9,3)  (12,1)  (13,1)  (14,1)  (16,3)  (17,2)  (20,2)  (21,2)  (23,5)  (24,1)  (47,36) 
Branch_type_3  (3,4249)  (4,248)  (5,427)  (6,441)  (7,462)  (8,334)  (9,284)  (10,172)  (11,138)  (12,50)  (13,4) 
Branch_type_4  (6,4)  (7,8)  (8,26)  (9,55)  (10,62)  (11,61)  (12,101)  (13,94)  (14,101)  (15,95)  (16,107)  (17,71)  (18,62)  (19,122)  (20,75)  (21,130)  (22,217)  (23,136)  (24,194)  (25,72) 
Branch_type_5  (8,2)  (9,1)  (10,3)  (11,6)  (12,3)  (13,14)  (14,16)  (15,11)  (16,20)  (17,12)  (18,16)  (19,12)  (20,11)  (21,13)  (22,42)  (23,26)  (24,37) 
Branch_type_6  (5,4)  (6,12)  (7,24)  (8,33)  (9,34)  (10,67)  (11,56)  (12,78)  (13,96)  (14,109)  (15,92)  (16,101)  (17,73)  (18,56)  (19,113)  (20,57)  (21,99)  (22,142)  (23,72)  (24,91)  (25,4)  (47,44) 
Unique trigger count: 
Variant_0_evicts_0 : 0
Variant_0_evicts_1 : 0
Variant_0_evicts_2 : 0
Variant_0_evicts_3 : 0
Variant_1_evicts_0 : 0
Variant_1_evicts_1 : 0
Variant_1_evicts_2 : 0
Variant_1_evicts_3 : 0
Variant_2_evicts_0 : 0
Variant_2_evicts_1 : 0
Variant_2_evicts_2 : 0
Variant_2_evicts_3 : 0
Variant_3_evicts_0 : 0
Variant_3_evicts_1 : 0
Variant_3_evicts_2 : 0
Variant_3_evicts_3 : 0
BTB PER SET UNIQUE ADDR: 6 3 4 8 5 5 4 4 5 7 6 6 5 6 7 6 4 6 4 5 7 5 3 5 5 5 4 6 7 6 7 7 5 6 4 6 6 4 4 4 5 6 5 6 4 4 3 7 8 9 6 6 4 4 7 4 7 4 6 7 6 6 5 6 7 5 6 5 6 3 4 6 6 5 6 8 5 8 5 5 7 5 5 5 4 3 4 5 6 6 5 4 4 4 5 6 6 7 7 4 4 4 6 7 6 8 4 3 5 7 6 3 6 5 6 5 6 6 5 5 7 7 7 4 8 6 7 6 9 4 4 6 5 3 5 6 5 6 7 7 7 5 6 4 7 5 6 6 6 6 7 6 6 7 6 6 5 6 6 8 5 4 3 7 4 5 4 5 6 7 7 4 6 5 10 8 6 6 4 5 5 4 6 7 7 4 7 5 5 5 7 7 4 6 5 4 6 4 3 5 4 4 4 6 5 5 7 6 7 7 6 8 5 5 4 4 8 7 5 4 3 3 8 5 5 4 5 5 6 3 6 6 4 7 6 5 5 6 6 4 5 9 7 7 7 6 5 5 5 6 7 6 5 4 6 6 7 7 5 5 4 4 4 5 5 5 6 5 6 5 5 5 4 8 7 6 6 4 4 6 6 6 3 4 3 7 6 6 6 6 3 6 6 5 5 7 4 5 8 5 7 3 7 6 4 4 6 7 6 6 5 3 7 3 5 5 7 5 4 3 5 5 6 6 8 6 6 3 6 5 4 7 7 3 5 2 3 3 7 4 4 3 5 9 5 7 3 4 5 5 6 4 4 5 6 7 4 7 6 6 7 9 6 3 7 6 6 6 5 6 6 7 5 5 4 5 5 4 4 7 6 4 4 5 5 4 4 6 5 7 5 7 5 4 4 5 5 5 6 4 5 5 5 6 4 5 8 5 8 5 5 3 5 4 5 4 5 6 4 4 6 5 5 8 8 6 7 4 7 5 7 5 6 6 4 3 8 4 6 6 7 5 5 5 6 5 5 4 4 7 5 4 5 4 6 7 5 7 5 7 4 5 4 6 7 5 7 4 4 4 4 4 7 4 4 6 6 5 6 4 4 5 7 6 5 6 6 6 7 6 7 5 4 8 2 7 8 4 5 6 7 4 5 7 7 4 4 6 7 6 4 4 5 3 2 2 5 3 4 5 2 5 4 5 4 4 2 6 3 6 5 5 6 4 5 3 1 7 5 6 5 6 5 5 3 4 4 7 4 4 2 5 3 5 3 5 4 3 5 3 3 4 5 8 2 3 4 4 3 2 3 2 0 4 2 6 4 2 6 4 4 6 3 3 4 3 3 5 5 3 5 3 4 4 2 5 3 5 4 5 6 4 3 3 1 3 5 4 3 5 4 4 3 5 2 4 3 4 4 5 4 2 6 4 5 4 1 5 5 4 3 6 4 3 4 3 3 4 4 3 4 5 1 3 3 5 4 3 4 4 5 2 3 5 2 7 4 4 6 2 2 4 3 5 6 1 3 3 5 3 4 3 4 6 3 6 5 5 3 6 4 4 2 3 4 4 2 7 5 3 4 3 6 3 4 5 5 3 5 6 4 3 4 3 5 5 5 3 5 4 3 0 3 6 5 5 2 4 3 3 7 4 3 5 2 5 4 4 3 6 4 5 6 5 4 2 5 3 2 5 2 5 6 4 3 3 7 1 6 3 3 6 5 4 5 3 2 3 3 5 3 4 6 4 4 6 4 5 4 4 4 3 4 5 5 3 2 5 1 5 4 4 7 5 6 6 3 4 7 4 3 4 5 5 4 4 4 4 4 1 5 3 5 2 4 5 4 3 3 5 3 2 0 3 1 4 4 2 5 5 3 4 6 5 5 2 4 3 5 4 5 4 3 4 4 6 6 4 2 3 2 5 3 4 5 4 5 3 1 2 6 4 4 3 5 1 7 3 3 3 3 6 4 5 4 4 3 3 4 4 7 3 6 4 4 5 3 4 4 5 6 3 3 5 3 3 5 4 1 1 4 3 3 4 5 3 2 4 4 3 6 1 5 4 3 4 6 6 6 5 5 3 6 6 4 5 3 2 3 6 5 5 5 3 5 6 4 1 4 4 4 5 3 4 3 6 2 5 3 4 3 4 4 4 3 3 3 2 6 4 5 5 4 5 5 4 3 3 5 2 6 4 4 3 5 3 6 3 2 5 4 2 4 5 5 4 3 3 4 4 4 4 4 4 6 5 3 4 2 3 4 4 5 6 3 7 3 6 4 4 7 4 5 2 4 5 5 5 2 1 5 4 5 3 3 6 3 4 3 3 2 4 5 4 6 3 4 8 5 3 2 5 7 3 3 4 3 4 2 4 4 3 4 4 6 3 5 4 4 5 2 4 3 5 4 6 4 6 2 5 4 6 6 4 2 4 5 5 4 4 5 5 3 3 5 3 4 5 3 5 5 4 3 5 3 4 5 0 3 2 4 5 4 3 3 4 2 4 5 3 3 6 5 6 3 5 4 6 4 2 5 4 5 2 6 5 6 6 4 4 3 4 1 4 6 5 5 4 4 3 4 5 3 1 3 6 5 3 5 1 6 5 4 2 4 5 3 4 6 6 5 6 2 4 4 2 4 4 2 4 3 5 7 3 4 4 6 4 4 3 5 6 7 6 3 3 5 3 2 5 3 3 8 6 4 6 4 3 4 4 4 4 3 3 4 6 3 4 5 2 2 4 2 3 2 4 4 2 4 4 5 4 4 3 3 4 4 5 5 3 6 1 4 5 4 5 3 4 2 4 4 3 3 4 4 6 3 4 3 4 4 5 4 4 5 4 5 3 4 5 3 6 5 2 2 2 5 4 2 7 4 4 4 5 3 3 6 6 3 4 5 5 3 2 3 5 4 1 3 4 6 3 5 6 6 6 4 1 4 3 3 3 5 5 4 4 3 4 3 4 3 2 4 3 5 6 5 4 5 5 5 7 2 4 3 4 3 4 3 1 3 5 5 5 6 3 4 4 5 5 3 5 4 4 3 6 3 3 2 4 5 4 4 4 6 6 4 3 4 2 2 4 3 6 2 2 6 1 7 6 6 5 3 4 4 3 4 5 6 6 4 4 3 5 5 6 4 5 2 5 5 2 3 2 2 2 3 5 2 2 3 6 5 4 1 5 3 4 3 3 4 4 3 3 5 5 5 4 3 4 3 6 5 3 4 4 4 5 3 5 6 4 4 6 2 6 2 4 2 6 5 4 3 5 5 5 4 5 6 2 4 3 4 2 6 6 4 6 6 4 3 3 3 2 2 3 6 2 7 5 7 4 6 4 4 2 2 3 4 6 6 2 4 2 5 4 1 3 7 6 4 4 4 5 4 3 5 3 6 4 3 4 3 4 2 4 6 3 4 4 5 3 4 5 5 3 4 4 3 3 3 3 4 4 3 4 4 6 4 5 4 2 4 5 5 4 4 5 4 4 3 6 2 4 5 2 
BTB PER SET COUNT: 6 1453 1451 1454 5 8 6 5 6 8 49 8 5 6 7 6 4 6 4 5 9 7 3 5 7 885 7 6 8 9 7 485 5 1364 6 12 8 4 4 7 6 976 5 7 4 4 481 7 8 9 6 6 4 4 8 4 485 4 6 1456 976 6 5 6 7 5 9 5 6 3 4 7 7 5 6 9 6 8 974 5 10 5 1433 6 4 3 4 5 485 6 6 5 4 4 6 6 7 8 10 4 4 6 6 7 11 11 5 5 5 7 8 5 488 6 6 5 6 6 5 1452 10 8 10 4 744 7 7 6 779 4 53 6 5 3 5 6 5 6 9 7 591 5 6 4 9 5 6 8 6 12 7 515 6 7 7 976 7 6 6 14 5 4 4 7 4 5 4 5 6 1046 236 4 8 5 11 8 6 7 4 6 5 4 6 8 121 4 7 5 5 5 13 8 4 1048 7 509 6 4 4 5 4 1453 4 6 6 8 7 6 7 7 8 9 5 5 4 4 8 7 239 4 3 3 8 6 5 4 5 5 748 3 6 6 4 46 961 5 5 7 7 4 6 11 8 486 7 6 7691 294 5 6 18 6 5 5 7 8 7 7 5 5 4 4 4 5 5 5 729 5 6 5 22 5 5 10 7 8 26 5 6 8 6 7 3 1437 3 7 10 6 7 7 3 6 9 5 958 12 4 621 8 9 7 3 8 6 431 4 9 8 7 1453 6 3 13 3 5 5 9 5 4 3 7 5 6 6 979 10 23 3 8 5 4 8 11 3 5 2 3 3 7 4 5 1941 6 12 6 7 3 4 6 5 6 4 4 5 6 8 4 1441 12 148 7 10 1458 4 14456 6 158 6 5 10 6 8 1452 5 4 5 1458 4 4 9 7 5 4 5 5 6 4 6 5 7 5 7 5 4 4 5 1709 8 6 4 5 8 5 6 4 5 8 5 9 7 5 3 6 4 7 4 6 9 4 4 6 5 5 487 11 6 11 4 8 7 7 5 6 6 4 959 9 4 8 8 7 5 7 6 927 9 2424 4 4 15 5 961 5 4 104 7 5 9 5 41 4 962 4 6 16 5 61 4 4 5 4 4 8 4 4 14 6 5 7 5 6 5 7 1453 215 21 963 6 7 6 977 6 4 8 2 7 8 7 6 6 248 4 5 7 1213 4 4 6 8 6 4 4 5 1911 2 2 5 481 4 5 2 6 4 5 261 4 2 238 3 8 1452 5 8 6 33 5 1 10 5 6 6 6 5 5 3 1454 4 7 4 5 2 5 959 5 3 5 5 3 5 4 3 4 6 10 2 3 1908 5 3 2 3 2 0 4 2 6 4 2 6 4 9 6 3 4 10 3 4 5 5 4 5 3 4 4 3 5 1450 7 5 5 8 5 959 3 1 3 5 4 4 5 4 4 3 5 2 4 8 5 5 5 4 2 7 4 5 4 1 5 6 4 955 6 4 3 4 3 3 4 5 3 4 6 1 3 4 5 4 5 4 4 5 2 3 7 2 7 7 4 6 2 2 4 4 5 6 1 3 3 5 3 4 3 4 2899 3 6 6 6 3 484 973 4 2 3 4 5 2 1454 5 5 4 3 8 3 4 5 5 3 5 9 4 4 4 3 6 5 6 3 5 4 3 0 3 8 6 483 2 4 3 3 8 4 3 5 2 5 4 4 3 10 4 5 8 6 4 2 5 8 2 5 2 5 6 4 3 3 7 1 6 3 3 6 5 4 957 3 2 3 3 6 5 4 6 28 4 6 4 3380 4 4 4 3 4 5 6 3 3 5 1 5 4 4 10 5 6 6 4 4 244 4 3 4 5 5 5 5 4 5 4 1 5 3 5 2 4 5 4 3 3 10 7 2 0 3 1 4 4 2 5 7 3 4 6 6 5 2 5 3 5 482 5 4 3 4 4 6 6 4 2 3 3 974 959 4 5 5 7 3 1 2 6 4 5 3 5 1 7 3 3 3 4 6 4 5 482 7 3 3 5 4 8 3 6 4 4 5 3 4 4 5 6 3 4 5 3 3 5 4 1 1 1451 3 3 2871 5 3 233 5 4 3 8 1 5 960 3 4 7 7 6 5 5 3 7 7 4 509 3 2 4 7 493 7 5 4 6 7 5 1 6 4 7 5 3 4 3 6 2 974 3 4 3 4 4 4 3 4 3 2 9 5 5 7 4 5 7 5 3 3 1917 2 9 4 4 3 5 3 6 3 2 5 4 2 5 7 7 5 4 3 6 4 4 4 4 7 11 7 3 978 2 3 5 6 5 7 3 8 5 1453 4 4 7 4 5 2 4 5 5 1946 2 1 6 4 6 3 3 13 4 4 4 3 2 4 8 4 6 3 4 513 9 4 3 6 9 3 3 846 3 4 4 4 4 481 6 4 6 4 487 4 4 8 2 4 3 8 4 6 4 1453 2 5 5 6 7 4 2 8 5 5 4 4 5 425 3 3 5 3 4 5 5 5 9 5 3 975 3 4 15 0 5 2 4 5 5 3 3 4 2 4 130 3 4 7 6 2425 234 345 42 7 4 2 236 4 5 2 12 5 7 176 5 4 3 4 1 4 7 5 5 5 5 3 4 7 3 1 3 7 6 3 5 1 8 20276 4 2 960 8 3 960 6 7 5 6 2 5 4 2 4 4 2 4 4 5 8 3 10 7 7 4 8 3 5 8 10 6 3 3 5 3 4 961 3 3 8 7 259 7 973 3 16 4 4 4 7 3 13 483 3 4 5 2 5 4 4 5 2 5 6 2 4 236 1452 4 4 1450 3 5 5 6 5 3 343 1 4 5 4 5 3 4 2 8 4 3 3 4 4 6 4 4 3 4 4 19 4 6 6 4 1452 3 6 5 4 484 9 2 2 2 6 4 2 9 7 7 5 5 1475 3 6 6 3 439 5 5 3 2 3 5 4 1 4 5 7 3 5 1146 6 6 4 1 5 3 4 3 8 5 4 4 3 5 3 4 5 2 4 3 83 8 7 5 5 5 5 9 2 5 3 5 3 4 3 1 3 5 5 957 6 3 5 1452 5 1452 4 5 4 7 5 7 3 3 2 4 5 4 4 960 6 6 6 3 5 3 3 4 3 6 2 2 9 1 7 7 22 5 3 4 4 3 4 5 6 7 4 4 3 8 965 6 4 7 2 483 6 2 3 2 2 2 3 5 2 2 4 6 5 6 1 5 3 4 3 3 4 4 3 3 11 5 5 4 3 5 3 7 5 3 6 4 4 197 3 5 8 4 4 6 2 7 2 4 3 2418 46 4 6 2914 5 5 4 21 7 2 4 3 8 2 8 7 6 9 6 4 3 99 3 2 2 3 7 2 7 5 7 4 7 4 4 1451 2 5 6 7 7 2 4 2 5 4 1 3 7 7 5 4 975 5 4 3 1015 3 6 4 3 4 3 4 2 6 7 3 4 4 8 3 4 5 5 3 4 4 3 3 5 3 5 4 3 5 6 7 4 7 6 2 4 2421 5 4 4 7 974 4 4 8 2 4 5 2 
To predecode: 0
Predecoding something: 0
Predecode request dropped: 0
sizeofblock_0 0
sizeofblock_1 43126
sizeofblock_2 85745
sizeofblock_3 0
sizeofblock_4 0
sizeofblock_5 0
sizeofblock_6 0
sizeofblock_7 0
sizeofblock_8 0
Variant_0 Correct: 1593727 Incorrect: 0 Accuracy: 1
Variant_1 Correct: 5672382 Incorrect: 0 Accuracy: 1
Variant_2 Correct: 0 Incorrect: 0 Accuracy: -nan
Variant_3 Correct: 0 Incorrect: 0 Accuracy: -nan
