
*** ChampSim Multicore Out-of-Order Simulator ***

Warmup Instructions: 50000000
Simulation Instructions: 50000000
Number of CPUs: 1
LLC sets: 2048
LLC ways: 16
Off-chip DRAM Size: 4096 MB Channels: 1 Width: 64-bit Data Rate: 6400 MT/s
CPU 0 runs ./micro_traces/srv714.trace.gz
.gz
ITLB has LRU replacement policy
DTLB has LRU replacement policy
STLB has LRU replacement policy
FDIP Prefetcher at L1I
L1I has LRU replacement policy
L1D has LRU replacement policy
Initialize SRRIP state for L2C
Initialize DRRIP state for LLC
Heartbeat_Variant_0 : 1015 0.330404 per_variant_size: 0 1015 0 0 0 0 0 0 0 
Heartbeat_Variant_1 : 2051 0.667643 per_variant_size: 0 375 1676 0 0 0 0 0 0 
Heartbeat_Variant_2 : 0 0 per_variant_size: 0 0 0 0 0 0 0 0 0 
Heartbeat_Variant_3 : 0 0 per_variant_size: 0 0 0 0 0 0 0 0 0 
Heartbeat_Variant_0_evicts 0 : 17956 1 : 26937 2 : 0 3 : 0 
Heartbeat_Variant_1_evicts 0 : 26852 1 : 0 2 : 0 3 : 0 
Heartbeat_Variant_2_evicts 0 : 0 1 : 0 2 : 0 3 : 0 
Heartbeat_Variant_3_evicts 0 : 0 1 : 0 2 : 0 3 : 0 
Heartbeat CPU 0 instructions: 10000000 cycles: 2795747 heartbeat IPC: 3.57686 cumulative IPC: 3.57686 (Simulation time: 0 hr 1 min 49 sec) 
Heartbeat_Variant_0 : 1006 0.327474 per_variant_size: 0 1006 0 0 0 0 0 0 0 
Heartbeat_Variant_1 : 2060 0.670573 per_variant_size: 0 319 1741 0 0 0 0 0 0 
Heartbeat_Variant_2 : 0 0 per_variant_size: 0 0 0 0 0 0 0 0 0 
Heartbeat_Variant_3 : 0 0 per_variant_size: 0 0 0 0 0 0 0 0 0 
Heartbeat_Variant_0_evicts 0 : 17647 1 : 25737 2 : 0 3 : 0 
Heartbeat_Variant_1_evicts 0 : 25746 1 : 0 2 : 0 3 : 0 
Heartbeat_Variant_2_evicts 0 : 0 1 : 0 2 : 0 3 : 0 
Heartbeat_Variant_3_evicts 0 : 0 1 : 0 2 : 0 3 : 0 
Heartbeat CPU 0 instructions: 20000000 cycles: 5591295 heartbeat IPC: 3.57712 cumulative IPC: 3.57699 (Simulation time: 0 hr 3 min 31 sec) 
Heartbeat_Variant_0 : 1008 0.328125 per_variant_size: 0 1008 0 0 0 0 0 0 0 
Heartbeat_Variant_1 : 2058 0.669922 per_variant_size: 0 335 1723 0 0 0 0 0 0 
Heartbeat_Variant_2 : 0 0 per_variant_size: 0 0 0 0 0 0 0 0 0 
Heartbeat_Variant_3 : 0 0 per_variant_size: 0 0 0 0 0 0 0 0 0 
Heartbeat_Variant_0_evicts 0 : 17521 1 : 25817 2 : 0 3 : 0 
Heartbeat_Variant_1_evicts 0 : 25815 1 : 0 2 : 0 3 : 0 
Heartbeat_Variant_2_evicts 0 : 0 1 : 0 2 : 0 3 : 0 
Heartbeat_Variant_3_evicts 0 : 0 1 : 0 2 : 0 3 : 0 
Heartbeat CPU 0 instructions: 30000002 cycles: 8385807 heartbeat IPC: 3.57844 cumulative IPC: 3.57747 (Simulation time: 0 hr 5 min 15 sec) 
Heartbeat_Variant_0 : 1008 0.328125 per_variant_size: 0 1008 0 0 0 0 0 0 0 
Heartbeat_Variant_1 : 2058 0.669922 per_variant_size: 0 334 1724 0 0 0 0 0 0 
Heartbeat_Variant_2 : 0 0 per_variant_size: 0 0 0 0 0 0 0 0 0 
Heartbeat_Variant_3 : 0 0 per_variant_size: 0 0 0 0 0 0 0 0 0 
Heartbeat_Variant_0_evicts 0 : 17409 1 : 25209 2 : 0 3 : 0 
Heartbeat_Variant_1_evicts 0 : 25209 1 : 0 2 : 0 3 : 0 
Heartbeat_Variant_2_evicts 0 : 0 1 : 0 2 : 0 3 : 0 
Heartbeat_Variant_3_evicts 0 : 0 1 : 0 2 : 0 3 : 0 
Heartbeat CPU 0 instructions: 40000003 cycles: 11182801 heartbeat IPC: 3.57527 cumulative IPC: 3.57692 (Simulation time: 0 hr 6 min 57 sec) 
Heartbeat_Variant_0 : 970 0.315755 per_variant_size: 0 970 0 0 0 0 0 0 0 
Heartbeat_Variant_1 : 2096 0.682292 per_variant_size: 0 367 1729 0 0 0 0 0 0 
Heartbeat_Variant_2 : 0 0 per_variant_size: 0 0 0 0 0 0 0 0 0 
Heartbeat_Variant_3 : 0 0 per_variant_size: 0 0 0 0 0 0 0 0 0 
Heartbeat_Variant_0_evicts 0 : 16537 1 : 23529 2 : 0 3 : 0 
Heartbeat_Variant_1_evicts 0 : 23567 1 : 0 2 : 0 3 : 0 
Heartbeat_Variant_2_evicts 0 : 0 1 : 0 2 : 0 3 : 0 
Heartbeat_Variant_3_evicts 0 : 0 1 : 0 2 : 0 3 : 0 
Heartbeat CPU 0 instructions: 50000001 cycles: 13979326 heartbeat IPC: 3.57587 cumulative IPC: 3.57671 (Simulation time: 0 hr 8 min 41 sec) 

Warmup complete CPU 0 instructions: 50000001 cycles: 13979326 (Simulation time: 0 hr 8 min 41 sec) 

Cycle: 20000000 FTQ IN: 56435507 FTQ occupancy: 18.0995 DECODE IN: 56435507 DECODE occupancy: 46.2509 ROB IN: 56435507 ROB occupancy: 279.038 ROB OUT: 56435505
Heartbeat_Variant_0 : 1014 0.330078 per_variant_size: 0 1014 0 0 0 0 0 0 0 
Heartbeat_Variant_1 : 2055 0.668945 per_variant_size: 0 335 1720 0 0 0 0 0 0 
Heartbeat_Variant_2 : 0 0 per_variant_size: 0 0 0 0 0 0 0 0 0 
Heartbeat_Variant_3 : 0 0 per_variant_size: 0 0 0 0 0 0 0 0 0 
Heartbeat_Variant_0_evicts 0 : 17305 1 : 25381 2 : 0 3 : 0 
Heartbeat_Variant_1_evicts 0 : 25337 1 : 0 2 : 0 3 : 0 
Heartbeat_Variant_2_evicts 0 : 0 1 : 0 2 : 0 3 : 0 
Heartbeat_Variant_3_evicts 0 : 0 1 : 0 2 : 0 3 : 0 
Heartbeat CPU 0 instructions: 60000002 cycles: 23276073 heartbeat IPC: 1.07565 cumulative IPC: 1.07565 (Simulation time: 0 hr 10 min 6 sec) 
Cycle: 30000000 FTQ IN: 10785022 FTQ occupancy: 6.89154 DECODE IN: 10785022 DECODE occupancy: 14.5342 ROB IN: 10785022 ROB occupancy: 119.951 ROB OUT: 10785007
Heartbeat_Variant_0 : 1015 0.330404 per_variant_size: 0 1015 0 0 0 0 0 0 0 
Heartbeat_Variant_1 : 2054 0.66862 per_variant_size: 0 350 1704 0 0 0 0 0 0 
Heartbeat_Variant_2 : 0 0 per_variant_size: 0 0 0 0 0 0 0 0 0 
Heartbeat_Variant_3 : 0 0 per_variant_size: 0 0 0 0 0 0 0 0 0 
Heartbeat_Variant_0_evicts 0 : 17472 1 : 25392 2 : 0 3 : 0 
Heartbeat_Variant_1_evicts 0 : 25391 1 : 0 2 : 0 3 : 0 
Heartbeat_Variant_2_evicts 0 : 0 1 : 0 2 : 0 3 : 0 
Heartbeat_Variant_3_evicts 0 : 0 1 : 0 2 : 0 3 : 0 
Heartbeat CPU 0 instructions: 70000003 cycles: 32641209 heartbeat IPC: 1.06779 cumulative IPC: 1.0717 (Simulation time: 0 hr 11 min 36 sec) 
Cycle: 40000000 FTQ IN: 10636887 FTQ occupancy: 6.55825 DECODE IN: 10636832 DECODE occupancy: 13.6209 ROB IN: 10636832 ROB occupancy: 113.692 ROB OUT: 10636830
Heartbeat_Variant_0 : 980 0.31901 per_variant_size: 0 980 0 0 0 0 0 0 0 
Heartbeat_Variant_1 : 2090 0.680339 per_variant_size: 0 338 1752 0 0 0 0 0 0 
Heartbeat_Variant_2 : 0 0 per_variant_size: 0 0 0 0 0 0 0 0 0 
Heartbeat_Variant_3 : 0 0 per_variant_size: 0 0 0 0 0 0 0 0 0 
Heartbeat_Variant_0_evicts 0 : 18427 1 : 26973 2 : 0 3 : 0 
Heartbeat_Variant_1_evicts 0 : 27008 1 : 0 2 : 0 3 : 0 
Heartbeat_Variant_2_evicts 0 : 0 1 : 0 2 : 0 3 : 0 
Heartbeat_Variant_3_evicts 0 : 0 1 : 0 2 : 0 3 : 0 
Heartbeat CPU 0 instructions: 80000003 cycles: 42034517 heartbeat IPC: 1.06459 cumulative IPC: 1.06932 (Simulation time: 0 hr 13 min 6 sec) 
Cycle: 50000000 FTQ IN: 10478415 FTQ occupancy: 6.57634 DECODE IN: 10478464 DECODE occupancy: 13.6019 ROB IN: 10478464 ROB occupancy: 112.573 ROB OUT: 10478479
Heartbeat_Variant_0 : 973 0.316732 per_variant_size: 0 973 0 0 0 0 0 0 0 
Heartbeat_Variant_1 : 2097 0.682617 per_variant_size: 0 339 1758 0 0 0 0 0 0 
Heartbeat_Variant_2 : 0 0 per_variant_size: 0 0 0 0 0 0 0 0 0 
Heartbeat_Variant_3 : 0 0 per_variant_size: 0 0 0 0 0 0 0 0 0 
Heartbeat_Variant_0_evicts 0 : 18238 1 : 26982 2 : 0 3 : 0 
Heartbeat_Variant_1_evicts 0 : 26989 1 : 0 2 : 0 3 : 0 
Heartbeat_Variant_2_evicts 0 : 0 1 : 0 2 : 0 3 : 0 
Heartbeat_Variant_3_evicts 0 : 0 1 : 0 2 : 0 3 : 0 
Heartbeat CPU 0 instructions: 90000000 cycles: 51548710 heartbeat IPC: 1.05106 cumulative IPC: 1.0647 (Simulation time: 0 hr 14 min 40 sec) 
Cycle: 60000000 FTQ IN: 10719843 FTQ occupancy: 6.59938 DECODE IN: 10719849 DECODE occupancy: 13.7699 ROB IN: 10719849 ROB occupancy: 114.99 ROB OUT: 10719851
Heartbeat_Variant_0 : 1018 0.33138 per_variant_size: 0 1018 0 0 0 0 0 0 0 
Heartbeat_Variant_1 : 2052 0.667969 per_variant_size: 0 327 1725 0 0 0 0 0 0 
Heartbeat_Variant_2 : 0 0 per_variant_size: 0 0 0 0 0 0 0 0 0 
Heartbeat_Variant_3 : 0 0 per_variant_size: 0 0 0 0 0 0 0 0 0 
Heartbeat_Variant_0_evicts 0 : 18094 1 : 26616 2 : 0 3 : 0 
Heartbeat_Variant_1_evicts 0 : 26571 1 : 0 2 : 0 3 : 0 
Heartbeat_Variant_2_evicts 0 : 0 1 : 0 2 : 0 3 : 0 
Heartbeat_Variant_3_evicts 0 : 0 1 : 0 2 : 0 3 : 0 
Heartbeat CPU 0 instructions: 100000002 cycles: 60879430 heartbeat IPC: 1.07173 cumulative IPC: 1.0661 (Simulation time: 0 hr 16 min 10 sec) 
Finished CPU 0 instructions: 50000001 cycles: 46900104 cumulative IPC: 1.0661 (Simulation time: 0 hr 16 min 10 sec) 

ChampSim completed all CPUs

Region of Interest Statistics

CPU 0 cumulative IPC: 1.0661 instructions: 50000001 cycles: 46900104
 Fetch stage stalled: 71.5345  Sim cycles: 46900104 fetch stall cycle: 33549739
 Empty decode stage: 58.6121  Sim cycles: 46900104 fetch stall cycle: 27489119
ITLB TOTAL     ACCESS:    5520096  HIT:    5028092  MISS:     492004  HIT %:     91.087  MISS %:    8.91296   MPKI: 9.84008
ITLB LOAD TRANSLATION INSTRUCTION	ACCESS:    5410105  HIT:    4918101  MISS:     492004  HIT %:    90.9058  MISS %:    9.09417  MPKI: 9.84008
ITLB TRANSLATION FROM L1D PREFETCHER INSTRUCTION	ACCESS:     109991  HIT:     109991  MISS:          0  HIT %:        100  MISS %:          0  MPKI: 0

ITLB AVERAGE MISS LATENCY: 9.04991 cycles
ITLB RQ	ACCESS:    7275763	FORWARD:          0	MERGED:    1235325	TO_CACHE:    6040438

DTLB TOTAL     ACCESS:    9366546  HIT:    8888064  MISS:     478482  HIT %:    94.8916  MISS %:    5.10841   MPKI: 9.56964
DTLB LOAD TRANSLATION DATA	ACCESS:    9366546  HIT:    8888064  MISS:     478482  HIT %:    94.8916  MISS %:    5.10841  MPKI: 9.56964

DTLB AVERAGE MISS LATENCY: 9.33344 cycles
DTLB RQ	ACCESS:   13625609	FORWARD:          0	MERGED:    4224572	TO_CACHE:    9401037

STLB TOTAL     ACCESS:    1223355  HIT:    1221147  MISS:       2208  HIT %:    99.8195  MISS %:   0.180487   MPKI: 0.04416
STLB LOAD TRANSLATION INSTRUCTION	ACCESS:     492004  HIT:     491725  MISS:        279  HIT %:    99.9433  MISS %:  0.0567069  MPKI: 0.00558
STLB LOAD TRANSLATION DATA	ACCESS:     478309  HIT:     476391  MISS:       1918  HIT %:     99.599  MISS %:   0.400996  MPKI: 0.03836
STLB TRANSLATION FROM L1D PREFETCHER DATA	ACCESS:     253042  HIT:     253031  MISS:         11  HIT %:    99.9957  MISS %:  0.0043471  MPKI: 0.00022

STLB AVERAGE MISS LATENCY: 71.9502 cycles
STLB RQ	ACCESS:    1359702	FORWARD:          0	MERGED:     136309	TO_CACHE:    1223393

STLB Hit, L1D data hit: 0
STLB Hit, L2C data hit: 0
STLB Hit, LLC data hit: 0
STLB Hit, LLC data miss: 0
STLB STLB hints to L2: 0
L1D TOTAL     ACCESS:   13404770  HIT:   12257515  MISS:    1147255  HIT %:    91.4414  MISS %:    8.55856   MPKI: 22.9451
L1D LOAD DATA	ACCESS:    6845281  HIT:    6088745  MISS:     756536  HIT %:    88.9481  MISS %:    11.0519  MPKI: 15.1307
L1D RFO DATA	ACCESS:    6225363  HIT:    5937683  MISS:     287680  HIT %:    95.3789  MISS %:     4.6211  MPKI: 5.7536
L1D PREFETCH DATA	ACCESS:     334126  HIT:     231087  MISS:     103039  HIT %:    69.1616  MISS %:    30.8384  MPKI: 2.06078

L1D PREFETCH  REQUESTED:     778668  ISSUED:     778668  USEFUL:      43271  USELESS:      70278
L1D USEFUL LOAD PREFETCHES:      43271 PREFETCH ISSUED TO LOWER LEVEL:     113617  ACCURACY: 38.085
 TIMELY PREFETCHES:      43271 LATE PREFETCHES: 10532 DROPPED PREFETCHES: 7
L1D AVERAGE MISS LATENCY: 342968 cycles
L1D RQ	ACCESS:   10907180	FORWARD:          0	MERGED:    3868677	TO_CACHE:    6874638
L1D WQ	ACCESS:    6919153	FORWARD:     164101	MERGED:     168182	TO_CACHE:    6750971
L1D PQ	ACCESS:     389452	FORWARD:          0	MERGED:          0	TO_CACHE:     389216

L1D UNIQUE REGIONS ACCESSED: 0
L1D REGIONS CONFLICTS: 0
L1D Cross Page Prefetch Requests: 5874
L1D Same Page Prefetch Requests: 782528
L1D ROI Sum of L1D PQ occupancy: 4931159
L1D PREFETCHES PUSHED FROM L2C: 0
L1I TOTAL     ACCESS:    6852067  HIT:    4100896  MISS:    2751171  HIT %:     59.849  MISS %:     40.151   MPKI: 55.0234
L1I LOAD INSTRUCTION	ACCESS:    6403992  HIT:    3652821  MISS:    2751171  HIT %:    57.0397  MISS %:    42.9603  MPKI: 55.0234
L1I PREFETCH INSTRUCTION	ACCESS:     448075  HIT:     448075  MISS:          0  HIT %:        100  MISS %:          0  MPKI: 0

L1I PREFETCH  REQUESTED:     977869  ISSUED:     977869  USEFUL:          0  USELESS:          0
L1I USEFUL LOAD PREFETCHES:          0 PREFETCH ISSUED TO LOWER LEVEL:          0  ACCURACY: -nan
 TIMELY PREFETCHES:          0 LATE PREFETCHES: 0 DROPPED PREFETCHES: 0
L1I AVERAGE MISS LATENCY: 17.7304 cycles
L1I RQ	ACCESS:    9470281	FORWARD:          0	MERGED:    2884925	TO_CACHE:    6585356
L1I PQ	ACCESS:     977869	FORWARD:          0	MERGED:     287462	TO_CACHE:     690407

L1BTB TOTAL     ACCESS:    5678674  HIT:    2063558  MISS:    3615116  HIT %:    36.3387  MISS %:    63.6613   MPKI: 72.3023
L1BTB BRANCH_DIRECT_JUMP	ACCESS:     545551 HIT:     144051 MISS:     401500 AVERAGE STALL: 34.8224 AVERAGE FETCH STALL: 19.3192 AVERAGE FETCH QUEUE STALL: 7.72221 AVERAGE DECODE STALL: 6.93241 AVERAGE EXECUTE STALL: 2.82471e+14
L1BTB BRANCH_INDIRECT	ACCESS:     182027 HIT:      65598 MISS:     116429 AVERAGE STALL: 89.1256 AVERAGE FETCH STALL: 14.7266 AVERAGE FETCH QUEUE STALL: 10.3388 AVERAGE DECODE STALL: 7.18794 AVERAGE EXECUTE STALL: 55.9307
L1BTB BRANCH_CONDITIONAL	ACCESS:    2723243 HIT:    1435989 MISS:    1287254 AVERAGE STALL: 35.8566 AVERAGE FETCH STALL: 21.8663 AVERAGE FETCH QUEUE STALL: 6.6434 AVERAGE DECODE STALL: 6.60603 AVERAGE EXECUTE STALL: 9.85956e+13
L1BTB BRANCH_DIRECT_CALL	ACCESS:     942383 HIT:     105810 MISS:     836573 AVERAGE STALL: 37.4903 AVERAGE FETCH STALL: 22.5811 AVERAGE FETCH QUEUE STALL: 7.2822 AVERAGE DECODE STALL: 6.87148 AVERAGE EXECUTE STALL: 9.10334e+13
L1BTB BRANCH_INDIRECT_CALL	ACCESS:     171545 HIT:      21616 MISS:     149929 AVERAGE STALL: 114.633 AVERAGE FETCH STALL: 18.9913 AVERAGE FETCH QUEUE STALL: 6.6953 AVERAGE DECODE STALL: 6.62137 AVERAGE EXECUTE STALL: 81.775
L1BTB BRANCH_RETURN	ACCESS:    1113925 HIT:     290494 MISS:     823431 AVERAGE STALL: 37.111 AVERAGE FETCH STALL: 19.187 AVERAGE FETCH QUEUE STALL: 6.32803 AVERAGE DECODE STALL: 6.43954 AVERAGE EXECUTE STALL: 1.43089e+14
L1BTB BRANCH_OTHER ACCESS:          0 HIT:          0 MISS:          0 AVERAGE STALL: -nan AVERAGE FETCH STALL: -nan AVERAGE FETCH QUEUE STALL: -nan AVERAGE DECODE STALL: -nan AVERAGE EXECUTE STALL: -nan
L1BTB TOTAL ROB OCCUPANCY AT BTB MISS: 16.3035

L2BTB TOTAL     ACCESS:    3589857  HIT:    2959613  MISS:     630244  HIT %:    82.4438  MISS %:    17.5562   MPKI: 12.6049
L2BTB BRANCH_DIRECT_JUMP	ACCESS:     397367 HIT:     336155 MISS:      61212 AVERAGE STALL: 34.8224 AVERAGE FETCH STALL: 19.3192 AVERAGE FETCH QUEUE STALL: 7.72221 AVERAGE DECODE STALL: 6.93241 AVERAGE EXECUTE STALL: 2.82471e+14
L2BTB BRANCH_INDIRECT	ACCESS:     106199 HIT:      95640 MISS:      10559 AVERAGE STALL: 89.1256 AVERAGE FETCH STALL: 14.7266 AVERAGE FETCH QUEUE STALL: 10.3388 AVERAGE DECODE STALL: 7.18794 AVERAGE EXECUTE STALL: 55.9307
L2BTB BRANCH_CONDITIONAL	ACCESS:    1287254 HIT:    1098983 MISS:     188271 AVERAGE STALL: 35.8566 AVERAGE FETCH STALL: 21.8663 AVERAGE FETCH QUEUE STALL: 6.6434 AVERAGE DECODE STALL: 6.60603 AVERAGE EXECUTE STALL: 9.85956e+13
L2BTB BRANCH_DIRECT_CALL	ACCESS:     836573 HIT:     633820 MISS:     202753 AVERAGE STALL: 37.4903 AVERAGE FETCH STALL: 22.5811 AVERAGE FETCH QUEUE STALL: 7.2822 AVERAGE DECODE STALL: 6.87148 AVERAGE EXECUTE STALL: 9.10334e+13
L2BTB BRANCH_INDIRECT_CALL	ACCESS:     140437 HIT:     100590 MISS:      39847 AVERAGE STALL: 114.633 AVERAGE FETCH STALL: 18.9913 AVERAGE FETCH QUEUE STALL: 6.6953 AVERAGE DECODE STALL: 6.62137 AVERAGE EXECUTE STALL: 81.775
L2BTB BRANCH_RETURN	ACCESS:     822027 HIT:     694425 MISS:     127602 AVERAGE STALL: 37.111 AVERAGE FETCH STALL: 19.187 AVERAGE FETCH QUEUE STALL: 6.32803 AVERAGE DECODE STALL: 6.43954 AVERAGE EXECUTE STALL: 1.43089e+14
L2BTB BRANCH_OTHER ACCESS:          0 HIT:          0 MISS:          0 AVERAGE STALL: -nan AVERAGE FETCH STALL: -nan AVERAGE FETCH QUEUE STALL: -nan AVERAGE DECODE STALL: -nan AVERAGE EXECUTE STALL: -nan
L2BTB TOTAL ROB OCCUPANCY AT BTB MISS: 93.5179

L2C TOTAL     ACCESS:    4511118  HIT:    4004503  MISS:     506615  HIT %:    88.7696  MISS %:    11.2304   MPKI: 10.1323
L2C LOAD INSTRUCTION	ACCESS:    2751171  HIT:    2453739  MISS:     297432  HIT %:    89.1889  MISS %:    10.8111  MPKI: 5.94864
L2C LOAD TRANSLATION INSTRUCTION	ACCESS:        314  HIT:         81  MISS:        233  HIT %:    25.7962  MISS %:    74.2038  MPKI: 0.00466
L2C LOAD DATA	ACCESS:     745981  HIT:     670123  MISS:      75858  HIT %:    89.8311  MISS %:    10.1689  MPKI: 1.51716
L2C RFO DATA	ACCESS:     287620  HIT:     241608  MISS:      46012  HIT %:    84.0025  MISS %:    15.9975  MPKI: 0.92024
L2C PREFETCH DATA	ACCESS:     199359  HIT:     127647  MISS:      71712  HIT %:    64.0287  MISS %:    35.9713  MPKI: 1.43424
L2C WRITEBACK DATA	ACCESS:     524619  HIT:     510684  MISS:      13935  HIT %:    97.3438  MISS %:    2.65621  MPKI: 0.2787
L2C LOAD TRANSLATION DATA	ACCESS:       2026  HIT:        602  MISS:       1424  HIT %:    29.7137  MISS %:    70.2863  MPKI: 0.02848
L2C TRANSLATION FROM L1D PREFETCHER DATA	ACCESS:         28  HIT:         19  MISS:          9  HIT %:    67.8571  MISS %:    32.1429  MPKI: 0.00018

L2C PREFETCH  REQUESTED:      93045  ISSUED:      93045  USEFUL:       8447  USELESS:      63642
L2C USEFUL LOAD PREFETCHES:       8447 PREFETCH ISSUED TO LOWER LEVEL:      72007  ACCURACY: 11.7308
 TIMELY PREFETCHES:       8447 LATE PREFETCHES: 295 DROPPED PREFETCHES: 0
L2C AVERAGE MISS LATENCY: 37.7347 cycles
L2C RQ	ACCESS:    3787180	FORWARD:          0	MERGED:          0	TO_CACHE:    3787143
L2C WQ	ACCESS:     524619	FORWARD:         37	MERGED:          0	TO_CACHE:     524619
L2C PQ	ACCESS:     206662	FORWARD:          0	MERGED:       3980	TO_CACHE:     202682

L2C Dense regions hint from L2: 0
PSCL5 TOTAL     ACCESS:       4436  HIT:       2218  MISS:       2218  HIT %:         50  MISS %:         50   MPKI: 0.04436
PSCL5 LOAD TRANSLATION INSTRUCTION	ACCESS:       4382  HIT:       2191  MISS:       2191  HIT %:         50  MISS %:         50  MPKI: 0.04382
PSCL5 TRANSLATION FROM L1D PREFETCHER INSTRUCTION	ACCESS:         54  HIT:         27  MISS:         27  HIT %:         50  MISS %:         50  MPKI: 0.00054


PSCL4 TOTAL     ACCESS:       4232  HIT:       2112  MISS:       2120  HIT %:    49.9055  MISS %:    50.0945   MPKI: 0.0424
PSCL4 LOAD TRANSLATION INSTRUCTION	ACCESS:       2809  HIT:       2085  MISS:        724  HIT %:    74.2257  MISS %:    25.7743  MPKI: 0.01448
PSCL4 TRANSLATION FROM L1D PREFETCHER INSTRUCTION	ACCESS:         41  HIT:         27  MISS:         14  HIT %:    65.8537  MISS %:    34.1463  MPKI: 0.00028
PSCL4 LOAD TRANSLATION DATA	ACCESS:       1369  HIT:          0  MISS:       1369  HIT %:          0  MISS %:        100  MPKI: 0.02738
PSCL4 TRANSLATION FROM L1D PREFETCHER DATA	ACCESS:         13  HIT:          0  MISS:         13  HIT %:          0  MISS %:        100  MPKI: 0.00026


PSCL3 TOTAL     ACCESS:       4332  HIT:       2162  MISS:       2170  HIT %:    49.9077  MISS %:    50.0923   MPKI: 0.0434
PSCL3 LOAD TRANSLATION INSTRUCTION	ACCESS:       2859  HIT:       2135  MISS:        724  HIT %:    74.6765  MISS %:    25.3235  MPKI: 0.01448
PSCL3 TRANSLATION FROM L1D PREFETCHER INSTRUCTION	ACCESS:         41  HIT:         27  MISS:         14  HIT %:    65.8537  MISS %:    34.1463  MPKI: 0.00028
PSCL3 LOAD TRANSLATION DATA	ACCESS:       1419  HIT:          0  MISS:       1419  HIT %:          0  MISS %:        100  MPKI: 0.02838
PSCL3 TRANSLATION FROM L1D PREFETCHER DATA	ACCESS:         13  HIT:          0  MISS:         13  HIT %:          0  MISS %:        100  MPKI: 0.00026


PSCL2 TOTAL     ACCESS:       4297  HIT:       2079  MISS:       2218  HIT %:    48.3826  MISS %:    51.6174   MPKI: 0.04436
PSCL2 LOAD TRANSLATION INSTRUCTION	ACCESS:       2337  HIT:       2053  MISS:        284  HIT %:    87.8477  MISS %:    12.1523  MPKI: 0.00568
PSCL2 TRANSLATION FROM L1D PREFETCHER INSTRUCTION	ACCESS:         26  HIT:         26  MISS:          0  HIT %:        100  MISS %:          0  MPKI: 0
PSCL2 LOAD TRANSLATION DATA	ACCESS:       1908  HIT:          0  MISS:       1908  HIT %:          0  MISS %:        100  MPKI: 0.03816
PSCL2 TRANSLATION FROM L1D PREFETCHER DATA	ACCESS:         26  HIT:          0  MISS:         26  HIT %:          0  MISS %:        100  MPKI: 0.00052


LLC TOTAL     ACCESS:     562351  HIT:     534269  MISS:      28082  HIT %:    95.0063  MISS %:    4.99368   MPKI: 0.56164
LLC LOAD INSTRUCTION	ACCESS:     297432  HIT:     296210  MISS:       1222  HIT %:    99.5891  MISS %:    0.41085  MPKI: 0.02444
LLC LOAD TRANSLATION INSTRUCTION	ACCESS:        233  HIT:        199  MISS:         34  HIT %:    85.4077  MISS %:    14.5923  MPKI: 0.00068
LLC LOAD DATA	ACCESS:      75591  HIT:      72154  MISS:       3437  HIT %:    95.4532  MISS %:    4.54684  MPKI: 0.06874
LLC RFO DATA	ACCESS:      45981  HIT:      32751  MISS:      13230  HIT %:    71.2272  MISS %:    28.7728  MPKI: 0.2646
LLC PREFETCH DATA	ACCESS:      72007  HIT:      62298  MISS:       9709  HIT %:    86.5166  MISS %:    13.4834  MPKI: 0.19418
LLC WRITEBACK DATA	ACCESS:      69674  HIT:      69312  MISS:        362  HIT %:    99.4804  MISS %:   0.519563  MPKI: 0.00724
LLC LOAD TRANSLATION DATA	ACCESS:       1424  HIT:       1336  MISS:         88  HIT %:    93.8202  MISS %:    6.17978  MPKI: 0.00176
LLC TRANSLATION FROM L1D PREFETCHER DATA	ACCESS:          9  HIT:          9  MISS:          0  HIT %:        100  MISS %:          0  MPKI: 0

LLC AVERAGE MISS LATENCY: 153.259 cycles
LLC RQ	ACCESS:     420673	FORWARD:          0	MERGED:          0	TO_CACHE:     420670
LLC WQ	ACCESS:      69674	FORWARD:          3	MERGED:          0	TO_CACHE:      69674
LLC PQ	ACCESS:      72007	FORWARD:          0	MERGED:          0	TO_CACHE:      72007

LLC Dense regions hint to LLC: 0

RAW hits: 1704670
Loads Generated: 12611850
Loads sent to L1D: 10907180
Stores Generated: 6919135
Stores sent to L1D: 6919153
Major fault: 0 Minor fault: 2606
Allocated PAGES: 2606

stream: 
stream:times selected: 1222828
stream:pref_filled: 125515
stream:pref_useful: 27850
stream:pref_late: 8421
stream:misses: 9225
stream:misses_by_poll: 0

CS: 
CS:times selected: 187602
CS:pref_filled: 70556
CS:pref_useful: 45849
CS:pref_late: 8553
CS:misses: 20746
CS:misses_by_poll: 5

CPLX: 
CPLX:times selected: 1034149
CPLX:pref_filled: 23692
CPLX:pref_useful: 7124
CPLX:pref_late: 3450
CPLX:misses: 119213
CPLX:misses_by_poll: 0

NL_L1: 
NL:times selected: 12536
NL:pref_filled: 1450
NL:pref_useful: 145
NL:pref_late: 270
NL:misses: 1590
NL:misses_by_poll: 0

total selections: 2457115
total_filled: 103039
total_useful: 43271
total_late: 22417
total_polluted: 5
total_misses_after_warmup: 785894
conflicts: 5648330

test: 118897

DRAM Statistics
 CHANNEL 0
 RQ ROW_BUFFER_HIT:      10314  ROW_BUFFER_MISS:      17399
 DBUS_CONGESTED:         18
 WQ ROW_BUFFER_HIT:       1391  ROW_BUFFER_MISS:      11496  FULL:          0

 AVG_CONGESTED_CYCLE: 5

CPU 0 Branch Prediction Accuracy: 99.8128% MPKI: 0.3428 Average ROB Occupancy at Mispredict: 127.844
Branch types
NOT_BRANCH: 40843324 81.6866%
BRANCH_DIRECT_JUMP: 545551 1.0911%
BRANCH_INDIRECT: 182027 0.364054%
BRANCH_CONDITIONAL: 6200949 12.4019%
BRANCH_DIRECT_CALL: 942383 1.88477%
BRANCH_INDIRECT_CALL: 171545 0.34309%
BRANCH_RETURN: 1113925 2.22785%
BRANCH_OTHER: 0 0%

DRAM PAGES: 1048576
Allocated PAGES: 2606
Average_ROB_Occupancy: 116.561
Average_Decode_Occupancy: 13.9189
Average_FTQ_Occupancy: 6.66152
Indirect max targets: 14 Average targets: 1.17296
Branch_type:  BRANCH_DIRECT_JUMP:  Count Percentage: 4.13147 5.06704 4.34755 7.19122 3.02757 6.33825 1.50324 68.3937 
Branch_type:  BRANCH_INDIRECT:  Count Percentage: 11.7616 3.38966 2.50461 9.68306 3.35121 2.81474 0.938063 65.557 
Branch_type:  BRANCH_CONDITIONAL:  Count Percentage: 29.3369 2.20045 1.52847 4.0241 2.19841 4.26652 0.495614 55.9496 
Branch_type:  BRANCH_DIRECT_CALL:  Count Percentage: 0.388191 1.78932 0.725926 3.43508 3.04408 2.61696 0.725873 87.2746 
Branch_type:  BRANCH_INDIRECT_CALL:  Count Percentage: 9.55006 0 2.99423 0.000874228 1.13766 1.71494 0.995163 83.6071 
Branch_type:  BRANCH_RETURN:  Count Percentage: 10.4368 1.51259 1.1582 3.42735 4.46431 4.63436 0.589292 73.7771 
Branch_type:  BRANCH_DIRECT_JUMP:  Total Count: 45065 55270 47422 78440 33024 69136 16397 746021 
Branch_type:  BRANCH_INDIRECT:  Total Count: 42818 12340 9118 35251 12200 10247 3415 238659 
Branch_type:  BRANCH_CONDITIONAL:  Total Count: 3636818 272784 189481 498857 272531 528910 61440 6935922 
Branch_type:  BRANCH_DIRECT_CALL:  Total Count: 7309 33690 13668 64677 57315 49273 13667 1643237 
Branch_type:  BRANCH_INDIRECT_CALL:  Total Count: 32772 0 10275 3 3904 5885 3415 286906 
Branch_type:  BRANCH_RETURN:  Total Count: 232417 33684 25792 76324 99416 103203 13123 1642949 
Number of unique branch instructions: 11196
Upper 32 bits: 
aaaa
ffff
ffff0000
Unique upper 32 bits: 3
Unique upper 36 bits: 3
Unique upper 40 bits: 5
Unique upper 44 bits: 32
Unique upper 48 bits: 160
Variant_0 : 1018 0.33138
Variant_1 : 2052 0.667969
Variant_2 : 0 0
Variant_3 : 0 0
Offset_3 4624
Offset_4 274
Offset_5 506
Offset_6 569
Offset_7 655
Offset_8 597
Offset_9 563
Offset_10 460
Offset_11 366
Offset_12 325
Offset_13 241
Offset_14 260
Offset_15 213
Offset_16 260
Offset_17 176
Offset_18 152
Offset_19 270
Offset_20 146
Offset_21 241
Offset_22 425
Offset_23 241
Offset_24 373
Offset_25 114
Offset_47 90
decode_dispatch_called: 19477215 41.5292
Dispatch_width: 0 9323648 47.8695 19.8798
Dispatch_width: 1 552698 2.83766 1.17846
Dispatch_width: 2 698548 3.58649 1.48944
Dispatch_width: 3 450664 2.3138 0.960902
Dispatch_width: 4 1846989 9.48282 3.93813
Dispatch_width: 5 317975 1.63255 0.677984
Dispatch_width: 6 6286693 32.2772 13.4044
Empty_decode_cycles: 27422889 58.4708
ROB_full_cycles: 2475075 5.27733
Starvation_cycles_per_kilo_instr: 381.383
Starvation_cycles_per_kilo_instr_3: 359.734
Starvation_cycles_per_kilo_instr_0: 342.715
Branch_type_1  (3,1)  (4,10)  (5,40)  (6,80)  (7,127)  (8,153)  (9,147)  (10,118)  (11,79)  (12,55)  (13,12)  (14,2)  (15,3)  (16,4)  (18,1)  (19,5)  (20,2)  (21,1)  (22,3)  (23,2)  (24,10)  (25,12) 
Branch_type_2  (3,1)  (4,1)  (5,1)  (8,4)  (9,4)  (10,1)  (12,1)  (13,1)  (14,1)  (16,3)  (17,2)  (20,2)  (21,2)  (23,5)  (24,1)  (47,40) 
Branch_type_3  (3,4622)  (4,263)  (5,461)  (6,471)  (7,494)  (8,366)  (9,305)  (10,183)  (11,146)  (12,62)  (13,11) 
Branch_type_4  (6,4)  (7,8)  (8,28)  (9,65)  (10,76)  (11,75)  (12,114)  (13,102)  (14,119)  (15,102)  (16,119)  (17,80)  (18,65)  (19,130)  (20,75)  (21,127)  (22,224)  (23,136)  (24,223)  (25,98) 
Branch_type_5  (8,4)  (9,1)  (10,4)  (11,5)  (12,3)  (13,14)  (14,16)  (15,12)  (16,22)  (17,13)  (18,23)  (19,14)  (20,11)  (21,13)  (22,45)  (23,26)  (24,38) 
Branch_type_6  (5,4)  (6,14)  (7,26)  (8,42)  (9,41)  (10,78)  (11,61)  (12,90)  (13,101)  (14,122)  (15,96)  (16,112)  (17,81)  (18,63)  (19,121)  (20,56)  (21,98)  (22,153)  (23,72)  (24,101)  (25,4)  (47,50) 
Unique trigger count: 
Variant_0_evicts_0 : 0
Variant_0_evicts_1 : 0
Variant_0_evicts_2 : 0
Variant_0_evicts_3 : 0
Variant_1_evicts_0 : 0
Variant_1_evicts_1 : 0
Variant_1_evicts_2 : 0
Variant_1_evicts_3 : 0
Variant_2_evicts_0 : 0
Variant_2_evicts_1 : 0
Variant_2_evicts_2 : 0
Variant_2_evicts_3 : 0
Variant_3_evicts_0 : 0
Variant_3_evicts_1 : 0
Variant_3_evicts_2 : 0
Variant_3_evicts_3 : 0
BTB PER SET UNIQUE ADDR: 15 24 11 19 18 20 15 17 11 20 12 19 24 17 17 16 15 11 18 17 18 16 18 19 16 22 18 18 19 18 14 19 20 7 15 15 14 16 12 17 14 15 18 20 16 12 20 13 23 18 22 14 14 18 16 8 11 13 13 22 16 23 20 15 18 23 17 16 25 19 12 16 23 16 11 10 12 22 12 22 20 9 19 20 21 21 16 19 17 29 14 12 19 16 9 22 17 12 22 20 29 25 18 18 19 14 18 19 12 16 15 26 21 16 14 12 20 18 15 22 21 14 18 13 20 14 10 18 25 11 13 22 18 16 14 22 12 22 14 22 14 23 18 16 18 18 18 13 12 17 18 20 15 15 14 28 20 19 19 19 14 17 13 19 18 17 18 14 21 12 14 21 18 19 20 15 15 14 17 22 14 16 14 20 21 22 10 19 16 15 23 15 11 19 16 14 15 19 15 15 24 15 13 18 12 18 18 17 16 16 14 24 20 22 18 18 13 22 12 24 13 16 11 15 18 17 20 21 11 22 16 9 18 20 20 24 18 16 20 14 16 17 20 16 11 15 16 20 19 15 25 16 16 11 23 17 14 14 15 12 15 14 9 15 17 12 12 14 17 17 13 20 13 12 13 13 17 18 19 18 9 19 13 16 19 14 14 29 22 22 16 11 16 25 11 18 18 15 15 18 15 15 14 26 18 27 17 19 22 18 18 20 14 26 14 11 22 16 18 22 16 16 12 17 17 23 13 9 19 12 15 22 16 16 17 21 20 18 12 31 14 18 11 22 21 18 13 17 13 17 15 13 13 20 14 24 17 17 11 12 18 19 10 27 14 20 13 19 14 22 19 14 20 20 11 26 19 23 14 16 17 16 10 13 15 18 20 23 18 16 23 12 23 26 13 14 13 14 16 18 18 20 19 21 17 20 17 19 20 20 14 13 13 19 13 18 18 18 23 23 15 18 16 22 18 17 19 17 20 19 20 18 13 18 22 19 23 12 16 19 18 17 17 23 28 14 13 17 22 21 22 29 22 14 26 32 22 21 16 25 13 18 14 20 23 15 15 19 21 20 17 16 15 15 19 24 15 23 13 16 26 23 16 19 13 21 22 28 23 19 16 21 15 13 11 14 21 23 14 19 14 25 17 22 13 14 17 29 22 22 17 29 19 17 14 22 18 22 11 10 15 19 19 13 20 22 21 11 14 22 22 23 19 15 17 22 15 18 22 18 17 14 19 16 19 22 10 23 13 17 17 24 18 14 14 18 18 18 17 21 19 26 19 14 18 19 10 26 21 23 19 22 24 23 19 22 20 20 15 13 15 23 13 17 19 21 13 18 27 20 15 18 13 14 19 15 12 18 19 15 18 16 15 11 17 17 28 16 13 23 24 20 15 14 9 27 13 23 17 17 23 17 12 14 14 22 17 24 15 21 12 20 21 17 20 18 18 22 10 16 21 12 19 28 19 18 17 19 28 18 15 17 12 13 18 14 18 23 17 17 14 9 21 24 13 19 17 15 10 14 21 17 16 19 29 14 21 16 20 24 21 16 15 20 17 14 19 21 22 24 19 21 16 11 12 17 12 20 16 22 12 18 23 23 14 14 15 16 16 14 16 17 15 17 16 16 22 15 15 23 14 16 17 18 16 14 18 12 17 14 21 17 17 14 13 15 20 22 28 15 15 15 16 16 20 19 16 17 19 12 19 18 20 15 16 15 25 19 13 10 15 12 12 18 17 21 13 19 16 24 17 23 12 18 15 11 20 18 16 21 15 18 22 14 20 23 12 22 14 12 14 8 19 23 17 26 19 14 23 18 24 18 30 21 26 17 20 13 19 16 21 23 26 24 14 24 23 23 11 24 18 20 11 16 20 15 14 16 16 19 19 17 19 19 10 23 18 17 21 15 21 17 16 13 17 20 15 21 19 19 18 15 15 13 19 24 21 19 22 19 15 17 13 16 23 12 20 17 21 12 16 18 22 17 18 7 19 14 15 19 22 7 19 21 17 20 21 17 19 18 21 15 18 15 17 18 24 17 12 17 17 19 16 19 12 19 16 21 14 24 16 17 17 18 15 17 30 19 20 16 20 17 12 16 18 15 10 20 19 15 24 24 21 15 15 24 18 14 21 17 12 23 17 20 15 18 18 21 13 14 13 20 18 21 16 18 23 20 23 14 23 19 23 19 22 21 20 23 14 16 18 21 19 15 23 17 19 22 24 26 17 23 21 18 17 25 31 16 20 21 21 22 21 18 18 16 19 16 24 14 23 24 14 19 17 23 9 23 18 18 22 18 17 15 13 14 11 14 11 15 18 26 15 12 
BTB PER SET COUNT: 1485 1280 2178 1094 1904 1452 882 807 1758 1314 558 1159 1661 1348 1001 538 1256 1420 1446 949 1458 1401 884 1094 898 1686 798 1343 1628 1645 555 1015 1449 260 992 1083 817 592 620 2168 749 944 1010 1912 1960 635 1119 898 1946 715 1673 1127 873 1248 1396 433 496 993 787 1301 735 2695 1499 1118 1377 2059 740 1757 2080 1636 1549 1269 2135 907 431 627 513 1796 887 1547 2069 215 1567 1233 1023 1077 440 1597 1965 2777 655 888 1350 968 200 1429 732 622 1340 2317 2729 1871 1129 903 2760 509 1382 1229 2274 802 991 1720 2309 1045 1167 907 1263 1465 1533 1807 1889 803 1432 448 620 494 487 1700 2221 1333 888 2459 1140 1016 1291 1525 870 1235 599 1543 1039 1701 1388 900 1043 951 1507 785 540 1422 1221 1110 1444 872 554 2358 2155 1358 1179 1479 682 1430 1218 1142 793 1798 916 507 1374 1594 574 900 1326 956 1532 725 562 654 1609 2186 1236 629 603 1339 1508 2006 309 1148 1279 1050 1346 653 414 1460 799 632 907 2183 861 518 1299 1083 1853 880 710 1455 1169 989 1094 1952 1249 1230 647 4625 1219 1604 958 1784 867 1836 648 1007 582 939 1195 1056 970 1506 697 1836 718 411 739 1177 1347 11024 1101 1213 1342 545 2143 1341 2227 1609 1282 909 861 1357 1091 1225 1385 585 686 545 1495 1415 794 986 857 697 1174 698 294 1363 1031 417 644 872 903 966 783 1115 409 565 798 828 1114 888 1034 1579 133 1546 987 1325 1263 1046 472 1520 1378 1316 1055 309 468 1783 461 995 1639 831 957 1278 474 947 277 2133 1093 1808 1000 1785 1629 1072 1416 1136 684 1901 2501 1307 1516 1004 1476 2007 1055 2509 517 827 474 1890 821 460 1423 427 695 1927 1292 500 974 1857 816 1601 758 2578 805 1773 808 1448 1620 1126 605 1048 578 1266 734 1031 581 1515 545 1116 1046 1384 542 655 962 1471 646 2015 802 1837 429 1131 771 1350 1324 848 1294 1817 203 1540 759 1553 788 1655 1652 1119 355 441 778 695 1587 1870 604 668 1970 342 1479 1776 521 635 848 938 1373 2125 1375 966 1683 1040 899 1379 1035 1411 897 2133 542 284 651 1225 664 785 1026 3994 1862 1276 808 914 1566 1227 1025 1215 1687 1195 1012 820 2088 771 401 1333 1926 1723 1218 829 1003 1160 1612 1347 992 1842 2491 1063 1700 1311 1896 1379 1326 2977 1724 948 1732 2292 1388 941 648 2070 746 1078 607 1190 1469 955 8923 1082 1626 1371 1225 1050 772 1001 1022 1877 1018 2355 966 865 2045 1798 1027 1099 1542 1209 1531 1990 2276 1080 1154 1433 5042 637 339 1304 2258 1523 1083 923 668 1511 989 1903 1377 600 683 2402 1962 1200 1193 2904 1877 1337 663 2030 649 1631 460 320 551 1108 1035 492 1339 1991 1871 1253 892 3426 2315 1400 1436 915 1182 1774 884 2105 1370 1409 960 729 990 1076 1039 1543 96 1345 861 1582 898 1456 1079 846 966 486 1180 635 1029 1560 786 1985 694 781 1791 968 566 2100 1742 1914 1836 1794 1373 1602 1210 1532 1530 1531 832 892 681 1524 522 2987 860 1543 512 815 2472 868 824 1307 603 512 1079 985 355 1528 1295 723 740 1149 1279 760 1305 1223 2216 1769 468 1061 1831 1942 892 417 283 1935 411 1531 1990 1080 1825 805 488 857 792 1616 750 2299 820 1738 282 1683 1719 954 723 1268 1453 1038 440 1183 1535 807 1345 1768 2157 1766 867 1541 2688 684 591 1174 496 973 2369 698 1121 1736 828 774 1319 254 1567 1737 9008 1100 1034 1420 802 1352 1103 920 1497 1425 2460 1750 1528 861 1489 2270 1411 1305 1404 1244 2197 950 1254 1161 1651 2202 703 1974 1415 638 2488 954 868 2359 1124 1510 669 1116 2259 1811 665 1067 677 1011 554 804 986 1550 1256 987 1115 1033 1958 851 749 1666 1339 1465 806 1173 670 825 1008 1045 1017 1860 1795 1218 1183 1002 666 2885 1458 1474 2805 546 1157 422 940 703 2042 1484 1466 821 1582 757 1762 918 1785 906 2554 794 1476 1498 747 286 1297 527 267 1285 1567 1846 604 1495 402 1554 858 1742 759 1175 1227 663 1361 1914 667 1649 2442 1477 1733 754 1126 1325 769 1207 457 367 664 924 1488 1428 1027 2403 1018 547 1191 1342 1980 831 2199 1974 1634 897 1549 752 1543 946 964 3785 1722 1657 878 2106 1388 3193 682 2582 1221 1824 787 1136 2236 764 876 878 1052 2070 1243 1576 1315 1363 396 2492 1089 996 1422 751 1602 1238 774 751 727 966 1132 1621 1067 4618 1652 1132 388 914 1440 1865 1527 1468 1901 1121 1458 754 747 704 2063 411 1083 622 1480 704 1295 1210 1274 873 1145 8 1029 968 2403 1365 1674 96 1104 1158 1161 1390 712 1067 1243 1757 1898 1271 2603 475 857 1229 1985 898 1017 843 1553 1020 840 1939 687 1512 1005 1872 842 1689 1337 1654 1085 1686 966 1497 3151 1776 1077 1126 1194 1513 300 1428 958 999 135 1514 868 884 1654 1719 976 713 828 2455 1238 902 1397 1335 471 2211 1245 1170 842 1343 1114 1493 848 936 589 1672 1578 2092 936 904 1342 1379 1576 733 1517 1139 1402 1094 1754 803 1819 1918 466 900 1196 1885 1081 661 1161 1161 1471 1417 1682 2403 1251 2035 1786 1385 922 1810 2819 1107 1606 1574 1208 3114 1786 752 1099 929 1064 2347 931 1324 1648 2177 1091 1586 808 1127 339 1796 1495 1065 1882 1879 1050 1081 684 777 843 1093 352 412 1035 2813 696 711 
To predecode: 0
Predecoding something: 0
Predecode request dropped: 0
sizeofblock_0 0
sizeofblock_1 298536
sizeofblock_2 564618
sizeofblock_3 0
sizeofblock_4 0
sizeofblock_5 0
sizeofblock_6 0
sizeofblock_7 0
sizeofblock_8 0
Variant_0 Correct: 1225650 Incorrect: 0 Accuracy: 1
Variant_1 Correct: 4963687 Incorrect: 0 Accuracy: 1
Variant_2 Correct: 0 Incorrect: 0 Accuracy: -nan
Variant_3 Correct: 0 Incorrect: 0 Accuracy: -nan
