
*** ChampSim Multicore Out-of-Order Simulator ***

Warmup Instructions: 50000000
Simulation Instructions: 50000000
Number of CPUs: 1
LLC sets: 2048
LLC ways: 16
Off-chip DRAM Size: 4096 MB Channels: 1 Width: 64-bit Data Rate: 6400 MT/s
CPU 0 runs ./micro_traces/srv737.trace.gz
.gz
ITLB has LRU replacement policy
DTLB has LRU replacement policy
STLB has LRU replacement policy
FDIP Prefetcher at L1I
L1I has LRU replacement policy
L1D has LRU replacement policy
Initialize SRRIP state for L2C
Initialize DRRIP state for LLC
Heartbeat_Variant_0 : 1070 0.26123 per_variant_size: 0 1070 0 0 0 0 0 0 0 
Heartbeat_Variant_1 : 1223 0.298584 per_variant_size: 0 839 384 0 0 0 0 0 0 
Heartbeat_Variant_2 : 1537 0.375244 per_variant_size: 0 917 429 133 58 0 0 0 0 
Heartbeat_Variant_3 : 0 0 per_variant_size: 0 0 0 0 0 0 0 0 0 
Heartbeat_Variant_0_evicts 0 : 13643 1 : 9788 2 : 12118 3 : 0 
Heartbeat_Variant_1_evicts 0 : 9758 1 : 0 2 : 11464 3 : 0 
Heartbeat_Variant_2_evicts 0 : 12057 1 : 11424 2 : 0 3 : 0 
Heartbeat_Variant_3_evicts 0 : 0 1 : 0 2 : 0 3 : 0 
Heartbeat CPU 0 instructions: 10000002 cycles: 2794091 heartbeat IPC: 3.57898 cumulative IPC: 3.57898 (Simulation time: 0 hr 2 min 16 sec) 
Heartbeat_Variant_0 : 1092 0.266602 per_variant_size: 0 1092 0 0 0 0 0 0 0 
Heartbeat_Variant_1 : 1207 0.294678 per_variant_size: 0 817 390 0 0 0 0 0 0 
Heartbeat_Variant_2 : 1588 0.387695 per_variant_size: 0 936 447 140 65 0 0 0 0 
Heartbeat_Variant_3 : 0 0 per_variant_size: 0 0 0 0 0 0 0 0 0 
Heartbeat_Variant_0_evicts 0 : 13566 1 : 9501 2 : 11700 3 : 0 
Heartbeat_Variant_1_evicts 0 : 9575 1 : 0 2 : 11338 3 : 0 
Heartbeat_Variant_2_evicts 0 : 11612 1 : 11449 2 : 0 3 : 0 
Heartbeat_Variant_3_evicts 0 : 0 1 : 0 2 : 0 3 : 0 
Heartbeat CPU 0 instructions: 20000000 cycles: 5587785 heartbeat IPC: 3.57949 cumulative IPC: 3.57924 (Simulation time: 0 hr 4 min 27 sec) 
Heartbeat_Variant_0 : 1088 0.265625 per_variant_size: 0 1088 0 0 0 0 0 0 0 
Heartbeat_Variant_1 : 1247 0.304443 per_variant_size: 0 845 402 0 0 0 0 0 0 
Heartbeat_Variant_2 : 1553 0.37915 per_variant_size: 0 903 421 161 68 0 0 0 0 
Heartbeat_Variant_3 : 0 0 per_variant_size: 0 0 0 0 0 0 0 0 0 
Heartbeat_Variant_0_evicts 0 : 13784 1 : 9842 2 : 12051 3 : 0 
Heartbeat_Variant_1_evicts 0 : 9773 1 : 0 2 : 11174 3 : 0 
Heartbeat_Variant_2_evicts 0 : 12124 1 : 11066 2 : 0 3 : 0 
Heartbeat_Variant_3_evicts 0 : 0 1 : 0 2 : 0 3 : 0 
Heartbeat CPU 0 instructions: 30000000 cycles: 8381525 heartbeat IPC: 3.57943 cumulative IPC: 3.5793 (Simulation time: 0 hr 6 min 32 sec) 
Heartbeat_Variant_0 : 1091 0.266357 per_variant_size: 0 1091 0 0 0 0 0 0 0 
Heartbeat_Variant_1 : 1248 0.304688 per_variant_size: 0 855 393 0 0 0 0 0 0 
Heartbeat_Variant_2 : 1553 0.37915 per_variant_size: 0 899 439 152 63 0 0 0 0 
Heartbeat_Variant_3 : 0 0 per_variant_size: 0 0 0 0 0 0 0 0 0 
Heartbeat_Variant_0_evicts 0 : 13908 1 : 9905 2 : 12193 3 : 0 
Heartbeat_Variant_1_evicts 0 : 9866 1 : 0 2 : 11648 3 : 0 
Heartbeat_Variant_2_evicts 0 : 12230 1 : 11609 2 : 0 3 : 0 
Heartbeat_Variant_3_evicts 0 : 0 1 : 0 2 : 0 3 : 0 
Heartbeat CPU 0 instructions: 40000002 cycles: 11176013 heartbeat IPC: 3.57847 cumulative IPC: 3.57909 (Simulation time: 0 hr 8 min 30 sec) 
Heartbeat_Variant_0 : 1074 0.262207 per_variant_size: 0 1074 0 0 0 0 0 0 0 
Heartbeat_Variant_1 : 1242 0.303223 per_variant_size: 0 846 396 0 0 0 0 0 0 
Heartbeat_Variant_2 : 1577 0.38501 per_variant_size: 0 931 423 160 63 0 0 0 0 
Heartbeat_Variant_3 : 0 0 per_variant_size: 0 0 0 0 0 0 0 0 0 
Heartbeat_Variant_0_evicts 0 : 13128 1 : 9222 2 : 11609 3 : 0 
Heartbeat_Variant_1_evicts 0 : 9235 1 : 0 2 : 10825 3 : 0 
Heartbeat_Variant_2_evicts 0 : 11613 1 : 10844 2 : 0 3 : 0 
Heartbeat_Variant_3_evicts 0 : 0 1 : 0 2 : 0 3 : 0 
Heartbeat CPU 0 instructions: 50000000 cycles: 13968592 heartbeat IPC: 3.58092 cumulative IPC: 3.57946 (Simulation time: 0 hr 10 min 26 sec) 

Warmup complete CPU 0 instructions: 50000004 cycles: 13968593 (Simulation time: 0 hr 10 min 26 sec) 

*** Reached end of trace for Core: 0 Repeating trace: ./micro_traces/srv737.trace.gz
Cycle: 20000000 FTQ IN: 56538764 FTQ occupancy: 17.9879 DECODE IN: 56538762 DECODE occupancy: 45.8928 ROB IN: 56538758 ROB occupancy: 276.934 ROB OUT: 56538720
Heartbeat_Variant_0 : 1077 0.262939 per_variant_size: 0 1077 0 0 0 0 0 0 0 
Heartbeat_Variant_1 : 1221 0.298096 per_variant_size: 0 806 415 0 0 0 0 0 0 
Heartbeat_Variant_2 : 1596 0.389648 per_variant_size: 0 936 439 157 64 0 0 0 0 
Heartbeat_Variant_3 : 0 0 per_variant_size: 0 0 0 0 0 0 0 0 0 
Heartbeat_Variant_0_evicts 0 : 13417 1 : 9846 2 : 11494 3 : 0 
Heartbeat_Variant_1_evicts 0 : 9853 1 : 0 2 : 11540 3 : 0 
Heartbeat_Variant_2_evicts 0 : 11484 1 : 11568 2 : 0 3 : 0 
Heartbeat_Variant_3_evicts 0 : 0 1 : 0 2 : 0 3 : 0 
Heartbeat CPU 0 instructions: 60000000 cycles: 23181078 heartbeat IPC: 1.08548 cumulative IPC: 1.08548 (Simulation time: 0 hr 12 min 23 sec) 
Cycle: 30000000 FTQ IN: 10876905 FTQ occupancy: 6.32922 DECODE IN: 10876907 DECODE occupancy: 13.1087 ROB IN: 10876868 ROB occupancy: 112.658 ROB OUT: 10876558
Heartbeat_Variant_0 : 1075 0.262451 per_variant_size: 0 1075 0 0 0 0 0 0 0 
Heartbeat_Variant_1 : 1265 0.308838 per_variant_size: 0 833 432 0 0 0 0 0 0 
Heartbeat_Variant_2 : 1557 0.380127 per_variant_size: 0 899 426 172 60 0 0 0 0 
Heartbeat_Variant_3 : 0 0 per_variant_size: 0 0 0 0 0 0 0 0 0 
Heartbeat_Variant_0_evicts 0 : 13231 1 : 9815 2 : 11839 3 : 0 
Heartbeat_Variant_1_evicts 0 : 9791 1 : 0 2 : 11288 3 : 0 
Heartbeat_Variant_2_evicts 0 : 11865 1 : 11222 2 : 0 3 : 0 
Heartbeat_Variant_3_evicts 0 : 0 1 : 0 2 : 0 3 : 0 
Heartbeat CPU 0 instructions: 70000001 cycles: 32540792 heartbeat IPC: 1.06841 cumulative IPC: 1.07688 (Simulation time: 0 hr 14 min 15 sec) 
Cycle: 40000000 FTQ IN: 10589256 FTQ occupancy: 6.45311 DECODE IN: 10589253 DECODE occupancy: 13.2789 ROB IN: 10589296 ROB occupancy: 110.695 ROB OUT: 10589582
Heartbeat_Variant_0 : 1066 0.260254 per_variant_size: 0 1066 0 0 0 0 0 0 0 
Heartbeat_Variant_1 : 1234 0.30127 per_variant_size: 0 846 388 0 0 0 0 0 0 
Heartbeat_Variant_2 : 1597 0.389893 per_variant_size: 0 918 462 155 62 0 0 0 0 
Heartbeat_Variant_3 : 0 0 per_variant_size: 0 0 0 0 0 0 0 0 0 
Heartbeat_Variant_0_evicts 0 : 14027 1 : 9972 2 : 11987 3 : 0 
Heartbeat_Variant_1_evicts 0 : 9907 1 : 0 2 : 11443 3 : 0 
Heartbeat_Variant_2_evicts 0 : 12061 1 : 11409 2 : 0 3 : 0 
Heartbeat_Variant_3_evicts 0 : 0 1 : 0 2 : 0 3 : 0 
Heartbeat CPU 0 instructions: 80000002 cycles: 41821973 heartbeat IPC: 1.07745 cumulative IPC: 1.07707 (Simulation time: 0 hr 16 min 14 sec) 
Cycle: 50000000 FTQ IN: 10843450 FTQ occupancy: 6.4323 DECODE IN: 10843383 DECODE occupancy: 13.289 ROB IN: 10843327 ROB occupancy: 110.98 ROB OUT: 10843041
Heartbeat_Variant_0 : 1072 0.261719 per_variant_size: 0 1072 0 0 0 0 0 0 0 
Heartbeat_Variant_1 : 1250 0.305176 per_variant_size: 0 843 407 0 0 0 0 0 0 
Heartbeat_Variant_2 : 1575 0.384521 per_variant_size: 0 914 440 163 58 0 0 0 0 
Heartbeat_Variant_3 : 0 0 per_variant_size: 0 0 0 0 0 0 0 0 0 
Heartbeat_Variant_0_evicts 0 : 13848 1 : 10140 2 : 11771 3 : 0 
Heartbeat_Variant_1_evicts 0 : 10082 1 : 0 2 : 11694 3 : 0 
Heartbeat_Variant_2_evicts 0 : 11823 1 : 11620 2 : 0 3 : 0 
Heartbeat_Variant_3_evicts 0 : 0 1 : 0 2 : 0 3 : 0 
Heartbeat CPU 0 instructions: 90000001 cycles: 51162905 heartbeat IPC: 1.07056 cumulative IPC: 1.07543 (Simulation time: 0 hr 18 min 6 sec) 
Cycle: 60000000 FTQ IN: 10831553 FTQ occupancy: 6.61664 DECODE IN: 10831557 DECODE occupancy: 13.7603 ROB IN: 10831553 ROB occupancy: 115.327 ROB OUT: 10831553
Heartbeat_Variant_0 : 1071 0.261475 per_variant_size: 0 1071 0 0 0 0 0 0 0 
Heartbeat_Variant_1 : 1255 0.306396 per_variant_size: 0 861 394 0 0 0 0 0 0 
Heartbeat_Variant_2 : 1571 0.383545 per_variant_size: 0 907 439 159 66 0 0 0 0 
Heartbeat_Variant_3 : 0 0 per_variant_size: 0 0 0 0 0 0 0 0 0 
Heartbeat_Variant_0_evicts 0 : 13281 1 : 9482 2 : 11570 3 : 0 
Heartbeat_Variant_1_evicts 0 : 9335 1 : 0 2 : 10747 3 : 0 
Heartbeat_Variant_2_evicts 0 : 11718 1 : 10595 2 : 0 3 : 0 
Heartbeat_Variant_3_evicts 0 : 0 1 : 0 2 : 0 3 : 0 
Heartbeat CPU 0 instructions: 100000000 cycles: 60299769 heartbeat IPC: 1.09447 cumulative IPC: 1.07919 (Simulation time: 0 hr 19 min 30 sec) 
Finished CPU 0 instructions: 50000000 cycles: 46331186 cumulative IPC: 1.07919 (Simulation time: 0 hr 19 min 30 sec) 

ChampSim completed all CPUs

Region of Interest Statistics

CPU 0 cumulative IPC: 1.07919 instructions: 50000000 cycles: 46331186
 Fetch stage stalled: 72.4197  Sim cycles: 46331186 fetch stall cycle: 33552885
 Empty decode stage: 64.0387  Sim cycles: 46331186 fetch stall cycle: 29669875
ITLB TOTAL     ACCESS:    5712935  HIT:    5224855  MISS:     488080  HIT %:    91.4566  MISS %:    8.54342   MPKI: 9.7616
ITLB LOAD TRANSLATION INSTRUCTION	ACCESS:    5605045  HIT:    5116965  MISS:     488080  HIT %:    91.2921  MISS %:    8.70787  MPKI: 9.7616
ITLB TRANSLATION FROM L1D PREFETCHER INSTRUCTION	ACCESS:     107890  HIT:     107890  MISS:          0  HIT %:        100  MISS %:          0  MPKI: 0

ITLB AVERAGE MISS LATENCY: 9.06071 cycles
ITLB RQ	ACCESS:    7500830	FORWARD:          0	MERGED:    1353435	TO_CACHE:    6147395

DTLB TOTAL     ACCESS:    9319986  HIT:    8844913  MISS:     475073  HIT %:    94.9026  MISS %:    5.09736   MPKI: 9.50146
DTLB LOAD TRANSLATION DATA	ACCESS:    9319986  HIT:    8844913  MISS:     475073  HIT %:    94.9026  MISS %:    5.09736  MPKI: 9.50146

DTLB AVERAGE MISS LATENCY: 9.28661 cycles
DTLB RQ	ACCESS:   13571487	FORWARD:          0	MERGED:    4217004	TO_CACHE:    9354483

STLB TOTAL     ACCESS:    1229796  HIT:    1227286  MISS:       2510  HIT %:    99.7959  MISS %:   0.204099   MPKI: 0.0502
STLB LOAD TRANSLATION INSTRUCTION	ACCESS:     488080  HIT:     487673  MISS:        407  HIT %:    99.9166  MISS %:   0.083388  MPKI: 0.00814
STLB LOAD TRANSLATION DATA	ACCESS:     474772  HIT:     472707  MISS:       2065  HIT %:    99.5651  MISS %:   0.434946  MPKI: 0.0413
STLB TRANSLATION FROM L1D PREFETCHER DATA	ACCESS:     266944  HIT:     266906  MISS:         38  HIT %:    99.9858  MISS %:  0.0142352  MPKI: 0.00076

STLB AVERAGE MISS LATENCY: 57.0331 cycles
STLB RQ	ACCESS:    1408737	FORWARD:          0	MERGED:     178910	TO_CACHE:    1229827

STLB Hit, L1D data hit: 0
STLB Hit, L2C data hit: 0
STLB Hit, LLC data hit: 0
STLB Hit, LLC data miss: 0
STLB STLB hints to L2: 0
L1D TOTAL     ACCESS:   13352804  HIT:   12127222  MISS:    1225582  HIT %:    90.8215  MISS %:    9.17846   MPKI: 24.5116
L1D LOAD DATA	ACCESS:    6845214  HIT:    6035385  MISS:     809829  HIT %:    88.1694  MISS %:    11.8306  MPKI: 16.1966
L1D RFO DATA	ACCESS:    6157619  HIT:    5861647  MISS:     295972  HIT %:    95.1934  MISS %:     4.8066  MPKI: 5.91944
L1D PREFETCH DATA	ACCESS:     349971  HIT:     230190  MISS:     119781  HIT %:     65.774  MISS %:     34.226  MPKI: 2.39562

L1D PREFETCH  REQUESTED:     891396  ISSUED:     891396  USEFUL:      67875  USELESS:      72672
L1D USEFUL LOAD PREFETCHES:      67875 PREFETCH ISSUED TO LOWER LEVEL:     140626  ACCURACY: 48.2663
 TIMELY PREFETCHES:      67875 LATE PREFETCHES: 20761 DROPPED PREFETCHES: 2
L1D AVERAGE MISS LATENCY: 633108 cycles
L1D RQ	ACCESS:   10875514	FORWARD:          0	MERGED:    3835678	TO_CACHE:    6879508
L1D WQ	ACCESS:    6858817	FORWARD:     160556	MERGED:     166838	TO_CACHE:    6691979
L1D PQ	ACCESS:     445812	FORWARD:          0	MERGED:          0	TO_CACHE:     445584

L1D UNIQUE REGIONS ACCESSED: 0
L1D REGIONS CONFLICTS: 0
L1D Cross Page Prefetch Requests: 8804
L1D Same Page Prefetch Requests: 894226
L1D ROI Sum of L1D PQ occupancy: 5626389
L1D PREFETCHES PUSHED FROM L2C: 0
L1I TOTAL     ACCESS:    6980269  HIT:    4243571  MISS:    2736698  HIT %:    60.7938  MISS %:    39.2062   MPKI: 54.734
L1I LOAD INSTRUCTION	ACCESS:    6492859  HIT:    3756161  MISS:    2736698  HIT %:    57.8506  MISS %:    42.1494  MPKI: 54.734
L1I PREFETCH INSTRUCTION	ACCESS:     487410  HIT:     487410  MISS:          0  HIT %:        100  MISS %:          0  MPKI: 0

L1I PREFETCH  REQUESTED:    1079040  ISSUED:    1079040  USEFUL:          0  USELESS:          0
L1I USEFUL LOAD PREFETCHES:          0 PREFETCH ISSUED TO LOWER LEVEL:          0  ACCURACY: -nan
 TIMELY PREFETCHES:          0 LATE PREFETCHES: 0 DROPPED PREFETCHES: 0
L1I AVERAGE MISS LATENCY: 18.0793 cycles
L1I RQ	ACCESS:    9463268	FORWARD:          0	MERGED:    2725968	TO_CACHE:    6737300
L1I PQ	ACCESS:    1079040	FORWARD:          0	MERGED:     315510	TO_CACHE:     763530

L1BTB TOTAL     ACCESS:    5699004  HIT:    2112004  MISS:    3587000  HIT %:    37.0592  MISS %:    62.9408   MPKI: 71.74
L1BTB BRANCH_DIRECT_JUMP	ACCESS:     540740  HIT:     142391  MISS:     398349	AVERAGE STALL: 35.3999
L1BTB BRANCH_INDIRECT	ACCESS:     180201  HIT:      64938  MISS:     115263	AVERAGE STALL: 86.6765
L1BTB BRANCH_CONDITIONAL	ACCESS:    2772599  HIT:    1495203  MISS:    1277396	AVERAGE STALL: 37.604
L1BTB BRANCH_DIRECT_CALL	ACCESS:     933616  HIT:     102649  MISS:     830967	AVERAGE STALL: 38.4508
L1BTB BRANCH_INDIRECT_CALL	ACCESS:     169133  HIT:      20664  MISS:     148469	AVERAGE STALL: 112.454
L1BTB BRANCH_RETURN	ACCESS:    1102715  HIT:     286159  MISS:     816556	AVERAGE STALL: 37.8055
L1BTB BRANCH_OTHER ACCESS:          0  HIT:          0  MISS:          0	AVERAGE STALL: -nan
L1BTB TOTAL ROB OCCUPANCY AT BTB MISS: 12.6116

L2BTB TOTAL     ACCESS:    3562188  HIT:    3079425  MISS:     482763  HIT %:    86.4476  MISS %:    13.5524   MPKI: 9.65526
L2BTB BRANCH_DIRECT_JUMP	ACCESS:     394284  HIT:     344933  MISS:      49351	AVERAGE STALL: 35.3999
L2BTB BRANCH_INDIRECT	ACCESS:     105118  HIT:      96392  MISS:       8726	AVERAGE STALL: 86.6765
L2BTB BRANCH_CONDITIONAL	ACCESS:    1277396  HIT:    1138196  MISS:     139200	AVERAGE STALL: 37.604
L2BTB BRANCH_DIRECT_CALL	ACCESS:     830967  HIT:     674160  MISS:     156807	AVERAGE STALL: 38.4508
L2BTB BRANCH_INDIRECT_CALL	ACCESS:     139099  HIT:     106212  MISS:      32887	AVERAGE STALL: 112.454
L2BTB BRANCH_RETURN	ACCESS:     815324  HIT:     719532  MISS:      95792	AVERAGE STALL: 37.8055
L2BTB BRANCH_OTHER ACCESS:          0  HIT:          0  MISS:          0	AVERAGE STALL: -nan
L2BTB TOTAL ROB OCCUPANCY AT BTB MISS: 93.706

L2C TOTAL     ACCESS:    4607227  HIT:    3977365  MISS:     629862  HIT %:    86.3288  MISS %:    13.6712   MPKI: 12.5972
L2C LOAD INSTRUCTION	ACCESS:    2736697  HIT:    2396391  MISS:     340306  HIT %:    87.5651  MISS %:    12.4349  MPKI: 6.80612
L2C LOAD TRANSLATION INSTRUCTION	ACCESS:        465  HIT:        104  MISS:        361  HIT %:    22.3656  MISS %:    77.6344  MPKI: 0.00722
L2C LOAD DATA	ACCESS:     789039  HIT:     685239  MISS:     103800  HIT %:    86.8448  MISS %:    13.1552  MPKI: 2.076
L2C RFO DATA	ACCESS:     295872  HIT:     226000  MISS:      69872  HIT %:    76.3844  MISS %:    23.6156  MPKI: 1.39744
L2C PREFETCH DATA	ACCESS:     243408  HIT:     151198  MISS:      92210  HIT %:    62.1171  MISS %:    37.8829  MPKI: 1.8442
L2C WRITEBACK DATA	ACCESS:     539504  HIT:     517838  MISS:      21666  HIT %:    95.9841  MISS %:    4.01591  MPKI: 0.43332
L2C LOAD TRANSLATION DATA	ACCESS:       2188  HIT:        556  MISS:       1632  HIT %:    25.4113  MISS %:    74.5887  MPKI: 0.03264
L2C TRANSLATION FROM L1D PREFETCHER DATA	ACCESS:         54  HIT:         39  MISS:         15  HIT %:    72.2222  MISS %:    27.7778  MPKI: 0.0003

L2C PREFETCH  REQUESTED:     111088  ISSUED:     111088  USEFUL:      11747  USELESS:      81173
L2C USEFUL LOAD PREFETCHES:      11747 PREFETCH ISSUED TO LOWER LEVEL:      92841  ACCURACY: 12.6528
 TIMELY PREFETCHES:      11747 LATE PREFETCHES: 631 DROPPED PREFETCHES: 0
L2C AVERAGE MISS LATENCY: 36.9963 cycles
L2C RQ	ACCESS:    3824363	FORWARD:          0	MERGED:          0	TO_CACHE:    3824318
L2C WQ	ACCESS:     539504	FORWARD:         45	MERGED:          0	TO_CACHE:     539504
L2C PQ	ACCESS:     251714	FORWARD:          0	MERGED:       3543	TO_CACHE:     248171

L2C Dense regions hint from L2: 0
PSCL5 TOTAL     ACCESS:       5026  HIT:       2513  MISS:       2513  HIT %:         50  MISS %:         50   MPKI: 0.05026
PSCL5 LOAD TRANSLATION INSTRUCTION	ACCESS:       4920  HIT:       2460  MISS:       2460  HIT %:         50  MISS %:         50  MPKI: 0.0492
PSCL5 TRANSLATION FROM L1D PREFETCHER INSTRUCTION	ACCESS:        106  HIT:         53  MISS:         53  HIT %:         50  MISS %:         50  MPKI: 0.00106


PSCL4 TOTAL     ACCESS:       3668  HIT:       1829  MISS:       1839  HIT %:    49.8637  MISS %:    50.1363   MPKI: 0.03678
PSCL4 LOAD TRANSLATION INSTRUCTION	ACCESS:       2558  HIT:       1786  MISS:        772  HIT %:    69.8202  MISS %:    30.1798  MPKI: 0.01544
PSCL4 TRANSLATION FROM L1D PREFETCHER INSTRUCTION	ACCESS:         65  HIT:         43  MISS:         22  HIT %:    66.1538  MISS %:    33.8462  MPKI: 0.00044
PSCL4 LOAD TRANSLATION DATA	ACCESS:       1024  HIT:          0  MISS:       1024  HIT %:          0  MISS %:        100  MPKI: 0.02048
PSCL4 TRANSLATION FROM L1D PREFETCHER DATA	ACCESS:         21  HIT:          0  MISS:         21  HIT %:          0  MISS %:        100  MPKI: 0.00042


PSCL3 TOTAL     ACCESS:       4914  HIT:       2447  MISS:       2467  HIT %:    49.7965  MISS %:    50.2035   MPKI: 0.04934
PSCL3 LOAD TRANSLATION INSTRUCTION	ACCESS:       3431  HIT:       2406  MISS:       1025  HIT %:    70.1253  MISS %:    29.8747  MPKI: 0.0205
PSCL3 TRANSLATION FROM L1D PREFETCHER INSTRUCTION	ACCESS:         56  HIT:         41  MISS:         15  HIT %:    73.2143  MISS %:    26.7857  MPKI: 0.0003
PSCL3 LOAD TRANSLATION DATA	ACCESS:       1401  HIT:          0  MISS:       1401  HIT %:          0  MISS %:        100  MPKI: 0.02802
PSCL3 TRANSLATION FROM L1D PREFETCHER DATA	ACCESS:         26  HIT:          0  MISS:         26  HIT %:          0  MISS %:        100  MPKI: 0.00052


PSCL2 TOTAL     ACCESS:       4862  HIT:       2349  MISS:       2513  HIT %:    48.3135  MISS %:    51.6865   MPKI: 0.05026
PSCL2 LOAD TRANSLATION INSTRUCTION	ACCESS:       2702  HIT:       2297  MISS:        405  HIT %:    85.0111  MISS %:    14.9889  MPKI: 0.0081
PSCL2 TRANSLATION FROM L1D PREFETCHER INSTRUCTION	ACCESS:         52  HIT:         52  MISS:          0  HIT %:        100  MISS %:          0  MPKI: 0
PSCL2 LOAD TRANSLATION DATA	ACCESS:       2056  HIT:          0  MISS:       2056  HIT %:          0  MISS %:        100  MPKI: 0.04112
PSCL2 TRANSLATION FROM L1D PREFETCHER DATA	ACCESS:         52  HIT:          0  MISS:         52  HIT %:          0  MISS %:        100  MPKI: 0.00104


LLC TOTAL     ACCESS:     709459  HIT:     683659  MISS:      25800  HIT %:    96.3634  MISS %:    3.63657   MPKI: 0.516
LLC LOAD INSTRUCTION	ACCESS:     340306  HIT:     339494  MISS:        812  HIT %:    99.7614  MISS %:   0.238609  MPKI: 0.01624
LLC LOAD TRANSLATION INSTRUCTION	ACCESS:        361  HIT:        329  MISS:         32  HIT %:    91.1357  MISS %:    8.86427  MPKI: 0.00064
LLC LOAD DATA	ACCESS:     103176  HIT:     100246  MISS:       2930  HIT %:    97.1602  MISS %:    2.83981  MPKI: 0.0586
LLC RFO DATA	ACCESS:      69863  HIT:      56927  MISS:      12936  HIT %:    81.4838  MISS %:    18.5162  MPKI: 0.25872
LLC PREFETCH DATA	ACCESS:      92841  HIT:      84007  MISS:       8834  HIT %:    90.4848  MISS %:    9.51519  MPKI: 0.17668
LLC WRITEBACK DATA	ACCESS:     101265  HIT:     101077  MISS:        188  HIT %:    99.8143  MISS %:   0.185652  MPKI: 0.00376
LLC LOAD TRANSLATION DATA	ACCESS:       1632  HIT:       1565  MISS:         67  HIT %:    95.8946  MISS %:    4.10539  MPKI: 0.00134
LLC TRANSLATION FROM L1D PREFETCHER DATA	ACCESS:         15  HIT:         14  MISS:          1  HIT %:    93.3333  MISS %:    6.66667  MPKI: 2e-05

LLC AVERAGE MISS LATENCY: 196.289 cycles
LLC RQ	ACCESS:     515358	FORWARD:          0	MERGED:          0	TO_CACHE:     515356
LLC WQ	ACCESS:     101265	FORWARD:          2	MERGED:          0	TO_CACHE:     101265
LLC PQ	ACCESS:      92841	FORWARD:          0	MERGED:          0	TO_CACHE:      92841

LLC Dense regions hint to LLC: 0

RAW hits: 1689206
Loads Generated: 12564720
Loads sent to L1D: 10875514
Stores Generated: 6858814
Stores sent to L1D: 6858817
Major fault: 0 Minor fault: 2281
Allocated PAGES: 2281

stream: 
stream:times selected: 1323501
stream:pref_filled: 134087
stream:pref_useful: 35265
stream:pref_late: 12313
stream:misses: 12576
stream:misses_by_poll: 0

CS: 
CS:times selected: 215231
CS:pref_filled: 92479
CS:pref_useful: 68447
CS:pref_late: 11995
CS:misses: 32303
CS:misses_by_poll: 7

CPLX: 
CPLX:times selected: 1106941
CPLX:pref_filled: 32710
CPLX:pref_useful: 11824
CPLX:pref_late: 6678
CPLX:misses: 178943
CPLX:misses_by_poll: 7

NL_L1: 
NL:times selected: 22903
NL:pref_filled: 1156
NL:pref_useful: 788
NL:pref_late: 1075
NL:misses: 4141
NL:misses_by_poll: 0

total selections: 2668576
total_filled: 119781
total_useful: 67875
total_late: 35823
total_polluted: 14
total_misses_after_warmup: 844128
conflicts: 5595340

test: 123135

DRAM Statistics
 CHANNEL 0
 RQ ROW_BUFFER_HIT:       9196  ROW_BUFFER_MISS:      16407
 DBUS_CONGESTED:         13
 WQ ROW_BUFFER_HIT:       2117  ROW_BUFFER_MISS:      12074  FULL:          0

 AVG_CONGESTED_CYCLE: 4

CPU 0 Branch Prediction Accuracy: 99.8259% MPKI: 0.31964 Average ROB Occupancy at Mispredict: 138.15
Branch types
NOT_BRANCH: 40817302 81.6346%
BRANCH_DIRECT_JUMP: 540740 1.08148%
BRANCH_INDIRECT: 180201 0.360402%
BRANCH_CONDITIONAL: 6255836 12.5117%
BRANCH_DIRECT_CALL: 933616 1.86723%
BRANCH_INDIRECT_CALL: 169133 0.338266%
BRANCH_RETURN: 1102715 2.20543%
BRANCH_OTHER: 0 0%

DRAM PAGES: 1048576
Allocated PAGES: 2281
Average_ROB_Occupancy: 113.311
Average_Decode_Occupancy: 13.3324
Average_FTQ_Occupancy: 6.44735
Indirect max targets: 14 Average targets: 1.14815
Branch_type:  BRANCH_DIRECT_JUMP:  Count Percentage: 3.29371 6.75783 3.58891 7.63381 2.2268 6.33155 1.29995 68.8674 
Branch_type:  BRANCH_INDIRECT:  Count Percentage: 6.11084 3.45569 8.14159 9.70078 3.33946 2.80577 3.07622 63.3696 
Branch_type:  BRANCH_CONDITIONAL:  Count Percentage: 27.0546 3.41412 0.878308 3.8448 1.78046 4.00603 1.08744 57.9343 
Branch_type:  BRANCH_DIRECT_CALL:  Count Percentage: 0.394682 1.26401 0.416511 3.31712 2.13994 2.83915 1.00942 88.6192 
Branch_type:  BRANCH_INDIRECT_CALL:  Count Percentage: 9.56744 0 3.00951 0 0 2.34688 3.28207 81.7941 
Branch_type:  BRANCH_RETURN:  Count Percentage: 7.8894 1.34967 1.21722 3.66529 3.91883 4.73586 1.38557 75.8382 
Branch_type:  BRANCH_DIRECT_JUMP:  Total Count: 35604 73050 38795 82519 24071 68442 14052 744435 
Branch_type:  BRANCH_INDIRECT:  Total Count: 22030 12458 29351 34972 12039 10115 11090 228452 
Branch_type:  BRANCH_CONDITIONAL:  Total Count: 3383407 426966 109840 480826 222662 500989 135994 7245186 
Branch_type:  BRANCH_DIRECT_CALL:  Total Count: 7359 23568 7766 61849 39900 52937 18821 1652338 
Branch_type:  BRANCH_INDIRECT_CALL:  Total Count: 32328 0 10169 0 0 7930 11090 276379 
Branch_type:  BRANCH_RETURN:  Total Count: 173820 29736 26818 80754 86340 104341 30527 1670873 
Number of unique branch instructions: 10324
Upper 32 bits: 
aaaa
ffff
ffff0000
Unique upper 32 bits: 3
Unique upper 36 bits: 3
Unique upper 40 bits: 5
Unique upper 44 bits: 32
Unique upper 48 bits: 157
Variant_0 : 1071 0.261475
Variant_1 : 1255 0.306396
Variant_2 : 1571 0.383545
Variant_3 : 0 0
Offset_3 4251
Offset_4 257
Offset_5 470
Offset_6 532
Offset_7 611
Offset_8 527
Offset_9 508
Offset_10 409
Offset_11 338
Offset_12 278
Offset_13 213
Offset_14 229
Offset_15 201
Offset_16 235
Offset_17 158
Offset_18 135
Offset_19 251
Offset_20 147
Offset_21 245
Offset_22 404
Offset_23 241
Offset_24 333
Offset_25 88
Offset_47 80
decode_dispatch_called: 20348876 43.9205
Dispatch_width: 0 10267455 50.4571 22.161
Dispatch_width: 1 547402 2.69008 1.1815
Dispatch_width: 2 692596 3.40361 1.49488
Dispatch_width: 3 474233 2.33051 1.02357
Dispatch_width: 4 1605480 7.88977 3.46523
Dispatch_width: 5 347789 1.70913 0.750659
Dispatch_width: 6 6413921 31.5198 13.8436
Empty_decode_cycles: 25982310 56.0795
ROB_full_cycles: 2124690 4.58587
Starvation_cycles_per_kilo_instr: 377.926
Starvation_cycles_per_kilo_instr_3: 358.393
Starvation_cycles_per_kilo_instr_0: 341.251
Branch_type_1  (3,1)  (4,9)  (5,38)  (6,75)  (7,117)  (8,129)  (9,131)  (10,105)  (11,77)  (12,45)  (13,4)  (14,2)  (15,3)  (16,4)  (18,1)  (19,4)  (20,2)  (21,1)  (22,3)  (23,2)  (24,10)  (25,12) 
Branch_type_2  (3,1)  (5,1)  (8,3)  (9,3)  (12,1)  (13,1)  (14,1)  (16,3)  (17,2)  (20,2)  (21,2)  (23,5)  (24,1)  (47,36) 
Branch_type_3  (3,4249)  (4,248)  (5,427)  (6,441)  (7,462)  (8,334)  (9,284)  (10,172)  (11,138)  (12,50)  (13,4) 
Branch_type_4  (6,4)  (7,8)  (8,26)  (9,55)  (10,62)  (11,61)  (12,101)  (13,94)  (14,101)  (15,95)  (16,107)  (17,71)  (18,62)  (19,122)  (20,75)  (21,130)  (22,217)  (23,136)  (24,194)  (25,72) 
Branch_type_5  (8,2)  (9,1)  (10,3)  (11,6)  (12,3)  (13,14)  (14,16)  (15,11)  (16,20)  (17,12)  (18,16)  (19,12)  (20,11)  (21,13)  (22,42)  (23,26)  (24,37) 
Branch_type_6  (5,4)  (6,12)  (7,24)  (8,33)  (9,34)  (10,67)  (11,56)  (12,78)  (13,96)  (14,109)  (15,92)  (16,101)  (17,73)  (18,56)  (19,113)  (20,57)  (21,99)  (22,142)  (23,72)  (24,91)  (25,4)  (47,44) 
Unique trigger count: 
Variant_0_evicts_0 : 0
Variant_0_evicts_1 : 0
Variant_0_evicts_2 : 0
Variant_0_evicts_3 : 0
Variant_1_evicts_0 : 0
Variant_1_evicts_1 : 0
Variant_1_evicts_2 : 0
Variant_1_evicts_3 : 0
Variant_2_evicts_0 : 0
Variant_2_evicts_1 : 0
Variant_2_evicts_2 : 0
Variant_2_evicts_3 : 0
Variant_3_evicts_0 : 0
Variant_3_evicts_1 : 0
Variant_3_evicts_2 : 0
Variant_3_evicts_3 : 0
BTB PER SET UNIQUE ADDR: 2 7 4 7 5 6 7 6 3 7 5 4 3 8 10 8 5 4 4 2 6 9 7 9 4 6 5 3 5 9 7 4 6 6 5 8 6 3 6 9 4 8 4 5 7 6 3 5 9 7 12 4 7 3 2 8 5 3 8 7 6 7 4 8 7 3 6 4 4 8 6 5 5 7 6 9 3 6 5 6 9 7 5 10 8 4 6 3 5 7 6 8 7 7 5 2 6 2 4 8 5 3 4 7 4 4 3 5 6 10 8 1 4 8 2 5 4 7 4 10 6 4 6 4 8 6 3 7 5 2 4 6 4 6 8 6 5 2 6 6 3 4 9 7 6 9 5 5 5 8 3 2 3 10 3 6 6 3 7 5 2 8 5 6 9 2 1 4 8 10 6 6 5 4 4 5 3 6 6 6 7 5 7 9 7 6 5 5 6 5 5 3 7 7 3 6 6 6 5 3 6 8 3 7 1 9 4 6 7 5 2 3 8 6 6 5 7 3 4 6 4 8 5 8 6 10 7 4 7 9 3 7 6 12 3 7 4 8 6 6 5 6 5 6 6 4 4 5 5 6 3 7 4 5 5 5 5 5 7 1 9 7 6 5 3 3 6 5 8 6 8 9 7 5 6 5 6 2 6 9 9 3 6 7 2 5 12 5 9 5 5 3 10 8 8 5 7 3 7 5 13 3 5 11 4 3 8 8 7 4 6 3 9 6 5 5 6 7 7 4 9 9 3 5 9 6 4 6 3 7 4 10 3 5 4 5 7 8 5 6 3 5 7 3 5 5 4 7 1 4 6 10 5 2 8 4 4 6 5 5 11 6 6 6 6 10 6 7 4 3 9 6 10 6 5 6 7 5 5 1 4 5 7 4 11 4 3 6 4 5 6 3 4 6 4 3 6 2 5 5 7 8 6 5 3 10 11 6 8 3 5 5 2 7 6 3 6 4 4 5 7 1 5 10 7 5 6 9 6 6 8 3 4 5 7 2 4 3 2 6 9 5 3 4 4 1 3 5 6 5 9 2 6 5 5 2 7 3 13 5 5 7 5 12 2 10 4 6 3 6 6 8 2 6 4 8 3 2 5 8 5 3 6 6 3 5 5 6 5 7 9 5 6 7 7 5 7 5 3 8 3 3 3 4 5 7 7 5 2 3 7 5 5 3 6 5 9 6 6 6 6 8 9 3 6 13 3 3 4 3 9 7 5 3 3 5 6 9 4 5 4 9 11 13 6 4 8 11 5 4 3 8 2 6 5 7 7 2 8 5 4 2 4 8 6 3 5 5 9 4 5 4 1 8 2 7 10 3 6 4 1 7 2 8 2 4 3 1 5 9 8 8 5 10 3 8 11 8 5 5 9 2 4 2 5 11 6 2 4 3 4 4 6 7 1 4 9 4 9 8 4 5 6 1 6 6 3 5 5 5 4 7 5 5 6 7 3 12 7 12 4 7 5 3 4 6 7 5 4 6 5 5 6 8 5 6 7 3 2 6 4 6 5 7 4 7 4 10 9 5 10 6 8 4 8 4 5 7 4 7 7 10 3 8 8 9 5 7 8 4 6 2 4 7 4 10 5 7 5 10 8 6 3 4 10 3 4 6 7 7 5 1 2 8 5 4 7 7 6 5 6 7 4 8 6 9 8 7 4 7 5 5 9 5 5 2 7 5 3 8 4 12 4 5 5 4 6 3 5 5 6 5 6 5 10 9 10 1 3 7 7 5 6 7 9 6 7 13 6 5 6 5 1 6 7 6 5 7 4 7 8 5 6 4 9 6 6 8 5 8 7 4 7 5 8 7 8 3 5 5 8 6 7 4 5 2 6 4 6 5 7 2 1 5 9 6 11 3 7 5 8 5 4 4 5 6 5 6 11 4 7 6 3 8 7 3 6 4 3 4 1 10 7 6 5 4 4 6 3 4 4 8 4 3 6 3 10 7 4 4 1 6 3 9 7 8 8 6 5 5 4 4 6 4 2 4 4 7 1 7 6 5 7 4 5 5 7 11 4 0 11 3 4 2 4 6 3 8 6 2 8 3 8 6 5 2 4 6 7 12 7 6 5 8 8 11 6 8 8 7 9 2 6 8 2 4 6 7 7 4 3 7 8 5 5 8 4 3 3 7 6 5 4 3 5 4 3 3 7 4 9 7 6 3 11 5 8 4 6 3 7 3 9 4 7 3 8 5 2 4 5 1 3 8 2 4 3 10 6 7 4 6 8 6 9 3 3 6 7 3 4 6 7 11 7 4 5 5 4 3 6 5 6 3 3 5 5 8 5 5 4 9 11 5 5 5 6 7 3 4 5 3 7 8 9 4 7 6 3 6 6 3 7 5 5 8 8 5 3 4 8 5 5 9 7 5 5 6 3 4 5 5 6 4 3 6 10 8 4 3 4 7 6 5 4 8 9 5 10 7 3 5 3 8 9 4 5 8 6 3 9 1 4 6 7 6 4 3 4 9 8 10 5 5 6 3 4 4 4 3 5 11 9 9 4 8 4 6 2 3 5 7 4 5 9 4 7 5 4 6 5 6 4 7 3 7 6 7 3 2 6 7 7 3 5 4 4 7 4 7 8 9 7 3 5 5 3 7 5 4 6 6 1 5 3 4 7 8 7 6 5 2 6 5 4 3 7 10 6 7 10 5 6 4 5 10 4 6 5 6 10 2 12 4 4 3 8 3 7 9 10 10 4 2 8 4 7 6 5 3 6 4 3 3 6 7 6 2 8 4 6 4 6 7 1 6 7 4 8 6 9 3 7 5 7 6 10 5 5 6 3 4 5 2 9 6 6 6 3 3 4 5 7 6 8 7 8 7 3 6 7 6 3 3 5 3 4 3 2 5 3 4 5 5 5 3 7 6 4 9 7 4 9 3 6 7 7 8 6 5 10 5 8 9 5 5 5 7 10 10 8 7 7 10 5 6 7 5 6 7 2 6 4 8 7 5 8 7 9 7 14 8 5 5 12 5 5 4 4 4 3 6 3 6 6 3 5 4 9 11 5 6 5 7 10 4 6 7 5 6 8 5 7 6 9 14 5 6 9 5 5 3 5 8 5 2 7 3 5 7 4 9 7 8 7 3 5 6 5 8 3 5 5 14 9 7 4 5 2 6 2 5 3 6 4 4 6 6 6 2 3 5 9 8 1 5 6 5 4 4 10 6 9 3 4 5 9 7 5 6 7 6 8 5 10 7 4 2 2 7 8 7 5 9 7 8 6 4 3 7 7 4 6 5 9 6 7 8 9 3 6 8 8 3 4 5 9 5 9 3 6 5 3 5 6 4 6 7 13 6 8 4 5 6 10 6 4 6 5 9 4 5 9 1 4 2 7 4 6 11 4 7 4 8 8 5 5 4 8 5 5 6 5 8 5 10 7 6 6 3 7 4 10 8 9 5 10 4 7 3 6 7 10 4 4 6 8 9 6 11 9 2 5 7 8 5 13 6 6 3 4 6 5 2 5 9 6 5 3 6 7 3 5 6 6 7 5 7 6 2 5 6 4 4 3 5 4 8 5 4 3 10 4 6 4 4 4 7 7 6 8 4 6 4 1 6 5 9 9 2 6 6 3 5 4 7 8 6 4 7 6 6 3 5 7 4 4 6 4 6 7 6 8 6 5 5 9 7 8 6 5 7 8 4 4 6 4 5 9 4 2 9 7 8 5 7 3 3 3 3 4 8 8 4 8 6 8 4 5 7 5 6 9 3 7 8 8 6 5 7 10 4 4 6 8 4 4 4 6 5 4 7 4 6 7 4 5 5 3 3 7 4 3 4 6 5 1 5 5 3 8 4 6 2 1 5 6 7 13 3 3 8 2 3 5 4 1 5 5 3 3 5 4 2 3 8 9 4 4 4 3 2 6 7 5 3 4 6 5 8 1 4 3 9 8 5 8 4 4 3 4 3 5 5 4 7 3 5 6 9 5 5 7 4 3 6 4 7 4 6 8 3 3 4 4 7 1 2 3 4 8 10 2 7 5 7 6 6 7 4 4 5 8 10 0 7 4 9 7 9 5 10 1 6 10 7 7 6 3 6 4 7 3 6 4 7 7 5 4 7 4 5 4 4 3 2 4 2 6 2 6 5 6 2 6 3 3 9 4 6 4 4 8 8 6 7 6 4 6 4 5 7 3 3 6 5 4 4 6 8 5 4 4 3 7 6 4 6 5 7 3 5 5 8 5 3 4 8 7 5 2 3 8 3 8 7 2 6 5 3 3 8 3 7 6 4 4 9 5 10 4 5 3 5 6 10 6 6 4 3 4 3 3 5 2 10 1 6 2 5 4 5 3 5 5 5 2 1 3 8 2 6 5 4 3 7 5 3 4 6 6 7 8 3 5 9 1 6 10 4 1 2 9 9 4 7 8 9 5 6 7 6 7 6 8 8 4 1 5 3 5 8 4 7 8 10 4 6 2 7 4 7 6 7 9 8 6 5 8 10 7 3 5 6 7 5 6 7 3 12 3 7 4 13 8 3 5 9 3 4 4 5 3 3 9 9 4 6 4 5 3 5 8 7 3 4 2 3 7 4 2 4 6 9 2 3 4 8 8 7 5 11 8 5 4 10 5 5 7 3 2 11 4 3 7 5 5 14 4 8 6 7 4 5 3 6 8 7 
BTB PER SET COUNT: 2 1839 1029 994 925 347 420 850 4 833 972 429 15 800 1067 189 806 226 1264 6 455 1509 1023 524 510 594 324 299 666 1145 800 135 227 1185 685 968 816 174 380 1710 6 1500 5 7 1622 640 183 222 179 1035 1911 529 1145 3 2 771 1011 1114 697 181 1149 975 174 321 175 5 209 221 4 1261 672 273 142 772 581 1446 4 906 1172 235 813 425 224 1504 732 152 768 3 657 1683 707 1068 1073 1335 7 73 257 2 232 472 518 3 327 154 104 186 59 523 655 1002 378 1 187 1241 4 270 404 21 478 2621 389 545 1732 239 10 1175 4 454 929 2 4 600 5 323 542 701 286 177 1019 966 8 604 1519 693 6 420 7 406 342 875 232 504 3 858 11 1656 241 691 600 314 2 446 10 458 736 75 1 5 247 827 165 706 287 204 391 395 107 195 82 887 165 810 279 637 562 474 33 10 15 180 86 3 925 640 3 523 179 647 790 3 313 514 152 216 1 951 4 521 647 5 4 6 1086 604 316 441 974 297 333 163 207 942 313 1196 1947 1356 195 180 201 1570 321 175 275 4398 264 640 16 450 461 826 697 110 649 261 429 336 300 627 265 483 3 672 10 209 506 96 1344 388 454 2 441 601 455 367 158 540 488 521 768 219 480 707 161 560 579 921 177 307 365 727 564 4 355 942 2 568 1920 445 572 8 6 4 1337 591 898 162 31 7 489 213 1122 255 1429 524 180 4 598 89 605 89 198 12 844 391 6 403 21 763 414 18 653 433 234 290 1413 442 382 183 4 260 4 1712 194 895 200 173 886 362 254 643 4 343 317 3 693 287 4 780 1 330 267 244 358 2 614 7 343 541 779 218 1869 530 483 1012 374 2970 911 1471 4 4 784 513 1896 27 461 405 659 622 341 1 121 1167 96 533 1039 310 6 473 93 292 318 5 682 413 157 3 1600 2 463 74 607 697 358 213 406 1270 2624 751 871 11 237 283 9 528 901 237 471 411 255 684 221 1 13 573 867 674 457 662 1206 457 1573 57 6 497 847 3 398 4 2 113 1963 335 3 10 476 1 1452 38 779 549 1638 344 318 286 443 2 628 6 1665 228 1156 354 21 971 6 1103 339 248 3 576 411 1125 2 487 966 208 130 3 344 454 88 70 291 477 5 372 144 373 205 971 413 453 115 762 893 970 922 491 93 731 3 222 3 299 5 544 263 131 2 48 1026 409 1111 939 20 470 983 1443 954 595 257 537 1406 3 478 2022 53 4 292 4 2188 751 139 39 8 147 532 534 583 148 389 603 1260 1700 529 1031 1131 1594 748 80 3 1415 958 622 305 677 1344 2 116 312 871 7539 399 830 470 3 1174 128 1997 486 274 320 1 1371 2 1212 1377 4 416 274 1 671 2 812 8 266 292 1 7 2194 792 404 811 1124 229 1762 1056 887 333 315 888 2 585 76 172 926 1101 2 209 216 347 115 1168 374 1 241 1124 382 11890 867 317 296 462 1 704 299 553 214 475 417 531 890 96 786 466 792 3 1064 556 2317 4 343 445 3 5 1172 234 225 191 762 803 301 396 1013 170 364 369 275 2 104 424 797 394 100 249 769 4 1662 763 890 450 352 688 250 993 376 417 1398 334 839 1130 699 92 1442 562 986 355 1149 124 198 572 2 377 1041 222 1415 118 1763 402 1630 594 1376 3 18 1308 94 10 410 1417 650 281 2 302 833 132 958 494 349 404 175 363 532 775 812 507 1092 979 818 1057 706 294 374 778 419 27 2 11 507 170 2480 4 2156 255 274 204 24 335 151 6 691 510 349 224 326 239 647 674 1 4 839 556 272 292 54 215 31 747 2077 602 5 155 366 1 254 766 1136 280 634 382 685 724 70 174 208 698 7 725 669 275 967 594 477 843 28 142 976 214 208 319 186 233 27 604 899 306 2 150 4 281 196 394 2 1 219 1070 558 1678 446 814 66 823 317 108 242 356 1158 500 579 1480 425 764 478 142 962 37 116 1142 212 6 407 23 1771 481 653 486 6 186 802 4 931 7 550 51 247 447 38 993 194 199 4 1 468 3 467 518 262 1390 278 849 142 800 188 432 10 2 25 1283 1087 1 932 404 900 561 146 10 668 330 1701 87 0 1722 26 110 2 4 775 451 1012 865 203 902 195 790 808 189 145 119 115 420 1054 726 198 565 687 834 890 238 609 1381 917 1697 13 118 542 212 14 1344 334 287 373 6 1013 1428 394 274 505 178 358 112 945 850 144 9 3 1147 307 3 42 256 5 1283 1126 508 11 2384 460 1398 19 1947 218 624 134 812 375 316 15 627 484 2 279 6 1 245 1067 3 120 96 1149 42 401 428 306 883 11 719 128 3 762 40 183 16 426 859 1061 380 6 321 1714 4 6 528 369 611 1490 305 14 331 1077 901 449 4 784 1295 365 508 90 246 1283 4 53 425 299 498 251 662 279 923 764 3 185 851 3 835 597 559 844 501 413 1451 113 491 682 6 579 470 761 489 34 114 4 375 253 274 107 374 8 939 1812 222 3 6 607 423 640 580 530 845 671 582 607 4 425 4 1111 931 237 171 748 184 3 1187 1 179 383 398 288 13 109 51 704 965 990 639 7 436 475 247 6 285 3 375 1975 711 1662 244 874 12 203 2 137 219 744 365 1142 726 23 10 632 5 316 399 6 450 119 3 818 473 457 6 2 122 524 534 4 430 251 218 840 5 344 947 11491 1286 286 691 9 6 574 55 341 97 489 1 213 3 912 43 1299 1357 150 52 2 572 257 317 5 227 411 183 740 1023 12 458 472 78 1294 6 137 413 712 959 77 1419 382 313 245 298 298 1059 726 1210 722 204 2 1638 208 923 466 550 172 575 69 7 4 761 731 1213 5 1020 236 903 5 339 1306 1 231 875 79 740 274 866 5 629 53 377 835 760 230 337 131 3 71 523 2 1237 265 17 326 134 3 432 504 11 391 548 165 28 120 113 390 388 545 3 241 434 6 14 113 2 13 5 260 6 7 644 13 505 188 265 648 499 190 1098 3 308 418 327 1161 848 334 1423 44 205 518 265 506 134 1337 1855 1285 80 811 235 1340 269 634 766 207 329 800 4 392 321 298 1025 468 567 1191 922 911 575 163 43 469 828 871 5 201 503 235 3 358 3 467 78 12 97 1478 367 1763 388 435 5 666 521 136 222 1028 449 240 619 780 225 440 1015 1083 179 521 1116 600 2387 3 283 263 8 2 767 3 276 249 457 571 865 629 85 3 281 239 221 701 3 206 261 1797 1247 566 422 108 2 728 2 664 236 234 219 271 6 268 299 224 4 190 428 493 1 301 648 24 11 4 988 265 452 68 22 403 991 183 108 468 19 422 947 78 1291 1079 196 232 112 962 1441 436 469 614 353 934 443 36 170 2095 1497 9 482 1862 1072 968 1136 579 937 122 450 1290 127 130 368 14 849 30 394 3 25 263 3 727 302 5 20 661 1073 257 366 4 84 273 1484 362 256 13 6 1683 156 195 1001 1 4 2 284 351 574 1456 190 746 440 528 788 684 22 172 18 233 478 233 270 547 425 1754 743 212 234 4 855 534 690 274 1446 721 1029 128 969 109 442 519 1957 278 17 816 86 799 792 1938 1409 2 106 1180 593 764 1253 534 1206 3 476 66 855 182 162 1025 212 706 8 710 17 3 188 125 13 403 565 768 240 4 981 399 138 4 128 377 4 408 101 975 729 882 309 331 419 166 3851 882 402 419 857 10 64 334 1 595 321 1279 164 1433 423 189 101 611 5 380 1026 20 177 429 196 346 3 538 469 130 162 659 99 440 257 448 342 523 607 492 1059 165 1335 335 8 490 1158 240 197 200 5 657 811 9 223 699 567 1101 204 808 148 6 3 151 318 565 1385 118 744 660 1192 51 208 25 7 776 520 135 838 713 470 445 14 877 687 275 524 259 95 207 512 647 676 643 474 396 11 103 398 5 868 474 13 326 251 247 3 6 392 393 1 575 5 335 294 4 284 2 1 90 208 502 2807 132 424 890 2 221 304 5 1 314 483 158 43 343 121 2 3 994 831 158 4 59 6 182 606 575 425 228 4 355 408 266 1 299 6 1927 329 438 317 430 184 338 245 59 62 213 155 594 342 6 659 496 137 18 899 7 167 747 574 1282 253 478 813 3 3 9 143 575 1 2 10 718 499 1138 2 985 293 604 736 702 1506 319 15 10 436 1316 0 388 53 806 232 2000 412 677 1 686 2791 585 304 244 4 1082 9 961 3 387 353 592 490 75 4 621 249 323 19 4 6 3 305 2 972 2 704 478 456 3 218 3 16 394 80 869 121 327 578 1037 186 809 1046 127 538 129 256 1295 4 762 156 5 348 831 514 1309 397 452 275 316 328 1267 835 721 6 1364 3 550 368 569 13 8 235 869 1848 519 2 114 921 230 384 733 2 832 10494 255 140 1346 246 1140 682 4 353 1301 607 1327 580 455 451 10 603 1380 646 559 58 210 8 3 8 830 3 917 1 407 779 188 4 303 283 173 227 373 2 1 3 1215 2 119 579 580 86 1147 409 80 181 1227 61 430 785 3 386 1161 1 601 1169 148 2 2 439 678 4 418 562 1108 37 305 549 437 635 28 1234 403 154 1 523 354 324 1248 260 527 1268 258 317 99 2 794 211 653 757 353 368 1558 585 1279 1215 1317 995 155 207 600 3222 775 271 536 513 1480 4 695 418 1587 50 191 450 1165 203 620 424 209 63 96 1079 1511 428 532 53 449 8 278 186 498 3 277 1204 461 665 196 4 105 344 1231 175 149 5 1168 437 728 310 1672 412 874 4 1049 1531 120 490 3 2 1715 14 174 460 518 250 2807 154 1187 142 519 487 16 76 288 737 840 
To predecode: 0
Predecoding something: 0
Predecode request dropped: 0
sizeofblock_0 0
sizeofblock_1 496734
sizeofblock_2 143808
sizeofblock_3 27697
sizeofblock_4 6571
sizeofblock_5 0
sizeofblock_6 0
sizeofblock_7 0
sizeofblock_8 0
Variant_0 Correct: 1292151 Incorrect: 0 Accuracy: 1
Variant_1 Correct: 1803562 Incorrect: 0 Accuracy: 1
Variant_2 Correct: 3305572 Incorrect: 0 Accuracy: 1
Variant_3 Correct: 0 Incorrect: 0 Accuracy: -nan
