
*** ChampSim Multicore Out-of-Order Simulator ***

Warmup Instructions: 50000000
Simulation Instructions: 50000000
Number of CPUs: 1
LLC sets: 2048
LLC ways: 16
Off-chip DRAM Size: 4096 MB Channels: 1 Width: 64-bit Data Rate: 6400 MT/s
CPU 0 runs ./micro_traces/srv737.trace.gz
.gz
ITLB has LRU replacement policy
DTLB has LRU replacement policy
STLB has LRU replacement policy
FDIP Prefetcher at L1I
L1I has LRU replacement policy
L1D has LRU replacement policy
Initialize SRRIP state for L2C
Initialize DRRIP state for LLC
Heartbeat_Variant_0 : 1157 0.282471 per_variant_size: 0 1157 0 0 0 0 0 0 0 
Heartbeat_Variant_1 : 1141 0.278564 per_variant_size: 0 502 639 0 0 0 0 0 0 
Heartbeat_Variant_2 : 989 0.241455 per_variant_size: 0 262 315 233 179 0 0 0 0 
Heartbeat_Variant_3 : 0 0 per_variant_size: 0 0 0 0 0 0 0 0 0 
Heartbeat_Variant_0_evicts 0 : 18198 1 : 7330 2 : 6869 3 : 0 
Heartbeat_Variant_1_evicts 0 : 7037 1 : 0 2 : 4465 3 : 0 
Heartbeat_Variant_2_evicts 0 : 7089 1 : 4026 2 : 0 3 : 0 
Heartbeat_Variant_3_evicts 0 : 0 1 : 0 2 : 0 3 : 0 
Heartbeat CPU 0 instructions: 10000002 cycles: 2793995 heartbeat IPC: 3.57911 cumulative IPC: 3.57911 (Simulation time: 0 hr 1 min 57 sec) 
Heartbeat_Variant_0 : 1206 0.294434 per_variant_size: 0 1206 0 0 0 0 0 0 0 
Heartbeat_Variant_1 : 1179 0.287842 per_variant_size: 0 478 701 0 0 0 0 0 0 
Heartbeat_Variant_2 : 1007 0.24585 per_variant_size: 0 254 292 250 211 0 0 0 0 
Heartbeat_Variant_3 : 0 0 per_variant_size: 0 0 0 0 0 0 0 0 0 
Heartbeat_Variant_0_evicts 0 : 17980 1 : 7319 2 : 6790 3 : 0 
Heartbeat_Variant_1_evicts 0 : 7066 1 : 0 2 : 4121 3 : 0 
Heartbeat_Variant_2_evicts 0 : 7020 1 : 3867 2 : 0 3 : 0 
Heartbeat_Variant_3_evicts 0 : 0 1 : 0 2 : 0 3 : 0 
Heartbeat CPU 0 instructions: 20000000 cycles: 5587623 heartbeat IPC: 3.57957 cumulative IPC: 3.57934 (Simulation time: 0 hr 3 min 39 sec) 
Heartbeat_Variant_0 : 1183 0.288818 per_variant_size: 0 1183 0 0 0 0 0 0 0 
Heartbeat_Variant_1 : 1192 0.291016 per_variant_size: 0 484 708 0 0 0 0 0 0 
Heartbeat_Variant_2 : 1020 0.249023 per_variant_size: 0 254 289 266 211 0 0 0 0 
Heartbeat_Variant_3 : 0 0 per_variant_size: 0 0 0 0 0 0 0 0 0 
Heartbeat_Variant_0_evicts 0 : 18213 1 : 7485 2 : 6855 3 : 0 
Heartbeat_Variant_1_evicts 0 : 7212 1 : 0 2 : 4171 3 : 0 
Heartbeat_Variant_2_evicts 0 : 7151 1 : 3886 2 : 0 3 : 0 
Heartbeat_Variant_3_evicts 0 : 0 1 : 0 2 : 0 3 : 0 
Heartbeat CPU 0 instructions: 30000000 cycles: 8381357 heartbeat IPC: 3.57944 cumulative IPC: 3.57937 (Simulation time: 0 hr 5 min 20 sec) 
Heartbeat_Variant_0 : 1200 0.292969 per_variant_size: 0 1200 0 0 0 0 0 0 0 
Heartbeat_Variant_1 : 1188 0.290039 per_variant_size: 0 479 709 0 0 0 0 0 0 
Heartbeat_Variant_2 : 1014 0.247559 per_variant_size: 0 253 287 257 217 0 0 0 0 
Heartbeat_Variant_3 : 0 0 per_variant_size: 0 0 0 0 0 0 0 0 0 
Heartbeat_Variant_0_evicts 0 : 18291 1 : 7613 2 : 7002 3 : 0 
Heartbeat_Variant_1_evicts 0 : 7421 1 : 0 2 : 4173 3 : 0 
Heartbeat_Variant_2_evicts 0 : 7181 1 : 3986 2 : 0 3 : 0 
Heartbeat_Variant_3_evicts 0 : 0 1 : 0 2 : 0 3 : 0 
Heartbeat CPU 0 instructions: 40000002 cycles: 11175759 heartbeat IPC: 3.57858 cumulative IPC: 3.57918 (Simulation time: 0 hr 7 min 9 sec) 
Heartbeat_Variant_0 : 1201 0.293213 per_variant_size: 0 1201 0 0 0 0 0 0 0 
Heartbeat_Variant_1 : 1187 0.289795 per_variant_size: 0 476 711 0 0 0 0 0 0 
Heartbeat_Variant_2 : 1025 0.250244 per_variant_size: 0 256 286 266 217 0 0 0 0 
Heartbeat_Variant_3 : 0 0 per_variant_size: 0 0 0 0 0 0 0 0 0 
Heartbeat_Variant_0_evicts 0 : 18019 1 : 7437 2 : 6694 3 : 0 
Heartbeat_Variant_1_evicts 0 : 7104 1 : 0 2 : 4150 3 : 0 
Heartbeat_Variant_2_evicts 0 : 7027 1 : 3820 2 : 0 3 : 0 
Heartbeat_Variant_3_evicts 0 : 0 1 : 0 2 : 0 3 : 0 
Heartbeat CPU 0 instructions: 50000000 cycles: 13968363 heartbeat IPC: 3.58089 cumulative IPC: 3.57952 (Simulation time: 0 hr 8 min 56 sec) 

Warmup complete CPU 0 instructions: 50000004 cycles: 13968364 (Simulation time: 0 hr 8 min 56 sec) 

*** Reached end of trace for Core: 0 Repeating trace: ./micro_traces/srv737.trace.gz
Cycle: 20000000 FTQ IN: 56715896 FTQ occupancy: 18.1029 DECODE IN: 56715885 DECODE occupancy: 46.2037 ROB IN: 56715885 ROB occupancy: 278.567 ROB OUT: 56715885
Heartbeat_Variant_0 : 1201 0.293213 per_variant_size: 0 1201 0 0 0 0 0 0 0 
Heartbeat_Variant_1 : 1195 0.291748 per_variant_size: 0 496 699 0 0 0 0 0 0 
Heartbeat_Variant_2 : 1017 0.248291 per_variant_size: 0 250 293 247 227 0 0 0 0 
Heartbeat_Variant_3 : 0 0 per_variant_size: 0 0 0 0 0 0 0 0 0 
Heartbeat_Variant_0_evicts 0 : 18149 1 : 7373 2 : 6824 3 : 0 
Heartbeat_Variant_1_evicts 0 : 7090 1 : 0 2 : 4330 3 : 0 
Heartbeat_Variant_2_evicts 0 : 7107 1 : 4039 2 : 0 3 : 0 
Heartbeat_Variant_3_evicts 0 : 0 1 : 0 2 : 0 3 : 0 
Heartbeat CPU 0 instructions: 60000000 cycles: 22940840 heartbeat IPC: 1.11452 cumulative IPC: 1.11452 (Simulation time: 0 hr 10 min 31 sec) 
Cycle: 30000000 FTQ IN: 11194730 FTQ occupancy: 6.71799 DECODE IN: 11194602 DECODE occupancy: 14.133 ROB IN: 11194542 ROB occupancy: 117.239 ROB OUT: 11194194
Heartbeat_Variant_0 : 1193 0.29126 per_variant_size: 0 1193 0 0 0 0 0 0 0 
Heartbeat_Variant_1 : 1200 0.292969 per_variant_size: 0 494 706 0 0 0 0 0 0 
Heartbeat_Variant_2 : 1020 0.249023 per_variant_size: 0 257 287 251 225 0 0 0 0 
Heartbeat_Variant_3 : 0 0 per_variant_size: 0 0 0 0 0 0 0 0 0 
Heartbeat_Variant_0_evicts 0 : 17982 1 : 7333 2 : 6874 3 : 0 
Heartbeat_Variant_1_evicts 0 : 7253 1 : 0 2 : 4148 3 : 0 
Heartbeat_Variant_2_evicts 0 : 6962 1 : 4063 2 : 0 3 : 0 
Heartbeat_Variant_3_evicts 0 : 0 1 : 0 2 : 0 3 : 0 
Heartbeat CPU 0 instructions: 70000001 cycles: 32013847 heartbeat IPC: 1.10217 cumulative IPC: 1.10831 (Simulation time: 0 hr 12 min 10 sec) 
Cycle: 40000000 FTQ IN: 10975313 FTQ occupancy: 6.87067 DECODE IN: 10975446 DECODE occupancy: 14.3761 ROB IN: 10975506 ROB occupancy: 117.534 ROB OUT: 10975798
Heartbeat_Variant_0 : 1205 0.294189 per_variant_size: 0 1205 0 0 0 0 0 0 0 
Heartbeat_Variant_1 : 1185 0.289307 per_variant_size: 0 481 704 0 0 0 0 0 0 
Heartbeat_Variant_2 : 1023 0.249756 per_variant_size: 0 249 294 248 232 0 0 0 0 
Heartbeat_Variant_3 : 0 0 per_variant_size: 0 0 0 0 0 0 0 0 0 
Heartbeat_Variant_0_evicts 0 : 18184 1 : 7406 2 : 6928 3 : 0 
Heartbeat_Variant_1_evicts 0 : 7276 1 : 0 2 : 4137 3 : 0 
Heartbeat_Variant_2_evicts 0 : 7046 1 : 4022 2 : 0 3 : 0 
Heartbeat_Variant_3_evicts 0 : 0 1 : 0 2 : 0 3 : 0 
Heartbeat CPU 0 instructions: 80000002 cycles: 40989138 heartbeat IPC: 1.11417 cumulative IPC: 1.11026 (Simulation time: 0 hr 13 min 40 sec) 
Cycle: 50000000 FTQ IN: 11063446 FTQ occupancy: 6.94557 DECODE IN: 11063396 DECODE occupancy: 14.5892 ROB IN: 11063396 ROB occupancy: 116.738 ROB OUT: 11063201
Heartbeat_Variant_0 : 1207 0.294678 per_variant_size: 0 1207 0 0 0 0 0 0 0 
Heartbeat_Variant_1 : 1185 0.289307 per_variant_size: 0 485 700 0 0 0 0 0 0 
Heartbeat_Variant_2 : 1021 0.249268 per_variant_size: 0 251 290 263 217 0 0 0 0 
Heartbeat_Variant_3 : 0 0 per_variant_size: 0 0 0 0 0 0 0 0 0 
Heartbeat_Variant_0_evicts 0 : 18420 1 : 7650 2 : 6995 3 : 0 
Heartbeat_Variant_1_evicts 0 : 7426 1 : 0 2 : 4253 3 : 0 
Heartbeat_Variant_2_evicts 0 : 7217 1 : 4029 2 : 0 3 : 0 
Heartbeat_Variant_3_evicts 0 : 0 1 : 0 2 : 0 3 : 0 
Heartbeat CPU 0 instructions: 90000002 cycles: 50050379 heartbeat IPC: 1.1036 cumulative IPC: 1.10859 (Simulation time: 0 hr 15 min 11 sec) 
Heartbeat_Variant_0 : 1198 0.29248 per_variant_size: 0 1198 0 0 0 0 0 0 0 
Heartbeat_Variant_1 : 1190 0.290527 per_variant_size: 0 490 700 0 0 0 0 0 0 
Heartbeat_Variant_2 : 1025 0.250244 per_variant_size: 0 251 295 249 230 0 0 0 0 
Heartbeat_Variant_3 : 0 0 per_variant_size: 0 0 0 0 0 0 0 0 0 
Heartbeat_Variant_0_evicts 0 : 17953 1 : 7340 2 : 6673 3 : 0 
Heartbeat_Variant_1_evicts 0 : 7044 1 : 0 2 : 4210 3 : 0 
Heartbeat_Variant_2_evicts 0 : 6978 1 : 3909 2 : 0 3 : 0 
Heartbeat_Variant_3_evicts 0 : 0 1 : 0 2 : 0 3 : 0 
Heartbeat CPU 0 instructions: 100000000 cycles: 58977648 heartbeat IPC: 1.12016 cumulative IPC: 1.11088 (Simulation time: 0 hr 16 min 39 sec) 
Finished CPU 0 instructions: 50000000 cycles: 45009294 cumulative IPC: 1.11088 (Simulation time: 0 hr 16 min 39 sec) 

ChampSim completed all CPUs

Region of Interest Statistics

CPU 0 cumulative IPC: 1.11088 instructions: 50000000 cycles: 45009294
 Fetch stage stalled: 70.8727  Sim cycles: 45009294 fetch stall cycle: 31899283
 Empty decode stage: 63.5504  Sim cycles: 45009294 fetch stall cycle: 28603585
ITLB TOTAL     ACCESS:    5759855  HIT:    5271955  MISS:     487900  HIT %:    91.5293  MISS %:     8.4707   MPKI: 9.758
ITLB LOAD TRANSLATION INSTRUCTION	ACCESS:    5651837  HIT:    5163937  MISS:     487900  HIT %:    91.3674  MISS %:    8.63259  MPKI: 9.758
ITLB TRANSLATION FROM L1D PREFETCHER INSTRUCTION	ACCESS:     108018  HIT:     108018  MISS:          0  HIT %:        100  MISS %:          0  MPKI: 0

ITLB AVERAGE MISS LATENCY: 9.05501 cycles
ITLB RQ	ACCESS:    7566609	FORWARD:          0	MERGED:    1380738	TO_CACHE:    6185871

DTLB TOTAL     ACCESS:    9272996  HIT:    8798413  MISS:     474583  HIT %:    94.8821  MISS %:     5.1179   MPKI: 9.49166
DTLB LOAD TRANSLATION DATA	ACCESS:    9272996  HIT:    8798413  MISS:     474583  HIT %:    94.8821  MISS %:     5.1179  MPKI: 9.49166

DTLB AVERAGE MISS LATENCY: 9.29236 cycles
DTLB RQ	ACCESS:   13532167	FORWARD:          0	MERGED:    4225334	TO_CACHE:    9306833

STLB TOTAL     ACCESS:    1228946  HIT:    1226437  MISS:       2509  HIT %:    99.7958  MISS %:   0.204159   MPKI: 0.05018
STLB LOAD TRANSLATION INSTRUCTION	ACCESS:     487900  HIT:     487493  MISS:        407  HIT %:    99.9166  MISS %:  0.0834187  MPKI: 0.00814
STLB LOAD TRANSLATION DATA	ACCESS:     474275  HIT:     472207  MISS:       2068  HIT %:     99.564  MISS %:   0.436034  MPKI: 0.04136
STLB TRANSLATION FROM L1D PREFETCHER DATA	ACCESS:     266771  HIT:     266737  MISS:         34  HIT %:    99.9873  MISS %:   0.012745  MPKI: 0.00068

STLB AVERAGE MISS LATENCY: 56.6377 cycles
STLB RQ	ACCESS:    1407230	FORWARD:          0	MERGED:     178246	TO_CACHE:    1228984

STLB Hit, L1D data hit: 0
STLB Hit, L2C data hit: 0
STLB Hit, LLC data hit: 0
STLB Hit, LLC data miss: 0
STLB STLB hints to L2: 0
L1D TOTAL     ACCESS:   13309994  HIT:   12084356  MISS:    1225638  HIT %:    90.7916  MISS %:     9.2084   MPKI: 24.5128
L1D LOAD DATA	ACCESS:    6811819  HIT:    6001277  MISS:     810542  HIT %:    88.1009  MISS %:    11.8991  MPKI: 16.2108
L1D RFO DATA	ACCESS:    6150975  HIT:    5854866  MISS:     296109  HIT %:     95.186  MISS %:    4.81402  MPKI: 5.92218
L1D PREFETCH DATA	ACCESS:     347200  HIT:     228213  MISS:     118987  HIT %:    65.7296  MISS %:    34.2704  MPKI: 2.37974

L1D PREFETCH  REQUESTED:     889765  ISSUED:     889765  USEFUL:      67634  USELESS:      72821
L1D USEFUL LOAD PREFETCHES:      67634 PREFETCH ISSUED TO LOWER LEVEL:     140485  ACCURACY: 48.1432
 TIMELY PREFETCHES:      67634 LATE PREFETCHES: 21465 DROPPED PREFETCHES: 2
L1D AVERAGE MISS LATENCY: 643118 cycles
L1D RQ	ACCESS:   10854973	FORWARD:          0	MERGED:    3849263	TO_CACHE:    6843590
L1D WQ	ACCESS:    6858817	FORWARD:     162391	MERGED:     170240	TO_CACHE:    6688577
L1D PQ	ACCESS:     445018	FORWARD:          0	MERGED:          0	TO_CACHE:     444747

L1D UNIQUE REGIONS ACCESSED: 0
L1D REGIONS CONFLICTS: 0
L1D Cross Page Prefetch Requests: 8839
L1D Same Page Prefetch Requests: 893184
L1D ROI Sum of L1D PQ occupancy: 5622352
L1D PREFETCHES PUSHED FROM L2C: 0
L1I TOTAL     ACCESS:    7053585  HIT:    4317479  MISS:    2736106  HIT %:    61.2097  MISS %:    38.7903   MPKI: 54.7221
L1I LOAD INSTRUCTION	ACCESS:    6539490  HIT:    3803384  MISS:    2736106  HIT %:    58.1603  MISS %:    41.8397  MPKI: 54.7221
L1I PREFETCH INSTRUCTION	ACCESS:     514095  HIT:     514095  MISS:          0  HIT %:        100  MISS %:          0  MPKI: 0

L1I PREFETCH  REQUESTED:    1094332  ISSUED:    1094332  USEFUL:          0  USELESS:          0
L1I USEFUL LOAD PREFETCHES:          0 PREFETCH ISSUED TO LOWER LEVEL:          0  ACCURACY: -nan
 TIMELY PREFETCHES:          0 LATE PREFETCHES: 0 DROPPED PREFETCHES: 0
L1I AVERAGE MISS LATENCY: 17.673 cycles
L1I RQ	ACCESS:    9478685	FORWARD:          0	MERGED:    2694178	TO_CACHE:    6784507
L1I PQ	ACCESS:    1094332	FORWARD:          0	MERGED:     312230	TO_CACHE:     782102

L1BTB TOTAL     ACCESS:    5698569  HIT:    2111564  MISS:    3587005  HIT %:    37.0543  MISS %:    62.9457   MPKI: 71.7401
L1BTB BRANCH_DIRECT_JUMP	ACCESS:     540740  HIT:     142393  MISS:     398347	AVERAGE STALL: 35.5559
L1BTB BRANCH_INDIRECT	ACCESS:     180201  HIT:      64935  MISS:     115266	AVERAGE STALL: 82.3176
L1BTB BRANCH_CONDITIONAL	ACCESS:    2772164  HIT:    1494764  MISS:    1277400	AVERAGE STALL: 37.1696
L1BTB BRANCH_DIRECT_CALL	ACCESS:     933616  HIT:     102651  MISS:     830965	AVERAGE STALL: 38.0473
L1BTB BRANCH_INDIRECT_CALL	ACCESS:     169133  HIT:      20663  MISS:     148470	AVERAGE STALL: 108.803
L1BTB BRANCH_RETURN	ACCESS:    1102715  HIT:     286158  MISS:     816557	AVERAGE STALL: 37.3655
L1BTB BRANCH_OTHER ACCESS:          0  HIT:          0  MISS:          0	AVERAGE STALL: -nan
L1BTB TOTAL ROB OCCUPANCY AT BTB MISS: 12.6894

L2BTB TOTAL     ACCESS:    3562193  HIT:    3104958  MISS:     457235  HIT %:    87.1642  MISS %:    12.8358   MPKI: 9.1447
L2BTB BRANCH_DIRECT_JUMP	ACCESS:     394283  HIT:     350264  MISS:      44019	AVERAGE STALL: 35.5559
L2BTB BRANCH_INDIRECT	ACCESS:     105120  HIT:      97609  MISS:       7511	AVERAGE STALL: 82.3176
L2BTB BRANCH_CONDITIONAL	ACCESS:    1277400  HIT:    1129286  MISS:     148114	AVERAGE STALL: 37.1696
L2BTB BRANCH_DIRECT_CALL	ACCESS:     830965  HIT:     694438  MISS:     136527	AVERAGE STALL: 38.0473
L2BTB BRANCH_INDIRECT_CALL	ACCESS:     139100  HIT:     111236  MISS:      27864	AVERAGE STALL: 108.803
L2BTB BRANCH_RETURN	ACCESS:     815325  HIT:     722125  MISS:      93200	AVERAGE STALL: 37.3655
L2BTB BRANCH_OTHER ACCESS:          0  HIT:          0  MISS:          0	AVERAGE STALL: -nan
L2BTB TOTAL ROB OCCUPANCY AT BTB MISS: 99.5482

L2C TOTAL     ACCESS:    4601339  HIT:    4020327  MISS:     581012  HIT %:     87.373  MISS %:     12.627   MPKI: 11.6202
L2C LOAD INSTRUCTION	ACCESS:    2736106  HIT:    2433295  MISS:     302811  HIT %:    88.9328  MISS %:    11.0672  MPKI: 6.05622
L2C LOAD TRANSLATION INSTRUCTION	ACCESS:        465  HIT:        123  MISS:        342  HIT %:    26.4516  MISS %:    73.5484  MPKI: 0.00684
L2C LOAD DATA	ACCESS:     789047  HIT:     684972  MISS:     104075  HIT %:      86.81  MISS %:      13.19  MPKI: 2.0815
L2C RFO DATA	ACCESS:     296038  HIT:     233963  MISS:      62075  HIT %:    79.0314  MISS %:    20.9686  MPKI: 1.2415
L2C PREFETCH DATA	ACCESS:     237960  HIT:     145008  MISS:      92952  HIT %:     60.938  MISS %:     39.062  MPKI: 1.85904
L2C WRITEBACK DATA	ACCESS:     539482  HIT:     522347  MISS:      17135  HIT %:    96.8238  MISS %:    3.17619  MPKI: 0.3427
L2C LOAD TRANSLATION DATA	ACCESS:       2188  HIT:        578  MISS:       1610  HIT %:    26.4168  MISS %:    73.5832  MPKI: 0.0322
L2C TRANSLATION FROM L1D PREFETCHER DATA	ACCESS:         53  HIT:         41  MISS:         12  HIT %:    77.3585  MISS %:    22.6415  MPKI: 0.00024

L2C PREFETCH  REQUESTED:     105999  ISSUED:     105999  USEFUL:      10357  USELESS:      83183
L2C USEFUL LOAD PREFETCHES:      10357 PREFETCH ISSUED TO LOWER LEVEL:      93506  ACCURACY: 11.0763
 TIMELY PREFETCHES:      10357 LATE PREFETCHES: 554 DROPPED PREFETCHES: 0
L2C AVERAGE MISS LATENCY: 38.2767 cycles
L2C RQ	ACCESS:    3823968	FORWARD:          0	MERGED:          0	TO_CACHE:    3823901
L2C WQ	ACCESS:     539482	FORWARD:         67	MERGED:          0	TO_CACHE:     539482
L2C PQ	ACCESS:     246484	FORWARD:          0	MERGED:       4074	TO_CACHE:     242410

L2C Dense regions hint from L2: 0
PSCL5 TOTAL     ACCESS:       5024  HIT:       2512  MISS:       2512  HIT %:         50  MISS %:         50   MPKI: 0.05024
PSCL5 LOAD TRANSLATION INSTRUCTION	ACCESS:       4920  HIT:       2460  MISS:       2460  HIT %:         50  MISS %:         50  MPKI: 0.0492
PSCL5 TRANSLATION FROM L1D PREFETCHER INSTRUCTION	ACCESS:        104  HIT:         52  MISS:         52  HIT %:         50  MISS %:         50  MPKI: 0.00104


PSCL4 TOTAL     ACCESS:       3666  HIT:       1828  MISS:       1838  HIT %:    49.8636  MISS %:    50.1364   MPKI: 0.03676
PSCL4 LOAD TRANSLATION INSTRUCTION	ACCESS:       2557  HIT:       1787  MISS:        770  HIT %:    69.8866  MISS %:    30.1134  MPKI: 0.0154
PSCL4 TRANSLATION FROM L1D PREFETCHER INSTRUCTION	ACCESS:         64  HIT:         41  MISS:         23  HIT %:    64.0625  MISS %:    35.9375  MPKI: 0.00046
PSCL4 LOAD TRANSLATION DATA	ACCESS:       1027  HIT:          0  MISS:       1027  HIT %:          0  MISS %:        100  MPKI: 0.02054
PSCL4 TRANSLATION FROM L1D PREFETCHER DATA	ACCESS:         18  HIT:          0  MISS:         18  HIT %:          0  MISS %:        100  MPKI: 0.00036


PSCL3 TOTAL     ACCESS:       4912  HIT:       2446  MISS:       2466  HIT %:    49.7964  MISS %:    50.2036   MPKI: 0.04932
PSCL3 LOAD TRANSLATION INSTRUCTION	ACCESS:       3429  HIT:       2407  MISS:       1022  HIT %:    70.1954  MISS %:    29.8046  MPKI: 0.02044
PSCL3 TRANSLATION FROM L1D PREFETCHER INSTRUCTION	ACCESS:         56  HIT:         39  MISS:         17  HIT %:    69.6429  MISS %:    30.3571  MPKI: 0.00034
PSCL3 LOAD TRANSLATION DATA	ACCESS:       1405  HIT:          0  MISS:       1405  HIT %:          0  MISS %:        100  MPKI: 0.0281
PSCL3 TRANSLATION FROM L1D PREFETCHER DATA	ACCESS:         22  HIT:          0  MISS:         22  HIT %:          0  MISS %:        100  MPKI: 0.00044


PSCL2 TOTAL     ACCESS:       4860  HIT:       2348  MISS:       2512  HIT %:    48.3128  MISS %:    51.6872   MPKI: 0.05024
PSCL2 LOAD TRANSLATION INSTRUCTION	ACCESS:       2702  HIT:       2297  MISS:        405  HIT %:    85.0111  MISS %:    14.9889  MPKI: 0.0081
PSCL2 TRANSLATION FROM L1D PREFETCHER INSTRUCTION	ACCESS:         51  HIT:         51  MISS:          0  HIT %:        100  MISS %:          0  MPKI: 0
PSCL2 LOAD TRANSLATION DATA	ACCESS:       2056  HIT:          0  MISS:       2056  HIT %:          0  MISS %:        100  MPKI: 0.04112
PSCL2 TRANSLATION FROM L1D PREFETCHER DATA	ACCESS:         51  HIT:          0  MISS:         51  HIT %:          0  MISS %:        100  MPKI: 0.00102


LLC TOTAL     ACCESS:     654814  HIT:     628737  MISS:      26077  HIT %:    96.0176  MISS %:    3.98235   MPKI: 0.52154
LLC LOAD INSTRUCTION	ACCESS:     302811  HIT:     301920  MISS:        891  HIT %:    99.7058  MISS %:   0.294243  MPKI: 0.01782
LLC LOAD TRANSLATION INSTRUCTION	ACCESS:        342  HIT:        316  MISS:         26  HIT %:    92.3977  MISS %:    7.60234  MPKI: 0.00052
LLC LOAD DATA	ACCESS:     103601  HIT:     100771  MISS:       2830  HIT %:    97.2684  MISS %:    2.73163  MPKI: 0.0566
LLC RFO DATA	ACCESS:      61992  HIT:      48742  MISS:      13250  HIT %:    78.6263  MISS %:    21.3737  MPKI: 0.265
LLC PREFETCH DATA	ACCESS:      93505  HIT:      84688  MISS:       8817  HIT %:    90.5706  MISS %:    9.42944  MPKI: 0.17634
LLC WRITEBACK DATA	ACCESS:      90941  HIT:      90752  MISS:        189  HIT %:    99.7922  MISS %:   0.207827  MPKI: 0.00378
LLC LOAD TRANSLATION DATA	ACCESS:       1610  HIT:       1537  MISS:         73  HIT %:    95.4658  MISS %:    4.53416  MPKI: 0.00146
LLC TRANSLATION FROM L1D PREFETCHER DATA	ACCESS:         12  HIT:         11  MISS:          1  HIT %:    91.6667  MISS %:    8.33333  MPKI: 2e-05

LLC AVERAGE MISS LATENCY: 204.405 cycles
LLC RQ	ACCESS:     470373	FORWARD:          0	MERGED:          0	TO_CACHE:     470370
LLC WQ	ACCESS:      90941	FORWARD:          4	MERGED:          0	TO_CACHE:      90941
LLC PQ	ACCESS:      93506	FORWARD:          0	MERGED:          0	TO_CACHE:      93505

LLC Dense regions hint to LLC: 0

RAW hits: 1709745
Loads Generated: 12564720
Loads sent to L1D: 10854973
Stores Generated: 6858814
Stores sent to L1D: 6858817
Major fault: 0 Minor fault: 2281
Allocated PAGES: 2281

stream: 
stream:times selected: 1324918
stream:pref_filled: 134075
stream:pref_useful: 34898
stream:pref_late: 12731
stream:misses: 12539
stream:misses_by_poll: 0

CS: 
CS:times selected: 215173
CS:pref_filled: 91279
CS:pref_useful: 67556
CS:pref_late: 12743
CS:misses: 32992
CS:misses_by_poll: 3

CPLX: 
CPLX:times selected: 1108411
CPLX:pref_filled: 32361
CPLX:pref_useful: 11803
CPLX:pref_late: 6806
CPLX:misses: 179768
CPLX:misses_by_poll: 4

NL_L1: 
NL:times selected: 22996
NL:pref_filled: 1183
NL:pref_useful: 783
NL:pref_late: 1015
NL:misses: 4233
NL:misses_by_poll: 0

total selections: 2671498
total_filled: 118987
total_useful: 67634
total_late: 36942
total_polluted: 7
total_misses_after_warmup: 842319
conflicts: 5579641

test: 124233

DRAM Statistics
 CHANNEL 0
 RQ ROW_BUFFER_HIT:       9113  ROW_BUFFER_MISS:      16761
 DBUS_CONGESTED:          6
 WQ ROW_BUFFER_HIT:       2072  ROW_BUFFER_MISS:      12461  FULL:          0

 AVG_CONGESTED_CYCLE: 5

CPU 0 Branch Prediction Accuracy: 99.8259% MPKI: 0.31964 Average ROB Occupancy at Mispredict: 143.823
Branch types
NOT_BRANCH: 40817306 81.6346%
BRANCH_DIRECT_JUMP: 540740 1.08148%
BRANCH_INDIRECT: 180201 0.360402%
BRANCH_CONDITIONAL: 6255838 12.5117%
BRANCH_DIRECT_CALL: 933616 1.86723%
BRANCH_INDIRECT_CALL: 169133 0.338266%
BRANCH_RETURN: 1102715 2.20543%
BRANCH_OTHER: 0 0%

DRAM PAGES: 1048576
Allocated PAGES: 2281
Average_ROB_Occupancy: 118.344
Average_Decode_Occupancy: 14.3099
Average_FTQ_Occupancy: 6.81876
Indirect max targets: 14 Average targets: 1.14815
Branch_type:  BRANCH_DIRECT_JUMP:  Count Percentage: 3.29371 6.75783 3.58891 7.63381 2.2268 6.33155 1.29995 68.8674 
Branch_type:  BRANCH_INDIRECT:  Count Percentage: 6.11084 3.45569 8.14159 9.70078 3.33946 2.80577 3.07622 63.3696 
Branch_type:  BRANCH_CONDITIONAL:  Count Percentage: 27.0545 3.41412 0.878307 3.8448 1.78046 4.00603 1.08744 57.9343 
Branch_type:  BRANCH_DIRECT_CALL:  Count Percentage: 0.394682 1.26401 0.416511 3.31712 2.13994 2.83915 1.00942 88.6192 
Branch_type:  BRANCH_INDIRECT_CALL:  Count Percentage: 9.56744 0 3.00951 0 0 2.34688 3.28207 81.7941 
Branch_type:  BRANCH_RETURN:  Count Percentage: 7.8894 1.34967 1.21722 3.66529 3.91883 4.73586 1.38557 75.8382 
Branch_type:  BRANCH_DIRECT_JUMP:  Total Count: 35604 73050 38795 82519 24071 68442 14052 744435 
Branch_type:  BRANCH_INDIRECT:  Total Count: 22030 12458 29351 34972 12039 10115 11090 228452 
Branch_type:  BRANCH_CONDITIONAL:  Total Count: 3383407 426966 109840 480826 222662 500989 135994 7245188 
Branch_type:  BRANCH_DIRECT_CALL:  Total Count: 7359 23568 7766 61849 39900 52937 18821 1652338 
Branch_type:  BRANCH_INDIRECT_CALL:  Total Count: 32328 0 10169 0 0 7930 11090 276379 
Branch_type:  BRANCH_RETURN:  Total Count: 173820 29736 26818 80754 86340 104341 30527 1670873 
Number of unique branch instructions: 10324
Upper 32 bits: 
aaaa
ffff
ffff0000
Unique upper 32 bits: 3
Unique upper 36 bits: 3
Unique upper 40 bits: 5
Unique upper 44 bits: 32
Unique upper 48 bits: 157
Variant_0 : 1198 0.29248
Variant_1 : 1190 0.290527
Variant_2 : 1025 0.250244
Variant_3 : 0 0
Offset_3 4251
Offset_4 257
Offset_5 470
Offset_6 532
Offset_7 611
Offset_8 527
Offset_9 508
Offset_10 409
Offset_11 338
Offset_12 278
Offset_13 213
Offset_14 229
Offset_15 201
Offset_16 235
Offset_17 158
Offset_18 135
Offset_19 251
Offset_20 147
Offset_21 245
Offset_22 404
Offset_23 241
Offset_24 333
Offset_25 88
Offset_47 80
decode_dispatch_called: 20608250 45.7867
Dispatch_width: 0 10589042 51.3825 23.5263
Dispatch_width: 1 553408 2.68537 1.22954
Dispatch_width: 2 644304 3.12644 1.43149
Dispatch_width: 3 450129 2.18422 1.00008
Dispatch_width: 4 1534914 7.44806 3.41022
Dispatch_width: 5 351093 1.70365 0.780046
Dispatch_width: 6 6485360 31.4697 14.4089
Empty_decode_cycles: 24401044 54.2133
ROB_full_cycles: 2199450 4.88666
Starvation_cycles_per_kilo_instr: 363.245
Starvation_cycles_per_kilo_instr_3: 344.385
Starvation_cycles_per_kilo_instr_0: 327.906
Branch_type_1  (3,1)  (4,9)  (5,38)  (6,75)  (7,117)  (8,129)  (9,131)  (10,105)  (11,77)  (12,45)  (13,4)  (14,2)  (15,3)  (16,4)  (18,1)  (19,4)  (20,2)  (21,1)  (22,3)  (23,2)  (24,10)  (25,12) 
Branch_type_2  (3,1)  (5,1)  (8,3)  (9,3)  (12,1)  (13,1)  (14,1)  (16,3)  (17,2)  (20,2)  (21,2)  (23,5)  (24,1)  (47,36) 
Branch_type_3  (3,4249)  (4,248)  (5,427)  (6,441)  (7,462)  (8,334)  (9,284)  (10,172)  (11,138)  (12,50)  (13,4) 
Branch_type_4  (6,4)  (7,8)  (8,26)  (9,55)  (10,62)  (11,61)  (12,101)  (13,94)  (14,101)  (15,95)  (16,107)  (17,71)  (18,62)  (19,122)  (20,75)  (21,130)  (22,217)  (23,136)  (24,194)  (25,72) 
Branch_type_5  (8,2)  (9,1)  (10,3)  (11,6)  (12,3)  (13,14)  (14,16)  (15,11)  (16,20)  (17,12)  (18,16)  (19,12)  (20,11)  (21,13)  (22,42)  (23,26)  (24,37) 
Branch_type_6  (5,4)  (6,12)  (7,24)  (8,33)  (9,34)  (10,67)  (11,56)  (12,78)  (13,96)  (14,109)  (15,92)  (16,101)  (17,73)  (18,56)  (19,113)  (20,57)  (21,99)  (22,142)  (23,72)  (24,91)  (25,4)  (47,44) 
Unique trigger count: 
Variant_0_evicts_0 : 0
Variant_0_evicts_1 : 0
Variant_0_evicts_2 : 0
Variant_0_evicts_3 : 0
Variant_1_evicts_0 : 0
Variant_1_evicts_1 : 0
Variant_1_evicts_2 : 0
Variant_1_evicts_3 : 0
Variant_2_evicts_0 : 0
Variant_2_evicts_1 : 0
Variant_2_evicts_2 : 0
Variant_2_evicts_3 : 0
Variant_3_evicts_0 : 0
Variant_3_evicts_1 : 0
Variant_3_evicts_2 : 0
Variant_3_evicts_3 : 0
BTB PER SET UNIQUE ADDR: 4 8 6 4 3 3 6 10 10 2 6 2 8 5 3 4 8 4 8 8 4 8 7 8 9 12 2 7 6 5 9 9 6 7 7 4 4 6 7 3 7 5 6 10 9 7 7 12 11 6 6 3 12 3 2 8 5 6 8 9 4 12 6 8 6 10 7 7 5 6 6 2 6 5 6 9 6 13 6 4 8 7 7 6 7 7 8 9 8 11 10 8 9 6 9 4 11 7 4 8 7 5 9 9 5 7 6 8 7 6 7 4 5 8 6 11 3 7 7 2 8 9 4 2 6 6 4 7 11 8 10 3 12 4 8 7 5 2 6 8 7 7 6 7 4 10 4 9 10 7 5 11 6 11 6 8 8 9 7 10 10 7 9 5 11 5 3 4 13 4 5 4 8 8 3 2 7 4 9 5 7 7 10 7 7 10 5 7 8 9 6 7 6 6 6 10 11 4 10 5 4 8 9 3 8 4 5 7 6 2 3 5 9 9 6 6 4 9 8 6 6 2 7 7 6 8 13 7 2 9 13 7 5 3 6 8 9 6 3 4 5 4 11 7 14 10 1 5 5 5 9 10 8 6 5 11 4 6 9 5 9 5 7 4 9 16 7 4 7 5 7 6 4 8 9 7 6 4 3 8 7 4 9 5 9 8 7 7 7 4 5 7 5 11 6 4 5 10 5 6 6 6 4 4 8 4 5 4 10 10 6 3 8 3 6 4 9 15 8 2 6 11 6 9 5 5 6 9 3 0 7 2 5 7 9 6 6 8 7 1 7 6 3 8 5 7 3 9 9 4 4 10 9 6 8 7 8 2 8 5 6 10 7 10 10 9 4 3 4 5 8 5 7 5 7 6 12 7 7 9 10 7 7 13 6 5 8 5 5 3 9 7 8 4 7 4 5 6 2 9 5 4 6 6 7 6 7 4 4 3 5 5 9 5 3 5 9 4 3 6 3 5 5 7 11 6 4 2 6 8 3 4 15 5 9 11 6 5 6 4 3 7 9 3 6 8 4 6 5 4 6 3 4 1 9 3 4 8 9 5 5 5 6 11 7 5 11 4 5 7 2 6 8 9 8 3 9 5 2 5 5 2 3 4 3 7 8 3 6 3 8 4 5 8 2 11 4 7 5 4 11 3 3 4 2 5 5 3 2 6 7 3 5 9 2 4 3 10 7 8 6 4 8 5 10 10 4 10 10 7 5 7 4 7 5 9 5 1 6 5 5 9 9 4 8 5 10 13 12 12 5 8 7 7 2 6 8 3 5 4 10 4 8 4 5 5 9 8 10 7 8 5 9 11 6 7 7 10 3 10 12 5 1 6 4 3 2 14 7 6 7 8 2 5 4 5 6 5 4 4 9 5 10 9 7 4 5 9 5 5 8 7 6 5 8 3 7 5 5 7 8 7 9 3 6 9 6 9 4 6 8 8 7 6 6 6 5 4 5 3 10 7 5 5 2 3 6 7 8 8 8 5 9 4 6 3 9 5 6 9 11 3 6 12 7 8 8 5 5 10 7 6 7 6 11 10 6 6 8 5 8 10 8 5 8 8 8 8 8 8 3 7 4 4 4 6 11 7 7 6 3 10 6 5 6 9 4 5 5 5 8 8 7 7 5 7 10 6 1 8 4 3 5 3 4 1 4 9 2 10 8 11 6 3 7 8 6 3 6 4 4 8 5 10 4 3 5 3 8 6 7 4 5 6 3 5 4 9 9 4 5 7 7 7 7 6 15 6 5 3 9 8 0 5 6 5 6 10 4 3 7 6 4 6 12 9 9 8 2 8 3 9 5 6 6 12 12 4 6 5 13 4 9 3 8 7 7 7 5 6 4 6 6 3 4 7 1 5 5 10 6 5 10 4 6 5 6 4 7 6 7 4 7 4 10 5 4 4 8 3 6 4 7 5 4 8 8 6 6 4 8 8 7 8 5 10 7 4 7 5 6 7 5 5 14 5 4 8 10 9 4 7 7 10 8 3 3 6 7 5 5 6 6 6 9 6 7 4 4 8 8 4 5 8 6 3 9 11 4 3 12 8 4 5 9 6 5 11 6 8 9 6 4 3 2 8 5 4 7 7 8 5 11 6 8 9 6 4 5 10 5 4 10 10 5 8 10 10 3 10 7 8 4 4 7 8 10 6 8 3 10 2 13 8 3 6 9 11 7 9 5 7 10 5 3 8 10 8 8 4 2 7 3 9 12 6 7 5 4 7 11 6 4 6 6 6 4 4 8 7 8 9 7 11 5 9 7 11 5 6 3 4 6 4 6 6 8 4 6 4 8 3 8 6 10 4 9 4 3 6 10 6 12 5 
BTB PER SET COUNT: 4 966 6 4 3 3 6 1985 7246 3 9 1939 1446 8 3 7 1422 4 53 2411 4 9 10 993 5804 1445 2 7 1453 5 4128 249 2790 11 8 5 2898 6 14 3 22 5 9 2196 5318 10 7 5242 2283 6 6 3 12171 4 2 1441 6 6 12 234 4 3167 8 11 6 490 1934 25 5 6 1196 2 11 5 961 42 484 6408 969 5 1071 962 1418 726 960 515 16 21 3810 1874 1456 540 1916 6 18 5 967 7 4 9 7 5 9 1631 6 8 1432 3935 2382 11 1911 4 6 8 11 7427 5 7 10 2 11 35 4 2 2385 7 4 51 7429 1934 1469 3 3849 4 3311 75 6 2 6 1265 7 16 7 7 4 1936 4 10 1221 2392 5 4308 9 9171 7 15 10 1920 1409 965 4868 79 1935 1016 64 2918 4 4 4416 962 5 4 11 153 3 2 9 482 1966 5 7 27 1454 13 14 8695 5 7 2970 11 7 14 6 1915 1432 18 1956 4 35 5 4 30 16 5 16 4 5 2594 6 2 4 9 68 4827 8 6 9 14 26 6 6 2 11 9 6 12 6252 1968 2 2905 8091 7 5 3 9 3876 3342 6 3 4 6 6 5789 7 4114 11 1 5 5 5 10 2639 12 6 5 4173 5 8 1436 5 1482 5 7 6 2659 8384 978 4 2396 6 1918 7 4 8 27 736 6 4 4 2394 9 958 11 5 3617 1440 10 967 8 4 5 3391 1473 3854 2869 961 10 3995 5 6 6 8 4 5 9 4 5 4 4623 37 9 3 968 3 6 5 16 2895 1476 2 7 40 8 13 20 7 6 1334 3 0 3591 2 5 9 1949 13 2392 40 16 1 35 6 5 2764 961 1035 3 10 487 4 4 1084 9 1940 10 41 50 2 5120 10 6 1941 15 2884 2331 48 5 3 8 7 14 5 9 10 52 6 7663 7 14 834 3353 2863 7 8432 9 6 37 5 5 3 2400 13 3816 5 1445 5 1453 42 2 19 7 4 1429 7 766 6 2901 4 4 2174 5 5 2505 7 972 5 188 4 4 1332 4 961 5 16 46 9 12 2 11 18 14 7 5582 5 1789 68 8 5 1908 7 3 11 352 3 9 968 4 976 5 5 8 3 6 1 248 3 4 29 522 6 957 10 10 45 64 5 3612 6 5 21 2 17 4639 1449 144 3 25360 6 2 9 7 2 3 481 3 9 1457 340 6 3 10 4 7 11 2 7236 4 10 5 4 33 26 3 6 2 5 6 4 2 8 10 3 5 59 3 4 3 9674 8 973 6 1451 12 466 27 2365 4 12 677 10 6 14 4 9 5 1415 5 1 13 5 8 1441 24 6 1971 5 71 157 2892 8162 8 990 10 10 2 10 1716 3 5 4 7890 1944 2396 4 5 5 38 14 13 989 1125 8 1441 4816 1433 2390 62 3819 3 4163 9090 16 1 959 1451 3 2 7159 11 9 12 62 3 1942 974 5 7 5 7 5 18 6 7028 733 2895 2872 6 1435 5 5 3810 11 11 5 11 3 1971 5 5 7 9 2244 1761 4 1454 15 7 2420 11 2662 486 1455 8 6 6 13 5 4 5 3 7728 7 5 6 2 8 7 9 953 12 14 5 10130 4 9 3 53 5 1441 3833 7703 3 13 7172 9 1440 2921 962 20 81 1968 6 9 960 6207 3398 487 10 2410 5 1919 7463 8 964 20751 1452 59 4788 1461 12 3 2200 11 4 4 6 8310 11 14 35 3 2872 7 5 119 3824 5 2422 5 1452 122 8 15 1003 963 9 1482 589 1 17 4 4 6 3 1941 1 959 1516 2 9386 1953 178 1941 6 10 12 268 3 11 4 7 8 5 9854 4 3 485 3 11 958 48 5 6 721 3 5 4 15 6263 1941 6 7 1038 930 3882 6 6111 6 17 3 28 19 0 157 9 1454 9 3244 6 3 2389 27 4 3403 963 99 11 18 422 965 3 1671 18 6 223 4617 1404 5 7 5 2816 4 230 955 1939 2898 13 9 7 10 4 10 6 507 5 14 2 6 6 3404 10 5 3414 367 1466 8 1944 4 2399 59 1619 4 928 4 7802 941 961 5 26 3 440 4 12 1454 4 19 3685 21 8 5 3349 1674 7 13 7 11519 7 4 7 12 17 10 6 5 7077 974 4 2389 2882 57 4 26 7 1210 13 3 3 7 10 5 5 6 7 7 16 14 1451 4 4 952 10 6 7 1493 6 3 39 3206 5 3 5155 2411 245 48 2750 9 6 4020 7 12 1132 9 6 3 5 23 5 960 3288 2171 15 5 3898 9 33 377 9 4 5 2904 8 484 3496 1527 5 9 2952 1850 5 3358 7 905 4 974 11 47 19 244 11 3 3584 2 8158 17 3 7 1453 11066 15 2860 5 491 8193 8 4 1151 49 13 8 7 2 11 3 3143 5781 8 976 5 8 7 1463 9 482 6 6 9 4 5 10 7 1436 968 21 2626 9 1458 8 5477 13 6 3 4 20 4 10 6 1443 4 6 5 6760 3 7180 237 3223 5 1413 6 3 7 3406 9 4164 9 
To predecode: 0
Predecoding something: 0
Predecode request dropped: 0
sizeofblock_0 0
sizeofblock_1 259252
sizeofblock_2 183223
sizeofblock_3 131143
sizeofblock_4 75143
sizeofblock_5 0
sizeofblock_6 0
sizeofblock_7 0
sizeofblock_8 0
Variant_0 Correct: 0 Incorrect: 0 Accuracy: -nan
Variant_1 Correct: 0 Incorrect: 0 Accuracy: -nan
Variant_2 Correct: 0 Incorrect: 0 Accuracy: -nan
Variant_3 Correct: 0 Incorrect: 0 Accuracy: -nan
