
*** ChampSim Multicore Out-of-Order Simulator ***

Warmup Instructions: 50000000
Simulation Instructions: 50000000
Number of CPUs: 1
LLC sets: 2048
LLC ways: 16
Off-chip DRAM Size: 4096 MB Channels: 1 Width: 64-bit Data Rate: 6400 MT/s
CPU 0 runs ./micro_traces/srv74.trace.gz
.gz
ITLB has LRU replacement policy
DTLB has LRU replacement policy
STLB has LRU replacement policy
FDIP Prefetcher at L1I
L1I has LRU replacement policy
L1D has LRU replacement policy
Initialize SRRIP state for L2C
Initialize DRRIP state for LLC
Heartbeat_Variant_0 : 1296 0.316406 per_variant_size: 0 1296 0 0 0 0 0 0 0 
Heartbeat_Variant_1 : 2481 0.605713 per_variant_size: 0 599 1882 0 0 0 0 0 0 
Heartbeat_Variant_2 : 0 0 per_variant_size: 0 0 0 0 0 0 0 0 0 
Heartbeat_Variant_3 : 0 0 per_variant_size: 0 0 0 0 0 0 0 0 0 
Heartbeat_Variant_0_evicts 0 : 5736 1 : 360 2 : 0 3 : 0 
Heartbeat_Variant_1_evicts 0 : 328 1 : 0 2 : 0 3 : 0 
Heartbeat_Variant_2_evicts 0 : 0 1 : 0 2 : 0 3 : 0 
Heartbeat_Variant_3_evicts 0 : 0 1 : 0 2 : 0 3 : 0 
Heartbeat CPU 0 instructions: 10000003 cycles: 2795555 heartbeat IPC: 3.57711 cumulative IPC: 3.57711 (Simulation time: 0 hr 1 min 43 sec) 
Heartbeat_Variant_0 : 1348 0.329102 per_variant_size: 0 1348 0 0 0 0 0 0 0 
Heartbeat_Variant_1 : 2590 0.632324 per_variant_size: 0 513 2077 0 0 0 0 0 0 
Heartbeat_Variant_2 : 0 0 per_variant_size: 0 0 0 0 0 0 0 0 0 
Heartbeat_Variant_3 : 0 0 per_variant_size: 0 0 0 0 0 0 0 0 0 
Heartbeat_Variant_0_evicts 0 : 5893 1 : 301 2 : 0 3 : 0 
Heartbeat_Variant_1_evicts 0 : 297 1 : 0 2 : 0 3 : 0 
Heartbeat_Variant_2_evicts 0 : 0 1 : 0 2 : 0 3 : 0 
Heartbeat_Variant_3_evicts 0 : 0 1 : 0 2 : 0 3 : 0 
Heartbeat CPU 0 instructions: 20000001 cycles: 5591881 heartbeat IPC: 3.57612 cumulative IPC: 3.57661 (Simulation time: 0 hr 3 min 13 sec) 
Heartbeat_Variant_0 : 1373 0.335205 per_variant_size: 0 1373 0 0 0 0 0 0 0 
Heartbeat_Variant_1 : 2660 0.649414 per_variant_size: 0 417 2243 0 0 0 0 0 0 
Heartbeat_Variant_2 : 0 0 per_variant_size: 0 0 0 0 0 0 0 0 0 
Heartbeat_Variant_3 : 0 0 per_variant_size: 0 0 0 0 0 0 0 0 0 
Heartbeat_Variant_0_evicts 0 : 5892 1 : 809 2 : 0 3 : 0 
Heartbeat_Variant_1_evicts 0 : 809 1 : 0 2 : 0 3 : 0 
Heartbeat_Variant_2_evicts 0 : 0 1 : 0 2 : 0 3 : 0 
Heartbeat_Variant_3_evicts 0 : 0 1 : 0 2 : 0 3 : 0 
Heartbeat CPU 0 instructions: 30000002 cycles: 8387724 heartbeat IPC: 3.57674 cumulative IPC: 3.57666 (Simulation time: 0 hr 4 min 42 sec) 
Heartbeat_Variant_0 : 1381 0.337158 per_variant_size: 0 1381 0 0 0 0 0 0 0 
Heartbeat_Variant_1 : 2672 0.652344 per_variant_size: 0 399 2273 0 0 0 0 0 0 
Heartbeat_Variant_2 : 0 0 per_variant_size: 0 0 0 0 0 0 0 0 0 
Heartbeat_Variant_3 : 0 0 per_variant_size: 0 0 0 0 0 0 0 0 0 
Heartbeat_Variant_0_evicts 0 : 5696 1 : 410 2 : 0 3 : 0 
Heartbeat_Variant_1_evicts 0 : 408 1 : 0 2 : 0 3 : 0 
Heartbeat_Variant_2_evicts 0 : 0 1 : 0 2 : 0 3 : 0 
Heartbeat_Variant_3_evicts 0 : 0 1 : 0 2 : 0 3 : 0 
Heartbeat CPU 0 instructions: 40000002 cycles: 11182471 heartbeat IPC: 3.57814 cumulative IPC: 3.57703 (Simulation time: 0 hr 6 min 8 sec) 
Heartbeat_Variant_0 : 1373 0.335205 per_variant_size: 0 1373 0 0 0 0 0 0 0 
Heartbeat_Variant_1 : 2683 0.655029 per_variant_size: 0 413 2270 0 0 0 0 0 0 
Heartbeat_Variant_2 : 0 0 per_variant_size: 0 0 0 0 0 0 0 0 0 
Heartbeat_Variant_3 : 0 0 per_variant_size: 0 0 0 0 0 0 0 0 0 
Heartbeat_Variant_0_evicts 0 : 5707 1 : 288 2 : 0 3 : 0 
Heartbeat_Variant_1_evicts 0 : 297 1 : 0 2 : 0 3 : 0 
Heartbeat_Variant_2_evicts 0 : 0 1 : 0 2 : 0 3 : 0 
Heartbeat_Variant_3_evicts 0 : 0 1 : 0 2 : 0 3 : 0 
Heartbeat CPU 0 instructions: 50000002 cycles: 13976952 heartbeat IPC: 3.57848 cumulative IPC: 3.57732 (Simulation time: 0 hr 7 min 28 sec) 

Warmup complete CPU 0 instructions: 50000002 cycles: 13976952 (Simulation time: 0 hr 7 min 28 sec) 

Cycle: 20000000 FTQ IN: 58499774 FTQ occupancy: 20.5279 DECODE IN: 58499774 DECODE occupancy: 53.505 ROB IN: 58499774 ROB occupancy: 319.141 ROB OUT: 58499647
Heartbeat_Variant_0 : 1375 0.335693 per_variant_size: 0 1375 0 0 0 0 0 0 0 
Heartbeat_Variant_1 : 2681 0.654541 per_variant_size: 0 413 2268 0 0 0 0 0 0 
Heartbeat_Variant_2 : 0 0 per_variant_size: 0 0 0 0 0 0 0 0 0 
Heartbeat_Variant_3 : 0 0 per_variant_size: 0 0 0 0 0 0 0 0 0 
Heartbeat_Variant_0_evicts 0 : 5615 1 : 9 2 : 0 3 : 0 
Heartbeat_Variant_1_evicts 0 : 7 1 : 0 2 : 0 3 : 0 
Heartbeat_Variant_2_evicts 0 : 0 1 : 0 2 : 0 3 : 0 
Heartbeat_Variant_3_evicts 0 : 0 1 : 0 2 : 0 3 : 0 
Heartbeat CPU 0 instructions: 60000001 cycles: 21055753 heartbeat IPC: 1.41267 cumulative IPC: 1.41267 (Simulation time: 0 hr 9 min 11 sec) 
Heartbeat_Variant_0 : 1374 0.335449 per_variant_size: 0 1374 0 0 0 0 0 0 0 
Heartbeat_Variant_1 : 2690 0.656738 per_variant_size: 0 420 2270 0 0 0 0 0 0 
Heartbeat_Variant_2 : 0 0 per_variant_size: 0 0 0 0 0 0 0 0 0 
Heartbeat_Variant_3 : 0 0 per_variant_size: 0 0 0 0 0 0 0 0 0 
Heartbeat_Variant_0_evicts 0 : 5742 1 : 372 2 : 0 3 : 0 
Heartbeat_Variant_1_evicts 0 : 374 1 : 0 2 : 0 3 : 0 
Heartbeat_Variant_2_evicts 0 : 0 1 : 0 2 : 0 3 : 0 
Heartbeat_Variant_3_evicts 0 : 0 1 : 0 2 : 0 3 : 0 
Heartbeat CPU 0 instructions: 70000001 cycles: 28251628 heartbeat IPC: 1.38969 cumulative IPC: 1.40108 (Simulation time: 0 hr 10 min 52 sec) 
Cycle: 30000000 FTQ IN: 13970270 FTQ occupancy: 14.6535 DECODE IN: 13970249 DECODE occupancy: 37.641 ROB IN: 13970249 ROB occupancy: 247.443 ROB OUT: 13970364
Heartbeat_Variant_0 : 1374 0.335449 per_variant_size: 0 1374 0 0 0 0 0 0 0 
Heartbeat_Variant_1 : 2690 0.656738 per_variant_size: 0 424 2266 0 0 0 0 0 0 
Heartbeat_Variant_2 : 0 0 per_variant_size: 0 0 0 0 0 0 0 0 0 
Heartbeat_Variant_3 : 0 0 per_variant_size: 0 0 0 0 0 0 0 0 0 
Heartbeat_Variant_0_evicts 0 : 5616 1 : 8 2 : 0 3 : 0 
Heartbeat_Variant_1_evicts 0 : 8 1 : 0 2 : 0 3 : 0 
Heartbeat_Variant_2_evicts 0 : 0 1 : 0 2 : 0 3 : 0 
Heartbeat_Variant_3_evicts 0 : 0 1 : 0 2 : 0 3 : 0 
Heartbeat CPU 0 instructions: 80000000 cycles: 35327796 heartbeat IPC: 1.41319 cumulative IPC: 1.4051 (Simulation time: 0 hr 12 min 34 sec) 
Cycle: 40000000 FTQ IN: 14017546 FTQ occupancy: 14.8139 DECODE IN: 14017471 DECODE occupancy: 38.1356 ROB IN: 14017411 ROB occupancy: 249.678 ROB OUT: 14017073
Heartbeat_Variant_0 : 1380 0.336914 per_variant_size: 0 1380 0 0 0 0 0 0 0 
Heartbeat_Variant_1 : 2689 0.656494 per_variant_size: 0 436 2253 0 0 0 0 0 0 
Heartbeat_Variant_2 : 0 0 per_variant_size: 0 0 0 0 0 0 0 0 0 
Heartbeat_Variant_3 : 0 0 per_variant_size: 0 0 0 0 0 0 0 0 0 
Heartbeat_Variant_0_evicts 0 : 5764 1 : 209 2 : 0 3 : 0 
Heartbeat_Variant_1_evicts 0 : 203 1 : 0 2 : 0 3 : 0 
Heartbeat_Variant_2_evicts 0 : 0 1 : 0 2 : 0 3 : 0 
Heartbeat_Variant_3_evicts 0 : 0 1 : 0 2 : 0 3 : 0 
Heartbeat CPU 0 instructions: 90000003 cycles: 42486787 heartbeat IPC: 1.39685 cumulative IPC: 1.40302 (Simulation time: 0 hr 14 min 14 sec) 
Heartbeat_Variant_0 : 1380 0.336914 per_variant_size: 0 1380 0 0 0 0 0 0 0 
Heartbeat_Variant_1 : 2689 0.656494 per_variant_size: 0 439 2250 0 0 0 0 0 0 
Heartbeat_Variant_2 : 0 0 per_variant_size: 0 0 0 0 0 0 0 0 0 
Heartbeat_Variant_3 : 0 0 per_variant_size: 0 0 0 0 0 0 0 0 0 
Heartbeat_Variant_0_evicts 0 : 5536 1 : 2 2 : 0 3 : 0 
Heartbeat_Variant_1_evicts 0 : 2 1 : 0 2 : 0 3 : 0 
Heartbeat_Variant_2_evicts 0 : 0 1 : 0 2 : 0 3 : 0 
Heartbeat_Variant_3_evicts 0 : 0 1 : 0 2 : 0 3 : 0 
Heartbeat CPU 0 instructions: 100000002 cycles: 49546890 heartbeat IPC: 1.41641 cumulative IPC: 1.40568 (Simulation time: 0 hr 15 min 47 sec) 
Finished CPU 0 instructions: 50000000 cycles: 35569938 cumulative IPC: 1.40568 (Simulation time: 0 hr 15 min 47 sec) 

ChampSim completed all CPUs

Region of Interest Statistics

CPU 0 cumulative IPC: 1.40568 instructions: 50000000 cycles: 35569938
 Fetch stage stalled: 46.2385  Sim cycles: 35569938 fetch stall cycle: 16447021
 Empty decode stage: 25.2849  Sim cycles: 35569938 fetch stall cycle: 8993829
ITLB TOTAL     ACCESS:    5824554  HIT:    5331808  MISS:     492746  HIT %:    91.5402  MISS %:    8.45981   MPKI: 9.85492
ITLB LOAD TRANSLATION INSTRUCTION	ACCESS:    5689204  HIT:    5196458  MISS:     492746  HIT %:    91.3389  MISS %:    8.66107  MPKI: 9.85492
ITLB TRANSLATION FROM L1D PREFETCHER INSTRUCTION	ACCESS:     135350  HIT:     135350  MISS:          0  HIT %:        100  MISS %:          0  MPKI: 0

ITLB AVERAGE MISS LATENCY: 9.04451 cycles
ITLB RQ	ACCESS:    7925920	FORWARD:          0	MERGED:    1617893	TO_CACHE:    6308027

DTLB TOTAL     ACCESS:    8949141  HIT:    8478601  MISS:     470540  HIT %:    94.7421  MISS %:    5.25793   MPKI: 9.4108
DTLB LOAD TRANSLATION DATA	ACCESS:    8949141  HIT:    8478601  MISS:     470540  HIT %:    94.7421  MISS %:    5.25793  MPKI: 9.4108

DTLB AVERAGE MISS LATENCY: 9.30074 cycles
DTLB RQ	ACCESS:   13316107	FORWARD:          0	MERGED:    4330984	TO_CACHE:    8985123

STLB TOTAL     ACCESS:    1210961  HIT:    1209026  MISS:       1935  HIT %:    99.8402  MISS %:    0.15979   MPKI: 0.0387
STLB LOAD TRANSLATION INSTRUCTION	ACCESS:     492746  HIT:     492507  MISS:        239  HIT %:    99.9515  MISS %:  0.0485037  MPKI: 0.00478
STLB LOAD TRANSLATION DATA	ACCESS:     470540  HIT:     468870  MISS:       1670  HIT %:    99.6451  MISS %:   0.354911  MPKI: 0.0334
STLB TRANSLATION FROM L1D PREFETCHER DATA	ACCESS:     247675  HIT:     247649  MISS:         26  HIT %:    99.9895  MISS %:  0.0104976  MPKI: 0.00052

STLB AVERAGE MISS LATENCY: 68.4315 cycles
STLB RQ	ACCESS:    1332718	FORWARD:          0	MERGED:     121709	TO_CACHE:    1211009

STLB Hit, L1D data hit: 0
STLB Hit, L2C data hit: 0
STLB Hit, LLC data hit: 0
STLB Hit, LLC data miss: 0
STLB STLB hints to L2: 0
L1D TOTAL     ACCESS:   13145211  HIT:   12178469  MISS:     966742  HIT %:    92.6457  MISS %:    7.35433   MPKI: 19.3348
L1D LOAD DATA	ACCESS:    6543611  HIT:    5911827  MISS:     631784  HIT %:     90.345  MISS %:    9.65497  MPKI: 12.6357
L1D RFO DATA	ACCESS:    6268243  HIT:    6020342  MISS:     247901  HIT %:    96.0451  MISS %:    3.95487  MPKI: 4.95802
L1D PREFETCH DATA	ACCESS:     333357  HIT:     246300  MISS:      87057  HIT %:    73.8848  MISS %:    26.1152  MPKI: 1.74114

L1D PREFETCH  REQUESTED:     739220  ISSUED:     739220  USEFUL:      30348  USELESS:      63808
L1D USEFUL LOAD PREFETCHES:      30348 PREFETCH ISSUED TO LOWER LEVEL:      94198  ACCURACY: 32.2172
 TIMELY PREFETCHES:      30348 LATE PREFETCHES: 7102 DROPPED PREFETCHES: 10
L1D AVERAGE MISS LATENCY: 235715 cycles
L1D RQ	ACCESS:   10683374	FORWARD:          0	MERGED:    3943313	TO_CACHE:    6573162
L1D WQ	ACCESS:    6941120	FORWARD:     167255	MERGED:     198175	TO_CACHE:    6742945
L1D PQ	ACCESS:     369788	FORWARD:          0	MERGED:          0	TO_CACHE:     369432

L1D UNIQUE REGIONS ACCESSED: 0
L1D REGIONS CONFLICTS: 0
L1D Cross Page Prefetch Requests: 7052
L1D Same Page Prefetch Requests: 748782
L1D ROI Sum of L1D PQ occupancy: 4689181
L1D PREFETCHES PUSHED FROM L2C: 0
L1I TOTAL     ACCESS:    7122914  HIT:    4366366  MISS:    2756548  HIT %:    61.3003  MISS %:    38.6997   MPKI: 55.131
L1I LOAD INSTRUCTION	ACCESS:    6451832  HIT:    3695284  MISS:    2756548  HIT %:     57.275  MISS %:     42.725  MPKI: 55.131
L1I PREFETCH INSTRUCTION	ACCESS:     671082  HIT:     671082  MISS:          0  HIT %:        100  MISS %:          0  MPKI: 0

L1I PREFETCH  REQUESTED:    1611340  ISSUED:    1611340  USEFUL:          0  USELESS:          0
L1I USEFUL LOAD PREFETCHES:          0 PREFETCH ISSUED TO LOWER LEVEL:          0  ACCURACY: -nan
 TIMELY PREFETCHES:          0 LATE PREFETCHES: 0 DROPPED PREFETCHES: 0
L1I AVERAGE MISS LATENCY: 16.8368 cycles
L1I RQ	ACCESS:    9565450	FORWARD:          0	MERGED:    2821899	TO_CACHE:    6743551
L1I PQ	ACCESS:    1611340	FORWARD:          0	MERGED:     428971	TO_CACHE:    1182369

L1BTB TOTAL     ACCESS:    5669406  HIT:    2046867  MISS:    3622539  HIT %:    36.1037  MISS %:    63.8963   MPKI: 72.4508
L1BTB BRANCH_DIRECT_JUMP	ACCESS:     548178 HIT:     144939 MISS:     403239 AVERAGE STALL: 55.4929 AVERAGE FETCH STALL: 13.8035 AVERAGE FETCH QUEUE STALL: 20.1985 AVERAGE DECODE STALL: 20.5581 AVERAGE EXECUTE STALL: 2.30555e+15
L1BTB BRANCH_INDIRECT	ACCESS:     182906 HIT:      66117 MISS:     116789 AVERAGE STALL: 111.599 AVERAGE FETCH STALL: 10.9849 AVERAGE FETCH QUEUE STALL: 18.5651 AVERAGE DECODE STALL: 13.7632 AVERAGE EXECUTE STALL: 67.3238
L1BTB BRANCH_CONDITIONAL	ACCESS:    2706776 HIT:    1416532 MISS:    1290244 AVERAGE STALL: 71.9668 AVERAGE FETCH STALL: 18.083 AVERAGE FETCH QUEUE STALL: 30.8001 AVERAGE DECODE STALL: 22.3095 AVERAGE EXECUTE STALL: 2.72558e+15
L1BTB BRANCH_DIRECT_CALL	ACCESS:     943781 HIT:     106075 MISS:     837706 AVERAGE STALL: 67.2644 AVERAGE FETCH STALL: 23.341 AVERAGE FETCH QUEUE STALL: 25.4087 AVERAGE DECODE STALL: 17.8072 AVERAGE EXECUTE STALL: 1.03984e+16
L1BTB BRANCH_INDIRECT_CALL	ACCESS:     171992 HIT:      21754 MISS:     150238 AVERAGE STALL: 138.763 AVERAGE FETCH STALL: 12.2642 AVERAGE FETCH QUEUE STALL: 17.3294 AVERAGE DECODE STALL: 12.2744 AVERAGE EXECUTE STALL: 96.4074
L1BTB BRANCH_RETURN	ACCESS:    1115773 HIT:     291450 MISS:     824323 AVERAGE STALL: 49.1783 AVERAGE FETCH STALL: 16.7876 AVERAGE FETCH QUEUE STALL: 5.22831 AVERAGE DECODE STALL: 6.30216 AVERAGE EXECUTE STALL: 4.26652e+14
L1BTB BRANCH_OTHER ACCESS:          0 HIT:          0 MISS:          0 AVERAGE STALL: -nan AVERAGE FETCH STALL: -nan AVERAGE FETCH QUEUE STALL: -nan AVERAGE DECODE STALL: -nan AVERAGE EXECUTE STALL: -nan
L1BTB TOTAL ROB OCCUPANCY AT BTB MISS: 2.89661

L2BTB TOTAL     ACCESS:    3597116  HIT:    3529923  MISS:      67193  HIT %:     98.132  MISS %:    1.86797   MPKI: 1.34386
L2BTB BRANCH_DIRECT_JUMP	ACCESS:     399049 HIT:     395236 MISS:       3813 AVERAGE STALL: 55.4929 AVERAGE FETCH STALL: 13.8035 AVERAGE FETCH QUEUE STALL: 20.1985 AVERAGE DECODE STALL: 20.5581 AVERAGE EXECUTE STALL: 2.30555e+15
L2BTB BRANCH_INDIRECT	ACCESS:     106533 HIT:     103806 MISS:       2727 AVERAGE STALL: 111.599 AVERAGE FETCH STALL: 10.9849 AVERAGE FETCH QUEUE STALL: 18.5651 AVERAGE DECODE STALL: 13.7632 AVERAGE EXECUTE STALL: 67.3238
L2BTB BRANCH_CONDITIONAL	ACCESS:    1290244 HIT:    1283442 MISS:       6802 AVERAGE STALL: 71.9668 AVERAGE FETCH STALL: 18.083 AVERAGE FETCH QUEUE STALL: 30.8001 AVERAGE DECODE STALL: 22.3095 AVERAGE EXECUTE STALL: 2.72558e+15
L2BTB BRANCH_DIRECT_CALL	ACCESS:     837706 HIT:     835919 MISS:       1787 AVERAGE STALL: 67.2644 AVERAGE FETCH STALL: 23.341 AVERAGE FETCH QUEUE STALL: 25.4087 AVERAGE DECODE STALL: 17.8072 AVERAGE EXECUTE STALL: 1.03984e+16
L2BTB BRANCH_INDIRECT_CALL	ACCESS:     140663 HIT:     130447 MISS:      10216 AVERAGE STALL: 138.763 AVERAGE FETCH STALL: 12.2642 AVERAGE FETCH QUEUE STALL: 17.3294 AVERAGE DECODE STALL: 12.2744 AVERAGE EXECUTE STALL: 96.4074
L2BTB BRANCH_RETURN	ACCESS:     822921 HIT:     781073 MISS:      41848 AVERAGE STALL: 49.1783 AVERAGE FETCH STALL: 16.7876 AVERAGE FETCH QUEUE STALL: 5.22831 AVERAGE DECODE STALL: 6.30216 AVERAGE EXECUTE STALL: 4.26652e+14
L2BTB BRANCH_OTHER ACCESS:          0 HIT:          0 MISS:          0 AVERAGE STALL: -nan AVERAGE FETCH STALL: -nan AVERAGE FETCH QUEUE STALL: -nan AVERAGE DECODE STALL: -nan AVERAGE EXECUTE STALL: -nan
L2BTB TOTAL ROB OCCUPANCY AT BTB MISS: 156.164

L2C TOTAL     ACCESS:    4253496  HIT:    3833480  MISS:     420016  HIT %:    90.1254  MISS %:    9.87461   MPKI: 8.40032
L2C LOAD INSTRUCTION	ACCESS:    2756548  HIT:    2534824  MISS:     221724  HIT %:    91.9565  MISS %:    8.04354  MPKI: 4.43448
L2C LOAD TRANSLATION INSTRUCTION	ACCESS:        269  HIT:         65  MISS:        204  HIT %:    24.1636  MISS %:    75.8364  MPKI: 0.00408
L2C LOAD DATA	ACCESS:     624649  HIT:     552318  MISS:      72331  HIT %:    88.4205  MISS %:    11.5795  MPKI: 1.44662
L2C RFO DATA	ACCESS:     247799  HIT:     203941  MISS:      43858  HIT %:     82.301  MISS %:     17.699  MPKI: 0.87716
L2C PREFETCH DATA	ACCESS:     173787  HIT:     108621  MISS:      65166  HIT %:    62.5024  MISS %:    37.4976  MPKI: 1.30332
L2C WRITEBACK DATA	ACCESS:     448677  HIT:     433194  MISS:      15483  HIT %:    96.5492  MISS %:    3.45081  MPKI: 0.30966
L2C LOAD TRANSLATION DATA	ACCESS:       1716  HIT:        484  MISS:       1232  HIT %:    28.2051  MISS %:    71.7949  MPKI: 0.02464
L2C TRANSLATION FROM L1D PREFETCHER DATA	ACCESS:         51  HIT:         33  MISS:         18  HIT %:    64.7059  MISS %:    35.2941  MPKI: 0.00036

L2C PREFETCH  REQUESTED:      87764  ISSUED:      87764  USEFUL:       7241  USELESS:      58513
L2C USEFUL LOAD PREFETCHES:       7241 PREFETCH ISSUED TO LOWER LEVEL:      65638  ACCURACY: 11.0317
 TIMELY PREFETCHES:       7241 LATE PREFETCHES: 472 DROPPED PREFETCHES: 0
L2C AVERAGE MISS LATENCY: 38.9581 cycles
L2C RQ	ACCESS:    3631128	FORWARD:          0	MERGED:          0	TO_CACHE:    3631032
L2C WQ	ACCESS:     448678	FORWARD:         96	MERGED:          0	TO_CACHE:     448678
L2C PQ	ACCESS:     181962	FORWARD:          0	MERGED:       3897	TO_CACHE:     178065

L2C Dense regions hint from L2: 0
PSCL5 TOTAL     ACCESS:       3898  HIT:       1949  MISS:       1949  HIT %:         50  MISS %:         50   MPKI: 0.03898
PSCL5 LOAD TRANSLATION INSTRUCTION	ACCESS:       3796  HIT:       1898  MISS:       1898  HIT %:         50  MISS %:         50  MPKI: 0.03796
PSCL5 TRANSLATION FROM L1D PREFETCHER INSTRUCTION	ACCESS:        102  HIT:         51  MISS:         51  HIT %:         50  MISS %:         50  MPKI: 0.00102


PSCL4 TOTAL     ACCESS:       3847  HIT:       1921  MISS:       1926  HIT %:     49.935  MISS %:     50.065   MPKI: 0.03852
PSCL4 LOAD TRANSLATION INSTRUCTION	ACCESS:       3487  HIT:       1877  MISS:       1610  HIT %:    53.8285  MISS %:    46.1715  MPKI: 0.0322
PSCL4 TRANSLATION FROM L1D PREFETCHER INSTRUCTION	ACCESS:         88  HIT:         44  MISS:         44  HIT %:         50  MISS %:         50  MPKI: 0.00088
PSCL4 LOAD TRANSLATION DATA	ACCESS:        272  HIT:          0  MISS:        272  HIT %:          0  MISS %:        100  MPKI: 0.00544


PSCL3 TOTAL     ACCESS:       3853  HIT:       1924  MISS:       1929  HIT %:    49.9351  MISS %:    50.0649   MPKI: 0.03858
PSCL3 LOAD TRANSLATION INSTRUCTION	ACCESS:       3490  HIT:       1880  MISS:       1610  HIT %:    53.8682  MISS %:    46.1318  MPKI: 0.0322
PSCL3 TRANSLATION FROM L1D PREFETCHER INSTRUCTION	ACCESS:         88  HIT:         44  MISS:         44  HIT %:         50  MISS %:         50  MPKI: 0.00088
PSCL3 LOAD TRANSLATION DATA	ACCESS:        275  HIT:          0  MISS:        275  HIT %:          0  MISS %:        100  MPKI: 0.0055


PSCL2 TOTAL     ACCESS:       3820  HIT:       1871  MISS:       1949  HIT %:    48.9791  MISS %:    51.0209   MPKI: 0.03898
PSCL2 LOAD TRANSLATION INSTRUCTION	ACCESS:       2059  HIT:       1820  MISS:        239  HIT %:    88.3924  MISS %:    11.6076  MPKI: 0.00478
PSCL2 TRANSLATION FROM L1D PREFETCHER INSTRUCTION	ACCESS:         51  HIT:         51  MISS:          0  HIT %:        100  MISS %:          0  MPKI: 0
PSCL2 LOAD TRANSLATION DATA	ACCESS:       1659  HIT:          0  MISS:       1659  HIT %:          0  MISS %:        100  MPKI: 0.03318
PSCL2 TRANSLATION FROM L1D PREFETCHER DATA	ACCESS:         51  HIT:          0  MISS:         51  HIT %:          0  MISS %:        100  MPKI: 0.00102


LLC TOTAL     ACCESS:     467637  HIT:     440850  MISS:      26787  HIT %:    94.2718  MISS %:    5.72816   MPKI: 0.53574
LLC LOAD INSTRUCTION	ACCESS:     221723  HIT:     221021  MISS:        702  HIT %:    99.6834  MISS %:   0.316611  MPKI: 0.01404
LLC LOAD TRANSLATION INSTRUCTION	ACCESS:        204  HIT:        181  MISS:         23  HIT %:    88.7255  MISS %:    11.2745  MPKI: 0.00046
LLC LOAD DATA	ACCESS:      71870  HIT:      68724  MISS:       3146  HIT %:    95.6227  MISS %:    4.37735  MPKI: 0.06292
LLC RFO DATA	ACCESS:      43846  HIT:      30736  MISS:      13110  HIT %:    70.0999  MISS %:    29.9001  MPKI: 0.2622
LLC PREFETCH DATA	ACCESS:      65638  HIT:      56269  MISS:       9369  HIT %:    85.7263  MISS %:    14.2737  MPKI: 0.18738
LLC WRITEBACK DATA	ACCESS:      63106  HIT:      62720  MISS:        386  HIT %:    99.3883  MISS %:   0.611669  MPKI: 0.00772
LLC LOAD TRANSLATION DATA	ACCESS:       1232  HIT:       1181  MISS:         51  HIT %:    95.8604  MISS %:    4.13961  MPKI: 0.00102
LLC TRANSLATION FROM L1D PREFETCHER DATA	ACCESS:         18  HIT:         18  MISS:          0  HIT %:        100  MISS %:          0  MPKI: 0

LLC AVERAGE MISS LATENCY: 156.378 cycles
LLC RQ	ACCESS:     338895	FORWARD:          0	MERGED:          0	TO_CACHE:     338893
LLC WQ	ACCESS:      63106	FORWARD:          2	MERGED:          0	TO_CACHE:      63106
LLC PQ	ACCESS:      65638	FORWARD:          0	MERGED:          0	TO_CACHE:      65638

LLC Dense regions hint to LLC: 0

RAW hits: 1946706
Loads Generated: 12630080
Loads sent to L1D: 10683374
Stores Generated: 6941120
Stores sent to L1D: 6941120
Major fault: 0 Minor fault: 2614
Allocated PAGES: 2614

stream: 
stream:times selected: 1186563
stream:pref_filled: 109844
stream:pref_useful: 20365
stream:pref_late: 6119
stream:misses: 6816
stream:misses_by_poll: 0

CS: 
CS:times selected: 176784
CS:pref_filled: 55763
CS:pref_useful: 33243
CS:pref_late: 5855
CS:misses: 14190
CS:misses_by_poll: 4

CPLX: 
CPLX:times selected: 1008687
CPLX:pref_filled: 18932
CPLX:pref_useful: 4403
CPLX:pref_late: 2793
CPLX:misses: 82848
CPLX:misses_by_poll: 1

NL_L1: 
NL:times selected: 21337
NL:pref_filled: 807
NL:pref_useful: 380
NL:pref_late: 299
NL:misses: 1394
NL:misses_by_poll: 0

total selections: 2393371
total_filled: 87057
total_useful: 30348
total_late: 16348
total_polluted: 5
total_misses_after_warmup: 661336
conflicts: 5509642

test: 117886

DRAM Statistics
 CHANNEL 0
 RQ ROW_BUFFER_HIT:       9866  ROW_BUFFER_MISS:      16522
 DBUS_CONGESTED:          7
 WQ ROW_BUFFER_HIT:       1200  ROW_BUFFER_MISS:      11628  FULL:          0

 AVG_CONGESTED_CYCLE: 6

CPU 0 Branch Prediction Accuracy: 99.8291% MPKI: 0.31266 Average ROB Occupancy at Mispredict: 199.464
Branch types
NOT_BRANCH: 40854943 81.7099%
BRANCH_DIRECT_JUMP: 548178 1.09636%
BRANCH_INDIRECT: 182906 0.365812%
BRANCH_CONDITIONAL: 6182177 12.3644%
BRANCH_DIRECT_CALL: 943781 1.88756%
BRANCH_INDIRECT_CALL: 171992 0.343984%
BRANCH_RETURN: 1115773 2.23155%
BRANCH_OTHER: 0 0%

DRAM PAGES: 1048576
Allocated PAGES: 2614
Average_ROB_Occupancy: 250.822
Average_Decode_Occupancy: 38.0673
Average_FTQ_Occupancy: 14.7597
Indirect max targets: 14 Average targets: 1.17891
Branch_type:  BRANCH_DIRECT_JUMP:  Count Percentage: 1.61907 6.99713 4.54694 8.4276 3.10441 6.29033 1.92002 67.0945 
Branch_type:  BRANCH_INDIRECT:  Count Percentage: 6.16502 3.48061 2.56056 0 1.33619 9.66613 4.14392 72.6476 
Branch_type:  BRANCH_CONDITIONAL:  Count Percentage: 20.8785 6.56368 1.82751 5.01127 2.32594 4.14935 3.00875 56.2349 
Branch_type:  BRANCH_DIRECT_CALL:  Count Percentage: 0.259487 1.96293 1.28201 3.77965 3.71254 2.34683 4.30557 82.351 
Branch_type:  BRANCH_INDIRECT_CALL:  Count Percentage: 6.53959 0 2.98495 8.68239 1.25261 2.02694 6.40336 72.1102 
Branch_type:  BRANCH_RETURN:  Count Percentage: 4.29521 4.76347 1.49206 5.82542 3.96246 4.8508 4.9747 69.8359 
Branch_type:  BRANCH_DIRECT_JUMP:  Total Count: 17737 76654 49812 92325 34009 68911 21034 735025 
Branch_type:  BRANCH_INDIRECT:  Total Count: 22548 12730 9365 0 4887 35353 15156 265702 
Branch_type:  BRANCH_CONDITIONAL:  Total Count: 2579877 811048 225818 619223 287407 512719 371779 6948726 
Branch_type:  BRANCH_DIRECT_CALL:  Total Count: 4895 37029 24184 71300 70034 44271 81221 1553482 
Branch_type:  BRANCH_INDIRECT_CALL:  Total Count: 22465 0 10254 29826 4303 6963 21997 247715 
Branch_type:  BRANCH_RETURN:  Total Count: 95818 106264 33285 129954 88395 108212 110976 1557905 
Number of unique branch instructions: 10791
Upper 32 bits: 
aaaa
ffff
ffff0000
Unique upper 32 bits: 3
Unique upper 36 bits: 3
Unique upper 40 bits: 5
Unique upper 44 bits: 32
Unique upper 48 bits: 158
Variant_0 : 1380 0.336914
Variant_1 : 2689 0.656494
Variant_2 : 0 0
Variant_3 : 0 0
Offset_3 4474
Offset_4 260
Offset_5 482
Offset_6 542
Offset_7 640
Offset_8 576
Offset_9 525
Offset_10 429
Offset_11 363
Offset_12 312
Offset_13 236
Offset_14 244
Offset_15 194
Offset_16 233
Offset_17 168
Offset_18 149
Offset_19 257
Offset_20 143
Offset_21 235
Offset_22 416
Offset_23 241
Offset_24 344
Offset_25 117
Offset_47 92
decode_dispatch_called: 26194352 73.6418
Dispatch_width: 0 14071122 53.7182 39.559
Dispatch_width: 1 1019460 3.89191 2.86607
Dispatch_width: 2 855501 3.26598 2.40512
Dispatch_width: 3 500215 1.90963 1.40629
Dispatch_width: 4 6302741 24.0615 17.7193
Dispatch_width: 5 114025 0.435304 0.320566
Dispatch_width: 6 3331288 12.7176 9.36546
Empty_decode_cycles: 9375586 26.3582
ROB_full_cycles: 9862403 27.7268
Starvation_cycles_per_kilo_instr: 223.762
Starvation_cycles_per_kilo_instr_3: 159.595
Starvation_cycles_per_kilo_instr_0: 135.843
Branch_type_1  (3,1)  (4,9)  (5,39)  (6,74)  (7,123)  (8,151)  (9,138)  (10,111)  (11,80)  (12,48)  (13,11)  (14,2)  (15,3)  (16,4)  (18,1)  (19,5)  (20,2)  (21,1)  (22,3)  (23,2)  (24,10)  (25,12) 
Branch_type_2  (3,1)  (4,1)  (5,1)  (8,4)  (9,4)  (10,1)  (12,1)  (13,1)  (14,1)  (16,3)  (17,2)  (20,2)  (21,2)  (23,5)  (24,1)  (47,41) 
Branch_type_3  (3,4472)  (4,250)  (5,438)  (6,452)  (7,487)  (8,356)  (9,288)  (10,174)  (11,147)  (12,55)  (13,10) 
Branch_type_4  (6,3)  (7,8)  (8,25)  (9,56)  (10,68)  (11,70)  (12,116)  (13,100)  (14,110)  (15,92)  (16,102)  (17,79)  (18,65)  (19,125)  (20,73)  (21,124)  (22,220)  (23,136)  (24,199)  (25,101) 
Branch_type_5  (8,3)  (9,1)  (10,4)  (11,5)  (12,3)  (13,14)  (14,16)  (15,11)  (16,22)  (17,11)  (18,23)  (19,14)  (20,11)  (21,13)  (22,43)  (23,26)  (24,38) 
Branch_type_6  (5,4)  (6,13)  (7,22)  (8,37)  (9,38)  (10,71)  (11,61)  (12,89)  (13,100)  (14,115)  (15,88)  (16,102)  (17,76)  (18,60)  (19,113)  (20,55)  (21,95)  (22,150)  (23,72)  (24,96)  (25,4)  (47,51) 
Unique trigger count: 
Variant_0_evicts_0 : 0
Variant_0_evicts_1 : 0
Variant_0_evicts_2 : 0
Variant_0_evicts_3 : 0
Variant_1_evicts_0 : 0
Variant_1_evicts_1 : 0
Variant_1_evicts_2 : 0
Variant_1_evicts_3 : 0
Variant_2_evicts_0 : 0
Variant_2_evicts_1 : 0
Variant_2_evicts_2 : 0
Variant_2_evicts_3 : 0
Variant_3_evicts_0 : 0
Variant_3_evicts_1 : 0
Variant_3_evicts_2 : 0
Variant_3_evicts_3 : 0
BTB PER SET UNIQUE ADDR: 11 11 12 12 11 15 8 12 7 14 10 13 14 14 11 10 10 12 17 14 15 13 13 17 11 10 10 12 14 9 10 12 11 13 7 12 9 15 12 9 11 12 15 17 11 11 15 14 15 12 14 10 16 13 13 6 15 12 12 10 11 16 14 14 13 14 11 11 12 10 13 13 18 14 8 8 7 14 12 16 16 9 14 15 15 12 12 13 13 16 9 8 14 11 11 13 14 11 15 20 22 18 13 12 12 10 12 13 6 10 10 16 16 11 11 9 9 13 13 13 17 10 8 11 11 11 5 13 16 10 9 15 11 13 11 10 11 11 7 19 10 12 11 9 11 10 13 14 9 16 12 9 12 15 11 16 14 14 13 12 12 10 14 14 10 14 12 10 15 12 10 14 15 11 12 13 10 12 13 13 12 11 11 21 17 17 8 11 14 14 11 10 11 18 16 11 9 19 11 13 13 13 13 10 12 15 11 16 10 15 9 13 14 17 11 12 17 15 11 17 8 14 7 13 13 10 16 17 9 15 12 12 9 12 12 12 14 11 10 9 12 13 14 17 7 11 9 12 17 14 13 14 15 13 14 15 8 8 15 11 12 11 8 10 14 9 10 7 17 11 14 17 12 8 8 9 14 15 14 13 12 12 12 9 13 8 11 12 20 17 9 12 13 19 8 16 10 11 15 14 10 12 9 16 13 13 14 13 13 14 12 13 12 19 17 11 13 13 15 20 13 12 12 11 15 15 10 11 12 11 9 15 12 13 12 16 6 12 10 12 9 16 11 12 14 16 12 14 9 12 15 13 14 19 9 11 15 13 9 11 15 20 9 17 10 12 7 10 13 8 15 11 13 10 12 16 10 15 10 14 14 6 7 12 14 13 17 16 13 15 20 13 13 16 7 13 9 13 13 14 13 14 10 16 19 15 19 15 12 10 17 13 10 17 10 12 15 9 13 17 11 13 13 16 12 14 12 12 12 13 15 13 9 10 9 11 16 11 13 12 16 10 10 15 15 9 10 17 12 13 9 17 15 9 16 17 17 13 11 10 11 12 12 13 14 11 13 14 10 10 17 11 15 14 12 12 10 17 12 13 14 17 12 9 8 15 16 16 14 17 13 12 16 11 13 13 13 12 11 14 14 14 11 14 12 9 14 16 16 14 15 12 18 8 16 13 13 19 9 9 10 11 11 10 11 17 19 10 13 16 13 10 15 11 18 16 10 15 12 14 14 11 10 13 15 16 11 16 11 12 14 14 14 11 12 14 10 13 17 11 13 18 10 14 13 13 12 19 13 15 17 15 21 16 13 17 17 13 16 13 16 14 12 17 13 12 12 12 16 13 11 12 12 11 15 8 12 9 12 11 13 8 9 12 10 15 16 14 10 12 14 18 11 10 7 14 10 14 11 14 17 14 8 10 11 17 11 15 8 12 11 20 10 14 8 12 13 14 12 12 10 14 14 14 10 13 12 17 14 8 8 12 13 11 14 14 11 12 14 9 15 8 14 19 12 16 14 10 14 11 13 13 12 13 17 11 17 16 14 9 9 14 12 18 16 11 11 14 12 13 14 12 14 7 12 16 12 14 7 14 11 15 13 20 9 15 13 12 9 12 12 18 10 16 14 10 20 16 14 14 15 11 11 10 8 12 13 9 13 10 14 10 15 12 10 16 14 13 14 11 12 11 14 15 15 13 10 15 11 11 14 13 14 11 12 12 19 14 12 11 15 5 11 12 17 14 9 15 11 15 12 9 11 13 14 10 12 12 11 13 9 14 11 9 11 13 12 17 15 9 9 8 14 12 13 17 12 12 19 12 12 18 14 11 15 10 16 15 15 11 10 20 14 14 12 13 18 15 8 18 15 16 6 10 15 10 9 16 14 22 11 13 12 16 13 10 12 17 13 10 14 15 13 14 11 13 16 14 8 15 13 9 11 15 13 14 16 17 11 13 13 11 13 14 13 10 13 9 14 11 14 17 14 12 16 7 15 13 10 16 14 9 12 12 10 13 13 15 14 11 14 12 10 10 11 18 15 14 12 9 17 11 15 18 8 15 11 12 8 14 11 12 12 15 14 11 18 15 13 11 13 10 14 12 10 9 9 17 14 9 12 14 15 14 12 14 10 20 17 17 12 16 12 9 15 12 13 15 14 14 14 12 9 13 9 12 11 16 13 13 18 11 16 14 10 9 16 15 9 14 12 14 11 10 13 12 21 16 15 13 11 13 15 13 13 20 22 13 16 15 14 11 14 16 16 10 15 14 21 12 16 13 10 13 12 14 12 14 12 12 13 18 11 6 14 12 6 12 7 12 12 14 9 11 
BTB PER SET COUNT: 1002 12 1683 14 1454 20 1259 23 1472 20 11 17 7737 20 19 13 12 14 37 19 23 18 149 107 21 15 10 13 254 13 141 12 15 17 12 20 14 23 17 42 12 15 21 26 15 16 21 26 31 17 22 515 25 21 159 386 20 15 15 14 13 22 226 18 18 257 19 15 18 16 1481 19 25 16 10 8 7 1480 19 22 173 9 14 21 19 12 16 29 333 42 9 841 18 14 15 19 89 12 17 1144 32 25 18 127 1245 10 24 19 844 692 13 46 635 11 17 167 12 16 1479 1155 32 51 8 13 12 20 5 1226 26 998 11 4415 11 14 76 17 231 13 10 37 22 21 16 9 13 15 20 232 15 122 15 175 364 18 13 24 24 18 22 16 13 246 440 15 18 20 16 11 23 1856 10 18 26 17 14 1162 11 13 21 717 19 244 999 39 28 32 9 19 118 1164 15 10 23 24 20 12 13 1289 14 17 21 16 988 10 15 15 11 22 13 340 13 23 20 14662 17 21 24 24 2506 29 11 16 8 15 20 15 29 27 12 22 21 21 9 15 13 282 75 290 10 11 18 18 19 241 10 11 9 16 33 18 20 23 21 19 23 19 82 164 20 19 19 14 12 202 16 10 13 7 215 26 19 23 873 16 547 10 21 21 27 360 16 16 19 998 15 10 14 18 33 27 10 13 18 578 9 23 10 11 19 399 14 14 13 31 17 20 43 513 20 362 991 19 13 24 1707 540 18 26 21 27 15 2942 14 12 29 29 18 16 20 22 13 19 21 14 16 330 7 384 12 16 11 1543 13 14 90 26 13 28 13 19 19 1479 22 22 10 17 21 17 137 14 18 29 11 20 15 219 7 10 25 10 24 14 14 778 853 23 11 28 96 850 1002 7 882 13 18 25 515 22 14 21 37 17 21 18 9 253 10 16 19 30 19 21 1113 26 30 21 26 511 17 12 177 16 16 23 14 15 23 12660 16 26 13 16 17 22 17 16 21 14 14 18 25 19 14 14 14 13 35 559 14 17 25 13 11 22 534 11 608 20 17 16 12 1100 19 10 20 383 29 14 17 13 14 131 19 632 22 14 25 17 11 14 21 18 18 28 15 32 11 27 16 18 17 22 15 12 12 629 24 21 23 60 175 15 5022 14 15 25 2097 983 16 16 19 19 16 20 15 14 17 22 18 19 22 16 119 942 17 15 22 37 13 11 10 12 14 396 12 18 754 556 14 3953 19 15 18 14 35 18 831 38 21 643 18 12 15 24 19 24 16 34 23 476 17 18 131 20 23 24 14 21 23 25 14 28 13 17 17 24 26 32 20 19 44 23 24 28 822 23 20 22 22 17 20 24 18 647 22 15 15 14 24 19 22 19 14 15 18 10 2018 11 262 14 22 11 12 14 13 21 18 1347 12 17 20 28 19 10 9 23 13 17 20 626 24 25 10 10 15 30 15 22 9 18 14 265 13 159 10 18 17 239 16 19 18 20 16 149 919 18 509 24 27 9 9 15 14 20 1651 323 14 17 390 107 23 9 1485 23 18 24 20 782 1493 11 20 16 2087 19 23 522 26 26 20 9 10 25 985 333 21 12 13 20 74 23 14 16 15 9 2079 25 849 25 8 20 855 30 15 26 12 24 20 23 9 17 165 29 1143 31 18 143 635 25 18 18 279 107 14 319 8 17 19 12 998 16 400 15 17 14 14 21 206 18 18 14 415 15 622 20 38 29 811 31 15 11 17 16 18 15 16 15 22 323 14 14 24 8 12 62 1295 16 10 185 13 46 19 20 17 16 17 12 16 881 18 15 1487 15 58 11 16 20 18 26 20 12 11 11 19 15 1347 24 160 23 25 1104 12 25 25 232 23 12 18 19 20 17 15 2802 22 17 28 367 1143 19 10 1740 23 1027 6 11 23 11 11 22 18 33 17 24 14 22 449 16 15 169 17 314 18 118 17 22 2346 17 27 23 10 24 660 373 14 27 20 14 92 26 26 18 20 15 15 21 20 12 23 14 18 18 14 33 22 18 24 7 25 20 16 22 21 12 142 16 17 419 14 22 18 12 16 343 1977 33 13 28 20 16 22 9 32 16 19 597 9 21 12 19 134 27 127 470 17 16 18 21 30 236 22 58 23 10 16 15 11 623 10 23 17 11 17 18 1628 19 16 638 11 58 29 26 14 589 18 10 22 21 16 23 20 17 18 1027 14 19 11 17 13 21 15 26 26 18 381 27 11 16 1484 17 10 230 13 705 13 13 280 13 40 19 233 16 15 21 48 787 16 36 47 16 21 17 19 36 45 1063 683 19 23 1476 39 1553 19 20 13 17 16 17 16 17 16 985 18 575 14 7 20 12 7 245 7 15 14 17 14 13 
To predecode: 0
Predecoding something: 0
Predecode request dropped: 0
sizeofblock_0 0
sizeofblock_1 48786
sizeofblock_2 92725
sizeofblock_3 0
sizeofblock_4 0
sizeofblock_5 0
sizeofblock_6 0
sizeofblock_7 0
sizeofblock_8 0
Variant_0 Correct: 1609940 Incorrect: 0 Accuracy: 1
Variant_1 Correct: 5722244 Incorrect: 0 Accuracy: 1
Variant_2 Correct: 0 Incorrect: 0 Accuracy: -nan
Variant_3 Correct: 0 Incorrect: 0 Accuracy: -nan
