
*** ChampSim Multicore Out-of-Order Simulator ***

Warmup Instructions: 50000000
Simulation Instructions: 50000000
Number of CPUs: 1
LLC sets: 2048
LLC ways: 16
Off-chip DRAM Size: 4096 MB Channels: 1 Width: 64-bit Data Rate: 6400 MT/s
CPU 0 runs ./micro_traces/srv747.trace.gz
.gz
ITLB has LRU replacement policy
DTLB has LRU replacement policy
STLB has LRU replacement policy
FDIP Prefetcher at L1I
L1I has LRU replacement policy
L1D has LRU replacement policy
Initialize SRRIP state for L2C
Initialize DRRIP state for LLC
Heartbeat_Variant_0 : 1298 0.316895 per_variant_size: 0 1298 0 0 0 0 0 0 0 
Heartbeat_Variant_1 : 1200 0.292969 per_variant_size: 0 590 610 0 0 0 0 0 0 
Heartbeat_Variant_2 : 1285 0.313721 per_variant_size: 0 518 375 214 178 0 0 0 0 
Heartbeat_Variant_3 : 0 0 per_variant_size: 0 0 0 0 0 0 0 0 0 
Heartbeat_Variant_0_evicts 0 : 5755 1 : 230 2 : 222 3 : 0 
Heartbeat_Variant_1_evicts 0 : 215 1 : 0 2 : 369 3 : 0 
Heartbeat_Variant_2_evicts 0 : 214 1 : 371 2 : 0 3 : 0 
Heartbeat_Variant_3_evicts 0 : 0 1 : 0 2 : 0 3 : 0 
Heartbeat CPU 0 instructions: 10000003 cycles: 2800481 heartbeat IPC: 3.57082 cumulative IPC: 3.57082 (Simulation time: 0 hr 0 min 49 sec) 
Heartbeat_Variant_0 : 1358 0.331543 per_variant_size: 0 1358 0 0 0 0 0 0 0 
Heartbeat_Variant_1 : 1251 0.30542 per_variant_size: 0 598 653 0 0 0 0 0 0 
Heartbeat_Variant_2 : 1339 0.326904 per_variant_size: 0 522 373 241 203 0 0 0 0 
Heartbeat_Variant_3 : 0 0 per_variant_size: 0 0 0 0 0 0 0 0 0 
Heartbeat_Variant_0_evicts 0 : 5675 1 : 211 2 : 186 3 : 0 
Heartbeat_Variant_1_evicts 0 : 204 1 : 0 2 : 363 3 : 0 
Heartbeat_Variant_2_evicts 0 : 173 1 : 371 2 : 0 3 : 0 
Heartbeat_Variant_3_evicts 0 : 0 1 : 0 2 : 0 3 : 0 
Heartbeat CPU 0 instructions: 20000002 cycles: 5599510 heartbeat IPC: 3.57267 cumulative IPC: 3.57174 (Simulation time: 0 hr 1 min 38 sec) 
Heartbeat_Variant_0 : 1374 0.335449 per_variant_size: 0 1374 0 0 0 0 0 0 0 
Heartbeat_Variant_1 : 1267 0.309326 per_variant_size: 0 593 674 0 0 0 0 0 0 
Heartbeat_Variant_2 : 1349 0.329346 per_variant_size: 0 497 410 243 199 0 0 0 0 
Heartbeat_Variant_3 : 0 0 per_variant_size: 0 0 0 0 0 0 0 0 0 
Heartbeat_Variant_0_evicts 0 : 5725 1 : 141 2 : 133 3 : 0 
Heartbeat_Variant_1_evicts 0 : 147 1 : 0 2 : 316 3 : 0 
Heartbeat_Variant_2_evicts 0 : 122 1 : 323 2 : 0 3 : 0 
Heartbeat_Variant_3_evicts 0 : 0 1 : 0 2 : 0 3 : 0 
Heartbeat CPU 0 instructions: 30000003 cycles: 8397290 heartbeat IPC: 3.57426 cumulative IPC: 3.57258 (Simulation time: 0 hr 2 min 27 sec) 
Heartbeat_Variant_0 : 1374 0.335449 per_variant_size: 0 1374 0 0 0 0 0 0 0 
Heartbeat_Variant_1 : 1277 0.311768 per_variant_size: 0 605 672 0 0 0 0 0 0 
Heartbeat_Variant_2 : 1362 0.33252 per_variant_size: 0 522 389 238 213 0 0 0 0 
Heartbeat_Variant_3 : 0 0 per_variant_size: 0 0 0 0 0 0 0 0 0 
Heartbeat_Variant_0_evicts 0 : 5682 1 : 144 2 : 190 3 : 0 
Heartbeat_Variant_1_evicts 0 : 153 1 : 0 2 : 355 3 : 0 
Heartbeat_Variant_2_evicts 0 : 184 1 : 361 2 : 0 3 : 0 
Heartbeat_Variant_3_evicts 0 : 0 1 : 0 2 : 0 3 : 0 
Heartbeat CPU 0 instructions: 40000001 cycles: 11194190 heartbeat IPC: 3.57539 cumulative IPC: 3.57328 (Simulation time: 0 hr 3 min 16 sec) 
Heartbeat_Variant_0 : 1380 0.336914 per_variant_size: 0 1380 0 0 0 0 0 0 0 
Heartbeat_Variant_1 : 1279 0.312256 per_variant_size: 0 596 683 0 0 0 0 0 0 
Heartbeat_Variant_2 : 1366 0.333496 per_variant_size: 0 533 375 251 207 0 0 0 0 
Heartbeat_Variant_3 : 0 0 per_variant_size: 0 0 0 0 0 0 0 0 0 
Heartbeat_Variant_0_evicts 0 : 5651 1 : 113 2 : 125 3 : 0 
Heartbeat_Variant_1_evicts 0 : 103 1 : 0 2 : 307 3 : 0 
Heartbeat_Variant_2_evicts 0 : 131 1 : 300 2 : 0 3 : 0 
Heartbeat_Variant_3_evicts 0 : 0 1 : 0 2 : 0 3 : 0 
Heartbeat CPU 0 instructions: 50000003 cycles: 13991921 heartbeat IPC: 3.57433 cumulative IPC: 3.57349 (Simulation time: 0 hr 4 min 6 sec) 

Warmup complete CPU 0 instructions: 50000003 cycles: 13991921 (Simulation time: 0 hr 4 min 6 sec) 

Cycle: 20000000 FTQ IN: 57811559 FTQ occupancy: 18.7092 DECODE IN: 57811559 DECODE occupancy: 48.0613 ROB IN: 57811549 ROB occupancy: 294.38 ROB OUT: 57811523
Heartbeat_Variant_0 : 1372 0.334961 per_variant_size: 0 1372 0 0 0 0 0 0 0 
Heartbeat_Variant_1 : 1290 0.314941 per_variant_size: 0 609 681 0 0 0 0 0 0 
Heartbeat_Variant_2 : 1375 0.335693 per_variant_size: 0 539 390 256 190 0 0 0 0 
Heartbeat_Variant_3 : 0 0 per_variant_size: 0 0 0 0 0 0 0 0 0 
Heartbeat_Variant_0_evicts 0 : 5808 1 : 122 2 : 137 3 : 0 
Heartbeat_Variant_1_evicts 0 : 129 1 : 0 2 : 309 3 : 0 
Heartbeat_Variant_2_evicts 0 : 141 1 : 306 2 : 0 3 : 0 
Heartbeat_Variant_3_evicts 0 : 0 1 : 0 2 : 0 3 : 0 
Heartbeat CPU 0 instructions: 60000000 cycles: 21672983 heartbeat IPC: 1.3019 cumulative IPC: 1.3019 (Simulation time: 0 hr 4 min 51 sec) 
Heartbeat_Variant_0 : 1378 0.336426 per_variant_size: 0 1378 0 0 0 0 0 0 0 
Heartbeat_Variant_1 : 1283 0.313232 per_variant_size: 0 605 678 0 0 0 0 0 0 
Heartbeat_Variant_2 : 1382 0.337402 per_variant_size: 0 528 406 250 198 0 0 0 0 
Heartbeat_Variant_3 : 0 0 per_variant_size: 0 0 0 0 0 0 0 0 0 
Heartbeat_Variant_0_evicts 0 : 5694 1 : 61 2 : 56 3 : 0 
Heartbeat_Variant_1_evicts 0 : 58 1 : 0 2 : 252 3 : 0 
Heartbeat_Variant_2_evicts 0 : 53 1 : 260 2 : 0 3 : 0 
Heartbeat_Variant_3_evicts 0 : 0 1 : 0 2 : 0 3 : 0 
Heartbeat CPU 0 instructions: 70000003 cycles: 29273021 heartbeat IPC: 1.31578 cumulative IPC: 1.30881 (Simulation time: 0 hr 5 min 37 sec) 
Cycle: 30000000 FTQ IN: 13148284 FTQ occupancy: 8.44971 DECODE IN: 13148225 DECODE occupancy: 19.7578 ROB IN: 13148235 ROB occupancy: 167.385 ROB OUT: 13148186
Heartbeat_Variant_0 : 1389 0.339111 per_variant_size: 0 1389 0 0 0 0 0 0 0 
Heartbeat_Variant_1 : 1284 0.313477 per_variant_size: 0 603 681 0 0 0 0 0 0 
Heartbeat_Variant_2 : 1373 0.335205 per_variant_size: 0 518 404 257 194 0 0 0 0 
Heartbeat_Variant_3 : 0 0 per_variant_size: 0 0 0 0 0 0 0 0 0 
Heartbeat_Variant_0_evicts 0 : 5654 1 : 62 2 : 55 3 : 0 
Heartbeat_Variant_1_evicts 0 : 57 1 : 0 2 : 249 3 : 0 
Heartbeat_Variant_2_evicts 0 : 49 1 : 246 2 : 0 3 : 0 
Heartbeat_Variant_3_evicts 0 : 0 1 : 0 2 : 0 3 : 0 
Heartbeat CPU 0 instructions: 80000003 cycles: 36945281 heartbeat IPC: 1.3034 cumulative IPC: 1.307 (Simulation time: 0 hr 6 min 23 sec) 
Cycle: 40000000 FTQ IN: 13069656 FTQ occupancy: 8.65294 DECODE IN: 13069706 DECODE occupancy: 20.1707 ROB IN: 13069706 ROB occupancy: 169.357 ROB OUT: 13069779
Heartbeat_Variant_0 : 1389 0.339111 per_variant_size: 0 1389 0 0 0 0 0 0 0 
Heartbeat_Variant_1 : 1285 0.313721 per_variant_size: 0 602 683 0 0 0 0 0 0 
Heartbeat_Variant_2 : 1372 0.334961 per_variant_size: 0 517 404 258 193 0 0 0 0 
Heartbeat_Variant_3 : 0 0 per_variant_size: 0 0 0 0 0 0 0 0 0 
Heartbeat_Variant_0_evicts 0 : 5530 1 : 1 2 : 1 3 : 0 
Heartbeat_Variant_1_evicts 0 : 2 1 : 0 2 : 198 3 : 0 
Heartbeat_Variant_2_evicts 0 : 0 1 : 198 2 : 0 3 : 0 
Heartbeat_Variant_3_evicts 0 : 0 1 : 0 2 : 0 3 : 0 
Heartbeat CPU 0 instructions: 90000001 cycles: 44503641 heartbeat IPC: 1.32304 cumulative IPC: 1.31097 (Simulation time: 0 hr 7 min 7 sec) 
Cycle: 50000000 FTQ IN: 13256131 FTQ occupancy: 8.57078 DECODE IN: 13255998 DECODE occupancy: 20.2255 ROB IN: 13255938 ROB occupancy: 170.183 ROB OUT: 13255588
Heartbeat_Variant_0 : 1395 0.340576 per_variant_size: 0 1395 0 0 0 0 0 0 0 
Heartbeat_Variant_1 : 1282 0.312988 per_variant_size: 0 589 693 0 0 0 0 0 0 
Heartbeat_Variant_2 : 1374 0.335449 per_variant_size: 0 518 392 261 203 0 0 0 0 
Heartbeat_Variant_3 : 0 0 per_variant_size: 0 0 0 0 0 0 0 0 0 
Heartbeat_Variant_0_evicts 0 : 5703 1 : 50 2 : 64 3 : 0 
Heartbeat_Variant_1_evicts 0 : 51 1 : 0 2 : 242 3 : 0 
Heartbeat_Variant_2_evicts 0 : 59 1 : 247 2 : 0 3 : 0 
Heartbeat_Variant_3_evicts 0 : 0 1 : 0 2 : 0 3 : 0 
Heartbeat CPU 0 instructions: 100000003 cycles: 52146231 heartbeat IPC: 1.30846 cumulative IPC: 1.31047 (Simulation time: 0 hr 7 min 52 sec) 
Finished CPU 0 instructions: 50000000 cycles: 38154310 cumulative IPC: 1.31047 (Simulation time: 0 hr 7 min 52 sec) 

ChampSim completed all CPUs

Region of Interest Statistics

CPU 0 cumulative IPC: 1.31047 instructions: 50000000 cycles: 38154310
 Fetch stage stalled: 64.6727  Sim cycles: 38154310 fetch stall cycle: 24675407
 Empty decode stage: 63.4512  Sim cycles: 38154310 fetch stall cycle: 24209354
ITLB TOTAL     ACCESS:    5868324  HIT:    5373736  MISS:     494588  HIT %:    91.5719  MISS %:     8.4281   MPKI: 9.89176
ITLB LOAD TRANSLATION INSTRUCTION	ACCESS:    5756296  HIT:    5261708  MISS:     494588  HIT %:    91.4079  MISS %:    8.59212  MPKI: 9.89176
ITLB TRANSLATION FROM L1D PREFETCHER INSTRUCTION	ACCESS:     112028  HIT:     112028  MISS:          0  HIT %:        100  MISS %:          0  MPKI: 0

ITLB AVERAGE MISS LATENCY: 9.0591 cycles
ITLB RQ	ACCESS:    7995477	FORWARD:          0	MERGED:    1716016	TO_CACHE:    6279461

DTLB TOTAL     ACCESS:    9122756  HIT:    8651574  MISS:     471182  HIT %:    94.8351  MISS %:    5.16491   MPKI: 9.42364
DTLB LOAD TRANSLATION DATA	ACCESS:    9122756  HIT:    8651574  MISS:     471182  HIT %:    94.8351  MISS %:    5.16491  MPKI: 9.42364

DTLB AVERAGE MISS LATENCY: 9.35235 cycles
DTLB RQ	ACCESS:   13485696	FORWARD:          0	MERGED:    4324751	TO_CACHE:    9160945

STLB TOTAL     ACCESS:    1215260  HIT:    1212937  MISS:       2323  HIT %:    99.8088  MISS %:   0.191153   MPKI: 0.04646
STLB LOAD TRANSLATION INSTRUCTION	ACCESS:     494588  HIT:     494245  MISS:        343  HIT %:    99.9306  MISS %:  0.0693507  MPKI: 0.00686
STLB LOAD TRANSLATION DATA	ACCESS:     471130  HIT:     469168  MISS:       1962  HIT %:    99.5836  MISS %:   0.416446  MPKI: 0.03924
STLB TRANSLATION FROM L1D PREFETCHER DATA	ACCESS:     249542  HIT:     249524  MISS:         18  HIT %:    99.9928  MISS %: 0.00721321  MPKI: 0.00036

STLB AVERAGE MISS LATENCY: 70.8024 cycles
STLB RQ	ACCESS:    1334224	FORWARD:          0	MERGED:     118913	TO_CACHE:    1215311

STLB Hit, L1D data hit: 0
STLB Hit, L2C data hit: 0
STLB Hit, LLC data hit: 0
STLB Hit, LLC data miss: 0
STLB STLB hints to L2: 0
L1D TOTAL     ACCESS:   13234079  HIT:   12117590  MISS:    1116489  HIT %:    91.5635  MISS %:    8.43647   MPKI: 22.3298
L1D LOAD DATA	ACCESS:    6686957  HIT:    5951817  MISS:     735140  HIT %:    89.0064  MISS %:    10.9936  MPKI: 14.7028
L1D RFO DATA	ACCESS:    6217728  HIT:    5930562  MISS:     287166  HIT %:    95.3815  MISS %:     4.6185  MPKI: 5.74332
L1D PREFETCH DATA	ACCESS:     329394  HIT:     235211  MISS:      94183  HIT %:    71.4072  MISS %:    28.5928  MPKI: 1.88366

L1D PREFETCH  REQUESTED:     737247  ISSUED:     737247  USEFUL:      33822  USELESS:      68269
L1D USEFUL LOAD PREFETCHES:      33822 PREFETCH ISSUED TO LOWER LEVEL:     102183  ACCURACY: 33.0994
 TIMELY PREFETCHES:      33822 LATE PREFETCHES: 7907 DROPPED PREFETCHES: 9
L1D AVERAGE MISS LATENCY: 238246 cycles
L1D RQ	ACCESS:   10767654	FORWARD:          0	MERGED:    3885538	TO_CACHE:    6720922
L1D WQ	ACCESS:    6953840	FORWARD:     161533	MERGED:     189066	TO_CACHE:    6764774
L1D PQ	ACCESS:     368793	FORWARD:          0	MERGED:          0	TO_CACHE:     368454

L1D UNIQUE REGIONS ACCESSED: 0
L1D REGIONS CONFLICTS: 0
L1D Cross Page Prefetch Requests: 5867
L1D Same Page Prefetch Requests: 743272
L1D ROI Sum of L1D PQ occupancy: 4691270
L1D PREFETCHES PUSHED FROM L2C: 0
L1I TOTAL     ACCESS:    7239000  HIT:    4472686  MISS:    2766314  HIT %:     61.786  MISS %:     38.214   MPKI: 55.3263
L1I LOAD INSTRUCTION	ACCESS:    6596520  HIT:    3830206  MISS:    2766314  HIT %:     58.064  MISS %:     41.936  MPKI: 55.3263
L1I PREFETCH INSTRUCTION	ACCESS:     642480  HIT:     642480  MISS:          0  HIT %:        100  MISS %:          0  MPKI: 0

L1I PREFETCH  REQUESTED:    1538381  ISSUED:    1538381  USEFUL:          0  USELESS:          0
L1I USEFUL LOAD PREFETCHES:          0 PREFETCH ISSUED TO LOWER LEVEL:          0  ACCURACY: -nan
 TIMELY PREFETCHES:          0 LATE PREFETCHES: 0 DROPPED PREFETCHES: 0
L1I AVERAGE MISS LATENCY: 17.5441 cycles
L1I RQ	ACCESS:    9444143	FORWARD:          0	MERGED:    2561087	TO_CACHE:    6883056
L1I PQ	ACCESS:    1538381	FORWARD:          0	MERGED:     425960	TO_CACHE:    1112421

L1BTB TOTAL     ACCESS:    5671649  HIT:    2040474  MISS:    3631175  HIT %:    35.9767  MISS %:    64.0233   MPKI: 72.6235
L1BTB BRANCH_DIRECT_JUMP	ACCESS:     549181  HIT:     144115  MISS:     405066	AVERAGE STALL: 37.2976
L1BTB BRANCH_INDIRECT	ACCESS:     183354  HIT:      66263  MISS:     117091	AVERAGE STALL: 76.2339
L1BTB BRANCH_CONDITIONAL	ACCESS:    2711996  HIT:    1417091  MISS:    1294905	AVERAGE STALL: 44.4479
L1BTB BRANCH_DIRECT_CALL	ACCESS:     942204  HIT:     103881  MISS:     838323	AVERAGE STALL: 54.3416
L1BTB BRANCH_INDIRECT_CALL	ACCESS:     171355  HIT:      20850  MISS:     150505	AVERAGE STALL: 100.655
L1BTB BRANCH_RETURN	ACCESS:    1113559  HIT:     288274  MISS:     825285	AVERAGE STALL: 40.3833
L1BTB BRANCH_OTHER ACCESS:          0  HIT:          0  MISS:          0	AVERAGE STALL: -nan
L1BTB TOTAL ROB OCCUPANCY AT BTB MISS: 1.93447

L2BTB TOTAL     ACCESS:    3605677  HIT:    3539590  MISS:      66087  HIT %:    98.1671  MISS %:    1.83286   MPKI: 1.32174
L2BTB BRANCH_DIRECT_JUMP	ACCESS:     400864  HIT:     396432  MISS:       4432	AVERAGE STALL: 37.2976
L2BTB BRANCH_INDIRECT	ACCESS:     106792  HIT:     104151  MISS:       2641	AVERAGE STALL: 76.2339
L2BTB BRANCH_CONDITIONAL	ACCESS:    1294905  HIT:    1291789  MISS:       3116	AVERAGE STALL: 44.4479
L2BTB BRANCH_DIRECT_CALL	ACCESS:     838323  HIT:     837175  MISS:       1148	AVERAGE STALL: 54.3416
L2BTB BRANCH_INDIRECT_CALL	ACCESS:     140908  HIT:     130421  MISS:      10487	AVERAGE STALL: 100.655
L2BTB BRANCH_RETURN	ACCESS:     823885  HIT:     779622  MISS:      44263	AVERAGE STALL: 40.3833
L2BTB BRANCH_OTHER ACCESS:          0  HIT:          0  MISS:          0	AVERAGE STALL: -nan
L2BTB TOTAL ROB OCCUPANCY AT BTB MISS: 106.29

L2C TOTAL     ACCESS:    4497042  HIT:    3979095  MISS:     517947  HIT %:    88.4825  MISS %:    11.5175   MPKI: 10.3589
L2C LOAD INSTRUCTION	ACCESS:    2766314  HIT:    2470535  MISS:     295779  HIT %:    89.3078  MISS %:    10.6922  MPKI: 5.91558
L2C LOAD TRANSLATION INSTRUCTION	ACCESS:        392  HIT:        135  MISS:        257  HIT %:    34.4388  MISS %:    65.5612  MPKI: 0.00514
L2C LOAD DATA	ACCESS:     727207  HIT:     649186  MISS:      78021  HIT %:    89.2711  MISS %:    10.7289  MPKI: 1.56042
L2C RFO DATA	ACCESS:     287047  HIT:     231722  MISS:      55325  HIT %:    80.7262  MISS %:    19.2738  MPKI: 1.1065
L2C PREFETCH DATA	ACCESS:     189075  HIT:     116219  MISS:      72856  HIT %:    61.4671  MISS %:    38.5329  MPKI: 1.45712
L2C WRITEBACK DATA	ACCESS:     524892  HIT:     510677  MISS:      14215  HIT %:    97.2918  MISS %:    2.70818  MPKI: 0.2843
L2C LOAD TRANSLATION DATA	ACCESS:       2071  HIT:        594  MISS:       1477  HIT %:    28.6818  MISS %:    71.3182  MPKI: 0.02954
L2C TRANSLATION FROM L1D PREFETCHER DATA	ACCESS:         44  HIT:         27  MISS:         17  HIT %:    61.3636  MISS %:    38.6364  MPKI: 0.00034

L2C PREFETCH  REQUESTED:      95081  ISSUED:      95081  USEFUL:       7946  USELESS:      65366
L2C USEFUL LOAD PREFETCHES:       7946 PREFETCH ISSUED TO LOWER LEVEL:      73140  ACCURACY: 10.8641
 TIMELY PREFETCHES:       7946 LATE PREFETCHES: 284 DROPPED PREFETCHES: 0
L2C AVERAGE MISS LATENCY: 38.3402 cycles
L2C RQ	ACCESS:    3783127	FORWARD:          0	MERGED:          0	TO_CACHE:    3783075
L2C WQ	ACCESS:     524892	FORWARD:         52	MERGED:          0	TO_CACHE:     524892
L2C PQ	ACCESS:     197264	FORWARD:          0	MERGED:       3965	TO_CACHE:     193299

L2C Dense regions hint from L2: 0
PSCL5 TOTAL     ACCESS:       4668  HIT:       2334  MISS:       2334  HIT %:         50  MISS %:         50   MPKI: 0.04668
PSCL5 LOAD TRANSLATION INSTRUCTION	ACCESS:       4580  HIT:       2290  MISS:       2290  HIT %:         50  MISS %:         50  MPKI: 0.0458
PSCL5 TRANSLATION FROM L1D PREFETCHER INSTRUCTION	ACCESS:         88  HIT:         44  MISS:         44  HIT %:         50  MISS %:         50  MPKI: 0.00088


PSCL4 TOTAL     ACCESS:       4391  HIT:       2189  MISS:       2202  HIT %:     49.852  MISS %:     50.148   MPKI: 0.04404
PSCL4 LOAD TRANSLATION INSTRUCTION	ACCESS:       3135  HIT:       2162  MISS:        973  HIT %:    68.9633  MISS %:    31.0367  MPKI: 0.01946
PSCL4 TRANSLATION FROM L1D PREFETCHER INSTRUCTION	ACCESS:         35  HIT:         27  MISS:          8  HIT %:    77.1429  MISS %:    22.8571  MPKI: 0.00016
PSCL4 LOAD TRANSLATION DATA	ACCESS:       1202  HIT:          0  MISS:       1202  HIT %:          0  MISS %:        100  MPKI: 0.02404
PSCL4 TRANSLATION FROM L1D PREFETCHER DATA	ACCESS:         19  HIT:          0  MISS:         19  HIT %:          0  MISS %:        100  MPKI: 0.00038


PSCL3 TOTAL     ACCESS:       4561  HIT:       2274  MISS:       2287  HIT %:    49.8575  MISS %:    50.1425   MPKI: 0.04574
PSCL3 LOAD TRANSLATION INSTRUCTION	ACCESS:       3220  HIT:       2247  MISS:        973  HIT %:    69.7826  MISS %:    30.2174  MPKI: 0.01946
PSCL3 TRANSLATION FROM L1D PREFETCHER INSTRUCTION	ACCESS:         35  HIT:         27  MISS:          8  HIT %:    77.1429  MISS %:    22.8571  MPKI: 0.00016
PSCL3 LOAD TRANSLATION DATA	ACCESS:       1287  HIT:          0  MISS:       1287  HIT %:          0  MISS %:        100  MPKI: 0.02574
PSCL3 TRANSLATION FROM L1D PREFETCHER DATA	ACCESS:         19  HIT:          0  MISS:         19  HIT %:          0  MISS %:        100  MPKI: 0.00038


PSCL2 TOTAL     ACCESS:       4521  HIT:       2187  MISS:       2334  HIT %:    48.3743  MISS %:    51.6257   MPKI: 0.04668
PSCL2 LOAD TRANSLATION INSTRUCTION	ACCESS:       2486  HIT:       2143  MISS:        343  HIT %:    86.2027  MISS %:    13.7973  MPKI: 0.00686
PSCL2 TRANSLATION FROM L1D PREFETCHER INSTRUCTION	ACCESS:         44  HIT:         44  MISS:          0  HIT %:        100  MISS %:          0  MPKI: 0
PSCL2 LOAD TRANSLATION DATA	ACCESS:       1947  HIT:          0  MISS:       1947  HIT %:          0  MISS %:        100  MPKI: 0.03894
PSCL2 TRANSLATION FROM L1D PREFETCHER DATA	ACCESS:         44  HIT:          0  MISS:         44  HIT %:          0  MISS %:        100  MPKI: 0.00088


LLC TOTAL     ACCESS:     582296  HIT:     552714  MISS:      29582  HIT %:    94.9198  MISS %:    5.08023   MPKI: 0.59164
LLC LOAD INSTRUCTION	ACCESS:     295779  HIT:     294875  MISS:        904  HIT %:    99.6944  MISS %:   0.305634  MPKI: 0.01808
LLC LOAD TRANSLATION INSTRUCTION	ACCESS:        257  HIT:        229  MISS:         28  HIT %:    89.1051  MISS %:    10.8949  MPKI: 0.00056
LLC LOAD DATA	ACCESS:      77768  HIT:      74457  MISS:       3311  HIT %:    95.7425  MISS %:    4.25754  MPKI: 0.06622
LLC RFO DATA	ACCESS:      55286  HIT:      39995  MISS:      15291  HIT %:     72.342  MISS %:     27.658  MPKI: 0.30582
LLC PREFETCH DATA	ACCESS:      73138  HIT:      63560  MISS:       9578  HIT %:    86.9042  MISS %:    13.0958  MPKI: 0.19156
LLC WRITEBACK DATA	ACCESS:      78574  HIT:      78188  MISS:        386  HIT %:    99.5087  MISS %:   0.491257  MPKI: 0.00772
LLC LOAD TRANSLATION DATA	ACCESS:       1477  HIT:       1394  MISS:         83  HIT %:    94.3805  MISS %:     5.6195  MPKI: 0.00166
LLC TRANSLATION FROM L1D PREFETCHER DATA	ACCESS:         17  HIT:         16  MISS:          1  HIT %:    94.1176  MISS %:    5.88235  MPKI: 2e-05

LLC AVERAGE MISS LATENCY: 158.785 cycles
LLC RQ	ACCESS:     430592	FORWARD:          0	MERGED:          0	TO_CACHE:     430584
LLC WQ	ACCESS:      78574	FORWARD:         10	MERGED:          0	TO_CACHE:      78574
LLC PQ	ACCESS:      73140	FORWARD:          0	MERGED:          0	TO_CACHE:      73138

LLC Dense regions hint to LLC: 0

RAW hits: 1877941
Loads Generated: 12645595
Loads sent to L1D: 10767654
Stores Generated: 6953832
Stores sent to L1D: 6953840
Major fault: 0 Minor fault: 2563
Allocated PAGES: 2563

stream: 
stream:times selected: 1179586
stream:pref_filled: 120350
stream:pref_useful: 23061
stream:pref_late: 6487
stream:misses: 6732
stream:misses_by_poll: 0

CS: 
CS:times selected: 179045
CS:pref_filled: 58615
CS:pref_useful: 35368
CS:pref_late: 6834
CS:misses: 16926
CS:misses_by_poll: 5

CPLX: 
CPLX:times selected: 999380
CPLX:pref_filled: 20218
CPLX:pref_useful: 4724
CPLX:pref_late: 3096
CPLX:misses: 90221
CPLX:misses_by_poll: 0

NL_L1: 
NL:times selected: 19442
NL:pref_filled: 631
NL:pref_useful: 261
NL:pref_late: 204
NL:misses: 1062
NL:misses_by_poll: 0

total selections: 2377453
total_filled: 94183
total_useful: 33822
total_late: 18052
total_polluted: 5
total_misses_after_warmup: 769104
conflicts: 5595882

test: 113289

DRAM Statistics
 CHANNEL 0
 RQ ROW_BUFFER_HIT:      11216  ROW_BUFFER_MISS:      17972
 DBUS_CONGESTED:         14
 WQ ROW_BUFFER_HIT:       1510  ROW_BUFFER_MISS:      12593  FULL:          0

 AVG_CONGESTED_CYCLE: 4

CPU 0 Branch Prediction Accuracy: 99.8243% MPKI: 0.32112 Average ROB Occupancy at Mispredict: 155.267
Branch types
NOT_BRANCH: 40859813 81.7196%
BRANCH_DIRECT_JUMP: 549181 1.09836%
BRANCH_INDIRECT: 183354 0.366708%
BRANCH_CONDITIONAL: 6180538 12.3611%
BRANCH_DIRECT_CALL: 942204 1.88441%
BRANCH_INDIRECT_CALL: 171355 0.34271%
BRANCH_RETURN: 1113559 2.22712%
BRANCH_OTHER: 0 0%

DRAM PAGES: 1048576
Allocated PAGES: 2563
Average_ROB_Occupancy: 170.239
Average_Decode_Occupancy: 20.1333
Average_FTQ_Occupancy: 8.62537
Indirect max targets: 14 Average targets: 1.15615
Branch_type:  BRANCH_DIRECT_JUMP:  Count Percentage: 3.23397 5.95231 3.6926 9.02189 1.69449 6.27664 1.32028 68.8078 
Branch_type:  BRANCH_INDIRECT:  Count Percentage: 11.7384 3.4706 2.53925 0 2.54089 9.68192 5.88711 64.1418 
Branch_type:  BRANCH_CONDITIONAL:  Count Percentage: 21.0873 2.97019 1.82834 8.41047 1.2291 5.41139 1.28972 57.7735 
Branch_type:  BRANCH_DIRECT_CALL:  Count Percentage: 0.260138 1.78948 1.43425 4.86394 2.16355 2.98577 0.862383 85.6405 
Branch_type:  BRANCH_INDIRECT_CALL:  Count Percentage: 9.56003 0.569351 2.99543 4.85188 0.000583053 2.64444 1.28388 78.0944 
Branch_type:  BRANCH_RETURN:  Count Percentage: 3.1996 1.30512 1.2693 9.33179 2.85939 6.85994 3.27034 71.9045 
Branch_type:  BRANCH_DIRECT_JUMP:  Total Count: 35468 65281 40498 98946 18584 68838 14480 754638 
Branch_type:  BRANCH_INDIRECT:  Total Count: 42941 12696 9289 0 9295 35418 21536 234641 
Branch_type:  BRANCH_CONDITIONAL:  Total Count: 2604524 366854 225822 1038792 151808 668370 159295 7135711 
Branch_type:  BRANCH_DIRECT_CALL:  Total Count: 4916 33817 27104 91917 40886 56424 16297 1618402 
Branch_type:  BRANCH_INDIRECT_CALL:  Total Count: 32793 1953 10275 16643 2 9071 4404 267881 
Branch_type:  BRANCH_RETURN:  Total Count: 71466 29151 28351 208434 63867 153223 73046 1606053 
Number of unique branch instructions: 10121
Upper 32 bits: 
aaaa
ffff
ffff0000
Unique upper 32 bits: 3
Unique upper 36 bits: 3
Unique upper 40 bits: 5
Unique upper 44 bits: 32
Unique upper 48 bits: 156
Variant_0 : 1395 0.340576
Variant_1 : 1282 0.312988
Variant_2 : 1374 0.335449
Variant_3 : 0 0
Offset_3 4173
Offset_4 261
Offset_5 462
Offset_6 519
Offset_7 600
Offset_8 518
Offset_9 486
Offset_10 393
Offset_11 325
Offset_12 283
Offset_13 213
Offset_14 229
Offset_15 192
Offset_16 220
Offset_17 150
Offset_18 118
Offset_19 240
Offset_20 139
Offset_21 261
Offset_22 395
Offset_23 242
Offset_24 344
Offset_25 88
Offset_47 84
Offset_64 2
decode_dispatch_called: 21563003 56.5152
Dispatch_width: 0 11122578 51.5818 29.1516
Dispatch_width: 1 641371 2.9744 1.68099
Dispatch_width: 2 686513 3.18375 1.79931
Dispatch_width: 3 454253 2.10663 1.19057
Dispatch_width: 4 2518725 11.6808 6.60142
Dispatch_width: 5 289434 1.34227 0.758588
Dispatch_width: 6 5850129 27.1304 15.3328
Empty_decode_cycles: 16591307 43.4848
ROB_full_cycles: 3824083 10.0227
Starvation_cycles_per_kilo_instr: 284.801
Starvation_cycles_per_kilo_instr_3: 256.719
Starvation_cycles_per_kilo_instr_0: 238.898
Branch_type_1  (3,1)  (4,8)  (5,38)  (6,71)  (7,117)  (8,132)  (9,130)  (10,102)  (11,71)  (12,43)  (13,8)  (14,2)  (15,3)  (16,4)  (18,1)  (19,4)  (20,2)  (21,1)  (22,3)  (23,2)  (24,10)  (25,12) 
Branch_type_2  (3,1)  (5,1)  (8,3)  (9,3)  (12,1)  (13,1)  (14,1)  (16,3)  (17,2)  (20,2)  (21,2)  (23,5)  (24,1)  (47,38) 
Branch_type_3  (3,4171)  (4,253)  (5,419)  (6,433)  (7,450)  (8,322)  (9,266)  (10,158)  (11,128)  (12,50)  (13,7)  (64,1) 
Branch_type_4  (6,3)  (7,8)  (8,26)  (9,53)  (10,62)  (11,65)  (12,103)  (13,91)  (14,101)  (15,91)  (16,98)  (17,68)  (18,53)  (19,117)  (20,71)  (21,141)  (22,209)  (23,136)  (24,194)  (25,72)  (64,1) 
Branch_type_5  (8,2)  (9,1)  (10,4)  (11,5)  (12,3)  (13,14)  (14,16)  (15,11)  (16,20)  (17,11)  (18,16)  (19,13)  (20,12)  (21,13)  (22,42)  (23,26)  (24,41) 
Branch_type_6  (5,4)  (6,12)  (7,25)  (8,33)  (9,33)  (10,67)  (11,56)  (12,83)  (13,92)  (14,109)  (15,87)  (16,95)  (17,69)  (18,48)  (19,106)  (20,52)  (21,104)  (22,141)  (23,73)  (24,98)  (25,4)  (47,46) 
Unique trigger count: 
Variant_0_evicts_0 : 0
Variant_0_evicts_1 : 0
Variant_0_evicts_2 : 0
Variant_0_evicts_3 : 0
Variant_1_evicts_0 : 0
Variant_1_evicts_1 : 0
Variant_1_evicts_2 : 0
Variant_1_evicts_3 : 0
Variant_2_evicts_0 : 0
Variant_2_evicts_1 : 0
Variant_2_evicts_2 : 0
Variant_2_evicts_3 : 0
Variant_3_evicts_0 : 0
Variant_3_evicts_1 : 0
Variant_3_evicts_2 : 0
Variant_3_evicts_3 : 0
BTB PER SET UNIQUE ADDR: 12 12 11 23 12 15 8 12 8 12 10 18 16 11 10 10 10 6 14 15 14 10 13 13 12 14 10 13 12 11 14 16 16 7 9 9 14 9 9 12 10 8 11 16 13 9 17 8 12 10 9 14 11 13 15 5 9 12 11 10 10 14 11 13 12 12 13 9 15 13 12 12 15 8 11 6 7 15 10 19 12 8 10 13 13 18 11 9 7 19 8 5 15 10 8 13 11 8 14 18 13 16 15 7 9 11 7 12 8 5 13 13 13 9 6 7 12 12 11 8 15 12 13 12 14 12 5 12 17 11 8 15 17 16 12 18 9 9 10 21 11 11 8 11 12 12 15 10 8 15 15 16 11 11 10 18 18 10 12 14 13 10 12 14 11 15 14 9 10 10 12 12 6 8 10 12 11 11 14 9 11 14 13 19 21 18 5 10 14 8 13 11 10 13 14 11 5 17 9 11 15 9 14 11 8 11 13 17 9 12 8 12 14 11 10 15 16 10 10 20 10 12 12 8 11 14 13 12 8 19 7 8 14 15 9 10 15 16 12 8 13 9 14 15 11 13 9 12 17 10 12 12 12 10 13 18 10 7 9 10 14 9 5 11 11 10 11 11 8 14 12 13 11 5 9 10 10 18 15 10 9 12 9 12 15 8 11 19 19 13 15 7 11 14 7 14 9 11 14 12 12 10 9 17 11 13 13 13 22 11 12 14 8 17 9 6 14 16 12 19 10 8 10 14 13 13 18 10 9 9 13 14 12 8 13 10 8 13 8 18 12 14 9 13 12 11 13 11 8 11 13 9 7 11 14 10 12 6 9 14 11 17 8 12 9 17 5 13 16 9 12 10 13 12 9 14 15 16 10 8 14 9 8 9 10 13 13 11 11 14 12 8 14 17 11 10 12 9 11 13 12 14 8 12 18 10 16 14 14 9 11 9 9 16 17 12 10 9 20 18 13 11 13 12 12 6 11 13 10 13 17 14 8 13 16 15 15 12 10 13 11 9 11 11 24 10 9 11 14 19 13 12 16 9 14 20 19 17 10 15 10 10 17 15 18 8 13 10 9 17 12 13 14 16 14 20 15 13 8 12 16 12 8 14 9 19 15 16 9 13 7 15 8 9 9 10 13 11 10 10 19 13 12 15 13 12 10 17 14 13 16 14 11 15 17 9 11 19 5 15 6 9 7 7 13 16 19 9 9 16 15 10 15 16 13 16 14 14 10 6 13 12 13 11 17 11 8 16 9 10 10 16 14 15 9 16 15 12 15 13 11 17 14 15 11 12 13 15 13 10 15 13 15 18 11 14 18 12 8 11 13 9 7 12 15 10 12 13 14 16 8 12 10 9 16 7 10 12 10 12 13 12 12 7 11 16 19 11 11 11 15 10 11 11 5 16 11 9 14 17 14 12 10 11 11 18 11 18 9 15 10 15 17 12 8 9 19 16 7 14 9 16 10 18 14 14 10 16 15 8 7 14 12 10 14 9 12 13 13 15 11 10 11 13 12 14 9 14 8 14 16 12 8 15 18 13 11 17 12 17 9 19 9 11 12 19 11 11 17 13 13 9 13 10 12 12 12 17 10 11 7 11 15 14 9 15 13 9 12 6 9 17 7 10 8 11 14 13 6 15 16 7 15 10 6 10 11 13 12 12 16 8 11 6 8 15 14 11 14 11 13 13 12 11 20 17 14 13 11 6 18 12 12 16 6 6 14 8 8 10 14 9 6 12 12 16 9 12 15 12 11 15 8 10 11 5 13 12 17 10 9 13 15 11 9 12 9 10 11 8 11 5 14 11 14 14 14 12 16 11 20 11 17 12 14 8 10 9 13 9 13 20 18 17 12 13 14 11 7 19 13 17 8 15 11 16 14 12 14 10 11 18 14 12 10 13 14 12 11 11 12 13 10 11 15 18 13 18 11 9 14 11 11 12 19 21 13 15 15 9 15 9 8 15 17 9 11 8 16 8 11 13 14 12 10 6 10 11 11 9 11 10 12 11 17 15 13 10 9 10 16 10 10 9 13 10 15 11 12 13 12 10 12 8 10 13 12 16 10 15 10 12 9 15 11 13 12 10 11 12 13 16 14 9 9 13 9 13 11 8 22 17 22 15 13 18 11 19 15 15 7 15 13 12 9 11 13 20 13 14 13 14 11 10 12 15 9 17 14 12 12 13 12 16 8 9 12 9 11 17 15 15 16 13 14 9 16 15 18 16 9 16 15 12 13 19 12 13 12 13 10 10 11 11 15 9 8 12 13 13 11 18 7 14 12 11 7 17 9 12 13 13 10 9 11 11 5 10 6 9 12 13 15 7 
BTB PER SET COUNT: 21 14 1962 33 1326 19 538 20 1269 18 16 37 20541 1438 10 12 991 1080 21 21 15 14 754 359 18 23 17 16 13 21 22 46 21 11 16 655 18 12 10 1793 19 12 15 34 329 11 25 8 15 11 15 139 12 15 387 6 11 21 254 13 12 15 12 19 14 25 17 9 20 14 20 352 19 9 12 7 7 894 16 25 102 10 12 256 15 1501 15 10 12 20 8 5 306 457 19 17 997 10 21 30 17 24 19 9 19 13 7 15 961 6 16 21 452 16 9 430 19 24 13 9 36 16 22 20 15 153 5 13 26 914 10 4680 23 19 16 33 992 11 13 31 12 15 9 18 19 18 224 12 10 27 23 167 1154 16 13 32 30 14 12 951 20 260 24 17 1484 89 20 9 15 266 15 14 6 8 11 17 30 18 481 356 13 257 1820 26 608 25 6 11 487 9 17 15 15 16 14 166 7 114 11 607 32 108 998 17 12 15 17 22 10 15 8 80 24 3084 12 660 23 14 2527 29 28 21 17 9 13 33 19 12 11 27 7 10 17 20 11 15 48 59 20 13 21 13 18 19 20 828 11 19 532 12 17 19 13 12 22 459 10 9 11 13 996 10 5 355 19 12 16 13 208 21 21 361 100 7 9 12 15 21 22 25 9 15 11 557 19 15 13 36 28 15 26 7 13 19 8 14 11 13 19 972 16 11 10 28 13 133 55 24 85 24 18 19 8 21 504 1470 21 24 16 28 13 2960 10 18 18 17 31 11 10 15 25 20 18 10 15 16 13 824 8 24 14 1404 15 20 19 14 16 22 16 123 14 10 14 17 20 16 13 12 530 26 19 21 13 18 10 1603 5 19 21 9 19 10 18 18 989 20 21 20 11 8 1018 10 8 9 15 13 25 15 13 1388 23 8 26 31 11 169 17 13 158 14 13 24 10 13 28 14 22 15 23 9 13 12 13 28 32 19 12 45 34 30 14 14 17 16 19 7 17 23 17 25 24 18 10 28 514 21 31 238 15 19 14 15 16 14 1390 12 9 17 20 32 17 16 26 9 20 182 27 18 18 25 22 12 24 629 28 8 21 10 14 37 18 21 22 22 23 33 17 21 8 16 26 151 8 20 9 577 25 27 18 29 11 36 11 11 10 20 1000 18 10 13 25 40 12 47 24 16 11 41 24 18 24 18 13 708 34 11 13 36 5 1115 6 11 7 526 15 26 609 1498 13 942 29 11 126 29 17 27 23 20 18 6 27 15 18 13 27 14 8 30 14 14 12 19 418 24 13 25 27 14 38 29 12 24 20 18 331 19 24 19 18 1480 619 31 23 634 2474 18 26 15 12 13 13 12 7 4228 25 13 16 17 24 17 15 18 17 13 25 9 177 471 165 14 15 23 12 16 17 27 28 314 11 13 20 20 92 17 9 21 170 9 20 206 15 25 16 15 13 24 12 21 1163 26 18 19 263 58 9 9 33 756 8 16 21 19 13 30 23 28 991 18 33 15 7 21 14 10 22 498 16 64 20 973 15 11 16 16 422 19 10 19 1478 33 27 22 206 18 27 506 13 30 14 33 9 27 1479 18 14 30 13 22 33 19 17 12 14 14 1125 15 156 319 13 18 8 13 217 17 10 22 15 13 18 6 80 24 1009 12 10 14 72 23 6 16 287 7 21 1497 6 14 15 15 991 13 59 11617 133 107 9 19 1017 13 21 13 771 20 400 79 472 20 1474 14 28 6 1510 18 1286 1975 8 6 20 624 8 10 18 16 6 307 1666 24 11 22 22 17 43 21 13 13 17 5 13 15 35 10 684 19 395 14 16 16 14 12 13 8 11 6 20 14 611 17 19 18 19 37 28 12 489 237 24 8 12 12 14 9 13 7856 34 690 20 17 21 14 27 32 19 731 9 23 17 37 25 15 20 13 15 36 17 13 290 1827 33 522 12 18 16 997 14 14 1460 26 20 23 12 10 1339 1057 15 18 22 31 925 25 25 10 17 12 629 29 21 9 32 12 19 9 167 22 17 13 11 6 14 14 633 9 14 19 16 13 418 1410 16 14 11 322 30 1192 1291 13 17 13 19 14 15 13 15 12 16 180 13 15 14 21 19 92 20 503 12 20 11 994 709 280 11 55 19 451 859 13 12 23 11 14 16 44 32 29 85 19 105 691 14 30 21 20 8 20 17 17 12 14 22 40 29 26 236 1880 18 340 17 20 228 26 26 14 19 16 991 25 10 10 1481 15 57 21 58 93 19 14 227 11 27 18 34 2939 11 20 20 992 16 784 1576 172 23 23 14 13 14 19 29 9 10 1481 17 15 13 188 13 21 17 17 8 22 13 996 19 445 13 9 14 12 6 12 7 9 13 26 18 7 
To predecode: 0
Predecoding something: 0
Predecode request dropped: 0
sizeofblock_0 0
sizeofblock_1 37257
sizeofblock_2 38124
sizeofblock_3 46438
sizeofblock_4 21409
sizeofblock_5 0
sizeofblock_6 0
sizeofblock_7 0
sizeofblock_8 0
Variant_0 Correct: 1613777 Incorrect: 0 Accuracy: 1
Variant_1 Correct: 2094410 Incorrect: 0 Accuracy: 1
Variant_2 Correct: 3645362 Incorrect: 0 Accuracy: 1
Variant_3 Correct: 0 Incorrect: 0 Accuracy: -nan
