
*** ChampSim Multicore Out-of-Order Simulator ***

Warmup Instructions: 50000000
Simulation Instructions: 50000000
Number of CPUs: 1
LLC sets: 2048
LLC ways: 16
Off-chip DRAM Size: 4096 MB Channels: 1 Width: 64-bit Data Rate: 6400 MT/s
CPU 0 runs ./micro_traces/srv724.trace.gz
.gz
ITLB has LRU replacement policy
DTLB has LRU replacement policy
STLB has LRU replacement policy
FDIP Prefetcher at L1I
L1I has LRU replacement policy
L1D has LRU replacement policy
Initialize SRRIP state for L2C
Initialize DRRIP state for LLC
Heartbeat CPU 0 instructions: 10000002 cycles: 2797074 heartbeat IPC: 3.57517 cumulative IPC: 3.57517 (Simulation time: 0 hr 1 min 27 sec) 
Heartbeat CPU 0 instructions: 20000002 cycles: 5593373 heartbeat IPC: 3.57616 cumulative IPC: 3.57566 (Simulation time: 0 hr 2 min 55 sec) 
Heartbeat CPU 0 instructions: 30000001 cycles: 8390252 heartbeat IPC: 3.57541 cumulative IPC: 3.57558 (Simulation time: 0 hr 4 min 21 sec) 
Heartbeat CPU 0 instructions: 40000000 cycles: 11186426 heartbeat IPC: 3.57631 cumulative IPC: 3.57576 (Simulation time: 0 hr 5 min 46 sec) 
Heartbeat CPU 0 instructions: 50000000 cycles: 13983816 heartbeat IPC: 3.57476 cumulative IPC: 3.57556 (Simulation time: 0 hr 7 min 22 sec) 

Warmup complete CPU 0 instructions: 50000004 cycles: 13983817 (Simulation time: 0 hr 7 min 22 sec) 

Cycle: 20000000 FTQ IN: 54853422 FTQ occupancy: 15.4632 DECODE IN: 54853404 DECODE occupancy: 9.33871 ROB IN: 54853404 ROB occupancy: 258.656 ROB OUT: 54853384
Heartbeat CPU 0 instructions: 60000001 cycles: 26240903 heartbeat IPC: 0.815855 cumulative IPC: 0.815854 (Simulation time: 0 hr 8 min 50 sec) 
Cycle: 30000000 FTQ IN: 8261836 FTQ occupancy: 13.4639 DECODE IN: 8261847 DECODE occupancy: 4.4042 ROB IN: 8261847 ROB occupancy: 48.0365 ROB OUT: 8261837
Heartbeat CPU 0 instructions: 70000001 cycles: 38282248 heartbeat IPC: 0.830472 cumulative IPC: 0.823098 (Simulation time: 0 hr 10 min 13 sec) 
Cycle: 40000000 FTQ IN: 8319305 FTQ occupancy: 13.525 DECODE IN: 8319294 DECODE occupancy: 4.44019 ROB IN: 8319282 ROB occupancy: 48.5878 ROB OUT: 8319281
Cycle: 50000000 FTQ IN: 8063962 FTQ occupancy: 13.4749 DECODE IN: 8063962 DECODE occupancy: 4.39101 ROB IN: 8063962 ROB occupancy: 49.9918 ROB OUT: 8063926
Heartbeat CPU 0 instructions: 80000001 cycles: 50608221 heartbeat IPC: 0.811295 cumulative IPC: 0.819126 (Simulation time: 0 hr 11 min 39 sec) 
Cycle: 60000000 FTQ IN: 8282415 FTQ occupancy: 13.4363 DECODE IN: 8282433 DECODE occupancy: 4.40352 ROB IN: 8282433 ROB occupancy: 47.9783 ROB OUT: 8282354
Heartbeat CPU 0 instructions: 90000000 cycles: 62675499 heartbeat IPC: 0.828687 cumulative IPC: 0.821495 (Simulation time: 0 hr 13 min 7 sec) 
Cycle: 70000000 FTQ IN: 8305943 FTQ occupancy: 13.513 DECODE IN: 8305941 DECODE occupancy: 4.42919 ROB IN: 8305953 ROB occupancy: 48.1403 ROB OUT: 8306092
Heartbeat CPU 0 instructions: 100000003 cycles: 74845229 heartbeat IPC: 0.821711 cumulative IPC: 0.821539 (Simulation time: 0 hr 14 min 23 sec) 
Finished CPU 0 instructions: 50000000 cycles: 60861413 cumulative IPC: 0.821539 (Simulation time: 0 hr 14 min 23 sec) 

ChampSim completed all CPUs

Region of Interest Statistics

CPU 0 cumulative IPC: 0.821539 instructions: 50000000 cycles: 60861413
 Fetch stage stalled: 35.7677  Sim cycles: 60861413 fetch stall cycle: 21768720
 Empty decode stage: 68.0208  Sim cycles: 60861413 fetch stall cycle: 41398408
ITLB TOTAL     ACCESS:    7197009  HIT:    6705231  MISS:     491778  HIT %:    93.1669  MISS %:    6.83309   MPKI: 9.83556
ITLB LOAD TRANSLATION INSTRUCTION	ACCESS:    7197009  HIT:    6705231  MISS:     491778  HIT %:    93.1669  MISS %:    6.83309  MPKI: 9.83556

ITLB AVERAGE MISS LATENCY: 9.05964 cycles
ITLB RQ	ACCESS:    8276450	FORWARD:          0	MERGED:     877153	TO_CACHE:    7399297

DTLB TOTAL     ACCESS:   10396458  HIT:    9918603  MISS:     477855  HIT %:    95.4037  MISS %:    4.59633   MPKI: 9.5571
DTLB LOAD TRANSLATION DATA	ACCESS:   10396458  HIT:    9918603  MISS:     477855  HIT %:    95.4037  MISS %:    4.59633  MPKI: 9.5571

DTLB AVERAGE MISS LATENCY: 9.33553 cycles
DTLB RQ	ACCESS:   14467973	FORWARD:          0	MERGED:    4041887	TO_CACHE:   10426086

STLB TOTAL     ACCESS:    1233965  HIT:    1231728  MISS:       2237  HIT %:    99.8187  MISS %:   0.181286   MPKI: 0.04474
STLB LOAD TRANSLATION INSTRUCTION	ACCESS:     491777  HIT:     491490  MISS:        287  HIT %:    99.9416  MISS %:  0.0583598  MPKI: 0.00574
STLB LOAD TRANSLATION DATA	ACCESS:     477839  HIT:     475906  MISS:       1933  HIT %:    99.5955  MISS %:    0.40453  MPKI: 0.03866
STLB TRANSLATION FROM L1D PREFETCHER DATA	ACCESS:     264349  HIT:     264332  MISS:         17  HIT %:    99.9936  MISS %: 0.00643089  MPKI: 0.00034

STLB AVERAGE MISS LATENCY: 76.3965 cycles
STLB RQ	ACCESS:    1363705	FORWARD:          0	MERGED:     129706	TO_CACHE:    1233999

STLB Hit, L1D data hit: 0
STLB Hit, L2C data hit: 0
STLB Hit, LLC data hit: 0
STLB Hit, LLC data miss: 0
STLB STLB hints to L2: 0
L1D TOTAL     ACCESS:   14259916  HIT:   13118409  MISS:    1141507  HIT %:     91.995  MISS %:    8.00501   MPKI: 22.8301
L1D LOAD DATA	ACCESS:    7628379  HIT:    6878688  MISS:     749691  HIT %:    90.1723  MISS %:    9.82766  MPKI: 14.9938
L1D RFO DATA	ACCESS:    6290801  HIT:    6000139  MISS:     290662  HIT %:    95.3796  MISS %:    4.62043  MPKI: 5.81324
L1D PREFETCH DATA	ACCESS:     340736  HIT:     239582  MISS:     101154  HIT %:    70.3131  MISS %:    29.6869  MPKI: 2.02308

L1D PREFETCH  REQUESTED:     788247  ISSUED:     788247  USEFUL:      44421  USELESS:      69055
L1D USEFUL LOAD PREFETCHES:      44421 PREFETCH ISSUED TO LOWER LEVEL:     113596  ACCURACY: 39.1044
 TIMELY PREFETCHES:      44421 LATE PREFETCHES: 12311 DROPPED PREFETCHES: 2
L1D AVERAGE MISS LATENCY: 468259 cycles
L1D RQ	ACCESS:   11460779	FORWARD:          0	MERGED:    3647006	TO_CACHE:    7659614
L1D WQ	ACCESS:    6927438	FORWARD:     154262	MERGED:     119079	TO_CACHE:    6808359
L1D PQ	ACCESS:     394175	FORWARD:          0	MERGED:          0	TO_CACHE:     394072

L1D UNIQUE REGIONS ACCESSED: 0
L1D REGIONS CONFLICTS: 0
L1D Cross Page Prefetch Requests: 5939
L1D Same Page Prefetch Requests: 789044
L1D ROI Sum of L1D PQ occupancy: 5018851
L1D PREFETCHES PUSHED FROM L2C: 0
L1I TOTAL     ACCESS:    7878474  HIT:    5127393  MISS:    2751081  HIT %:     65.081  MISS %:     34.919   MPKI: 55.0216
L1I LOAD INSTRUCTION	ACCESS:    7878474  HIT:    5127393  MISS:    2751081  HIT %:     65.081  MISS %:     34.919  MPKI: 55.0216

L1I AVERAGE MISS LATENCY: 17.1944 cycles
L1I RQ	ACCESS:   15488043	FORWARD:          0	MERGED:    7211593	TO_CACHE:    8276450

L1BTB TOTAL     ACCESS:    5676136  HIT:    2066297  MISS:    3609839  HIT %:    36.4032  MISS %:    63.5968   MPKI: 72.1968
L1BTB BRANCH_DIRECT_JUMP	ACCESS:     547867 HIT:     145274 MISS:     402593 AVERAGE STALL: 26.4862 AVERAGE FETCH STALL: 18.252 AVERAGE FETCH QUEUE STALL: 2.45606 AVERAGE DECODE STALL: 4.77814 AVERAGE EXECUTE STALL: 3.50519e+14
L1BTB BRANCH_INDIRECT	ACCESS:     182932 HIT:      66234 MISS:     116698 AVERAGE STALL: 55.4733 AVERAGE FETCH STALL: 12.8417 AVERAGE FETCH QUEUE STALL: 3.69495 AVERAGE DECODE STALL: 4.10865 AVERAGE EXECUTE STALL: 33.828
L1BTB BRANCH_CONDITIONAL	ACCESS:    2728777 HIT:    1441731 MISS:    1287046 AVERAGE STALL: 26.3271 AVERAGE FETCH STALL: 18.0489 AVERAGE FETCH QUEUE STALL: 2.95364 AVERAGE DECODE STALL: 4.32454 AVERAGE EXECUTE STALL: 1.29415e+14
L1BTB BRANCH_DIRECT_CALL	ACCESS:     938112 HIT:     104735 MISS:     833377 AVERAGE STALL: 28.1585 AVERAGE FETCH STALL: 18.3418 AVERAGE FETCH QUEUE STALL: 4.10263 AVERAGE DECODE STALL: 4.71326 AVERAGE EXECUTE STALL: 1.59492e+14
L1BTB BRANCH_INDIRECT_CALL	ACCESS:     170182 HIT:      20582 MISS:     149600 AVERAGE STALL: 69.7361 AVERAGE FETCH STALL: 13.4839 AVERAGE FETCH QUEUE STALL: 3.3901 AVERAGE DECODE STALL: 4.73197 AVERAGE EXECUTE STALL: 47.1302
L1BTB BRANCH_RETURN	ACCESS:    1108266 HIT:     287741 MISS:     820525 AVERAGE STALL: 29.4326 AVERAGE FETCH STALL: 15.8432 AVERAGE FETCH QUEUE STALL: 3.85713 AVERAGE DECODE STALL: 4.48373 AVERAGE EXECUTE STALL: 1.81973e+14
L1BTB BRANCH_OTHER ACCESS:          0 HIT:          0 MISS:          0 AVERAGE STALL: -nan AVERAGE FETCH STALL: -nan AVERAGE FETCH QUEUE STALL: -nan AVERAGE DECODE STALL: -nan AVERAGE EXECUTE STALL: -nan
L1BTB TOTAL ROB OCCUPANCY AT BTB MISS: 4.60005

L2BTB TOTAL     ACCESS:    3584447  HIT:    3149962  MISS:     434485  HIT %:    87.8786  MISS %:    12.1214   MPKI: 8.6897
L2BTB BRANCH_DIRECT_JUMP	ACCESS:     398415 HIT:     349924 MISS:      48491 AVERAGE STALL: 26.4862 AVERAGE FETCH STALL: 18.252 AVERAGE FETCH QUEUE STALL: 2.45606 AVERAGE DECODE STALL: 4.77814 AVERAGE EXECUTE STALL: 3.50519e+14
L2BTB BRANCH_INDIRECT	ACCESS:     106422 HIT:     101140 MISS:       5282 AVERAGE STALL: 55.4733 AVERAGE FETCH STALL: 12.8417 AVERAGE FETCH QUEUE STALL: 3.69495 AVERAGE DECODE STALL: 4.10865 AVERAGE EXECUTE STALL: 33.828
L2BTB BRANCH_CONDITIONAL	ACCESS:    1287046 HIT:    1143568 MISS:     143478 AVERAGE STALL: 26.3271 AVERAGE FETCH STALL: 18.0489 AVERAGE FETCH QUEUE STALL: 2.95364 AVERAGE DECODE STALL: 4.32454 AVERAGE EXECUTE STALL: 1.29415e+14
L2BTB BRANCH_DIRECT_CALL	ACCESS:     833377 HIT:     717653 MISS:     115724 AVERAGE STALL: 28.1585 AVERAGE FETCH STALL: 18.3418 AVERAGE FETCH QUEUE STALL: 4.10263 AVERAGE DECODE STALL: 4.71326 AVERAGE EXECUTE STALL: 1.59492e+14
L2BTB BRANCH_INDIRECT_CALL	ACCESS:     140059 HIT:     118574 MISS:      21485 AVERAGE STALL: 69.7361 AVERAGE FETCH STALL: 13.4839 AVERAGE FETCH QUEUE STALL: 3.3901 AVERAGE DECODE STALL: 4.73197 AVERAGE EXECUTE STALL: 47.1302
L2BTB BRANCH_RETURN	ACCESS:     819128 HIT:     719103 MISS:     100025 AVERAGE STALL: 29.4326 AVERAGE FETCH STALL: 15.8432 AVERAGE FETCH QUEUE STALL: 3.85713 AVERAGE DECODE STALL: 4.48373 AVERAGE EXECUTE STALL: 1.81973e+14
L2BTB BRANCH_OTHER ACCESS:          0 HIT:          0 MISS:          0 AVERAGE STALL: -nan AVERAGE FETCH STALL: -nan AVERAGE FETCH QUEUE STALL: -nan AVERAGE DECODE STALL: -nan AVERAGE EXECUTE STALL: -nan
L2BTB TOTAL ROB OCCUPANCY AT BTB MISS: 38.2186

L2C TOTAL     ACCESS:    4506316  HIT:    4001263  MISS:     505053  HIT %:    88.7923  MISS %:    11.2077   MPKI: 10.1011
L2C LOAD INSTRUCTION	ACCESS:    2751082  HIT:    2478325  MISS:     272757  HIT %:    90.0855  MISS %:    9.91454  MPKI: 5.45514
L2C LOAD TRANSLATION INSTRUCTION	ACCESS:        336  HIT:        101  MISS:        235  HIT %:    30.0595  MISS %:    69.9405  MPKI: 0.0047
L2C LOAD DATA	ACCESS:     737355  HIT:     661106  MISS:      76249  HIT %:    89.6591  MISS %:    10.3409  MPKI: 1.52498
L2C RFO DATA	ACCESS:     290522  HIT:     230996  MISS:      59526  HIT %:    79.5107  MISS %:    20.4893  MPKI: 1.19052
L2C PREFETCH DATA	ACCESS:     199429  HIT:     121254  MISS:      78175  HIT %:    60.8006  MISS %:    39.1994  MPKI: 1.5635
L2C WRITEBACK DATA	ACCESS:     525510  HIT:     508887  MISS:      16623  HIT %:    96.8368  MISS %:    3.16321  MPKI: 0.33246
L2C LOAD TRANSLATION DATA	ACCESS:       2054  HIT:        573  MISS:       1481  HIT %:    27.8968  MISS %:    72.1032  MPKI: 0.02962
L2C TRANSLATION FROM L1D PREFETCHER DATA	ACCESS:         28  HIT:         21  MISS:          7  HIT %:         75  MISS %:         25  MPKI: 0.00014

L2C PREFETCH  REQUESTED:      92728  ISSUED:      92728  USEFUL:       9361  USELESS:      69502
L2C USEFUL LOAD PREFETCHES:       9361 PREFETCH ISSUED TO LOWER LEVEL:      78679  ACCURACY: 11.8977
 TIMELY PREFETCHES:       9361 LATE PREFETCHES: 504 DROPPED PREFETCHES: 0
L2C AVERAGE MISS LATENCY: 39.0851 cycles
L2C RQ	ACCESS:    3781411	FORWARD:          0	MERGED:          0	TO_CACHE:    3781378
L2C WQ	ACCESS:     525510	FORWARD:         33	MERGED:          0	TO_CACHE:     525510
L2C PQ	ACCESS:     206324	FORWARD:          0	MERGED:       3616	TO_CACHE:     202708

L2C Dense regions hint from L2: 0
PSCL5 TOTAL     ACCESS:       4480  HIT:       2240  MISS:       2240  HIT %:         50  MISS %:         50   MPKI: 0.0448
PSCL5 LOAD TRANSLATION INSTRUCTION	ACCESS:       4424  HIT:       2212  MISS:       2212  HIT %:         50  MISS %:         50  MPKI: 0.04424
PSCL5 TRANSLATION FROM L1D PREFETCHER INSTRUCTION	ACCESS:         56  HIT:         28  MISS:         28  HIT %:         50  MISS %:         50  MPKI: 0.00056


PSCL4 TOTAL     ACCESS:       4277  HIT:       2130  MISS:       2147  HIT %:    49.8013  MISS %:    50.1987   MPKI: 0.04294
PSCL4 LOAD TRANSLATION INSTRUCTION	ACCESS:       2260  HIT:       2102  MISS:        158  HIT %:    93.0088  MISS %:    6.99115  MPKI: 0.00316
PSCL4 TRANSLATION FROM L1D PREFETCHER INSTRUCTION	ACCESS:         28  HIT:         28  MISS:          0  HIT %:        100  MISS %:          0  MPKI: 0
PSCL4 LOAD TRANSLATION DATA	ACCESS:       1961  HIT:          0  MISS:       1961  HIT %:          0  MISS %:        100  MPKI: 0.03922
PSCL4 TRANSLATION FROM L1D PREFETCHER DATA	ACCESS:         28  HIT:          0  MISS:         28  HIT %:          0  MISS %:        100  MPKI: 0.00056


PSCL3 TOTAL     ACCESS:       4359  HIT:       2171  MISS:       2188  HIT %:     49.805  MISS %:     50.195   MPKI: 0.04376
PSCL3 LOAD TRANSLATION INSTRUCTION	ACCESS:       2301  HIT:       2143  MISS:        158  HIT %:    93.1334  MISS %:    6.86658  MPKI: 0.00316
PSCL3 TRANSLATION FROM L1D PREFETCHER INSTRUCTION	ACCESS:         28  HIT:         28  MISS:          0  HIT %:        100  MISS %:          0  MPKI: 0
PSCL3 LOAD TRANSLATION DATA	ACCESS:       2002  HIT:          0  MISS:       2002  HIT %:          0  MISS %:        100  MPKI: 0.04004
PSCL3 TRANSLATION FROM L1D PREFETCHER DATA	ACCESS:         28  HIT:          0  MISS:         28  HIT %:          0  MISS %:        100  MPKI: 0.00056


PSCL2 TOTAL     ACCESS:       4334  HIT:       2094  MISS:       2240  HIT %:    48.3156  MISS %:    51.6844   MPKI: 0.0448
PSCL2 LOAD TRANSLATION INSTRUCTION	ACCESS:       2367  HIT:       2066  MISS:        301  HIT %:    87.2835  MISS %:    12.7165  MPKI: 0.00602
PSCL2 TRANSLATION FROM L1D PREFETCHER INSTRUCTION	ACCESS:         28  HIT:         28  MISS:          0  HIT %:        100  MISS %:          0  MPKI: 0
PSCL2 LOAD TRANSLATION DATA	ACCESS:       1911  HIT:          0  MISS:       1911  HIT %:          0  MISS %:        100  MPKI: 0.03822
PSCL2 TRANSLATION FROM L1D PREFETCHER DATA	ACCESS:         28  HIT:          0  MISS:         28  HIT %:          0  MISS %:        100  MPKI: 0.00056


LLC TOTAL     ACCESS:     572223  HIT:     540170  MISS:      32053  HIT %:    94.3985  MISS %:    5.60149   MPKI: 0.64106
LLC LOAD INSTRUCTION	ACCESS:     272757  HIT:     271430  MISS:       1327  HIT %:    99.5135  MISS %:   0.486514  MPKI: 0.02654
LLC LOAD TRANSLATION INSTRUCTION	ACCESS:        235  HIT:        186  MISS:         49  HIT %:    79.1489  MISS %:    20.8511  MPKI: 0.00098
LLC LOAD DATA	ACCESS:      75755  HIT:      71947  MISS:       3808  HIT %:    94.9733  MISS %:    5.02673  MPKI: 0.07616
LLC RFO DATA	ACCESS:      59507  HIT:      43455  MISS:      16052  HIT %:     73.025  MISS %:     26.975  MPKI: 0.32104
LLC PREFETCH DATA	ACCESS:      78679  HIT:      68414  MISS:      10265  HIT %:    86.9533  MISS %:    13.0467  MPKI: 0.2053
LLC WRITEBACK DATA	ACCESS:      83802  HIT:      83360  MISS:        442  HIT %:    99.4726  MISS %:   0.527434  MPKI: 0.00884
LLC LOAD TRANSLATION DATA	ACCESS:       1481  HIT:       1371  MISS:        110  HIT %:    92.5726  MISS %:    7.42741  MPKI: 0.0022
LLC TRANSLATION FROM L1D PREFETCHER DATA	ACCESS:          7  HIT:          7  MISS:          0  HIT %:        100  MISS %:          0  MPKI: 0

LLC AVERAGE MISS LATENCY: 157.505 cycles
LLC RQ	ACCESS:     409751	FORWARD:          0	MERGED:          0	TO_CACHE:     409742
LLC WQ	ACCESS:      83802	FORWARD:          9	MERGED:          0	TO_CACHE:      83802
LLC PQ	ACCESS:      78679	FORWARD:          0	MERGED:          0	TO_CACHE:      78679

LLC Dense regions hint to LLC: 0

RAW hits: 1169485
Loads Generated: 12630267
Loads sent to L1D: 11460779
Stores Generated: 6927427
Stores sent to L1D: 6927438
Major fault: 0 Minor fault: 2623
Allocated PAGES: 2623

stream: 
stream:times selected: 1230508
stream:pref_filled: 126037
stream:pref_useful: 28746
stream:pref_late: 8102
stream:misses: 8199
stream:misses_by_poll: 0

CS: 
CS:times selected: 191463
CS:pref_filled: 68936
CS:pref_useful: 44646
CS:pref_late: 8920
CS:misses: 22375
CS:misses_by_poll: 4

CPLX: 
CPLX:times selected: 1037906
CPLX:pref_filled: 24708
CPLX:pref_useful: 7270
CPLX:pref_late: 3916
CPLX:misses: 114846
CPLX:misses_by_poll: 0

NL_L1: 
NL:times selected: 12411
NL:pref_filled: 1380
NL:pref_useful: 164
NL:pref_late: 328
NL:misses: 1496
NL:misses_by_poll: 0

total selections: 2472288
total_filled: 101154
total_useful: 44421
total_late: 23097
total_polluted: 4
total_misses_after_warmup: 780926
conflicts: 5990257

test: 121536

DRAM Statistics
 CHANNEL 0
 RQ ROW_BUFFER_HIT:      11698  ROW_BUFFER_MISS:      19891
 DBUS_CONGESTED:          9
 WQ ROW_BUFFER_HIT:       1542  ROW_BUFFER_MISS:      13412  FULL:          0

 AVG_CONGESTED_CYCLE: 4

CPU 0 Branch Prediction Accuracy: 99.8135% MPKI: 0.34118 Average ROB Occupancy at Mispredict: 72.2223
Branch types
NOT_BRANCH: 40852026 81.7041%
BRANCH_DIRECT_JUMP: 547867 1.09573%
BRANCH_INDIRECT: 182932 0.365864%
BRANCH_CONDITIONAL: 6200249 12.4005%
BRANCH_DIRECT_CALL: 938112 1.87622%
BRANCH_INDIRECT_CALL: 170182 0.340364%
BRANCH_RETURN: 1108266 2.21653%
BRANCH_OTHER: 0 0%

DRAM PAGES: 1048576
Allocated PAGES: 2623
Average_ROB_Occupancy: 49.9033
Average_Decode_Occupancy: 4.41357
Average_FTQ_Occupancy: 13.4831
Indirect max targets: 14 Average targets: 1.17363
Branch_type:  BRANCH_DIRECT_JUMP:  Count Percentage: 2.11367 6.3018 4.72496 9.16678 2.22832 5.96436 1.93028 67.5698 
Branch_type:  BRANCH_INDIRECT:  Count Percentage: 6.14968 3.46303 8.15364 0 1.33524 9.68531 5.20893 66.0042 
Branch_type:  BRANCH_CONDITIONAL:  Count Percentage: 22.1427 6.41836 1.81536 5.32999 1.34078 4.71233 2.95291 55.2876 
Branch_type:  BRANCH_DIRECT_CALL:  Count Percentage: 0.260062 1.98027 1.29051 4.76863 1.91012 2.82857 3.35924 83.6026 
Branch_type:  BRANCH_INDIRECT_CALL:  Count Percentage: 9.57705 0 3.00282 8.72254 0 2.55122 6.4367 69.7097 
Branch_type:  BRANCH_RETURN:  Count Percentage: 4.10787 5.43978 0.726082 6.17835 3.19337 6.017 4.68969 69.6479 
Branch_type:  BRANCH_DIRECT_JUMP:  Total Count: 23120 68931 51683 100269 24374 65240 21114 739099 
Branch_type:  BRANCH_INDIRECT:  Total Count: 22448 12641 29763 0 4874 35354 19014 240933 
Branch_type:  BRANCH_CONDITIONAL:  Total Count: 2745149 795717 225060 660786 166223 584212 366087 6854285 
Branch_type:  BRANCH_DIRECT_CALL:  Total Count: 4883 37182 24231 89537 35865 53110 63074 1569745 
Branch_type:  BRANCH_INDIRECT_CALL:  Total Count: 32659 0 10240 29745 0 8700 21950 237719 
Branch_type:  BRANCH_RETURN:  Total Count: 91172 120733 16115 137125 70875 133544 104085 1545796 
Number of unique branch instructions: 10364
Upper 32 bits: 
aaaa
ffff
ffff0000
Unique upper 32 bits: 3
Unique upper 36 bits: 3
Unique upper 40 bits: 5
Unique upper 44 bits: 32
Unique upper 48 bits: 157
Offset_3 4292
Offset_4 258
Offset_5 467
Offset_6 525
Offset_7 610
Offset_8 550
Offset_9 489
Offset_10 406
Offset_11 328
Offset_12 293
Offset_13 220
Offset_14 229
Offset_15 203
Offset_16 222
Offset_17 153
Offset_18 144
Offset_19 249
Offset_20 138
Offset_21 235
Offset_22 399
Offset_23 243
Offset_24 336
Offset_25 114
Offset_47 90
decode_dispatch_called: 29736576 48.8595
Dispatch_width: 0 17637449 59.3123 28.9797
Dispatch_width: 1 2131859 7.16915 3.50281
Dispatch_width: 2 1257374 4.22838 2.06596
Dispatch_width: 3 1134543 3.81531 1.86414
Dispatch_width: 4 1159035 3.89767 1.90438
Dispatch_width: 5 1184613 3.98369 1.94641
Dispatch_width: 6 5231703 17.5935 8.59609
Empty_decode_cycles: 31124837 51.1405
ROB_full_cycles: 525127 0.862824
Starvation_cycles_per_kilo_instr: 551.046
Starvation_cycles_per_kilo_instr_3: 527.609
Starvation_cycles_per_kilo_instr_0: 482.372
Branch_type_1  (3,1)  (4,9)  (5,38)  (6,73)  (7,122)  (8,144)  (9,132)  (10,108)  (11,75)  (12,47)  (13,11)  (14,2)  (15,3)  (16,4)  (18,1)  (19,5)  (20,2)  (21,1)  (22,3)  (23,2)  (24,10)  (25,12) 
Branch_type_2  (3,1)  (4,1)  (5,1)  (8,4)  (9,4)  (10,1)  (12,1)  (13,1)  (14,1)  (16,3)  (17,2)  (20,2)  (21,2)  (23,5)  (24,1)  (47,40) 
Branch_type_3  (3,4290)  (4,248)  (5,424)  (6,436)  (7,460)  (8,339)  (9,266)  (10,162)  (11,126)  (12,56)  (13,10)  (22,1) 
Branch_type_4  (6,3)  (7,8)  (8,25)  (9,53)  (10,64)  (11,65)  (12,103)  (13,92)  (14,102)  (15,97)  (16,97)  (17,69)  (18,61)  (19,121)  (20,71)  (21,124)  (22,208)  (23,137)  (24,192)  (25,98) 
Branch_type_5  (8,3)  (9,1)  (10,4)  (11,5)  (12,3)  (13,14)  (14,16)  (15,11)  (16,22)  (17,11)  (18,23)  (19,14)  (20,11)  (21,13)  (22,43)  (23,26)  (24,37) 
Branch_type_6  (5,4)  (6,13)  (7,20)  (8,35)  (9,33)  (10,67)  (11,57)  (12,83)  (13,92)  (14,108)  (15,92)  (16,96)  (17,71)  (18,59)  (19,109)  (20,52)  (21,95)  (22,144)  (23,73)  (24,96)  (25,4)  (47,50) 
aaaaab1fc620: 2ac9e77e 2aca717c 2aca8eff 2acaf6bc 2acaf9aa 2acaf9f1 2acb1abc 2acb1b7f 2acd4e22 2acdb712 2acf5f9e 2ad0ef44 2ad3f15c 2ad414e6 2ad60e42 2ad8609c 2ad99830 2ada35cc 2ada4676 2ada6612 2adf183e 2adf30e5 2adf5602 2adf785c 2ae11572 2aeb2dcf 2aee101b 2aee1ae1 2b156a8c 2b156b61 2b156bea 2b167f35 2b177656 2b17feec 2b1a3e5a 
aaaaab1fc640: 2ac9ec07 2aca656e 2aca801d 2acaea11 2acaee73 2acb13ee 2acb1470 2acd462b 2ad0ef5d 2ad3f3fe 2ad86e9b 2ada1641 2ada4115 2ada6638 2adf30d4 2ae12e57 2aee1033 2b1693ab 2b16948c 2b169491 2b17d915 2b17fa85 2b17fccd 
aaaaab1fcb00: 2acf2d72 2acf3734 2acf604c 2acfa5b7 2ad397b5 2ad3b800 2ae8af7d 2ae8aff0 2ae9aaba 2aea9fc6 2aeaa358 2aee910b 2aee91cf 2aee928e 2aee92e4 2af6fe87 2af70dfe 2b16850c 2b16c4a2 2b1765f4 2b178094 2b17d925 2b17db06 
aaaaab1fcb10: 2acf2d95 2acf3758 2acf6052 2acfa5f4 2ad397c3 2ad3b81c 2ae8af88 2ae8affe 2ae9aacf 2aeaa017 2aeaa36d 2aee9114 2aee91d8 2aee934d 2aee9353 2af6fe8c 2af70e22 2b168526 2b16c542 2b176609 2b1780a3 2b17d95d 2b17db44 
aaaaac68f310: 2ac9ec8c 2ac9fb44 2ac9fbd2 2aca59ab 2acac04c 2acaf6e0 2acaf6ec 2acaf6f9 2acaf700 2acaf708 2acf2d90 2ad3cfbd 2ad3cfc4 2ad3d000 2ad3f35f 2ad4955d 2ad49571 2ad4f3f2 2ad4f400 2ad5f240 2ad5f37c 2ad5f86a 2ad5f86f 2ad5f880 2ad5fc0d 2ad5fc14 2ad5fc21 2ad5fe1b 2ad873bb 2ad873e3 2ad8a6b2 2ad9086e 2ad93096 2ad9bbb2 2ada152c 2ada1554 2ada3332 2ada5522 2adf3130 2adf313c 2adf3a3f 2adf3bd9 2adf5788 2adf7a8d 2ae07f6b 2ae0857a 2ae0857e 2ae08630 2ae08634 2ae08637 2ae08642 2ae0866f 2ae086e4 2ae086ec 2ae08717 2ae0871b 2aee0170 2aee1d38 2aee75f4 2aee7662 2aee85ca 2aee85e4 2aee8eef 2af70b84 2af74e8f 2b17d843 
aaaaac690ef0: 2aca598b 2acb111b 2acb175f 2acb1772 2acbfaf4 2acbfb00 2acf374f 2acf6d43 2acfa5c8 2ad3baf1 2ad3d4ac 2ad3d4b8 2ad3f1cf 2ad486b2 2ad5a59b 2ad5fc64 2ad5fcf9 2ad6121c 2ad906e9 2ad907bf 2ad9bada 2ada16ce 2ada1ad5 2ada43df 2ada64c0 2ada72ee 2adeb71a 2adf3bcb 2adf7a38 2adf7c6a 2adf8872 2adf8880 2adf9959 2adf9abe 2ae07f78 2ae08503 2ae08754 2ae12e80 2aea3bea 2aecb509 2aee00b0 2aee2bdd 2aee5467 2aee5601 2aee8f20 2af703fd 2af7048b 2af74e74 
Unique trigger count: 
1 9888
2 528
3 83
4 32
5 14
6 7
7 8
8 2
9 2
10 2
11 2
12 1
13 1
14 2
16 2
19 2
23 3
35 1
48 1
66 1
BTB PER SET UNIQUE ADDR: 3 4 3 3 1 1 3 2 4 0 2 0 5 3 1 3 3 2 3 5 3 4 2 3 4 5 1 4 3 2 6 6 4 3 4 2 1 6 5 2 4 4 4 6 6 3 4 4 6 3 3 2 3 1 0 3 4 3 3 3 1 4 2 3 1 4 5 4 3 5 5 1 1 4 2 3 3 6 1 4 2 2 1 4 3 3 2 5 3 3 6 5 3 5 2 0 3 4 2 3 4 4 3 3 3 2 1 2 3 2 2 2 3 6 2 6 2 4 4 1 5 4 2 0 1 2 2 2 7 4 6 2 4 1 6 4 2 2 3 3 5 4 4 2 1 5 3 5 5 4 3 9 3 5 4 1 4 4 3 3 4 6 5 4 5 5 2 2 9 3 2 3 4 3 1 2 4 4 6 1 3 4 7 4 6 6 3 1 2 3 5 3 3 4 4 4 3 3 3 5 3 2 4 2 3 3 2 4 2 1 2 4 5 4 4 2 3 5 4 0 1 2 2 4 3 2 4 3 0 3 8 4 3 4 4 4 5 2 2 2 1 0 5 3 11 7 1 3 4 4 2 2 1 4 2 6 3 4 4 3 4 4 4 2 3 6 3 2 4 2 3 2 2 3 3 2 1 1 3 3 4 3 5 2 5 5 3 3 1 1 0 3 1 5 2 1 4 3 2 2 3 3 2 2 3 2 4 2 6 5 4 1 3 2 5 2 5 6 2 3 4 6 3 4 2 3 2 7 1 1 5 0 2 5 5 1 2 2 6 0 3 0 1 5 5 3 1 3 3 5 4 6 5 3 5 3 2 0 5 1 2 5 2 4 6 5 1 1 2 2 3 2 2 4 4 4 3 4 3 4 5 3 1 5 3 2 5 2 6 1 5 4 4 2 3 1 5 0 1 3 4 2 4 2 2 4 3 2 1 1 1 2 5 3 2 3 5 3 1 3 1 1 4 4 3 4 2 0 2 5 1 2 8 3 5 5 3 3 4 0 3 4 5 3 5 6 2 3 3 2 4 3 1 3 5 1 1 3 7 2 3 3 4 6 1 3 4 2 3 3 0 4 5 2 2 1 4 5 1 1 2 1 2 2 0 4 3 0 5 1 4 2 3 4 0 5 3 3 2 1 5 1 1 1 1 2 2 2 2 3 3 2 3 7 3 1 2 5 4 6 4 4 4 2 6 5 1 5 6 4 4 3 4 6 3 4 2 1 4 1 2 5 6 2 6 2 7 3 7 9 3 6 3 6 1 5 3 1 4 3 7 2 5 3 2 1 4 3 2 7 3 2 3 7 2 2 3 4 1 5 5 2 2 0 1 0 0 9 4 2 6 7 1 2 3 3 6 2 4 2 6 2 5 6 1 4 4 4 2 2 5 3 2 2 2 2 2 0 3 1 4 4 7 2 2 4 3 5 2 3 5 4 3 3 5 4 3 5 3 2 7 1 4 4 1 0 4 3 3 4 3 2 5 2 3 0 4 3 2 3 5 2 5 4 5 3 5 3 2 3 5 4 4 3 5 6 3 3 3 3 3 2 4 2 5 3 5 3 4 3 1 4 2 3 3 3 6 4 5 4 0 6 0 3 3 3 3 1 3 1 3 3 3 1 2 1 8 2 0 3 2 0 1 1 1 3 1 4 2 4 6 4 2 1 3 4 7 3 2 2 2 3 2 4 2 2 3 2 2 2 0 2 1 4 2 2 3 6 4 1 3 3 1 5 4 4 8 2 2 2 3 3 0 3 3 3 5 2 1 3 4 4 0 3 8 6 3 3 0 2 2 4 1 1 4 6 7 2 2 2 5 3 4 3 4 3 3 5 1 2 1 3 4 0 5 3 1 2 0 4 5 2 4 2 2 2 3 2 4 4 3 1 3 2 5 2 2 2 5 3 2 2 3 4 2 4 6 5 5 2 6 3 5 4 5 4 3 2 4 4 2 7 2 1 8 3 3 4 5 3 1 3 3 6 4 0 3 3 5 4 3 6 4 5 5 3 2 3 2 4 5 2 3 4 2 1 6 4 2 1 5 2 1 4 5 5 4 5 3 5 5 4 1 3 1 5 0 2 6 2 6 5 5 3 4 1 3 2 5 8 5 4 9 7 6 4 6 4 2 6 4 2 1 4 4 6 5 5 4 4 6 1 5 4 2 3 6 6 4 2 2 2 4 5 2 6 9 5 6 3 2 3 0 4 6 1 7 5 1 3 7 5 3 4 2 1 2 3 3 2 5 4 2 7 4 4 4 5 3 5 3 2 4 2 2 5 4 3 3 3 5 3 4 3 6 2 5 2 2 5 5 2 9 5 2 3 3 2 2 3 4 7 6 2 3 2 3 2 3 1 3 2 4 4 1 4 5 5 4 6 0 3 3 4 4 4 2 1 2 2 3 1 0 1 4 1 2 3 3 4 1 8 5 3 2 1 10 1 2 4 1 2 5 5 3 6 2 5 4 5 3 5 3 2 1 1 5 1 4 4 3 8 4 1 6 4 6 2 3 4 5 3 5 7 4 4 6 1 4 5 7 4 3 2 4 3 6 6 3 6 6 6 4 3 4 4 1 2 3 5 1 3 2 1 3 5 2 3 5 2 2 5 4 2 5 1 7 3 3 2 3 1 3 5 3 4 3 4 2 6 2 3 7 3 4 5 3 5 2 8 3 5 3 8 6 2 6 1 5 2 1 2 4 4 3 1 3 4 3 1 2 2 4 4 3 2 3 4 2 5 2 5 4 5 0 5 3 3 2 6 7 1 8 0 1 4 4 2 5 1 3 3 4 1 1 2 4 5 3 4 1 4 3 6 5 1 4 3 3 6 9 4 3 7 5 5 1 1 3 5 6 3 2 2 3 3 4 4 5 3 0 4 2 3 6 8 5 3 3 5 1 2 6 3 4 1 3 2 6 8 2 3 3 3 4 5 2 5 6 6 5 2 1 5 4 2 4 3 4 4 3 4 7 3 5 4 3 5 5 2 1 7 4 4 3 3 3 2 3 2 2 2 5 4 2 3 5 2 1 3 3 7 4 2 4 4 2 4 3 3 4 3 2 0 4 2 3 2 4 3 4 4 2 1 2 6 1 4 2 4 3 3 7 1 1 5 4 3 3 3 5 2 3 4 5 5 4 4 4 3 3 3 2 3 5 2 4 1 4 0 8 3 3 6 4 4 5 7 3 2 3 3 2 3 4 1 4 2 4 2 0 5 1 5 3 3 3 4 3 2 5 3 3 2 4 1 6 2 0 3 3 1 1 4 1 5 3 3 6 3 2 2 2 3 2 2 7 2 3 5 3 3 3 3 2 2 5 0 2 3 4 3 2 1 2 0 2 0 4 2 4 3 2 3 2 1 2 5 4 2 6 1 3 3 2 2 5 5 2 2 6 0 1 2 3 1 1 2 3 3 5 3 1 1 7 2 1 4 1 6 1 4 2 3 6 2 3 2 1 3 3 1 2 3 4 2 3 3 1 3 0 5 2 3 3 0 4 3 5 3 5 3 3 4 0 3 1 2 1 2 4 0 2 3 3 3 4 1 3 3 2 9 7 2 3 2 4 1 1 3 6 2 3 0 3 2 4 2 3 5 6 5 8 0 4 1 8 4 4 5 3 8 2 4 8 3 0 6 4 3 3 5 3 3 2 1 2 5 2 2 2 3 2 3 6 3 5 3 5 1 1 5 5 3 3 5 4 3 6 2 5 5 2 6 4 3 3 1 3 6 5 3 2 3 3 3 4 4 2 2 3 1 3 1 3 7 0 2 2 3 3 3 5 3 4 2 5 1 2 2 5 2 5 5 6 1 1 7 2 4 2 3 4 7 2 3 2 4 6 2 4 3 5 3 5 8 4 4 3 5 2 5 3 3 2 3 0 2 2 5 4 3 2 4 3 5 4 2 4 8 0 4 2 5 4 4 3 4 4 6 3 5 1 5 3 3 5 2 3 0 2 5 0 7 2 6 6 1 4 3 2 0 4 2 3 5 3 6 2 3 2 2 3 5 6 1 3 3 0 3 2 5 5 3 2 3 6 3 3 3 6 4 4 1 5 3 0 2 4 1 1 8 2 0 4 2 4 3 2 3 6 3 3 6 1 5 4 6 2 6 5 3 3 2 7 1 4 0 3 3 4 4 3 4 2 1 2 4 0 3 0 3 4 6 2 2 5 2 3 3 3 1 2 3 4 2 4 2 5 3 2 3 1 2 4 3 2 2 3 4 2 1 1 2 2 5 1 5 1 5 4 3 3 2 5 1 2 4 4 4 3 4 5 6 3 4 3 3 4 2 0 3 2 0 0 1 2 2 4 2 5 2 2 3 4 1 1 3 3 2 2 7 4 2 7 7 3 2 3 2 3 6 3 3 4 3 5 1 2 4 5 4 2 4 3 2 4 3 5 7 3 3 0 4 2 0 2 3 0 4 4 6 1 3 4 7 5 0 2 2 4 2 5 2 3 2 9 3 2 2 3 7 3 7 3 4 6 0 1 4 2 4 4 2 0 2 3 4 6 4 1 0 3 4 6 1 1 1 4 6 2 1 5 5 3 3 5 4 0 6 3 6 2 1 2 2 1 3 5 1 3 4 3 3 4 1 5 3 5 2 4 2 1 3 6 4 4 0 
BTB PER SET COUNT: 3 4 3 3 1 2 3 2 5 0 2 0 2447 3 1 3 3 2 3 1468 4 4 2 3 4 17 1 5 1464 2 2935 28 4 3 5 2 2924 761 763 3 4 4 10 2210 5369 3 4 4 1579 4 3 2 3 1 0 3 5 3 3 3 1 4 2 3 1 364 443 4 3 1023 759 1 1 4 2 3 491 773 1 4 2 3 2 4 3 3 2 11 3 3 2539 494 3 3893 2 0 3 8 2 3 4 4 3 3 3 2 1 2 4 2 2 2 3 1973 2 1898 2 4 4 1 6 4 2 0 1 2 2 3 3309 7 1958 3 4 2 986 4 2 2 3 3 1741 7 5 2 1 10 5 4378 7 4 3 6754 3 2448 10 1 4 4 3 5 6 1013 6 4 12 1954 2 2 8288 3 2 3 4 4 1 3 4 5 992 1 3 4 6828 5 12 11 4 1 2 4 45 4 4 4 4 7 3 3 4 6 5 3 4 2 5 3 2 1467 2 1 5 6 19 4 4 2 4 804 4 0 1 2 2 4 4 2 9 16 0 3 5810 4 3 5 4 4 7 2 2 2 1 0 2448 3 9263 2208 1 3 4 4 2 2 1 4 2 2461 4 4 4 4 6 4 4 2 1464 1483 3 2 4 2 4 2 2 3 3 3 1 1 3 3 7 3 1951 2 760 2447 3 3 1 1 0 3 1 17 3 1 7 3 2 4 3 3 2 2 3 2 5 2 1960 1014 6 1 3 3 1010 3 2446 1271 2 4 4 2225 3 4 2 3 2 774 1 1 986 0 3 21 1528 1 980 2 29 0 4 0 1 986 984 3 1 3 4 9 4 99 9 3 57 3 2 0 7 1 3 6 3 4 2681 1942 1 1 2 7 3 2 2 4 4 4 4 4 3 4 28 3 1 2434 5 2 12 3 9 1 23 4 4 2 3 1 3017 0 2 3 4 2 5 2 2 4 1464 2 1 974 1 2 10 3 975 3 139 3 1 91 1 1 4 5 3 4 5 0 2 7 138 2 2709 4 1003 2444 4 3 5 0 5 4 1262 3 9 1023 2 3 4 3 4 3 1 4 1957 2 1 4 1488 2 3 3 4 1972 1 4 4 2 3 3 0 5 37 489 2 1 5 1013 1 1 2 1 2 489 0 5 3 0 29 1 4 2 4 4 0 26 4 3 2 1 1954 9 1 1 1 2 2 2 2 3 3 2 3 41 5 1 2 2449 4 504 5 1465 4 2 23 1470 1 1959 4869 4 4 3 4 23 3 493 3 1 7 1 2 1469 220 3 19 2 90 5 1001 9267 4 1485 5 2933 1 15 7 1 4 3 6825 2 1959 4 2 1 5 3 2 2979 3 3 3 5367 2 2 3 4 2 28 9 44 2 0 1 0 0 3916 4 2 1958 2939 2 2 976 3 11 2 4 2 9 2 7 1514 1 4 4 4 3 2 2446 3 2 2 2 2 979 0 3 1 5 493 3427 2 3 4 3 19 2 3 1957 1465 3 8 982 4 3 7 4 2 2942 1 4 4 1 0 6 3 3 4 4 2 14 2 4 0 5 3 2 3 7825 3 27 4 1958 5 2947 981 3 3 760 4 5 7 1470 3013 3 3 5 3 4 3 5 980 1469 3 23 1464 4 3 1 984 2 4 3 3 1967 5 20 37 0 2452 0 3 4 982 3 1 3 2 3 4 6 1 980 1 2461 2 0 4 2 0 1 1 1 5 1 4 2 4 1472 4 975 1 4 5 12 4 3 2 2 3 2 4 2 3 492 2 2 979 0 2 1 6 2 2 3 2935 4 2 3 3 1 22 4 4 5855 2 6 2 3 5 0 100 3 5 2919 3 1 3 4 5 0 4 3034 4877 5 3 0 2 2 36 1 1 7 1482 1951 2 2 2 11 3 5 5 1960 4 6 23 1 6 1 3 5 0 7 4 3 2 0 4 7 2 4 2 2 2 4 2 4 152 3 1 3 2 1958 4 2 2 1470 3 2 2 3 1468 2 9 1960 9 10 3 2445 3 1960 5 9 4 3 2 5 4 2 4890 2 1 6341 976 5 4 1469 3 1 3 3 2454 4 0 8 3 26 4 3 4868 4 6 103 3 2 3 2 6 9 2 3 4 2 2 615 4 2 1 1291 3 1 48 10 2437 4 1010 3 7 45 4 1 3 2 1472 0 2 986 2 44 7 1469 3 6 1 3 2 1957 105 9 493 5357 3887 1472 4 2076 6 2 30 4 2 1 977 5 2448 31 1469 5 4 784 1 332 6 5 3 1394 1961 4 2 2 491 4 4868 3 22 859 8 1969 3 2 3 0 363 30 1 7310 21 1 3 1967 20 491 5 2 4 2 4 5 2 1674 6 2 3426 4 4 5 1953 3 29 4 2 4 2 2 22 4 4 3 4 1971 3 2439 362 1736 6 28 3 2 7 1291 3 5107 27 2 3 3 2 2 3 5 2938 1963 3 3 2 3 2 3 3 3 2 6 4 1 4 6 1957 4 1479 0 3 4 4 1465 364 2 3 2 2 4 1 0 1 7 1 2 3 3 7 1 3912 1469 3 2 1 11216 1 2 4 1 2 1957 130 3 5355 2 28 4 2447 3 32 3 2 1 1 31 1 4 4 3 1977 4 1 2044 4 2451 2 492 4 15 3 2447 1836 4 4 2450 2 5 8 4863 4 3 2 4 3 1476 1946 3 2448 1469 2338 5 3 4 5 1 3 3 1959 1 4 2 1 3 7 2 4 506 2 2 24 4 2 11 1 5626 3 3 3 3 1 3 6 4 4 6 5 2 28 2 3 1738 3 6 10 3 1956 2 5795 3 1468 4 2562 7310 2 5362 1 21 2 1 2 495 4 3 1 3 156 3 1 2 490 4 4 3 2 3 5 2 1469 2 6 4 17 0 1958 3 3 2 52 7324 1 44 0 1 4 4 3 27 1 3 980 5 1 1 2 4 21 3 4 1 4 3 7307 19 1 4 3 3 2957 10243 1965 4 7311 24 1957 1 1 3 1958 2446 4 2 2 3 3 4 4 15 3 0 5 2 3 3426 7893 3892 4 3 333 1 2 29 3 4 1 3 2 2935 6574 975 5 3 3 6 8 2 1957 1965 2445 9 2 1 24 4 2 4 3 4 4 3 4 1976 3 1957 4 491 1957 2445 3 1 3040 4 4 3 3 3 3 3 2 2 2 19 4 2 3 1006 2 1 4 3 2936 9 2 4 4 2 5 4 3 4 4 3 0 4 2 4 2 4 3 10 4 2 1 2 1017 1 4 2 4 3 3 389 1 1 7 4 976 3 4 2446 2 3 43 7 18 5 4 4 3 3 3 2 4 1958 3 5 1 4 0 5749 3 3 2935 4 4 2445 6829 3 2 3 3 2 3 4 1 5 4 5 4 0 3873 1 6 3 4 3 7 3 2 1468 3 3 1335 11 2 522 2 0 5 4 1 1 1337 1 7 3 3 1963 4 3 2 2 3 2 2 2936 2 3 88 4 3 3 3 2 2 10 0 3 8 6 978 2 1 2 0 2 0 4 2 4 3 2 3 979 1 11 9 20 2 2447 1 4 4 2 2 10 12 117 2 21460 0 1 2 3 1 1 2 4 3 2040 386 1 1 1438 2 1 4 1 2452 1 4 2 4 1943 3 11 2 1 3 3 1 3 3 4 2 3 3 1 3 0 3887 2 3 3 0 7 434 1953 3 8 3 3 4 0 4 1 2 1 2 4 0 2 3 3 3 12 1 4 3 2 3684 2935 2 5 2 4 2 1 3 1735 3 3 0 3 2 4 2 3 7 2445 18 5843 0 4 1 2212 4 4 26 3 3428 2 4 8407 3 0 2935 1465 3 4 7 3 3 2 1 2 981 3 2 2 3 3 3 1696 5 1957 4 981 2931 1 1193 6825 4 5 11 4 3 3411 3 1548 1957 2 1964 6 291 363 1 1464 1485 14 183 9 3 3 3 4 4 2 2 4 1 3 1 3 2625 0 2 2 4 3 3 507 3 4 2 3894 1 2 3 1470 2 1490 1469 2936 1 1 6349 2 982 2 5 4 1964 491 3 2 4 2936 3 493 3 4480 3 7 8784 4 4 14633 2935 2 1958 1464 4 2 3 0 2 2 7 4 3 2 5 3 8 4 2 165 3425 0 1467 2 1486 209 5 3 4 4 2318 3 725 1 2446 8 4 32 2 3 0 2 2964 0 5358 2 1194 2449 1 5 3 2 0 4 2 5 1935 3 4868 2 3 2 3 3 8 7313 1 3 497 0 3 2 25 1957 976 2 3 1975 3 5 3 2210 4 4 1 30 3 0 2 5 1462 1 3872 2 0 4 3 4 3 4 3 2404 4 411 2446 1 2445 4 1960 216 1960 122 3 3 2 3971 1 270 0 3 1465 4 4 3 4 2 1 2 491 0 3 0 3 4 3155 3 2 770 374 3 5 976 1 2 4 4 2 4 2 98 3 2 3 1 2 272 3 2 2 3 4 2 1 1 2 3 1426 1 9 1 3893 4 3 3 7 9 1 2 14 4 4 4 981 9 985 3 4 3 3 5 2 0 3 2 0 0 1 2 2 4 7 2447 2 3 3 4 1 1 3 3 2 2 3148 6 2 3187 2454 141 2 4 5 3 55 4 4 5 4 33 2 3 6 8 981 2 4 3 2 4 4 7 2530 3 5 0 4 2 0 2 5 0 6 1467 1001 1 3 4 2427 8 0 3 2 6 4 8 2 5 2 3874 3 2 3 3 2457 6 3422 3 4 5104 0 1 5 2 5 4 2 0 2 3 5 43 5 2 0 4 4 1471 2 1 1 4 2448 2 1 24 8 3 6 1957 4 0 2453 5 1961 6 1 2 2 1 3 8 1 3 4 3 4 4 1 19 4 239 2 4 2 1 3 1487 4 4 0 
