
*** ChampSim Multicore Out-of-Order Simulator ***

Warmup Instructions: 50000000
Simulation Instructions: 50000000
Number of CPUs: 1
LLC sets: 2048
LLC ways: 16
Off-chip DRAM Size: 4096 MB Channels: 1 Width: 64-bit Data Rate: 6400 MT/s
CPU 0 runs ./micro_traces/srv785.trace.gz
.gz
ITLB has LRU replacement policy
DTLB has LRU replacement policy
STLB has LRU replacement policy
FDIP Prefetcher at L1I
L1I has LRU replacement policy
L1D has LRU replacement policy
Initialize SRRIP state for L2C
Initialize DRRIP state for LLC
Heartbeat_Variant_0 : 1329 0.324463 per_variant_size: 0 1329 0 0 0 0 0 0 0 
Heartbeat_Variant_1 : 2520 0.615234 per_variant_size: 0 526 1994 0 0 0 0 0 0 
Heartbeat_Variant_2 : 0 0 per_variant_size: 0 0 0 0 0 0 0 0 0 
Heartbeat_Variant_3 : 0 0 per_variant_size: 0 0 0 0 0 0 0 0 0 
Heartbeat_Variant_0_evicts 0 : 5790 1 : 478 2 : 0 3 : 0 
Heartbeat_Variant_1_evicts 0 : 448 1 : 0 2 : 0 3 : 0 
Heartbeat_Variant_2_evicts 0 : 0 1 : 0 2 : 0 3 : 0 
Heartbeat_Variant_3_evicts 0 : 0 1 : 0 2 : 0 3 : 0 
Heartbeat CPU 0 instructions: 10000000 cycles: 2795696 heartbeat IPC: 3.57693 cumulative IPC: 3.57693 (Simulation time: 0 hr 1 min 42 sec) 
Heartbeat_Variant_0 : 1335 0.325928 per_variant_size: 0 1335 0 0 0 0 0 0 0 
Heartbeat_Variant_1 : 2564 0.625977 per_variant_size: 0 485 2079 0 0 0 0 0 0 
Heartbeat_Variant_2 : 0 0 per_variant_size: 0 0 0 0 0 0 0 0 0 
Heartbeat_Variant_3 : 0 0 per_variant_size: 0 0 0 0 0 0 0 0 0 
Heartbeat_Variant_0_evicts 0 : 5665 1 : 94 2 : 0 3 : 0 
Heartbeat_Variant_1_evicts 0 : 106 1 : 0 2 : 0 3 : 0 
Heartbeat_Variant_2_evicts 0 : 0 1 : 0 2 : 0 3 : 0 
Heartbeat_Variant_3_evicts 0 : 0 1 : 0 2 : 0 3 : 0 
Heartbeat CPU 0 instructions: 20000001 cycles: 5592861 heartbeat IPC: 3.57505 cumulative IPC: 3.57599 (Simulation time: 0 hr 3 min 20 sec) 
Heartbeat_Variant_0 : 1360 0.332031 per_variant_size: 0 1360 0 0 0 0 0 0 0 
Heartbeat_Variant_1 : 2595 0.633545 per_variant_size: 0 479 2116 0 0 0 0 0 0 
Heartbeat_Variant_2 : 0 0 per_variant_size: 0 0 0 0 0 0 0 0 0 
Heartbeat_Variant_3 : 0 0 per_variant_size: 0 0 0 0 0 0 0 0 0 
Heartbeat_Variant_0_evicts 0 : 5763 1 : 327 2 : 0 3 : 0 
Heartbeat_Variant_1_evicts 0 : 312 1 : 0 2 : 0 3 : 0 
Heartbeat_Variant_2_evicts 0 : 0 1 : 0 2 : 0 3 : 0 
Heartbeat_Variant_3_evicts 0 : 0 1 : 0 2 : 0 3 : 0 
Heartbeat CPU 0 instructions: 30000000 cycles: 8388700 heartbeat IPC: 3.57674 cumulative IPC: 3.57624 (Simulation time: 0 hr 4 min 59 sec) 
Heartbeat_Variant_0 : 1356 0.331055 per_variant_size: 0 1356 0 0 0 0 0 0 0 
Heartbeat_Variant_1 : 2605 0.635986 per_variant_size: 0 483 2122 0 0 0 0 0 0 
Heartbeat_Variant_2 : 0 0 per_variant_size: 0 0 0 0 0 0 0 0 0 
Heartbeat_Variant_3 : 0 0 per_variant_size: 0 0 0 0 0 0 0 0 0 
Heartbeat_Variant_0_evicts 0 : 5679 1 : 82 2 : 0 3 : 0 
Heartbeat_Variant_1_evicts 0 : 86 1 : 0 2 : 0 3 : 0 
Heartbeat_Variant_2_evicts 0 : 0 1 : 0 2 : 0 3 : 0 
Heartbeat_Variant_3_evicts 0 : 0 1 : 0 2 : 0 3 : 0 
Heartbeat CPU 0 instructions: 40000003 cycles: 11185630 heartbeat IPC: 3.57535 cumulative IPC: 3.57602 (Simulation time: 0 hr 6 min 37 sec) 
Heartbeat_Variant_0 : 1367 0.33374 per_variant_size: 0 1367 0 0 0 0 0 0 0 
Heartbeat_Variant_1 : 2609 0.636963 per_variant_size: 0 480 2129 0 0 0 0 0 0 
Heartbeat_Variant_2 : 0 0 per_variant_size: 0 0 0 0 0 0 0 0 0 
Heartbeat_Variant_3 : 0 0 per_variant_size: 0 0 0 0 0 0 0 0 0 
Heartbeat_Variant_0_evicts 0 : 5646 1 : 145 2 : 0 3 : 0 
Heartbeat_Variant_1_evicts 0 : 136 1 : 0 2 : 0 3 : 0 
Heartbeat_Variant_2_evicts 0 : 0 1 : 0 2 : 0 3 : 0 
Heartbeat_Variant_3_evicts 0 : 0 1 : 0 2 : 0 3 : 0 
Heartbeat CPU 0 instructions: 50000002 cycles: 13981557 heartbeat IPC: 3.57663 cumulative IPC: 3.57614 (Simulation time: 0 hr 8 min 14 sec) 

Warmup complete CPU 0 instructions: 50000002 cycles: 13981557 (Simulation time: 0 hr 8 min 14 sec) 

Cycle: 20000000 FTQ IN: 58410178 FTQ occupancy: 19.905 DECODE IN: 58410073 DECODE occupancy: 51.987 ROB IN: 58410013 ROB occupancy: 314.935 ROB OUT: 58409665
Heartbeat_Variant_0 : 1368 0.333984 per_variant_size: 0 1368 0 0 0 0 0 0 0 
Heartbeat_Variant_1 : 2610 0.637207 per_variant_size: 0 486 2124 0 0 0 0 0 0 
Heartbeat_Variant_2 : 0 0 per_variant_size: 0 0 0 0 0 0 0 0 0 
Heartbeat_Variant_3 : 0 0 per_variant_size: 0 0 0 0 0 0 0 0 0 
Heartbeat_Variant_0_evicts 0 : 5574 1 : 2 2 : 0 3 : 0 
Heartbeat_Variant_1_evicts 0 : 1 1 : 0 2 : 0 3 : 0 
Heartbeat_Variant_2_evicts 0 : 0 1 : 0 2 : 0 3 : 0 
Heartbeat_Variant_3_evicts 0 : 0 1 : 0 2 : 0 3 : 0 
Heartbeat CPU 0 instructions: 60000003 cycles: 21133180 heartbeat IPC: 1.39828 cumulative IPC: 1.39828 (Simulation time: 0 hr 10 min 4 sec) 
Heartbeat_Variant_0 : 1373 0.335205 per_variant_size: 0 1373 0 0 0 0 0 0 0 
Heartbeat_Variant_1 : 2611 0.637451 per_variant_size: 0 488 2123 0 0 0 0 0 0 
Heartbeat_Variant_2 : 0 0 per_variant_size: 0 0 0 0 0 0 0 0 0 
Heartbeat_Variant_3 : 0 0 per_variant_size: 0 0 0 0 0 0 0 0 0 
Heartbeat_Variant_0_evicts 0 : 5634 1 : 77 2 : 0 3 : 0 
Heartbeat_Variant_1_evicts 0 : 73 1 : 0 2 : 0 3 : 0 
Heartbeat_Variant_2_evicts 0 : 0 1 : 0 2 : 0 3 : 0 
Heartbeat_Variant_3_evicts 0 : 0 1 : 0 2 : 0 3 : 0 
Heartbeat CPU 0 instructions: 70000002 cycles: 28410469 heartbeat IPC: 1.37414 cumulative IPC: 1.38611 (Simulation time: 0 hr 11 min 55 sec) 
Cycle: 30000000 FTQ IN: 13816976 FTQ occupancy: 12.8696 DECODE IN: 13817000 DECODE occupancy: 33.3546 ROB IN: 13817000 ROB occupancy: 235.999 ROB OUT: 13817100
Heartbeat_Variant_0 : 1378 0.336426 per_variant_size: 0 1378 0 0 0 0 0 0 0 
Heartbeat_Variant_1 : 2634 0.643066 per_variant_size: 0 479 2155 0 0 0 0 0 0 
Heartbeat_Variant_2 : 0 0 per_variant_size: 0 0 0 0 0 0 0 0 0 
Heartbeat_Variant_3 : 0 0 per_variant_size: 0 0 0 0 0 0 0 0 0 
Heartbeat_Variant_0_evicts 0 : 5791 1 : 220 2 : 0 3 : 0 
Heartbeat_Variant_1_evicts 0 : 221 1 : 0 2 : 0 3 : 0 
Heartbeat_Variant_2_evicts 0 : 0 1 : 0 2 : 0 3 : 0 
Heartbeat_Variant_3_evicts 0 : 0 1 : 0 2 : 0 3 : 0 
Heartbeat CPU 0 instructions: 80000000 cycles: 35600108 heartbeat IPC: 1.39089 cumulative IPC: 1.3877 (Simulation time: 0 hr 13 min 42 sec) 
Cycle: 40000000 FTQ IN: 13772621 FTQ occupancy: 12.8381 DECODE IN: 13772572 DECODE occupancy: 33.1981 ROB IN: 13772572 ROB occupancy: 234.172 ROB OUT: 13772468
Heartbeat_Variant_0 : 1369 0.334229 per_variant_size: 0 1369 0 0 0 0 0 0 0 
Heartbeat_Variant_1 : 2651 0.647217 per_variant_size: 0 501 2150 0 0 0 0 0 0 
Heartbeat_Variant_2 : 0 0 per_variant_size: 0 0 0 0 0 0 0 0 0 
Heartbeat_Variant_3 : 0 0 per_variant_size: 0 0 0 0 0 0 0 0 0 
Heartbeat_Variant_0_evicts 0 : 5637 1 : 136 2 : 0 3 : 0 
Heartbeat_Variant_1_evicts 0 : 146 1 : 0 2 : 0 3 : 0 
Heartbeat_Variant_2_evicts 0 : 0 1 : 0 2 : 0 3 : 0 
Heartbeat_Variant_3_evicts 0 : 0 1 : 0 2 : 0 3 : 0 
Heartbeat CPU 0 instructions: 90000000 cycles: 42866912 heartbeat IPC: 1.37612 cumulative IPC: 1.38478 (Simulation time: 0 hr 15 min 31 sec) 
Cycle: 50000000 FTQ IN: 13950305 FTQ occupancy: 12.9411 DECODE IN: 13950435 DECODE occupancy: 33.9509 ROB IN: 13950495 ROB occupancy: 238.499 ROB OUT: 13950679
Heartbeat_Variant_0 : 1366 0.333496 per_variant_size: 0 1366 0 0 0 0 0 0 0 
Heartbeat_Variant_1 : 2659 0.64917 per_variant_size: 0 507 2152 0 0 0 0 0 0 
Heartbeat_Variant_2 : 0 0 per_variant_size: 0 0 0 0 0 0 0 0 0 
Heartbeat_Variant_3 : 0 0 per_variant_size: 0 0 0 0 0 0 0 0 0 
Heartbeat_Variant_0_evicts 0 : 5648 1 : 106 2 : 0 3 : 0 
Heartbeat_Variant_1_evicts 0 : 110 1 : 0 2 : 0 3 : 0 
Heartbeat_Variant_2_evicts 0 : 0 1 : 0 2 : 0 3 : 0 
Heartbeat_Variant_3_evicts 0 : 0 1 : 0 2 : 0 3 : 0 
Heartbeat CPU 0 instructions: 100000001 cycles: 50033823 heartbeat IPC: 1.3953 cumulative IPC: 1.38688 (Simulation time: 0 hr 17 min 46 sec) 
Finished CPU 0 instructions: 50000003 cycles: 36052280 cumulative IPC: 1.38687 (Simulation time: 0 hr 17 min 46 sec) 

ChampSim completed all CPUs

Region of Interest Statistics

CPU 0 cumulative IPC: 1.38687 instructions: 50000003 cycles: 36052280
 Fetch stage stalled: 53.785  Sim cycles: 36052280 fetch stall cycle: 19390736
 Empty decode stage: 35.6475  Sim cycles: 36052280 fetch stall cycle: 12851735
ITLB TOTAL     ACCESS:    5859315  HIT:    5367268  MISS:     492047  HIT %:    91.6023  MISS %:    8.39769   MPKI: 9.84094
ITLB LOAD TRANSLATION INSTRUCTION	ACCESS:    5732275  HIT:    5240228  MISS:     492047  HIT %:    91.4162  MISS %:     8.5838  MPKI: 9.84094
ITLB TRANSLATION FROM L1D PREFETCHER INSTRUCTION	ACCESS:     127040  HIT:     127040  MISS:          0  HIT %:        100  MISS %:          0  MPKI: 0

ITLB AVERAGE MISS LATENCY: 9.05167 cycles
ITLB RQ	ACCESS:    7993706	FORWARD:          0	MERGED:    1689558	TO_CACHE:    6304148

DTLB TOTAL     ACCESS:    8959908  HIT:    8491584  MISS:     468324  HIT %:    94.7731  MISS %:    5.22688   MPKI: 9.36648
DTLB LOAD TRANSLATION DATA	ACCESS:    8959908  HIT:    8491584  MISS:     468324  HIT %:    94.7731  MISS %:    5.22688  MPKI: 9.36648

DTLB AVERAGE MISS LATENCY: 9.3345 cycles
DTLB RQ	ACCESS:   13327508	FORWARD:          0	MERGED:    4330218	TO_CACHE:    8997290

STLB TOTAL     ACCESS:    1212108  HIT:    1210114  MISS:       1994  HIT %:    99.8355  MISS %:   0.164507   MPKI: 0.03988
STLB LOAD TRANSLATION INSTRUCTION	ACCESS:     492047  HIT:     491813  MISS:        234  HIT %:    99.9524  MISS %:  0.0475564  MPKI: 0.00468
STLB LOAD TRANSLATION DATA	ACCESS:     468322  HIT:     466570  MISS:       1752  HIT %:    99.6259  MISS %:   0.374102  MPKI: 0.03504
STLB TRANSLATION FROM L1D PREFETCHER DATA	ACCESS:     251739  HIT:     251731  MISS:          8  HIT %:    99.9968  MISS %: 0.00317789  MPKI: 0.00016

STLB AVERAGE MISS LATENCY: 75.7076 cycles
STLB RQ	ACCESS:    1341088	FORWARD:          0	MERGED:     128953	TO_CACHE:    1212135

STLB Hit, L1D data hit: 0
STLB Hit, L2C data hit: 0
STLB Hit, LLC data hit: 0
STLB Hit, LLC data miss: 0
STLB STLB hints to L2: 0
L1D TOTAL     ACCESS:   13085016  HIT:   11957311  MISS:    1127705  HIT %:    91.3817  MISS %:    8.61829   MPKI: 22.5541
L1D LOAD DATA	ACCESS:    6559726  HIT:    5816776  MISS:     742950  HIT %:    88.6741  MISS %:    11.3259  MPKI: 14.859
L1D RFO DATA	ACCESS:    6192250  HIT:    5906805  MISS:     285445  HIT %:    95.3903  MISS %:    4.60971  MPKI: 5.7089
L1D PREFETCH DATA	ACCESS:     333040  HIT:     233730  MISS:      99310  HIT %:    70.1808  MISS %:    29.8192  MPKI: 1.9862

L1D PREFETCH  REQUESTED:     761811  ISSUED:     761811  USEFUL:      37913  USELESS:      70624
L1D USEFUL LOAD PREFETCHES:      37913 PREFETCH ISSUED TO LOWER LEVEL:     108571  ACCURACY: 34.92
 TIMELY PREFETCHES:      37913 LATE PREFETCHES: 9203 DROPPED PREFETCHES: 2
L1D AVERAGE MISS LATENCY: 259951 cycles
L1D RQ	ACCESS:   10696540	FORWARD:          0	MERGED:    3935527	TO_CACHE:    6594042
L1D WQ	ACCESS:    6928344	FORWARD:     167350	MERGED:     194878	TO_CACHE:    6733466
L1D PQ	ACCESS:     381095	FORWARD:          0	MERGED:          0	TO_CACHE:     380716

L1D UNIQUE REGIONS ACCESSED: 0
L1D REGIONS CONFLICTS: 0
L1D Cross Page Prefetch Requests: 5897
L1D Same Page Prefetch Requests: 774975
L1D ROI Sum of L1D PQ occupancy: 4836834
L1D PREFETCHES PUSHED FROM L2C: 0
L1I TOTAL     ACCESS:    7172223  HIT:    4418415  MISS:    2753808  HIT %:    61.6045  MISS %:    38.3955   MPKI: 55.0762
L1I LOAD INSTRUCTION	ACCESS:    6500906  HIT:    3747098  MISS:    2753808  HIT %:    57.6396  MISS %:    42.3604  MPKI: 55.0762
L1I PREFETCH INSTRUCTION	ACCESS:     671317  HIT:     671317  MISS:          0  HIT %:        100  MISS %:          0  MPKI: 0

L1I PREFETCH  REQUESTED:    1611318  ISSUED:    1611318  USEFUL:          0  USELESS:          0
L1I USEFUL LOAD PREFETCHES:          0 PREFETCH ISSUED TO LOWER LEVEL:          0  ACCURACY: -nan
 TIMELY PREFETCHES:          0 LATE PREFETCHES: 0 DROPPED PREFETCHES: 0
L1I AVERAGE MISS LATENCY: 17.0079 cycles
L1I RQ	ACCESS:    9510438	FORWARD:          0	MERGED:    2692198	TO_CACHE:    6818240
L1I PQ	ACCESS:    1611318	FORWARD:          0	MERGED:     435852	TO_CACHE:    1175466

L1BTB TOTAL     ACCESS:    5675569  HIT:    2059746  MISS:    3615823  HIT %:    36.2914  MISS %:    63.7086   MPKI: 72.3165
L1BTB BRANCH_DIRECT_JUMP	ACCESS:     547639 HIT:     145010 MISS:     402629 AVERAGE STALL: 46.3795 AVERAGE FETCH STALL: 13.961 AVERAGE FETCH QUEUE STALL: 14.4268 AVERAGE DECODE STALL: 17.0604 AVERAGE EXECUTE STALL: 2.04283e+15
L1BTB BRANCH_INDIRECT	ACCESS:     182862 HIT:      66144 MISS:     116718 AVERAGE STALL: 105.699 AVERAGE FETCH STALL: 10.8261 AVERAGE FETCH QUEUE STALL: 15.1355 AVERAGE DECODE STALL: 12.553 AVERAGE EXECUTE STALL: 66.223
L1BTB BRANCH_CONDITIONAL	ACCESS:    2723651 HIT:    1434736 MISS:    1288915 AVERAGE STALL: 57.4669 AVERAGE FETCH STALL: 20.6267 AVERAGE FETCH QUEUE STALL: 18.8036 AVERAGE DECODE STALL: 17.2666 AVERAGE EXECUTE STALL: 3.08371e+15
L1BTB BRANCH_DIRECT_CALL	ACCESS:     939992 HIT:     104555 MISS:     835437 AVERAGE STALL: 58.2208 AVERAGE FETCH STALL: 25.5056 AVERAGE FETCH QUEUE STALL: 18.1654 AVERAGE DECODE STALL: 13.9751 AVERAGE EXECUTE STALL: 1.14719e+16
L1BTB BRANCH_INDIRECT_CALL	ACCESS:     170732 HIT:      20776 MISS:     149956 AVERAGE STALL: 130.793 AVERAGE FETCH STALL: 12.6761 AVERAGE FETCH QUEUE STALL: 12.6503 AVERAGE DECODE STALL: 10.5281 AVERAGE EXECUTE STALL: 94.4477
L1BTB BRANCH_RETURN	ACCESS:    1110693 HIT:     288525 MISS:     822168 AVERAGE STALL: 45.7542 AVERAGE FETCH STALL: 16.6214 AVERAGE FETCH QUEUE STALL: 4.29882 AVERAGE DECODE STALL: 6.00315 AVERAGE EXECUTE STALL: 4.32982e+14
L1BTB BRANCH_OTHER ACCESS:          0 HIT:          0 MISS:          0 AVERAGE STALL: -nan AVERAGE FETCH STALL: -nan AVERAGE FETCH QUEUE STALL: -nan AVERAGE DECODE STALL: -nan AVERAGE EXECUTE STALL: -nan
L1BTB TOTAL ROB OCCUPANCY AT BTB MISS: 2.66881

L2BTB TOTAL     ACCESS:    3590432  HIT:    3523691  MISS:      66741  HIT %:    98.1411  MISS %:    1.85886   MPKI: 1.33482
L2BTB BRANCH_DIRECT_JUMP	ACCESS:     398441 HIT:     393588 MISS:       4853 AVERAGE STALL: 46.3795 AVERAGE FETCH STALL: 13.961 AVERAGE FETCH QUEUE STALL: 14.4268 AVERAGE DECODE STALL: 17.0604 AVERAGE EXECUTE STALL: 2.04283e+15
L2BTB BRANCH_INDIRECT	ACCESS:     106467 HIT:     103785 MISS:       2682 AVERAGE STALL: 105.699 AVERAGE FETCH STALL: 10.8261 AVERAGE FETCH QUEUE STALL: 15.1355 AVERAGE DECODE STALL: 12.553 AVERAGE EXECUTE STALL: 66.223
L2BTB BRANCH_CONDITIONAL	ACCESS:    1288915 HIT:    1282875 MISS:       6040 AVERAGE STALL: 57.4669 AVERAGE FETCH STALL: 20.6267 AVERAGE FETCH QUEUE STALL: 18.8036 AVERAGE DECODE STALL: 17.2666 AVERAGE EXECUTE STALL: 3.08371e+15
L2BTB BRANCH_DIRECT_CALL	ACCESS:     835437 HIT:     833813 MISS:       1624 AVERAGE STALL: 58.2208 AVERAGE FETCH STALL: 25.5056 AVERAGE FETCH QUEUE STALL: 18.1654 AVERAGE DECODE STALL: 13.9751 AVERAGE EXECUTE STALL: 1.14719e+16
L2BTB BRANCH_INDIRECT_CALL	ACCESS:     140404 HIT:     130086 MISS:      10318 AVERAGE STALL: 130.793 AVERAGE FETCH STALL: 12.6761 AVERAGE FETCH QUEUE STALL: 12.6503 AVERAGE DECODE STALL: 10.5281 AVERAGE EXECUTE STALL: 94.4477
L2BTB BRANCH_RETURN	ACCESS:     820768 HIT:     779544 MISS:      41224 AVERAGE STALL: 45.7542 AVERAGE FETCH STALL: 16.6214 AVERAGE FETCH QUEUE STALL: 4.29882 AVERAGE DECODE STALL: 6.00315 AVERAGE EXECUTE STALL: 4.32982e+14
L2BTB BRANCH_OTHER ACCESS:          0 HIT:          0 MISS:          0 AVERAGE STALL: -nan AVERAGE FETCH STALL: -nan AVERAGE FETCH QUEUE STALL: -nan AVERAGE DECODE STALL: -nan AVERAGE EXECUTE STALL: -nan
L2BTB TOTAL ROB OCCUPANCY AT BTB MISS: 144.588

L2C TOTAL     ACCESS:    4480342  HIT:    4036430  MISS:     443912  HIT %:     90.092  MISS %:    9.90799   MPKI: 8.87824
L2C LOAD INSTRUCTION	ACCESS:    2753808  HIT:    2512069  MISS:     241739  HIT %:    91.2216  MISS %:    8.77835  MPKI: 4.83478
L2C LOAD TRANSLATION INSTRUCTION	ACCESS:        260  HIT:         45  MISS:        215  HIT %:    17.3077  MISS %:    82.6923  MPKI: 0.0043
L2C LOAD DATA	ACCESS:     733719  HIT:     668195  MISS:      65524  HIT %:    91.0696  MISS %:    8.93039  MPKI: 1.31048
L2C RFO DATA	ACCESS:     285354  HIT:     233415  MISS:      51939  HIT %:    81.7984  MISS %:    18.2016  MPKI: 1.03878
L2C PREFETCH DATA	ACCESS:     184275  HIT:     115094  MISS:      69181  HIT %:    62.4577  MISS %:    37.5423  MPKI: 1.38362
L2C WRITEBACK DATA	ACCESS:     521085  HIT:     507166  MISS:      13919  HIT %:    97.3288  MISS %:    2.67116  MPKI: 0.27838
L2C LOAD TRANSLATION DATA	ACCESS:       1823  HIT:        434  MISS:       1389  HIT %:    23.8069  MISS %:    76.1931  MPKI: 0.02778
L2C TRANSLATION FROM L1D PREFETCHER DATA	ACCESS:         18  HIT:         12  MISS:          6  HIT %:    66.6667  MISS %:    33.3333  MPKI: 0.00012

L2C PREFETCH  REQUESTED:      82832  ISSUED:      82832  USEFUL:       6810  USELESS:      62768
L2C USEFUL LOAD PREFETCHES:       6810 PREFETCH ISSUED TO LOWER LEVEL:      69435  ACCURACY: 9.80773
 TIMELY PREFETCHES:       6810 LATE PREFETCHES: 254 DROPPED PREFETCHES: 0
L2C AVERAGE MISS LATENCY: 38.8065 cycles
L2C RQ	ACCESS:    3775044	FORWARD:          0	MERGED:          0	TO_CACHE:    3774983
L2C WQ	ACCESS:     521085	FORWARD:         61	MERGED:          0	TO_CACHE:     521085
L2C PQ	ACCESS:     191403	FORWARD:          0	MERGED:       3582	TO_CACHE:     187821

L2C Dense regions hint from L2: 0
PSCL5 TOTAL     ACCESS:       3992  HIT:       1996  MISS:       1996  HIT %:         50  MISS %:         50   MPKI: 0.03992
PSCL5 LOAD TRANSLATION INSTRUCTION	ACCESS:       3956  HIT:       1978  MISS:       1978  HIT %:         50  MISS %:         50  MPKI: 0.03956
PSCL5 TRANSLATION FROM L1D PREFETCHER INSTRUCTION	ACCESS:         36  HIT:         18  MISS:         18  HIT %:         50  MISS %:         50  MPKI: 0.00036


PSCL4 TOTAL     ACCESS:       3846  HIT:       1919  MISS:       1927  HIT %:     49.896  MISS %:     50.104   MPKI: 0.03854
PSCL4 LOAD TRANSLATION INSTRUCTION	ACCESS:       2971  HIT:       1901  MISS:       1070  HIT %:    63.9852  MISS %:    36.0148  MPKI: 0.0214
PSCL4 TRANSLATION FROM L1D PREFETCHER INSTRUCTION	ACCESS:         29  HIT:         18  MISS:         11  HIT %:     62.069  MISS %:     37.931  MPKI: 0.00022
PSCL4 LOAD TRANSLATION DATA	ACCESS:        839  HIT:          0  MISS:        839  HIT %:          0  MISS %:        100  MPKI: 0.01678
PSCL4 TRANSLATION FROM L1D PREFETCHER DATA	ACCESS:          7  HIT:          0  MISS:          7  HIT %:          0  MISS %:        100  MPKI: 0.00014


PSCL3 TOTAL     ACCESS:       3928  HIT:       1960  MISS:       1968  HIT %:    49.8982  MISS %:    50.1018   MPKI: 0.03936
PSCL3 LOAD TRANSLATION INSTRUCTION	ACCESS:       3012  HIT:       1942  MISS:       1070  HIT %:    64.4754  MISS %:    35.5246  MPKI: 0.0214
PSCL3 TRANSLATION FROM L1D PREFETCHER INSTRUCTION	ACCESS:         29  HIT:         18  MISS:         11  HIT %:     62.069  MISS %:     37.931  MPKI: 0.00022
PSCL3 LOAD TRANSLATION DATA	ACCESS:        880  HIT:          0  MISS:        880  HIT %:          0  MISS %:        100  MPKI: 0.0176
PSCL3 TRANSLATION FROM L1D PREFETCHER DATA	ACCESS:          7  HIT:          0  MISS:          7  HIT %:          0  MISS %:        100  MPKI: 0.00014


PSCL2 TOTAL     ACCESS:       3902  HIT:       1906  MISS:       1996  HIT %:    48.8467  MISS %:    51.1533   MPKI: 0.03992
PSCL2 LOAD TRANSLATION INSTRUCTION	ACCESS:       2120  HIT:       1888  MISS:        232  HIT %:    89.0566  MISS %:    10.9434  MPKI: 0.00464
PSCL2 TRANSLATION FROM L1D PREFETCHER INSTRUCTION	ACCESS:         18  HIT:         18  MISS:          0  HIT %:        100  MISS %:          0  MPKI: 0
PSCL2 LOAD TRANSLATION DATA	ACCESS:       1746  HIT:          0  MISS:       1746  HIT %:          0  MISS %:        100  MPKI: 0.03492
PSCL2 TRANSLATION FROM L1D PREFETCHER DATA	ACCESS:         18  HIT:          0  MISS:         18  HIT %:          0  MISS %:        100  MPKI: 0.00036


LLC TOTAL     ACCESS:     500747  HIT:     472948  MISS:      27799  HIT %:    94.4485  MISS %:    5.55151   MPKI: 0.55598
LLC LOAD INSTRUCTION	ACCESS:     241739  HIT:     240948  MISS:        791  HIT %:    99.6728  MISS %:   0.327212  MPKI: 0.01582
LLC LOAD TRANSLATION INSTRUCTION	ACCESS:        215  HIT:        180  MISS:         35  HIT %:    83.7209  MISS %:    16.2791  MPKI: 0.0007
LLC LOAD DATA	ACCESS:      65276  HIT:      61865  MISS:       3411  HIT %:    94.7745  MISS %:     5.2255  MPKI: 0.06822
LLC RFO DATA	ACCESS:      51921  HIT:      38643  MISS:      13278  HIT %:    74.4265  MISS %:    25.5735  MPKI: 0.26556
LLC PREFETCH DATA	ACCESS:      69435  HIT:      59548  MISS:       9887  HIT %:    85.7608  MISS %:    14.2392  MPKI: 0.19774
LLC WRITEBACK DATA	ACCESS:      70766  HIT:      70460  MISS:        306  HIT %:    99.5676  MISS %:   0.432411  MPKI: 0.00612
LLC LOAD TRANSLATION DATA	ACCESS:       1389  HIT:       1299  MISS:         90  HIT %:    93.5205  MISS %:    6.47948  MPKI: 0.0018
LLC TRANSLATION FROM L1D PREFETCHER DATA	ACCESS:          6  HIT:          5  MISS:          1  HIT %:    83.3333  MISS %:    16.6667  MPKI: 2e-05

LLC AVERAGE MISS LATENCY: 154.217 cycles
LLC RQ	ACCESS:     360559	FORWARD:          0	MERGED:          0	TO_CACHE:     360546
LLC WQ	ACCESS:      70766	FORWARD:         13	MERGED:          0	TO_CACHE:      70766
LLC PQ	ACCESS:      69435	FORWARD:          0	MERGED:          0	TO_CACHE:      69435

LLC Dense regions hint to LLC: 0

RAW hits: 1926932
Loads Generated: 12623474
Loads sent to L1D: 10696540
Stores Generated: 6928330
Stores sent to L1D: 6928344
Major fault: 0 Minor fault: 2513
Allocated PAGES: 2513

stream: 
stream:times selected: 1216858
stream:pref_filled: 125127
stream:pref_useful: 25833
stream:pref_late: 7622
stream:misses: 8940
stream:misses_by_poll: 0

CS: 
CS:times selected: 182896
CS:pref_filled: 63875
CS:pref_useful: 39588
CS:pref_late: 7262
CS:misses: 18472
CS:misses_by_poll: 1

CPLX: 
CPLX:times selected: 1032762
CPLX:pref_filled: 21978
CPLX:pref_useful: 6152
CPLX:pref_late: 3125
CPLX:misses: 105526
CPLX:misses_by_poll: 1

NL_L1: 
NL:times selected: 15288
NL:pref_filled: 874
NL:pref_useful: 283
NL:pref_late: 215
NL:misses: 1338
NL:misses_by_poll: 0

total selections: 2447804
total_filled: 99310
total_useful: 37913
total_late: 19797
total_polluted: 2
total_misses_after_warmup: 777266
conflicts: 5505378

test: 118530

DRAM Statistics
 CHANNEL 0
 RQ ROW_BUFFER_HIT:      10260  ROW_BUFFER_MISS:      17213
 DBUS_CONGESTED:         14
 WQ ROW_BUFFER_HIT:       1402  ROW_BUFFER_MISS:      12056  FULL:          0

 AVG_CONGESTED_CYCLE: 5

CPU 0 Branch Prediction Accuracy: 99.8217% MPKI: 0.32628 Average ROB Occupancy at Mispredict: 182.377
Branch types
NOT_BRANCH: 40850713 81.7014%
BRANCH_DIRECT_JUMP: 547639 1.09528%
BRANCH_INDIRECT: 182862 0.365724%
BRANCH_CONDITIONAL: 6196911 12.3938%
BRANCH_DIRECT_CALL: 939992 1.87998%
BRANCH_INDIRECT_CALL: 170732 0.341464%
BRANCH_RETURN: 1110693 2.22139%
BRANCH_OTHER: 0 0%

DRAM PAGES: 1048576
Allocated PAGES: 2513
Average_ROB_Occupancy: 237.519
Average_Decode_Occupancy: 33.4465
Average_FTQ_Occupancy: 12.8505
Indirect max targets: 14 Average targets: 1.15306
Branch_type:  BRANCH_DIRECT_JUMP:  Count Percentage: 1.63794 7.91795 3.60159 8.8288 2.13901 5.97265 1.71882 68.1832 
Branch_type:  BRANCH_INDIRECT:  Count Percentage: 6.14984 3.46423 8.1751 0 1.33215 9.69248 5.19225 65.9939 
Branch_type:  BRANCH_CONDITIONAL:  Count Percentage: 21.2296 7.20948 1.61809 4.77031 1.73278 4.45271 2.65221 56.3349 
Branch_type:  BRANCH_DIRECT_CALL:  Count Percentage: 0.262538 1.46901 1.30875 3.88877 2.33934 2.24303 3.53148 84.9571 
Branch_type:  BRANCH_INDIRECT_CALL:  Count Percentage: 9.55769 0 2.99451 8.73575 0 1.71102 6.43708 70.5639 
Branch_type:  BRANCH_RETURN:  Count Percentage: 4.40022 4.73573 0.757723 6.01684 2.97152 5.64318 4.06633 71.4085 
Branch_type:  BRANCH_DIRECT_JUMP:  Total Count: 17943 86738 39454 96716 23432 65428 18829 746920 
Branch_type:  BRANCH_INDIRECT:  Total Count: 22510 12680 29923 0 4876 35477 19005 241555 
Branch_type:  BRANCH_CONDITIONAL:  Total Count: 2630261 893227 200475 591023 214685 551674 328599 6979673 
Branch_type:  BRANCH_DIRECT_CALL:  Total Count: 4926 27563 24556 72965 43893 42086 66261 1594048 
Branch_type:  BRANCH_INDIRECT_CALL:  Total Count: 32594 0 10212 29791 0 5835 21952 240640 
Branch_type:  BRANCH_RETURN:  Total Count: 97601 105043 16807 133459 65911 125171 90195 1583906 
Number of unique branch instructions: 9973
Upper 32 bits: 
aaaa
ffff
ffff0000
Unique upper 32 bits: 3
Unique upper 36 bits: 3
Unique upper 40 bits: 5
Unique upper 44 bits: 32
Unique upper 48 bits: 154
Variant_0 : 1366 0.333496
Variant_1 : 2659 0.64917
Variant_2 : 0 0
Variant_3 : 0 0
Offset_3 4118
Offset_4 252
Offset_5 458
Offset_6 506
Offset_7 593
Offset_8 512
Offset_9 469
Offset_10 388
Offset_11 322
Offset_12 288
Offset_13 201
Offset_14 232
Offset_15 191
Offset_16 223
Offset_17 144
Offset_18 126
Offset_19 243
Offset_20 143
Offset_21 235
Offset_22 393
Offset_23 241
Offset_24 329
Offset_25 88
Offset_47 80
decode_dispatch_called: 25202061 69.9042
Dispatch_width: 0 13453812 53.3838 37.3175
Dispatch_width: 1 947338 3.75897 2.62768
Dispatch_width: 2 817897 3.24536 2.26864
Dispatch_width: 3 491826 1.95153 1.3642
Dispatch_width: 4 5421532 21.5123 15.038
Dispatch_width: 5 163018 0.646844 0.452171
Dispatch_width: 6 3906638 15.5013 10.836
Empty_decode_cycles: 10850219 30.0958
ROB_full_cycles: 8576691 23.7896
Starvation_cycles_per_kilo_instr: 235.689
Starvation_cycles_per_kilo_instr_3: 179.844
Starvation_cycles_per_kilo_instr_0: 157.273
Branch_type_1  (3,1)  (4,9)  (5,37)  (6,69)  (7,117)  (8,127)  (9,124)  (10,99)  (11,73)  (12,51)  (13,5)  (14,2)  (15,3)  (16,4)  (18,1)  (19,4)  (20,2)  (21,1)  (22,3)  (23,2)  (24,10)  (25,12) 
Branch_type_2  (3,1)  (5,1)  (8,3)  (9,3)  (12,1)  (13,1)  (14,1)  (16,3)  (17,2)  (20,2)  (21,2)  (23,5)  (24,1)  (47,36) 
Branch_type_3  (3,4116)  (4,243)  (5,416)  (6,421)  (7,444)  (8,319)  (9,256)  (10,158)  (11,134)  (12,58)  (13,4) 
Branch_type_4  (6,4)  (7,8)  (8,26)  (9,54)  (10,62)  (11,59)  (12,99)  (13,87)  (14,102)  (15,91)  (16,100)  (17,65)  (18,57)  (19,116)  (20,74)  (21,124)  (22,208)  (23,136)  (24,189)  (25,72) 
Branch_type_5  (8,2)  (9,1)  (10,3)  (11,5)  (12,3)  (13,14)  (14,17)  (15,11)  (16,20)  (17,11)  (18,16)  (19,12)  (20,10)  (21,13)  (22,42)  (23,26)  (24,37) 
Branch_type_6  (5,4)  (6,12)  (7,24)  (8,35)  (9,31)  (10,66)  (11,51)  (12,76)  (13,90)  (14,110)  (15,86)  (16,96)  (17,66)  (18,52)  (19,111)  (20,55)  (21,95)  (22,140)  (23,72)  (24,92)  (25,4)  (47,44) 
Unique trigger count: 
Variant_0_evicts_0 : 0
Variant_0_evicts_1 : 0
Variant_0_evicts_2 : 0
Variant_0_evicts_3 : 0
Variant_1_evicts_0 : 0
Variant_1_evicts_1 : 0
Variant_1_evicts_2 : 0
Variant_1_evicts_3 : 0
Variant_2_evicts_0 : 0
Variant_2_evicts_1 : 0
Variant_2_evicts_2 : 0
Variant_2_evicts_3 : 0
Variant_3_evicts_0 : 0
Variant_3_evicts_1 : 0
Variant_3_evicts_2 : 0
Variant_3_evicts_3 : 0
BTB PER SET UNIQUE ADDR: 8 12 10 9 9 10 9 9 8 12 13 13 12 12 11 8 8 9 14 11 10 10 11 12 9 9 11 10 11 12 12 13 10 6 7 7 10 11 9 9 10 9 14 10 8 9 11 7 10 11 15 9 11 11 8 7 10 9 9 9 8 13 12 11 11 9 12 7 13 10 13 11 11 12 8 9 9 14 9 13 9 7 10 14 9 11 17 5 9 18 10 9 11 8 9 11 12 12 11 13 17 13 10 8 12 10 7 12 6 11 11 16 10 11 8 6 14 11 9 10 13 6 9 8 8 10 6 13 17 9 9 12 10 10 11 12 9 11 7 15 11 6 5 10 8 9 10 9 8 9 12 11 9 12 9 14 12 13 11 9 8 10 11 12 11 8 11 9 8 9 10 9 10 8 9 10 7 11 11 11 7 11 10 12 9 17 5 9 10 9 10 9 7 15 10 10 6 11 5 9 9 12 11 11 10 8 8 11 10 10 7 11 8 12 9 9 8 11 10 15 8 10 6 8 6 12 11 12 9 12 9 6 11 12 11 12 12 10 12 8 11 11 13 9 9 8 9 12 14 13 11 11 12 7 14 8 9 10 10 9 15 8 8 12 8 7 9 9 13 13 12 8 10 7 6 7 9 14 8 12 10 13 8 10 9 7 9 13 14 13 10 6 11 13 10 11 9 11 12 12 7 12 7 12 11 14 10 10 11 8 6 14 9 15 12 8 14 10 12 17 9 12 6 9 11 9 13 10 9 7 9 12 10 16 12 14 6 6 7 12 10 13 8 12 11 15 11 11 10 11 11 9 8 13 10 11 10 8 7 9 8 12 9 13 10 12 7 11 9 8 10 8 11 7 9 10 13 12 10 10 12 7 8 10 9 9 13 16 11 12 12 9 12 14 6 12 11 6 11 8 10 12 11 14 17 11 12 13 7 10 11 6 11 11 10 10 10 5 15 9 10 13 12 10 12 10 12 8 13 9 15 10 7 9 10 9 11 12 11 9 8 11 9 14 12 10 8 8 10 11 10 12 11 10 13 13 15 8 8 13 10 9 13 12 11 9 11 11 6 9 10 12 9 10 12 12 11 18 8 9 10 13 10 11 8 13 13 11 9 14 11 11 11 8 14 10 14 13 12 10 12 10 7 14 10 8 7 11 13 14 12 10 12 11 12 11 10 13 8 9 8 7 11 12 11 10 14 7 6 13 14 14 11 8 11 9 14 11 13 9 12 12 12 14 15 12 9 11 11 8 9 6 16 11 9 13 12 8 16 10 10 14 10 9 9 11 9 14 8 14 15 12 15 11 9 13 12 17 9 9 13 7 9 11 10 11 10 13 10 12 12 8 15 11 12 9 15 12 10 10 11 15 8 7 7 7 17 8 11 11 11 12 10 10 7 13 5 11 10 11 13 9 10 9 10 10 10 17 9 9 10 15 12 11 8 13 11 11 9 10 10 10 10 11 7 12 8 10 15 5 7 9 9 8 12 10 12 11 10 8 9 8 14 8 12 13 8 10 12 10 13 13 9 9 13 11 12 9 10 13 10 8 10 12 7 12 9 11 13 12 7 10 11 7 8 8 12 13 10 11 7 11 12 13 7 12 13 11 11 9 13 15 10 8 5 8 11 15 10 11 11 11 10 13 9 12 13 12 8 10 12 8 10 12 9 12 13 14 14 11 8 9 12 13 13 11 11 11 12 10 12 10 10 15 7 9 14 14 14 8 9 6 5 12 13 15 7 13 8 13 9 13 9 9 8 9 8 10 11 11 8 13 9 9 8 7 9 8 9 6 8 5 11 8 13 11 10 11 19 9 13 16 12 17 12 11 13 12 7 8 6 13 10 12 11 10 15 12 8 16 8 13 6 10 8 15 7 11 10 10 11 15 13 9 9 9 12 10 6 13 15 10 9 12 11 11 13 17 10 13 6 11 7 8 9 9 9 9 12 13 11 10 10 7 13 7 12 6 12 9 7 11 14 9 11 4 14 14 9 13 9 9 11 10 13 11 13 10 9 10 17 10 9 8 11 15 16 8 10 9 10 12 16 13 5 11 9 12 9 10 9 10 12 12 7 11 14 9 9 9 14 17 11 8 10 12 6 13 11 11 13 13 11 10 6 11 9 12 12 9 9 13 11 11 9 14 9 16 9 14 12 12 10 9 9 12 10 11 15 10 15 8 11 11 11 11 12 14 7 12 11 8 12 9 13 8 13 13 12 11 11 9 11 12 9 15 13 9 11 10 12 11 11 8 9 7 10 9 19 9 10 16 9 5 9 13 8 13 9 10 11 9 8 9 11 9 4 7 7 9 7 13 9 9 
BTB PER SET COUNT: 461 12 2017 14 9 11 1457 10 1468 12 20 420 67 1182 14 8 9 11 28 13 11 12 515 15 14 14 15 12 286 13 16 16 11 6 8 505 10 11 16 1910 11 10 17 21 11 101 18 7 11 511 23 208 15 14 8 320 13 15 279 14 8 17 108 12 15 12 13 10 19 14 308 13 13 14 10 12 14 840 11 18 14 10 150 565 11 11 18 5 1475 25 13 10 15 10 11 11 1197 15 13 6533 27 26 14 9 2982 12 11 13 8 698 11 26 13 15 14 1505 18 14 1987 14 678 6 10 11 9 86 6 21 30 1006 14 4386 13 10 16 22 967 12 8 15 14 8 5 15 8 11 11 310 10 13 16 274 938 15 12 26 350 15 11 15 9 211 14 17 28 11 18 10 8 1567 19 9 12 14 10 14 7 15 14 502 9 91 984 13 9 843 7 10 10 263 15 10 7 18 13 10 6 1014 5 9 9 16 973 18 11 9 8 146 969 710 9 75 9 2873 15 9 12 14 2925 21 12 17 489 9 10 29 11 16 10 20 16 6 15 19 13 20 14 18 16 10 15 16 18 692 14 9 9 15 19 16 14 12 13 7 16 8 102 311 13 10 21 9 8 129 8 8 10 9 398 17 12 9 14 7 6 7 9 18 9 17 14 15 9 1014 9 7 9 14 17 19 17 6 12 528 10 12 10 13 14 180 7 20 8 24 20 88 103 12 380 271 965 23 10 19 1477 1279 19 13 13 33 11 2930 10 14 379 13 16 12 13 11 11 16 38 19 13 17 9 8 13 12 12 20 8 14 15 17 15 18 12 16 16 1468 9 17 12 14 14 13 9 25 11 14 10 22 13 43 7 12 16 9 12 389 13 10 966 12 17 19 16 12 1014 10 205 12 12 9 1075 19 14 13 111 10 14 1437 9 55 14 7 13 1352 11 15 15 17 25 12 18 194 8 12 595 10 15 254 15 11 15 20431 22 10 10 16 14 12 21 15 21 12 16 9 22 17 9 10 14 11 16 331 15 16 12 23 35 17 25 11 919 13 19 11 11 1163 12 12 15 1612 20 13 8 16 19 12 19 17 12 121 17 17 6 9 13 18 9 10 16 18 14 24 9 12 11 14 15 12 10 45 18 12 9 18 16 17 309 14 18 12 1287 22 21 12 15 12 7 163 12 10 7 15 17 17 314 140 18 628 18 14 11 15 18 10 8 7 14 13 13 11 420 1469 10 2696 21 30 14 9 19 11 275 14 21 676 14 12 36 17 21 15 11 12 16 581 15 6 106 21 12 16 18 12 38 10 15 18 10 9 9 11 14 15 10 16 419 14 21 13 10 18 21 21 11 10 18 8 14 2247 11 19 11 27 16 25 15 11 645 14 20 12 1120 19 259 11 20 28 11 8 9 14 24 968 13 13 16 18 51 14 9 16 7 12 13 31 15 11 22 10 10 13 18 30 9 967 11 318 998 18 8 19 14 29 13 19 15 17 10 971 1650 14 132 13 21 7 12 11 9 15 27 511 17 287 37 465 12 8 1058 9 15 16 10 1470 1514 14 15 18 967 9 16 399 21 9 10 17 16 8 970 32 2006 12 11 14 20 14 7 12 13 8 2273 11 730 120 17 12 9 25 14 23 9 15 19 12 13 14 115 27 1015 9 6 101 1011 389 13 14 19 550 10 618 9 17 14 16 1004 1433 326 6439 11 112 9 19 517 18 19 17 8 20 14 19 236 14 778 11 15 10 20 11 10 773 8 14 19 1076 18 9 11 6 9 46 22 15 7 23 9 311 11 17 13 11 9 16 9 931 14 15 1504 17 851 10 11 7 10 8 11 8 9 386 16 9 68 17 11 15 21 10 19 21 16 99 139 19 15 18 10 56 7 2018 10 14 15 12 833 678 11 20 10 1127 9 14 8 44 8 13 15 12 15 22 17 12 131 12 14 12 8 269 22 635 14 14 849 13 21 21 10 5320 1463 1339 7 12 10 14 10 9 15 14 267 19 14 8 551 12 18 8 14 10 7 13 17 12 12 4 18 20 1767 25 9 10 140 10 511 888 16 12 9 590 18 570 11 174 17 21 22 18 14 12 13 18 26 15 5 15 10 14 124 18 259 12 17 16 7 15 33 437 10 11 21 431 13 10 12 22 7 15 15 15 18 13 12 12 48 99 10 19 14 11 12 486 14 12 9 14 9 21 10 17 152 985 399 9 9 17 194 16 18 10 23 11 14 14 12 12 1472 16 7 14 55 9 17 14 609 8 17 23 515 17 17 1152 13 972 13 1317 421 11 16 14 14 32 19 1255 1097 7 14 1473 25 9 19 24 12 5 12 710 9 14 13 10 19 352 8 17 17 11 5 7 9 10 9 42 15 12 
To predecode: 0
Predecoding something: 0
Predecode request dropped: 0
sizeofblock_0 0
sizeofblock_1 51753
sizeofblock_2 87201
sizeofblock_3 0
sizeofblock_4 0
sizeofblock_5 0
sizeofblock_6 0
sizeofblock_7 0
sizeofblock_8 0
Variant_0 Correct: 1607287 Incorrect: 0 Accuracy: 1
Variant_1 Correct: 5706166 Incorrect: 0 Accuracy: 1
Variant_2 Correct: 0 Incorrect: 0 Accuracy: -nan
Variant_3 Correct: 0 Incorrect: 0 Accuracy: -nan
