
*** ChampSim Multicore Out-of-Order Simulator ***

Warmup Instructions: 50000000
Simulation Instructions: 50000000
Number of CPUs: 1
LLC sets: 2048
LLC ways: 16
Off-chip DRAM Size: 4096 MB Channels: 1 Width: 64-bit Data Rate: 6400 MT/s
CPU 0 runs ./micro_traces/srv737.trace.gz
.gz
ITLB has LRU replacement policy
DTLB has LRU replacement policy
STLB has LRU replacement policy
L1I has LRU replacement policy
L1D has LRU replacement policy
Initialize SRRIP state for L2C
Initialize DRRIP state for LLC
Heartbeat_Variant_0 : 1337 0.326416 per_variant_size: 0 1337 0 0 0 0 0 0 0 
Heartbeat_Variant_1 : 1252 0.305664 per_variant_size: 0 590 662 0 0 0 0 0 0 
Heartbeat_Variant_2 : 1312 0.320312 per_variant_size: 0 523 359 228 202 0 0 0 0 
Heartbeat_Variant_3 : 0 0 per_variant_size: 0 0 0 0 0 0 0 0 0 
Heartbeat_Variant_0_evicts 0 : 5816 1 : 337 2 : 338 3 : 0 
Heartbeat_Variant_1_evicts 0 : 319 1 : 0 2 : 514 3 : 0 
Heartbeat_Variant_2_evicts 0 : 321 1 : 492 2 : 0 3 : 0 
Heartbeat_Variant_3_evicts 0 : 0 1 : 0 2 : 0 3 : 0 
Heartbeat CPU 0 instructions: 10000002 cycles: 2794243 heartbeat IPC: 3.57879 cumulative IPC: 3.57879 (Simulation time: 0 hr 1 min 22 sec) 
Heartbeat_Variant_0 : 1369 0.334229 per_variant_size: 0 1369 0 0 0 0 0 0 0 
Heartbeat_Variant_1 : 1275 0.311279 per_variant_size: 0 551 724 0 0 0 0 0 0 
Heartbeat_Variant_2 : 1361 0.332275 per_variant_size: 0 501 393 251 216 0 0 0 0 
Heartbeat_Variant_3 : 0 0 per_variant_size: 0 0 0 0 0 0 0 0 0 
Heartbeat_Variant_0_evicts 0 : 5610 1 : 183 2 : 205 3 : 0 
Heartbeat_Variant_1_evicts 0 : 179 1 : 0 2 : 364 3 : 0 
Heartbeat_Variant_2_evicts 0 : 205 1 : 376 2 : 0 3 : 0 
Heartbeat_Variant_3_evicts 0 : 0 1 : 0 2 : 0 3 : 0 
Heartbeat CPU 0 instructions: 20000000 cycles: 5588494 heartbeat IPC: 3.57878 cumulative IPC: 3.57878 (Simulation time: 0 hr 2 min 41 sec) 
Heartbeat_Variant_0 : 1371 0.334717 per_variant_size: 0 1371 0 0 0 0 0 0 0 
Heartbeat_Variant_1 : 1286 0.313965 per_variant_size: 0 561 725 0 0 0 0 0 0 
Heartbeat_Variant_2 : 1370 0.334473 per_variant_size: 0 524 382 246 218 0 0 0 0 
Heartbeat_Variant_3 : 0 0 per_variant_size: 0 0 0 0 0 0 0 0 0 
Heartbeat_Variant_0_evicts 0 : 5661 1 : 115 2 : 124 3 : 0 
Heartbeat_Variant_1_evicts 0 : 121 1 : 0 2 : 295 3 : 0 
Heartbeat_Variant_2_evicts 0 : 120 1 : 298 2 : 0 3 : 0 
Heartbeat_Variant_3_evicts 0 : 0 1 : 0 2 : 0 3 : 0 
Heartbeat CPU 0 instructions: 30000000 cycles: 8382843 heartbeat IPC: 3.57865 cumulative IPC: 3.57874 (Simulation time: 0 hr 3 min 59 sec) 
Heartbeat_Variant_0 : 1391 0.3396 per_variant_size: 0 1391 0 0 0 0 0 0 0 
Heartbeat_Variant_1 : 1285 0.313721 per_variant_size: 0 568 717 0 0 0 0 0 0 
Heartbeat_Variant_2 : 1373 0.335205 per_variant_size: 0 512 398 242 221 0 0 0 0 
Heartbeat_Variant_3 : 0 0 per_variant_size: 0 0 0 0 0 0 0 0 0 
Heartbeat_Variant_0_evicts 0 : 5770 1 : 155 2 : 181 3 : 0 
Heartbeat_Variant_1_evicts 0 : 148 1 : 0 2 : 317 3 : 0 
Heartbeat_Variant_2_evicts 0 : 173 1 : 316 2 : 0 3 : 0 
Heartbeat_Variant_3_evicts 0 : 0 1 : 0 2 : 0 3 : 0 
Heartbeat CPU 0 instructions: 40000002 cycles: 11177634 heartbeat IPC: 3.57809 cumulative IPC: 3.57858 (Simulation time: 0 hr 5 min 13 sec) 
Heartbeat_Variant_0 : 1393 0.340088 per_variant_size: 0 1393 0 0 0 0 0 0 0 
Heartbeat_Variant_1 : 1281 0.312744 per_variant_size: 0 563 718 0 0 0 0 0 0 
Heartbeat_Variant_2 : 1380 0.336914 per_variant_size: 0 518 391 253 218 0 0 0 0 
Heartbeat_Variant_3 : 0 0 per_variant_size: 0 0 0 0 0 0 0 0 0 
Heartbeat_Variant_0_evicts 0 : 5523 1 : 53 2 : 64 3 : 0 
Heartbeat_Variant_1_evicts 0 : 56 1 : 0 2 : 243 3 : 0 
Heartbeat_Variant_2_evicts 0 : 61 1 : 251 2 : 0 3 : 0 
Heartbeat_Variant_3_evicts 0 : 0 1 : 0 2 : 0 3 : 0 
Heartbeat CPU 0 instructions: 50000000 cycles: 13970532 heartbeat IPC: 3.58051 cumulative IPC: 3.57896 (Simulation time: 0 hr 6 min 31 sec) 

Warmup complete CPU 0 instructions: 50000004 cycles: 13970533 (Simulation time: 0 hr 6 min 31 sec) 

*** Reached end of trace for Core: 0 Repeating trace: ./micro_traces/srv737.trace.gz
Cycle: 20000000 FTQ IN: 55439674 FTQ occupancy: 15.8866 DECODE IN: 55439656 DECODE occupancy: 9.51502 ROB IN: 55439650 ROB occupancy: 259.862 ROB OUT: 55439638
Heartbeat_Variant_0 : 1382 0.337402 per_variant_size: 0 1382 0 0 0 0 0 0 0 
Heartbeat_Variant_1 : 1290 0.314941 per_variant_size: 0 580 710 0 0 0 0 0 0 
Heartbeat_Variant_2 : 1389 0.339111 per_variant_size: 0 548 381 247 213 0 0 0 0 
Heartbeat_Variant_3 : 0 0 per_variant_size: 0 0 0 0 0 0 0 0 0 
Heartbeat_Variant_0_evicts 0 : 5669 1 : 194 2 : 193 3 : 0 
Heartbeat_Variant_1_evicts 0 : 208 1 : 0 2 : 336 3 : 0 
Heartbeat_Variant_2_evicts 0 : 192 1 : 345 2 : 0 3 : 0 
Heartbeat_Variant_3_evicts 0 : 0 1 : 0 2 : 0 3 : 0 
Heartbeat CPU 0 instructions: 60000000 cycles: 25068440 heartbeat IPC: 0.901071 cumulative IPC: 0.90107 (Simulation time: 0 hr 7 min 43 sec) 
Cycle: 30000000 FTQ IN: 9042203 FTQ occupancy: 14.8699 DECODE IN: 9042203 DECODE occupancy: 4.95889 ROB IN: 9042209 ROB occupancy: 53.7629 ROB OUT: 9042188
Heartbeat_Variant_0 : 1385 0.338135 per_variant_size: 0 1385 0 0 0 0 0 0 0 
Heartbeat_Variant_1 : 1292 0.31543 per_variant_size: 0 572 720 0 0 0 0 0 0 
Heartbeat_Variant_2 : 1391 0.3396 per_variant_size: 0 518 401 254 218 0 0 0 0 
Heartbeat_Variant_3 : 0 0 per_variant_size: 0 0 0 0 0 0 0 0 0 
Heartbeat_Variant_0_evicts 0 : 5580 1 : 158 2 : 190 3 : 0 
Heartbeat_Variant_1_evicts 0 : 164 1 : 0 2 : 356 3 : 0 
Heartbeat_Variant_2_evicts 0 : 183 1 : 361 2 : 0 3 : 0 
Heartbeat_Variant_3_evicts 0 : 0 1 : 0 2 : 0 3 : 0 
Heartbeat CPU 0 instructions: 70000003 cycles: 36317000 heartbeat IPC: 0.889003 cumulative IPC: 0.894996 (Simulation time: 0 hr 8 min 53 sec) 
Cycle: 40000000 FTQ IN: 8818464 FTQ occupancy: 14.8782 DECODE IN: 8818465 DECODE occupancy: 4.95893 ROB IN: 8818453 ROB occupancy: 56.7729 ROB OUT: 8818479
Heartbeat_Variant_0 : 1390 0.339355 per_variant_size: 0 1390 0 0 0 0 0 0 0 
Heartbeat_Variant_1 : 1291 0.315186 per_variant_size: 0 570 721 0 0 0 0 0 0 
Heartbeat_Variant_2 : 1389 0.339111 per_variant_size: 0 516 408 244 221 0 0 0 0 
Heartbeat_Variant_3 : 0 0 per_variant_size: 0 0 0 0 0 0 0 0 0 
Heartbeat_Variant_0_evicts 0 : 5603 1 : 101 2 : 116 3 : 0 
Heartbeat_Variant_1_evicts 0 : 94 1 : 0 2 : 282 3 : 0 
Heartbeat_Variant_2_evicts 0 : 118 1 : 277 2 : 0 3 : 0 
Heartbeat_Variant_3_evicts 0 : 0 1 : 0 2 : 0 3 : 0 
Heartbeat CPU 0 instructions: 80000003 cycles: 47410047 heartbeat IPC: 0.901466 cumulative IPC: 0.897142 (Simulation time: 0 hr 10 min 6 sec) 
Cycle: 50000000 FTQ IN: 9039344 FTQ occupancy: 14.9033 DECODE IN: 9039343 DECODE occupancy: 4.97621 ROB IN: 9039346 ROB occupancy: 55.0571 ROB OUT: 9039329
Heartbeat_Variant_0 : 1391 0.3396 per_variant_size: 0 1391 0 0 0 0 0 0 0 
Heartbeat_Variant_1 : 1297 0.31665 per_variant_size: 0 568 729 0 0 0 0 0 0 
Heartbeat_Variant_2 : 1383 0.337646 per_variant_size: 0 507 402 253 221 0 0 0 0 
Heartbeat_Variant_3 : 0 0 per_variant_size: 0 0 0 0 0 0 0 0 0 
Heartbeat_Variant_0_evicts 0 : 5770 1 : 115 2 : 124 3 : 0 
Heartbeat_Variant_1_evicts 0 : 119 1 : 0 2 : 283 3 : 0 
Heartbeat_Variant_2_evicts 0 : 119 1 : 281 2 : 0 3 : 0 
Heartbeat_Variant_3_evicts 0 : 0 1 : 0 2 : 0 3 : 0 
Heartbeat CPU 0 instructions: 90000002 cycles: 58486073 heartbeat IPC: 0.902851 cumulative IPC: 0.898563 (Simulation time: 0 hr 11 min 16 sec) 
Cycle: 60000000 FTQ IN: 9012596 FTQ occupancy: 14.9678 DECODE IN: 9012597 DECODE occupancy: 5.01304 ROB IN: 9012594 ROB occupancy: 57.7073 ROB OUT: 9012605
Heartbeat_Variant_0 : 1386 0.338379 per_variant_size: 0 1386 0 0 0 0 0 0 0 
Heartbeat_Variant_1 : 1298 0.316895 per_variant_size: 0 578 720 0 0 0 0 0 0 
Heartbeat_Variant_2 : 1389 0.339111 per_variant_size: 0 515 406 255 213 0 0 0 0 
Heartbeat_Variant_3 : 0 0 per_variant_size: 0 0 0 0 0 0 0 0 0 
Heartbeat_Variant_0_evicts 0 : 5561 1 : 132 2 : 107 3 : 0 
Heartbeat_Variant_1_evicts 0 : 132 1 : 0 2 : 305 3 : 0 
Heartbeat_Variant_2_evicts 0 : 112 1 : 304 2 : 0 3 : 0 
Heartbeat_Variant_3_evicts 0 : 0 1 : 0 2 : 0 3 : 0 
Heartbeat CPU 0 instructions: 100000000 cycles: 69609627 heartbeat IPC: 0.898993 cumulative IPC: 0.898649 (Simulation time: 0 hr 12 min 28 sec) 
Finished CPU 0 instructions: 50000003 cycles: 55639106 cumulative IPC: 0.898649 (Simulation time: 0 hr 12 min 28 sec) 

ChampSim completed all CPUs

Region of Interest Statistics

CPU 0 cumulative IPC: 0.898649 instructions: 50000003 cycles: 55639106
 Fetch stage stalled: 27.466  Sim cycles: 55639106 fetch stall cycle: 15281858
 Empty decode stage: 68.3365  Sim cycles: 55639106 fetch stall cycle: 38021816
ITLB TOTAL     ACCESS:    7321444  HIT:    6832816  MISS:     488628  HIT %:    93.3261  MISS %:    6.67393   MPKI: 9.77256
ITLB LOAD TRANSLATION INSTRUCTION	ACCESS:    7321444  HIT:    6832816  MISS:     488628  HIT %:    93.3261  MISS %:    6.67393  MPKI: 9.77256

ITLB AVERAGE MISS LATENCY: 9.06122 cycles
ITLB RQ	ACCESS:    8430161	FORWARD:          0	MERGED:     910377	TO_CACHE:    7519784

DTLB TOTAL     ACCESS:   10209258  HIT:    9732568  MISS:     476690  HIT %:    95.3308  MISS %:    4.66919   MPKI: 9.5338
DTLB LOAD TRANSLATION DATA	ACCESS:   10209258  HIT:    9732568  MISS:     476690  HIT %:    95.3308  MISS %:    4.66919  MPKI: 9.5338

DTLB AVERAGE MISS LATENCY: 9.26181 cycles
DTLB RQ	ACCESS:   14316902	FORWARD:          0	MERGED:    4077482	TO_CACHE:   10239420

STLB TOTAL     ACCESS:    1241487  HIT:    1238980  MISS:       2507  HIT %:    99.7981  MISS %:   0.201935   MPKI: 0.05014
STLB LOAD TRANSLATION INSTRUCTION	ACCESS:     488628  HIT:     488222  MISS:        406  HIT %:    99.9169  MISS %:  0.0830898  MPKI: 0.00812
STLB LOAD TRANSLATION DATA	ACCESS:     476679  HIT:     474611  MISS:       2068  HIT %:    99.5662  MISS %:   0.433835  MPKI: 0.04136
STLB TRANSLATION FROM L1D PREFETCHER DATA	ACCESS:     276180  HIT:     276147  MISS:         33  HIT %:    99.9881  MISS %:  0.0119487  MPKI: 0.00066

STLB AVERAGE MISS LATENCY: 54.5098 cycles
STLB RQ	ACCESS:    1415408	FORWARD:          0	MERGED:     173886	TO_CACHE:    1241522

STLB Hit, L1D data hit: 0
STLB Hit, L2C data hit: 0
STLB Hit, LLC data hit: 0
STLB Hit, LLC data miss: 0
STLB STLB hints to L2: 0
L1D TOTAL     ACCESS:   14120346  HIT:   12896981  MISS:    1223365  HIT %:    91.3362  MISS %:    8.66385   MPKI: 24.4673
L1D LOAD DATA	ACCESS:    7543899  HIT:    6736348  MISS:     807551  HIT %:    89.2953  MISS %:    10.7047  MPKI: 16.151
L1D RFO DATA	ACCESS:    6221620  HIT:    5924118  MISS:     297502  HIT %:    95.2183  MISS %:    4.78174  MPKI: 5.95004
L1D PREFETCH DATA	ACCESS:     354827  HIT:     236515  MISS:     118312  HIT %:    66.6564  MISS %:    33.3436  MPKI: 2.36624

L1D PREFETCH  REQUESTED:     900257  ISSUED:     900257  USEFUL:      69231  USELESS:      71156
L1D USEFUL LOAD PREFETCHES:      69231 PREFETCH ISSUED TO LOWER LEVEL:     140477  ACCURACY: 49.2828
 TIMELY PREFETCHES:      69231 LATE PREFETCHES: 22074 DROPPED PREFETCHES: 1
L1D AVERAGE MISS LATENCY: 756745 cycles
L1D RQ	ACCESS:   11347458	FORWARD:          0	MERGED:    3615488	TO_CACHE:    7579412
L1D WQ	ACCESS:    6858817	FORWARD:     152635	MERGED:     121327	TO_CACHE:    6737490
L1D PQ	ACCESS:     450167	FORWARD:          0	MERGED:          0	TO_CACHE:     450090

L1D UNIQUE REGIONS ACCESSED: 0
L1D REGIONS CONFLICTS: 0
L1D Cross Page Prefetch Requests: 8788
L1D Same Page Prefetch Requests: 898329
L1D ROI Sum of L1D PQ occupancy: 5687257
L1D PREFETCHES PUSHED FROM L2C: 0
L1I TOTAL     ACCESS:    7894110  HIT:    5156887  MISS:    2737223  HIT %:    65.3258  MISS %:    34.6742   MPKI: 54.7445
L1I LOAD INSTRUCTION	ACCESS:    7894110  HIT:    5156887  MISS:    2737223  HIT %:    65.3258  MISS %:    34.6742  MPKI: 54.7445

L1I AVERAGE MISS LATENCY: 17.1533 cycles
L1I RQ	ACCESS:   15551647	FORWARD:          0	MERGED:    7121486	TO_CACHE:    8430161

L1BTB TOTAL     ACCESS:    5698627  HIT:    2111710  MISS:    3586917  HIT %:    37.0565  MISS %:    62.9435   MPKI: 71.7383
L1BTB BRANCH_DIRECT_JUMP	ACCESS:     540740  HIT:     142392  MISS:     398348	AVERAGE STALL: 22.9538
L1BTB BRANCH_INDIRECT	ACCESS:     180201  HIT:      65001  MISS:     115200	AVERAGE STALL: 50.6083
L1BTB BRANCH_CONDITIONAL	ACCESS:    2772213  HIT:    1494842  MISS:    1277371	AVERAGE STALL: 30.244
L1BTB BRANCH_DIRECT_CALL	ACCESS:     933619  HIT:     102651  MISS:     830968	AVERAGE STALL: 31.2807
L1BTB BRANCH_INDIRECT_CALL	ACCESS:     169134  HIT:      20666  MISS:     148468	AVERAGE STALL: 67.519
L1BTB BRANCH_RETURN	ACCESS:    1102720  HIT:     286158  MISS:     816562	AVERAGE STALL: 33.6784
L1BTB BRANCH_OTHER ACCESS:          0  HIT:          0  MISS:          0	AVERAGE STALL: -nan
L1BTB TOTAL ROB OCCUPANCY AT BTB MISS: 0.65362

L2BTB TOTAL     ACCESS:    3562105  HIT:    3495464  MISS:      66641  HIT %:    98.1292  MISS %:    1.87083   MPKI: 1.33282
L2BTB BRANCH_DIRECT_JUMP	ACCESS:     394282  HIT:     390036  MISS:       4246	AVERAGE STALL: 22.9538
L2BTB BRANCH_INDIRECT	ACCESS:     105054  HIT:     102355  MISS:       2699	AVERAGE STALL: 50.6083
L2BTB BRANCH_CONDITIONAL	ACCESS:    1277371  HIT:    1272903  MISS:       4468	AVERAGE STALL: 30.244
L2BTB BRANCH_DIRECT_CALL	ACCESS:     830968  HIT:     827733  MISS:       3235	AVERAGE STALL: 31.2807
L2BTB BRANCH_INDIRECT_CALL	ACCESS:     139100  HIT:     128943  MISS:      10157	AVERAGE STALL: 67.519
L2BTB BRANCH_RETURN	ACCESS:     815330  HIT:     773494  MISS:      41836	AVERAGE STALL: 33.6784
L2BTB BRANCH_OTHER ACCESS:          0  HIT:          0  MISS:          0	AVERAGE STALL: -nan
L2BTB TOTAL ROB OCCUPANCY AT BTB MISS: 35.1807

L2C TOTAL     ACCESS:    4591548  HIT:    4073142  MISS:     518406  HIT %:    88.7096  MISS %:    11.2904   MPKI: 10.3681
L2C LOAD INSTRUCTION	ACCESS:    2737223  HIT:    2464265  MISS:     272958  HIT %:    90.0279  MISS %:    9.97208  MPKI: 5.45916
L2C LOAD TRANSLATION INSTRUCTION	ACCESS:        464  HIT:        116  MISS:        348  HIT %:         25  MISS %:         75  MPKI: 0.00696
L2C LOAD DATA	ACCESS:     785416  HIT:     698645  MISS:      86771  HIT %:    88.9522  MISS %:    11.0478  MPKI: 1.73542
L2C RFO DATA	ACCESS:     297400  HIT:     239974  MISS:      57426  HIT %:    80.6907  MISS %:    19.3093  MPKI: 1.14852
L2C PREFETCH DATA	ACCESS:     229514  HIT:     145229  MISS:      84285  HIT %:    63.2768  MISS %:    36.7232  MPKI: 1.6857
L2C WRITEBACK DATA	ACCESS:     539292  HIT:     524247  MISS:      15045  HIT %:    97.2102  MISS %:    2.78977  MPKI: 0.3009
L2C LOAD TRANSLATION DATA	ACCESS:       2192  HIT:        629  MISS:       1563  HIT %:    28.6953  MISS %:    71.3047  MPKI: 0.03126
L2C TRANSLATION FROM L1D PREFETCHER DATA	ACCESS:         47  HIT:         37  MISS:         10  HIT %:    78.7234  MISS %:    21.2766  MPKI: 0.0002

L2C PREFETCH  REQUESTED:      96250  ISSUED:      96250  USEFUL:       8954  USELESS:      75808
L2C USEFUL LOAD PREFETCHES:       8954 PREFETCH ISSUED TO LOWER LEVEL:      84703  ACCURACY: 10.5711
 TIMELY PREFETCHES:       8954 LATE PREFETCHES: 418 DROPPED PREFETCHES: 0
L2C AVERAGE MISS LATENCY: 39.19 cycles
L2C RQ	ACCESS:    3822816	FORWARD:          0	MERGED:          0	TO_CACHE:    3822746
L2C WQ	ACCESS:     539292	FORWARD:         70	MERGED:          0	TO_CACHE:     539292
L2C PQ	ACCESS:     236727	FORWARD:          0	MERGED:       3861	TO_CACHE:     232866

L2C Dense regions hint from L2: 0
PSCL5 TOTAL     ACCESS:       5018  HIT:       2509  MISS:       2509  HIT %:         50  MISS %:         50   MPKI: 0.05018
PSCL5 LOAD TRANSLATION INSTRUCTION	ACCESS:       4926  HIT:       2463  MISS:       2463  HIT %:         50  MISS %:         50  MPKI: 0.04926
PSCL5 TRANSLATION FROM L1D PREFETCHER INSTRUCTION	ACCESS:         92  HIT:         46  MISS:         46  HIT %:         50  MISS %:         50  MPKI: 0.00092


PSCL4 TOTAL     ACCESS:       3662  HIT:       1826  MISS:       1836  HIT %:    49.8635  MISS %:    50.1365   MPKI: 0.03672
PSCL4 LOAD TRANSLATION INSTRUCTION	ACCESS:       2560  HIT:       1789  MISS:        771  HIT %:    69.8828  MISS %:    30.1172  MPKI: 0.01542
PSCL4 TRANSLATION FROM L1D PREFETCHER INSTRUCTION	ACCESS:         58  HIT:         37  MISS:         21  HIT %:    63.7931  MISS %:    36.2069  MPKI: 0.00042
PSCL4 LOAD TRANSLATION DATA	ACCESS:       1028  HIT:          0  MISS:       1028  HIT %:          0  MISS %:        100  MPKI: 0.02056
PSCL4 TRANSLATION FROM L1D PREFETCHER DATA	ACCESS:         16  HIT:          0  MISS:         16  HIT %:          0  MISS %:        100  MPKI: 0.00032


PSCL3 TOTAL     ACCESS:       4906  HIT:       2443  MISS:       2463  HIT %:    49.7962  MISS %:    50.2038   MPKI: 0.04926
PSCL3 LOAD TRANSLATION INSTRUCTION	ACCESS:       3435  HIT:       2410  MISS:       1025  HIT %:    70.1601  MISS %:    29.8399  MPKI: 0.0205
PSCL3 TRANSLATION FROM L1D PREFETCHER INSTRUCTION	ACCESS:         45  HIT:         33  MISS:         12  HIT %:    73.3333  MISS %:    26.6667  MPKI: 0.00024
PSCL3 LOAD TRANSLATION DATA	ACCESS:       1405  HIT:          0  MISS:       1405  HIT %:          0  MISS %:        100  MPKI: 0.0281
PSCL3 TRANSLATION FROM L1D PREFETCHER DATA	ACCESS:         21  HIT:          0  MISS:         21  HIT %:          0  MISS %:        100  MPKI: 0.00042


PSCL2 TOTAL     ACCESS:       4854  HIT:       2345  MISS:       2509  HIT %:    48.3107  MISS %:    51.6893   MPKI: 0.05018
PSCL2 LOAD TRANSLATION INSTRUCTION	ACCESS:       2704  HIT:       2300  MISS:        404  HIT %:    85.0592  MISS %:    14.9408  MPKI: 0.00808
PSCL2 TRANSLATION FROM L1D PREFETCHER INSTRUCTION	ACCESS:         45  HIT:         45  MISS:          0  HIT %:        100  MISS %:          0  MPKI: 0
PSCL2 LOAD TRANSLATION DATA	ACCESS:       2060  HIT:          0  MISS:       2060  HIT %:          0  MISS %:        100  MPKI: 0.0412
PSCL2 TRANSLATION FROM L1D PREFETCHER DATA	ACCESS:         45  HIT:          0  MISS:         45  HIT %:          0  MISS %:        100  MPKI: 0.0009


LLC TOTAL     ACCESS:     584821  HIT:     559263  MISS:      25558  HIT %:    95.6298  MISS %:    4.37023   MPKI: 0.51116
LLC LOAD INSTRUCTION	ACCESS:     272958  HIT:     272118  MISS:        840  HIT %:    99.6923  MISS %:    0.30774  MPKI: 0.0168
LLC LOAD TRANSLATION INSTRUCTION	ACCESS:        348  HIT:        320  MISS:         28  HIT %:     91.954  MISS %:    8.04598  MPKI: 0.00056
LLC LOAD DATA	ACCESS:      86368  HIT:      83513  MISS:       2855  HIT %:    96.6944  MISS %:    3.30562  MPKI: 0.0571
LLC RFO DATA	ACCESS:      57409  HIT:      44370  MISS:      13039  HIT %:    77.2875  MISS %:    22.7125  MPKI: 0.26078
LLC PREFETCH DATA	ACCESS:      84703  HIT:      76139  MISS:       8564  HIT %:    89.8894  MISS %:    10.1106  MPKI: 0.17128
LLC WRITEBACK DATA	ACCESS:      81462  HIT:      81295  MISS:        167  HIT %:     99.795  MISS %:   0.205004  MPKI: 0.00334
LLC LOAD TRANSLATION DATA	ACCESS:       1563  HIT:       1498  MISS:         65  HIT %:    95.8413  MISS %:    4.15867  MPKI: 0.0013
LLC TRANSLATION FROM L1D PREFETCHER DATA	ACCESS:         10  HIT:         10  MISS:          0  HIT %:        100  MISS %:          0  MPKI: 0

LLC AVERAGE MISS LATENCY: 204.277 cycles
LLC RQ	ACCESS:     418658	FORWARD:          0	MERGED:          0	TO_CACHE:     418656
LLC WQ	ACCESS:      81462	FORWARD:          2	MERGED:          0	TO_CACHE:      81462
LLC PQ	ACCESS:      84703	FORWARD:          0	MERGED:          0	TO_CACHE:      84703

LLC Dense regions hint to LLC: 0

RAW hits: 1217260
Loads Generated: 12564718
Loads sent to L1D: 11347458
Stores Generated: 6858809
Stores sent to L1D: 6858817
Major fault: 0 Minor fault: 2281
Allocated PAGES: 2281

stream: 
stream:times selected: 1325465
stream:pref_filled: 132296
stream:pref_useful: 35492
stream:pref_late: 12619
stream:misses: 11594
stream:misses_by_poll: 0

CS: 
CS:times selected: 216462
CS:pref_filled: 92014
CS:pref_useful: 68627
CS:pref_late: 11662
CS:misses: 32105
CS:misses_by_poll: 4

CPLX: 
CPLX:times selected: 1107677
CPLX:pref_filled: 33509
CPLX:pref_useful: 11854
CPLX:pref_late: 7734
CPLX:misses: 179308
CPLX:misses_by_poll: 4

NL_L1: 
NL:times selected: 22571
NL:pref_filled: 1218
NL:pref_useful: 865
NL:pref_late: 1055
NL:misses: 3919
NL:misses_by_poll: 0

total selections: 2672175
total_filled: 118312
total_useful: 69231
total_late: 36864
total_polluted: 8
total_misses_after_warmup: 843070
conflicts: 5911385

test: 125110

DRAM Statistics
 CHANNEL 0
 RQ ROW_BUFFER_HIT:       8881  ROW_BUFFER_MISS:      16503
 DBUS_CONGESTED:         12
 WQ ROW_BUFFER_HIT:       2118  ROW_BUFFER_MISS:      12108  FULL:          0

 AVG_CONGESTED_CYCLE: 4

CPU 0 Branch Prediction Accuracy: 99.8259% MPKI: 0.31964 Average ROB Occupancy at Mispredict: 83.8533
Branch types
NOT_BRANCH: 40817395 81.6348%
BRANCH_DIRECT_JUMP: 540740 1.08148%
BRANCH_INDIRECT: 180201 0.360402%
BRANCH_CONDITIONAL: 6255844 12.5117%
BRANCH_DIRECT_CALL: 933619 1.86724%
BRANCH_INDIRECT_CALL: 169134 0.338268%
BRANCH_RETURN: 1102720 2.20544%
BRANCH_OTHER: 0 0%

DRAM PAGES: 1048576
Allocated PAGES: 2281
Average_ROB_Occupancy: 56.4714
Average_Decode_Occupancy: 4.97529
Average_FTQ_Occupancy: 14.9037
Indirect max targets: 14 Average targets: 1.14815
Branch_type:  BRANCH_DIRECT_JUMP:  Count Percentage: 3.29371 6.75783 3.58891 7.63381 2.2268 6.33155 1.29995 68.8674 
Branch_type:  BRANCH_INDIRECT:  Count Percentage: 6.11084 3.45569 8.14159 9.70078 3.33946 2.80577 3.07622 63.3696 
Branch_type:  BRANCH_CONDITIONAL:  Count Percentage: 27.0546 3.41413 0.878308 3.8448 1.78046 4.00603 1.08744 57.9343 
Branch_type:  BRANCH_DIRECT_CALL:  Count Percentage: 0.394682 1.26401 0.416511 3.31712 2.13994 2.83915 1.00942 88.6192 
Branch_type:  BRANCH_INDIRECT_CALL:  Count Percentage: 9.56747 0 3.00951 0 0 2.34688 3.28208 81.794 
Branch_type:  BRANCH_RETURN:  Count Percentage: 7.8894 1.34967 1.21722 3.66529 3.91883 4.73586 1.38557 75.8382 
Branch_type:  BRANCH_DIRECT_JUMP:  Total Count: 35604 73050 38795 82519 24071 68442 14052 744435 
Branch_type:  BRANCH_INDIRECT:  Total Count: 22030 12458 29351 34972 12039 10115 11090 228452 
Branch_type:  BRANCH_CONDITIONAL:  Total Count: 3383407 426966 109840 480826 222662 500989 135994 7245181 
Branch_type:  BRANCH_DIRECT_CALL:  Total Count: 7359 23568 7766 61849 39900 52937 18821 1652338 
Branch_type:  BRANCH_INDIRECT_CALL:  Total Count: 32328 0 10169 0 0 7930 11090 276378 
Branch_type:  BRANCH_RETURN:  Total Count: 173820 29736 26818 80754 86340 104341 30527 1670873 
Number of unique branch instructions: 10324
Upper 32 bits: 
aaaa
ffff
ffff0000
Unique upper 32 bits: 3
Unique upper 36 bits: 3
Unique upper 40 bits: 5
Unique upper 44 bits: 32
Unique upper 48 bits: 157
Variant_0 : 1386 0.338379
Variant_1 : 1298 0.316895
Variant_2 : 1389 0.339111
Variant_3 : 0 0
Offset_3 4251
Offset_4 257
Offset_5 470
Offset_6 532
Offset_7 611
Offset_8 527
Offset_9 508
Offset_10 409
Offset_11 338
Offset_12 278
Offset_13 213
Offset_14 229
Offset_15 201
Offset_16 235
Offset_17 158
Offset_18 135
Offset_19 251
Offset_20 147
Offset_21 245
Offset_22 404
Offset_23 241
Offset_24 333
Offset_25 88
Offset_47 80
decode_dispatch_called: 30319737 54.4936
Dispatch_width: 0 18236990 60.1489 32.7773
Dispatch_width: 1 2296379 7.57388 4.12728
Dispatch_width: 2 1109104 3.65803 1.99339
Dispatch_width: 3 1094911 3.61122 1.96788
Dispatch_width: 4 1016125 3.35136 1.82628
Dispatch_width: 5 1261530 4.16076 2.26734
Dispatch_width: 6 5304698 17.4959 9.53412
Empty_decode_cycles: 25319369 45.5064
ROB_full_cycles: 576855 1.03678
Starvation_cycles_per_kilo_instr: 497.575
Starvation_cycles_per_kilo_instr_3: 474.799
Starvation_cycles_per_kilo_instr_0: 429.795
Branch_type_1  (3,1)  (4,9)  (5,38)  (6,75)  (7,117)  (8,129)  (9,131)  (10,105)  (11,77)  (12,45)  (13,4)  (14,2)  (15,3)  (16,4)  (18,1)  (19,4)  (20,2)  (21,1)  (22,3)  (23,2)  (24,10)  (25,12) 
Branch_type_2  (3,1)  (5,1)  (8,3)  (9,3)  (12,1)  (13,1)  (14,1)  (16,3)  (17,2)  (20,2)  (21,2)  (23,5)  (24,1)  (47,36) 
Branch_type_3  (3,4249)  (4,248)  (5,427)  (6,441)  (7,462)  (8,334)  (9,284)  (10,172)  (11,138)  (12,50)  (13,4) 
Branch_type_4  (6,4)  (7,8)  (8,26)  (9,55)  (10,62)  (11,61)  (12,101)  (13,94)  (14,101)  (15,95)  (16,107)  (17,71)  (18,62)  (19,122)  (20,75)  (21,130)  (22,217)  (23,136)  (24,194)  (25,72) 
Branch_type_5  (8,2)  (9,1)  (10,3)  (11,6)  (12,3)  (13,14)  (14,16)  (15,11)  (16,20)  (17,12)  (18,16)  (19,12)  (20,11)  (21,13)  (22,42)  (23,26)  (24,37) 
Branch_type_6  (5,4)  (6,12)  (7,24)  (8,33)  (9,34)  (10,67)  (11,56)  (12,78)  (13,96)  (14,109)  (15,92)  (16,101)  (17,73)  (18,56)  (19,113)  (20,57)  (21,99)  (22,142)  (23,72)  (24,91)  (25,4)  (47,44) 
Unique trigger count: 
Variant_0_evicts_0 : 0
Variant_0_evicts_1 : 0
Variant_0_evicts_2 : 0
Variant_0_evicts_3 : 0
Variant_1_evicts_0 : 0
Variant_1_evicts_1 : 0
Variant_1_evicts_2 : 0
Variant_1_evicts_3 : 0
Variant_2_evicts_0 : 0
Variant_2_evicts_1 : 0
Variant_2_evicts_2 : 0
Variant_2_evicts_3 : 0
Variant_3_evicts_0 : 0
Variant_3_evicts_1 : 0
Variant_3_evicts_2 : 0
Variant_3_evicts_3 : 0
BTB PER SET UNIQUE ADDR: 14 15 9 15 15 13 10 9 7 15 6 24 13 14 17 11 16 11 10 13 8 14 14 16 11 12 11 14 12 8 15 15 14 11 8 15 16 17 10 12 12 13 18 14 10 10 14 10 13 10 16 13 12 15 11 6 14 15 10 14 10 18 13 13 13 14 8 10 20 14 12 13 11 13 8 11 11 17 11 15 15 9 13 12 17 11 20 11 12 27 7 10 14 14 8 18 12 14 17 20 25 16 12 13 12 11 14 13 9 13 12 15 16 13 13 7 13 15 14 16 16 11 12 10 17 13 5 12 22 14 14 19 13 17 11 14 9 20 14 16 13 19 10 15 12 15 15 12 10 13 10 17 10 10 12 20 18 15 13 18 17 17 14 12 13 14 13 9 18 14 12 13 14 13 12 13 11 10 16 16 11 14 10 16 18 18 8 12 19 16 15 13 12 17 10 14 11 12 12 19 17 22 10 10 9 12 13 14 15 12 10 13 12 11 12 13 14 12 13 26 11 14 12 7 12 12 18 15 9 20 10 6 9 20 14 17 18 15 14 12 14 11 17 13 12 13 10 13 15 11 23 13 15 11 15 9 12 12 12 13 14 12 5 14 14 12 10 8 12 11 10 20 10 9 11 9 10 16 14 13 10 15 11 11 16 14 11 16 19 17 14 14 10 22 6 24 13 15 11 13 14 11 9 18 13 17 18 13 17 11 18 16 10 23 9 7 20 13 9 23 13 15 10 15 14 16 11 15 10 8 18 17 11 14 12 15 11 12 9 17 14 13 9 17 12 12 14 10 16 15 14 12 9 13 12 19 12 15 12 10 11 20 15 19 15 15 7 15 18 14 12 7 16 11 11 19 12 17 15 15 14 15 9 12 9 12 14 14 17 18 15 10 11 14 11 7 14 11 16 15 12 11 11 14 17 12 18 16 14 14 16 11 10 20 8 15 14 17 16 17 11 19 17 14 10 15 15 14 13 13 15 20 15 10 18 18 18 9 14 12 16 11 15 16 21 12 10 15 18 18 13 22 16 12 17 19 16 16 13 21 9 12 13 18 18 10 13 8 18 13 14 17 18 16 11 16 14 22 10 17 19 17 16 16 11 12 17 17 16 16 16 13 11 10 13 15 17 15 12 14 13 19 14 25 8 12 12 19 16 13 14 18 11 14 12 15 14 16 11 10 9 13 11 10 7 17 21 11 13 17 19 15 19 14 11 17 13 12 14 14 15 10 16 14 14 20 11 8 10 14 15 17 20 16 12 17 15 10 16 17 10 19 11 17 9 17 18 14 17 15 15 14 16 23 14 19 12 22 14 11 10 9 10 15 20 15 14 16 14 16 10 14 12 11 19 9 6 11 14 12 15 14 12 8 11 13 13 12 12 11 16 16 15 9 10 15 11 16 16 12 18 15 10 11 12 19 11 18 10 14 10 18 18 17 18 11 11 20 13 17 9 17 18 17 13 16 14 18 20 12 8 12 16 16 21 16 16 11 10 17 15 9 20 18 15 17 11 13 9 16 12 12 12 19 17 11 13 22 17 17 15 18 11 10 16 17 14 13 22 11 14 17 15 11 10 15 9 14 12 14 9 15 21 16 7 16 14 15 7 7 10 12 8 14 14 15 22 13 5 18 15 15 16 18 12 10 19 9 11 17 18 15 14 11 10 13 9 14 23 16 11 10 19 17 17 16 16 13 10 13 14 7 14 15 12 10 22 12 10 8 9 11 13 13 11 18 9 18 13 11 15 14 16 8 14 13 21 13 17 16 11 11 16 13 15 15 12 18 9 7 14 11 14 16 20 18 14 7 19 10 21 19 19 12 21 18 16 11 12 14 18 15 15 17 15 18 15 17 7 13 17 17 9 17 14 11 6 16 13 17 13 17 13 13 11 17 11 15 15 9 14 18 17 12 12 18 10 20 12 9 14 13 10 13 13 21 20 14 22 18 11 7 12 14 23 9 13 11 20 11 13 17 14 15 17 8 15 13 13 12 14 10 13 14 16 19 9 15 16 16 17 8 15 10 13 16 18 16 15 12 15 14 14 14 8 17 13 14 12 14 13 15 14 16 14 15 20 14 14 13 15 14 12 13 14 13 8 17 13 9 20 19 19 13 12 23 13 12 16 14 12 22 13 14 15 17 11 17 6 19 19 16 12 15 15 19 13 17 12 18 15 15 13 19 20 15 16 16 11 11 13 17 12 12 16 17 17 15 17 26 10 14 13 14 11 21 14 13 19 10 15 17 14 13 13 15 14 15 18 16 18 22 12 10 25 13 8 21 14 16 11 13 13 13 16 18 7 13 8 9 10 24 19 8 
BTB PER SET COUNT: 234 22 1920 20 16 20 21 12 12 23 7 808 20235 1038 26 14 1005 13 488 19 9 186 701 23 25 26 17 28 16 11 341 34 24 19 9 1220 20 27 10 16 17 13 23 297 37 12 25 17 19 13 26 84 18 25 15 240 27 28 10 31 11 27 157 17 25 24 16 282 33 23 20 982 18 15 9 19 14 28 12 20 24 11 17 19 25 20 37 15 134 43 9 798 160 450 10 24 17 214 26 31 44 188 18 73 1028 12 24 16 300 1855 18 29 87 25 25 9 17 29 702 31 26 11 20 10 21 101 5 18 42 945 17 52 16 32 22 19 796 37 23 25 18 130 14 18 17 367 842 481 17 57 16 20 1011 15 16 36 701 32 16 1014 24 29 21 14 13 215 16 10 37 777 25 18 20 19 22 16 21 13 939 620 405 199 55 25 369 573 12 18 34 984 22 18 16 20 12 137 23 91 19 173 30 47 960 13 9 22 15 69 22 773 14 15 17 17 21 1626 23 408 629 55 22 20 24 7 14 40 22 84 12 33 13 8 11 32 17 25 49 26 25 22 732 25 29 146 20 761 13 18 18 17 44 18 21 12 16 10 14 27 16 30 16 19 5 19 17 16 22 8 187 16 17 215 11 9 16 13 13 22 18 536 16 23 982 964 21 19 12 25 43 28 22 17 11 32 7 35 20 19 14 303 14 16 9 36 15 28 27 16 90 310 25 20 13 29 1459 77 31 23 16 37 24 4285 12 29 111 21 19 23 15 12 41 34 22 20 14 39 14 19 10 25 20 28 17 330 147 20 18 18 19 128 24 20 20 25 17 34 17 24 516 13 17 32 29 30 20 32 7 21 31 20 19 167 32 21 11 220 12 27 25 1467 929 17 12 14 14 14 29 19 23 239 18 14 14 288 11 8 22 20 19 848 20 18 12 24 27 27 27 456 25 28 684 13 11 34 10 28 16 36 204 24 15 30 25 23 12 27 882 17 25 19 28 27 22 17 384 28 22 39 18 13 395 15 35 20 1415 20 12 16 37 27 693 29 20 21 64 208 24 35 13 43 14 19 15 34 37 14 4566 11 34 26 22 43 26 20 14 34 26 219 12 22 37 39 19 22 14 21 162 20 25 26 22 14 159 14 24 27 619 698 16 16 16 30 17 35 9 13 17 40 18 17 58 1012 695 1040 29 21 14 37 18 11 9 14 17 510 7 48 27 15 21 1076 34 49 125 17 17 25 21 505 16 15 21 13 22 21 19 185 11 15 13 1390 24 27 636 36 15 28 28 12 22 22 10 31 15 22 1227 24 146 20 26 278 23 22 21 30 2423 23 22 68 21 17 15 17 21 181 33 28 26 18 19 26 11 19 23 12 38 9 6 250 192 17 15 23 107 13 19 25 23 1452 14 16 23 596 615 11 16 17 418 28 161 213 27 18 20 15 13 35 19 129 12 19 12 37 26 36 29 20 18 459 16 30 21 22 21 23 18 25 606 36 164 18 9 19 19 23 313 507 30 17 17 23 88 14 32 22 76 34 13 987 1460 29 15 29 35 38 640 161 25 33 38 42 24 24 11 13 745 28 18 20 82 20 17 31 18 13 1631 21 10 183 22 20 13 22 985 19 7 103 22 18 10 11 141 168 987 19 23 33 75 18 5 207 18 1168 22 41 1628 17 30 10 619 71 23 10035 18 18 10 996 13 17 32 28 14 18 41 62 311 24 362 16 13 26 936 15 546 1943 1075 19 39 19 10 10 14 13 23 70 18 38 10 152 15 15 23 84 24 9 23 20 34 344 23 765 123 14 483 22 21 195 18 31 11 10 23 965 20 17 542 257 22 10 25 13 148 31 119 257 31 24 36 16 20 20 22 7711 23 22 477 1022 17 1473 11 2629 22 27 12 23 1451 15 7 23 32 798 17 27 14 20 390 352 20 976 362 14 20 1000 25 26 100 29 19 32 16 20 22 367 21 21 445 41 490 26 38 19 972 7 16 25 36 12 19 16 33 13 18 32 20 20 21 11 18 19 2127 18 23 15 271 24 21 540 14 23 31 103 31 13 1053 11 16 32 32 25 75 24 24 19 33 215 9 39 17 24 15 183 20 767 20 26 22 313 38 988 19 21 21 990 971 18 22 15 10 26 18 15 59 31 650 13 48 787 23 17 1198 20 14 2715 22 21 17 22 17 25 7 33 324 41 1295 2711 21 30 17 25 18 32 18 36 124 36 28 31 20 34 18 11 35 618 19 24 1561 35 24 22 30 211 16 272 16 381 18 468 21 501 48 19 19 292 69 221 33 24 18 1469 28 627 30 1226 19 14 37 28 11 48 24 802 157 21 17 26 25 30 17 35 10 15 495 507 24 8 
To predecode: 0
Predecoding something: 0
Predecode request dropped: 0
sizeofblock_0 0
sizeofblock_1 39923
sizeofblock_2 38780
sizeofblock_3 40736
sizeofblock_4 17391
sizeofblock_5 0
sizeofblock_6 0
sizeofblock_7 0
sizeofblock_8 0
Variant_0 Correct: 1588947 Incorrect: 0 Accuracy: 1
Variant_1 Correct: 2062896 Incorrect: 0 Accuracy: 1
Variant_2 Correct: 3601199 Incorrect: 0 Accuracy: 1
Variant_3 Correct: 0 Incorrect: 0 Accuracy: -nan
