
*** ChampSim Multicore Out-of-Order Simulator ***

Warmup Instructions: 50000000
Simulation Instructions: 50000000
Number of CPUs: 1
LLC sets: 2048
LLC ways: 16
Off-chip DRAM Size: 4096 MB Channels: 1 Width: 64-bit Data Rate: 6400 MT/s
CPU 0 runs ./micro_traces/srv82.trace.gz
.gz
ITLB has LRU replacement policy
DTLB has LRU replacement policy
STLB has LRU replacement policy
FDIP Prefetcher at L1I
L1I has LRU replacement policy
L1D has LRU replacement policy
Initialize SRRIP state for L2C
Initialize DRRIP state for LLC
Heartbeat_Variant_0 : 1333 0.21696 per_variant_size: 0 1333 0 0 0 0 0 0 0 
Heartbeat_Variant_1 : 2761 0.449382 per_variant_size: 0 993 1768 0 0 0 0 0 0 
Heartbeat_Variant_2 : 0 0 per_variant_size: 0 0 0 0 0 0 0 0 0 
Heartbeat_Variant_3 : 0 0 per_variant_size: 0 0 0 0 0 0 0 0 0 
Heartbeat_Variant_0_evicts 0 : 5663 1 : 34 2 : 0 3 : 0 
Heartbeat_Variant_1_evicts 0 : 30 1 : 0 2 : 0 3 : 0 
Heartbeat_Variant_2_evicts 0 : 0 1 : 0 2 : 0 3 : 0 
Heartbeat_Variant_3_evicts 0 : 0 1 : 0 2 : 0 3 : 0 
Heartbeat CPU 0 instructions: 10000000 cycles: 2797670 heartbeat IPC: 3.5744 cumulative IPC: 3.5744 (Simulation time: 0 hr 1 min 26 sec) 
Heartbeat_Variant_0 : 1379 0.224447 per_variant_size: 0 1379 0 0 0 0 0 0 0 
Heartbeat_Variant_1 : 2851 0.46403 per_variant_size: 0 987 1864 0 0 0 0 0 0 
Heartbeat_Variant_2 : 0 0 per_variant_size: 0 0 0 0 0 0 0 0 0 
Heartbeat_Variant_3 : 0 0 per_variant_size: 0 0 0 0 0 0 0 0 0 
Heartbeat_Variant_0_evicts 0 : 5591 1 : 7 2 : 0 3 : 0 
Heartbeat_Variant_1_evicts 0 : 4 1 : 0 2 : 0 3 : 0 
Heartbeat_Variant_2_evicts 0 : 0 1 : 0 2 : 0 3 : 0 
Heartbeat_Variant_3_evicts 0 : 0 1 : 0 2 : 0 3 : 0 
Heartbeat CPU 0 instructions: 20000002 cycles: 5594294 heartbeat IPC: 3.57574 cumulative IPC: 3.57507 (Simulation time: 0 hr 2 min 55 sec) 
Heartbeat_Variant_0 : 1380 0.224609 per_variant_size: 0 1380 0 0 0 0 0 0 0 
Heartbeat_Variant_1 : 2853 0.464355 per_variant_size: 0 985 1868 0 0 0 0 0 0 
Heartbeat_Variant_2 : 0 0 per_variant_size: 0 0 0 0 0 0 0 0 0 
Heartbeat_Variant_3 : 0 0 per_variant_size: 0 0 0 0 0 0 0 0 0 
Heartbeat_Variant_0_evicts 0 : 5537 1 : 1 2 : 0 3 : 0 
Heartbeat_Variant_1_evicts 0 : 1 1 : 0 2 : 0 3 : 0 
Heartbeat_Variant_2_evicts 0 : 0 1 : 0 2 : 0 3 : 0 
Heartbeat_Variant_3_evicts 0 : 0 1 : 0 2 : 0 3 : 0 
Heartbeat CPU 0 instructions: 30000002 cycles: 8390796 heartbeat IPC: 3.5759 cumulative IPC: 3.57535 (Simulation time: 0 hr 4 min 23 sec) 
Heartbeat_Variant_0 : 1380 0.224609 per_variant_size: 0 1380 0 0 0 0 0 0 0 
Heartbeat_Variant_1 : 2856 0.464844 per_variant_size: 0 982 1874 0 0 0 0 0 0 
Heartbeat_Variant_2 : 0 0 per_variant_size: 0 0 0 0 0 0 0 0 0 
Heartbeat_Variant_3 : 0 0 per_variant_size: 0 0 0 0 0 0 0 0 0 
Heartbeat_Variant_0_evicts 0 : 5668 1 : 0 2 : 0 3 : 0 
Heartbeat_Variant_1_evicts 0 : 0 1 : 0 2 : 0 3 : 0 
Heartbeat_Variant_2_evicts 0 : 0 1 : 0 2 : 0 3 : 0 
Heartbeat_Variant_3_evicts 0 : 0 1 : 0 2 : 0 3 : 0 
Heartbeat CPU 0 instructions: 40000000 cycles: 11187871 heartbeat IPC: 3.57516 cumulative IPC: 3.5753 (Simulation time: 0 hr 5 min 51 sec) 
Heartbeat_Variant_0 : 1397 0.227376 per_variant_size: 0 1397 0 0 0 0 0 0 0 
Heartbeat_Variant_1 : 2914 0.474284 per_variant_size: 0 992 1922 0 0 0 0 0 0 
Heartbeat_Variant_2 : 0 0 per_variant_size: 0 0 0 0 0 0 0 0 0 
Heartbeat_Variant_3 : 0 0 per_variant_size: 0 0 0 0 0 0 0 0 0 
Heartbeat_Variant_0_evicts 0 : 5451 1 : 1 2 : 0 3 : 0 
Heartbeat_Variant_1_evicts 0 : 1 1 : 0 2 : 0 3 : 0 
Heartbeat_Variant_2_evicts 0 : 0 1 : 0 2 : 0 3 : 0 
Heartbeat_Variant_3_evicts 0 : 0 1 : 0 2 : 0 3 : 0 
Heartbeat CPU 0 instructions: 50000000 cycles: 13984225 heartbeat IPC: 3.57609 cumulative IPC: 3.57546 (Simulation time: 0 hr 7 min 20 sec) 

Warmup complete CPU 0 instructions: 50000004 cycles: 13984226 (Simulation time: 0 hr 7 min 20 sec) 

Cycle: 20000000 FTQ IN: 58390602 FTQ occupancy: 20.5667 DECODE IN: 58390487 DECODE occupancy: 53.4453 ROB IN: 58390427 ROB occupancy: 318.794 ROB OUT: 58390075
Heartbeat_Variant_0 : 1397 0.227376 per_variant_size: 0 1397 0 0 0 0 0 0 0 
Heartbeat_Variant_1 : 2914 0.474284 per_variant_size: 0 1003 1911 0 0 0 0 0 0 
Heartbeat_Variant_2 : 0 0 per_variant_size: 0 0 0 0 0 0 0 0 0 
Heartbeat_Variant_3 : 0 0 per_variant_size: 0 0 0 0 0 0 0 0 0 
Heartbeat_Variant_0_evicts 0 : 5599 1 : 0 2 : 0 3 : 0 
Heartbeat_Variant_1_evicts 0 : 0 1 : 0 2 : 0 3 : 0 
Heartbeat_Variant_2_evicts 0 : 0 1 : 0 2 : 0 3 : 0 
Heartbeat_Variant_3_evicts 0 : 0 1 : 0 2 : 0 3 : 0 
Heartbeat CPU 0 instructions: 60000000 cycles: 21142725 heartbeat IPC: 1.39694 cumulative IPC: 1.39694 (Simulation time: 0 hr 9 min 3 sec) 
Heartbeat_Variant_0 : 1397 0.227376 per_variant_size: 0 1397 0 0 0 0 0 0 0 
Heartbeat_Variant_1 : 2924 0.475911 per_variant_size: 0 1004 1920 0 0 0 0 0 0 
Heartbeat_Variant_2 : 0 0 per_variant_size: 0 0 0 0 0 0 0 0 0 
Heartbeat_Variant_3 : 0 0 per_variant_size: 0 0 0 0 0 0 0 0 0 
Heartbeat_Variant_0_evicts 0 : 5690 1 : 1 2 : 0 3 : 0 
Heartbeat_Variant_1_evicts 0 : 2 1 : 0 2 : 0 3 : 0 
Heartbeat_Variant_2_evicts 0 : 0 1 : 0 2 : 0 3 : 0 
Heartbeat_Variant_3_evicts 0 : 0 1 : 0 2 : 0 3 : 0 
Heartbeat CPU 0 instructions: 70000000 cycles: 28363108 heartbeat IPC: 1.38497 cumulative IPC: 1.39093 (Simulation time: 0 hr 10 min 46 sec) 
Cycle: 30000000 FTQ IN: 13900372 FTQ occupancy: 14.9765 DECODE IN: 13900487 DECODE occupancy: 37.9437 ROB IN: 13900547 ROB occupancy: 248.574 ROB OUT: 13900846
Heartbeat_Variant_0 : 1397 0.227376 per_variant_size: 0 1397 0 0 0 0 0 0 0 
Heartbeat_Variant_1 : 2924 0.475911 per_variant_size: 0 996 1928 0 0 0 0 0 0 
Heartbeat_Variant_2 : 0 0 per_variant_size: 0 0 0 0 0 0 0 0 0 
Heartbeat_Variant_3 : 0 0 per_variant_size: 0 0 0 0 0 0 0 0 0 
Heartbeat_Variant_0_evicts 0 : 5600 1 : 0 2 : 0 3 : 0 
Heartbeat_Variant_1_evicts 0 : 0 1 : 0 2 : 0 3 : 0 
Heartbeat_Variant_2_evicts 0 : 0 1 : 0 2 : 0 3 : 0 
Heartbeat_Variant_3_evicts 0 : 0 1 : 0 2 : 0 3 : 0 
Heartbeat CPU 0 instructions: 80000000 cycles: 35502780 heartbeat IPC: 1.40062 cumulative IPC: 1.39415 (Simulation time: 0 hr 12 min 30 sec) 
Cycle: 40000000 FTQ IN: 13900919 FTQ occupancy: 15.1028 DECODE IN: 13900864 DECODE occupancy: 38.3372 ROB IN: 13900804 ROB occupancy: 249.732 ROB OUT: 13900616
Heartbeat_Variant_0 : 1398 0.227539 per_variant_size: 0 1398 0 0 0 0 0 0 0 
Heartbeat_Variant_1 : 2936 0.477865 per_variant_size: 0 999 1937 0 0 0 0 0 0 
Heartbeat_Variant_2 : 0 0 per_variant_size: 0 0 0 0 0 0 0 0 0 
Heartbeat_Variant_3 : 0 0 per_variant_size: 0 0 0 0 0 0 0 0 0 
Heartbeat_Variant_0_evicts 0 : 5648 1 : 0 2 : 0 3 : 0 
Heartbeat_Variant_1_evicts 0 : 0 1 : 0 2 : 0 3 : 0 
Heartbeat_Variant_2_evicts 0 : 0 1 : 0 2 : 0 3 : 0 
Heartbeat_Variant_3_evicts 0 : 0 1 : 0 2 : 0 3 : 0 
Heartbeat CPU 0 instructions: 90000000 cycles: 42732779 heartbeat IPC: 1.38313 cumulative IPC: 1.39137 (Simulation time: 0 hr 14 min 19 sec) 
Heartbeat_Variant_0 : 1398 0.227539 per_variant_size: 0 1398 0 0 0 0 0 0 0 
Heartbeat_Variant_1 : 2936 0.477865 per_variant_size: 0 998 1938 0 0 0 0 0 0 
Heartbeat_Variant_2 : 0 0 per_variant_size: 0 0 0 0 0 0 0 0 0 
Heartbeat_Variant_3 : 0 0 per_variant_size: 0 0 0 0 0 0 0 0 0 
Heartbeat_Variant_0_evicts 0 : 5612 1 : 0 2 : 0 3 : 0 
Heartbeat_Variant_1_evicts 0 : 0 1 : 0 2 : 0 3 : 0 
Heartbeat_Variant_2_evicts 0 : 0 1 : 0 2 : 0 3 : 0 
Heartbeat_Variant_3_evicts 0 : 0 1 : 0 2 : 0 3 : 0 
Heartbeat CPU 0 instructions: 100000000 cycles: 49873260 heartbeat IPC: 1.40047 cumulative IPC: 1.39318 (Simulation time: 0 hr 15 min 59 sec) 
Finished CPU 0 instructions: 50000003 cycles: 35889040 cumulative IPC: 1.39318 (Simulation time: 0 hr 15 min 59 sec) 

ChampSim completed all CPUs

Region of Interest Statistics

CPU 0 cumulative IPC: 1.39318 instructions: 50000003 cycles: 35889040
 Fetch stage stalled: 45.6947  Sim cycles: 35889040 fetch stall cycle: 16399402
 Empty decode stage: 25.2707  Sim cycles: 35889040 fetch stall cycle: 9069401
ITLB TOTAL     ACCESS:    5838395  HIT:    5347726  MISS:     490669  HIT %:    91.5958  MISS %:    8.40418   MPKI: 9.81338
ITLB LOAD TRANSLATION INSTRUCTION	ACCESS:    5701316  HIT:    5210647  MISS:     490669  HIT %:    91.3938  MISS %:    8.60624  MPKI: 9.81338
ITLB TRANSLATION FROM L1D PREFETCHER INSTRUCTION	ACCESS:     137079  HIT:     137079  MISS:          0  HIT %:        100  MISS %:          0  MPKI: 0

ITLB AVERAGE MISS LATENCY: 9.05649 cycles
ITLB RQ	ACCESS:    7927120	FORWARD:          0	MERGED:    1611848	TO_CACHE:    6315272

DTLB TOTAL     ACCESS:    8952545  HIT:    8482837  MISS:     469708  HIT %:    94.7534  MISS %:    5.24664   MPKI: 9.39416
DTLB LOAD TRANSLATION DATA	ACCESS:    8952545  HIT:    8482837  MISS:     469708  HIT %:    94.7534  MISS %:    5.24664  MPKI: 9.39416

DTLB AVERAGE MISS LATENCY: 9.31876 cycles
DTLB RQ	ACCESS:   13323929	FORWARD:          0	MERGED:    4335165	TO_CACHE:    8988764

STLB TOTAL     ACCESS:    1211228  HIT:    1209185  MISS:       2043  HIT %:    99.8313  MISS %:   0.168672   MPKI: 0.04086
STLB LOAD TRANSLATION INSTRUCTION	ACCESS:     490669  HIT:     490419  MISS:        250  HIT %:     99.949  MISS %:  0.0509508  MPKI: 0.005
STLB LOAD TRANSLATION DATA	ACCESS:     469708  HIT:     467938  MISS:       1770  HIT %:    99.6232  MISS %:    0.37683  MPKI: 0.0354
STLB TRANSLATION FROM L1D PREFETCHER DATA	ACCESS:     250851  HIT:     250828  MISS:         23  HIT %:    99.9908  MISS %: 0.00916879  MPKI: 0.00046

STLB AVERAGE MISS LATENCY: 72.1596 cycles
STLB RQ	ACCESS:    1333422	FORWARD:          0	MERGED:     122145	TO_CACHE:    1211277

STLB Hit, L1D data hit: 0
STLB Hit, L2C data hit: 0
STLB Hit, LLC data hit: 0
STLB Hit, LLC data miss: 0
STLB STLB hints to L2: 0
L1D TOTAL     ACCESS:   13077083  HIT:   11970989  MISS:    1106094  HIT %:    91.5417  MISS %:    8.45826   MPKI: 22.1219
L1D LOAD DATA	ACCESS:    6549449  HIT:    5821373  MISS:     728076  HIT %:    88.8834  MISS %:    11.1166  MPKI: 14.5615
L1D RFO DATA	ACCESS:    6194928  HIT:    5911074  MISS:     283854  HIT %:     95.418  MISS %:    4.58204  MPKI: 5.67708
L1D PREFETCH DATA	ACCESS:     332706  HIT:     238542  MISS:      94164  HIT %:    71.6975  MISS %:    28.3025  MPKI: 1.88328

L1D PREFETCH  REQUESTED:     746404  ISSUED:     746404  USEFUL:      33310  USELESS:      69071
L1D USEFUL LOAD PREFETCHES:      33310 PREFETCH ISSUED TO LOWER LEVEL:     102462  ACCURACY: 32.5096
 TIMELY PREFETCHES:      33310 LATE PREFETCHES: 8223 DROPPED PREFETCHES: 12
L1D AVERAGE MISS LATENCY: 240204 cycles
L1D RQ	ACCESS:   10685298	FORWARD:          0	MERGED:    3937388	TO_CACHE:    6584570
L1D WQ	ACCESS:    6936838	FORWARD:     163658	MERGED:     197479	TO_CACHE:    6739359
L1D PQ	ACCESS:     373361	FORWARD:          0	MERGED:          0	TO_CACHE:     373043

L1D UNIQUE REGIONS ACCESSED: 0
L1D REGIONS CONFLICTS: 0
L1D Cross Page Prefetch Requests: 7107
L1D Same Page Prefetch Requests: 751553
L1D ROI Sum of L1D PQ occupancy: 4732224
L1D PREFETCHES PUSHED FROM L2C: 0
L1I TOTAL     ACCESS:    7115117  HIT:    4367474  MISS:    2747643  HIT %:     61.383  MISS %:     38.617   MPKI: 54.9529
L1I LOAD INSTRUCTION	ACCESS:    6447560  HIT:    3699917  MISS:    2747643  HIT %:    57.3848  MISS %:    42.6152  MPKI: 54.9529
L1I PREFETCH INSTRUCTION	ACCESS:     667557  HIT:     667557  MISS:          0  HIT %:        100  MISS %:          0  MPKI: 0

L1I PREFETCH  REQUESTED:    1618471  ISSUED:    1618471  USEFUL:          0  USELESS:          0
L1I USEFUL LOAD PREFETCHES:          0 PREFETCH ISSUED TO LOWER LEVEL:          0  ACCURACY: -nan
 TIMELY PREFETCHES:          0 LATE PREFETCHES: 0 DROPPED PREFETCHES: 0
L1I AVERAGE MISS LATENCY: 17.6864 cycles
L1I RQ	ACCESS:    9566590	FORWARD:          0	MERGED:    2822170	TO_CACHE:    6744420
L1I PQ	ACCESS:    1618471	FORWARD:          0	MERGED:     435771	TO_CACHE:    1182700

L1BTB TOTAL     ACCESS:    5672616  HIT:    2059748  MISS:    3612868  HIT %:    36.3104  MISS %:    63.6896   MPKI: 72.2574
L1BTB BRANCH_DIRECT_JUMP	ACCESS:     549908 HIT:     146840 MISS:     403068 AVERAGE STALL: 58.2191 AVERAGE FETCH STALL: 15.8519 AVERAGE FETCH QUEUE STALL: 18.7032 AVERAGE DECODE STALL: 22.734 AVERAGE EXECUTE STALL: 2.52799e+15
L1BTB BRANCH_INDIRECT	ACCESS:     183773 HIT:      66656 MISS:     117117 AVERAGE STALL: 111.015 AVERAGE FETCH STALL: 10.749 AVERAGE FETCH QUEUE STALL: 21.5881 AVERAGE DECODE STALL: 13.7165 AVERAGE EXECUTE STALL: 64.0016
L1BTB BRANCH_CONDITIONAL	ACCESS:    2717909 HIT:    1429382 MISS:    1288527 AVERAGE STALL: 72.9932 AVERAGE FETCH STALL: 22.319 AVERAGE FETCH QUEUE STALL: 30.5488 AVERAGE DECODE STALL: 19.3168 AVERAGE EXECUTE STALL: 3.66662e+15
L1BTB BRANCH_DIRECT_CALL	ACCESS:     939715 HIT:     105739 MISS:     833976 AVERAGE STALL: 85.7681 AVERAGE FETCH STALL: 20.9661 AVERAGE FETCH QUEUE STALL: 42.1572 AVERAGE DECODE STALL: 22.0713 AVERAGE EXECUTE STALL: 2.08674e+16
L1BTB BRANCH_INDIRECT_CALL	ACCESS:     170793 HIT:      21000 MISS:     149793 AVERAGE STALL: 142.216 AVERAGE FETCH STALL: 12.6588 AVERAGE FETCH QUEUE STALL: 18.3872 AVERAGE DECODE STALL: 12.708 AVERAGE EXECUTE STALL: 97.9744
L1BTB BRANCH_RETURN	ACCESS:    1110518 HIT:     290131 MISS:     820387 AVERAGE STALL: 50.5312 AVERAGE FETCH STALL: 17.0883 AVERAGE FETCH QUEUE STALL: 5.6234 AVERAGE DECODE STALL: 6.09389 AVERAGE EXECUTE STALL: 4.38134e+14
L1BTB BRANCH_OTHER ACCESS:          0 HIT:          0 MISS:          0 AVERAGE STALL: -nan AVERAGE FETCH STALL: -nan AVERAGE FETCH QUEUE STALL: -nan AVERAGE DECODE STALL: -nan AVERAGE EXECUTE STALL: -nan
L1BTB TOTAL ROB OCCUPANCY AT BTB MISS: 2.59388

L2BTB TOTAL     ACCESS:    3587360  HIT:    3524923  MISS:      62437  HIT %:    98.2595  MISS %:    1.74047   MPKI: 1.24874
L2BTB BRANCH_DIRECT_JUMP	ACCESS:     398818 HIT:     395769 MISS:       3049 AVERAGE STALL: 58.2191 AVERAGE FETCH STALL: 15.8519 AVERAGE FETCH QUEUE STALL: 18.7032 AVERAGE DECODE STALL: 22.734 AVERAGE EXECUTE STALL: 2.52799e+15
L2BTB BRANCH_INDIRECT	ACCESS:     106898 HIT:     104309 MISS:       2589 AVERAGE STALL: 111.015 AVERAGE FETCH STALL: 10.749 AVERAGE FETCH QUEUE STALL: 21.5881 AVERAGE DECODE STALL: 13.7165 AVERAGE EXECUTE STALL: 64.0016
L2BTB BRANCH_CONDITIONAL	ACCESS:    1288527 HIT:    1283484 MISS:       5043 AVERAGE STALL: 72.9932 AVERAGE FETCH STALL: 22.319 AVERAGE FETCH QUEUE STALL: 30.5488 AVERAGE DECODE STALL: 19.3168 AVERAGE EXECUTE STALL: 3.66662e+15
L2BTB BRANCH_DIRECT_CALL	ACCESS:     833976 HIT:     833091 MISS:        885 AVERAGE STALL: 85.7681 AVERAGE FETCH STALL: 20.9661 AVERAGE FETCH QUEUE STALL: 42.1572 AVERAGE DECODE STALL: 22.0713 AVERAGE EXECUTE STALL: 2.08674e+16
L2BTB BRANCH_INDIRECT_CALL	ACCESS:     140157 HIT:     129992 MISS:      10165 AVERAGE STALL: 142.216 AVERAGE FETCH STALL: 12.6588 AVERAGE FETCH QUEUE STALL: 18.3872 AVERAGE DECODE STALL: 12.708 AVERAGE EXECUTE STALL: 97.9744
L2BTB BRANCH_RETURN	ACCESS:     818984 HIT:     778278 MISS:      40706 AVERAGE STALL: 50.5312 AVERAGE FETCH STALL: 17.0883 AVERAGE FETCH QUEUE STALL: 5.6234 AVERAGE DECODE STALL: 6.09389 AVERAGE EXECUTE STALL: 4.38134e+14
L2BTB BRANCH_OTHER ACCESS:          0 HIT:          0 MISS:          0 AVERAGE STALL: -nan AVERAGE FETCH STALL: -nan AVERAGE FETCH QUEUE STALL: -nan AVERAGE DECODE STALL: -nan AVERAGE EXECUTE STALL: -nan
L2BTB TOTAL ROB OCCUPANCY AT BTB MISS: 150.093

L2C TOTAL     ACCESS:    4460012  HIT:    3926238  MISS:     533774  HIT %:     88.032  MISS %:     11.968   MPKI: 10.6755
L2C LOAD INSTRUCTION	ACCESS:    2747642  HIT:    2450903  MISS:     296739  HIT %:    89.2002  MISS %:    10.7998  MPKI: 5.93478
L2C LOAD TRANSLATION INSTRUCTION	ACCESS:        281  HIT:         69  MISS:        212  HIT %:    24.5552  MISS %:    75.4448  MPKI: 0.00424
L2C LOAD DATA	ACCESS:     719819  HIT:     638508  MISS:      81311  HIT %:     88.704  MISS %:     11.296  MPKI: 1.62622
L2C RFO DATA	ACCESS:     283759  HIT:     223709  MISS:      60050  HIT %:    78.8377  MISS %:    21.1623  MPKI: 1.201
L2C PREFETCH DATA	ACCESS:     189814  HIT:     113488  MISS:      76326  HIT %:    59.7891  MISS %:    40.2109  MPKI: 1.52652
L2C WRITEBACK DATA	ACCESS:     516802  HIT:     499016  MISS:      17786  HIT %:    96.5584  MISS %:    3.44155  MPKI: 0.35572
L2C LOAD TRANSLATION DATA	ACCESS:       1847  HIT:        516  MISS:       1331  HIT %:    27.9372  MISS %:    72.0628  MPKI: 0.02662
L2C TRANSLATION FROM L1D PREFETCHER DATA	ACCESS:         48  HIT:         29  MISS:         19  HIT %:    60.4167  MISS %:    39.5833  MPKI: 0.00038

L2C PREFETCH  REQUESTED:      95788  ISSUED:      95788  USEFUL:       9699  USELESS:      67129
L2C USEFUL LOAD PREFETCHES:       9699 PREFETCH ISSUED TO LOWER LEVEL:      76881  ACCURACY: 12.6156
 TIMELY PREFETCHES:       9699 LATE PREFETCHES: 555 DROPPED PREFETCHES: 0
L2C AVERAGE MISS LATENCY: 37.3577 cycles
L2C RQ	ACCESS:    3753450	FORWARD:          0	MERGED:          0	TO_CACHE:    3753396
L2C WQ	ACCESS:     516802	FORWARD:         54	MERGED:          0	TO_CACHE:     516802
L2C PQ	ACCESS:     198250	FORWARD:          0	MERGED:       3821	TO_CACHE:     194429

L2C Dense regions hint from L2: 0
PSCL5 TOTAL     ACCESS:       4114  HIT:       2057  MISS:       2057  HIT %:         50  MISS %:         50   MPKI: 0.04114
PSCL5 LOAD TRANSLATION INSTRUCTION	ACCESS:       4018  HIT:       2009  MISS:       2009  HIT %:         50  MISS %:         50  MPKI: 0.04018
PSCL5 TRANSLATION FROM L1D PREFETCHER INSTRUCTION	ACCESS:         96  HIT:         48  MISS:         48  HIT %:         50  MISS %:         50  MPKI: 0.00096


PSCL4 TOTAL     ACCESS:       3496  HIT:       1743  MISS:       1753  HIT %:     49.857  MISS %:     50.143   MPKI: 0.03506
PSCL4 LOAD TRANSLATION INSTRUCTION	ACCESS:       1739  HIT:       1703  MISS:         36  HIT %:    97.9298  MISS %:    2.07016  MPKI: 0.00072
PSCL4 TRANSLATION FROM L1D PREFETCHER INSTRUCTION	ACCESS:         40  HIT:         40  MISS:          0  HIT %:        100  MISS %:          0  MPKI: 0
PSCL4 LOAD TRANSLATION DATA	ACCESS:       1677  HIT:          0  MISS:       1677  HIT %:          0  MISS %:        100  MPKI: 0.03354
PSCL4 TRANSLATION FROM L1D PREFETCHER DATA	ACCESS:         40  HIT:          0  MISS:         40  HIT %:          0  MISS %:        100  MPKI: 0.0008


PSCL3 TOTAL     ACCESS:       3526  HIT:       1758  MISS:       1768  HIT %:    49.8582  MISS %:    50.1418   MPKI: 0.03536
PSCL3 LOAD TRANSLATION INSTRUCTION	ACCESS:       1754  HIT:       1718  MISS:         36  HIT %:    97.9475  MISS %:    2.05245  MPKI: 0.00072
PSCL3 TRANSLATION FROM L1D PREFETCHER INSTRUCTION	ACCESS:         40  HIT:         40  MISS:          0  HIT %:        100  MISS %:          0  MPKI: 0
PSCL3 LOAD TRANSLATION DATA	ACCESS:       1692  HIT:          0  MISS:       1692  HIT %:          0  MISS %:        100  MPKI: 0.03384
PSCL3 TRANSLATION FROM L1D PREFETCHER DATA	ACCESS:         40  HIT:          0  MISS:         40  HIT %:          0  MISS %:        100  MPKI: 0.0008


PSCL2 TOTAL     ACCESS:       4015  HIT:       1958  MISS:       2057  HIT %:    48.7671  MISS %:    51.2329   MPKI: 0.04114
PSCL2 LOAD TRANSLATION INSTRUCTION	ACCESS:       2159  HIT:       1910  MISS:        249  HIT %:    88.4669  MISS %:    11.5331  MPKI: 0.00498
PSCL2 TRANSLATION FROM L1D PREFETCHER INSTRUCTION	ACCESS:         48  HIT:         48  MISS:          0  HIT %:        100  MISS %:          0  MPKI: 0
PSCL2 LOAD TRANSLATION DATA	ACCESS:       1760  HIT:          0  MISS:       1760  HIT %:          0  MISS %:        100  MPKI: 0.0352
PSCL2 TRANSLATION FROM L1D PREFETCHER DATA	ACCESS:         48  HIT:          0  MISS:         48  HIT %:          0  MISS %:        100  MPKI: 0.00096


LLC TOTAL     ACCESS:     601645  HIT:     573474  MISS:      28171  HIT %:    95.3177  MISS %:    4.68233   MPKI: 0.56342
LLC LOAD INSTRUCTION	ACCESS:     296739  HIT:     295890  MISS:        849  HIT %:    99.7139  MISS %:    0.28611  MPKI: 0.01698
LLC LOAD TRANSLATION INSTRUCTION	ACCESS:        212  HIT:        182  MISS:         30  HIT %:    85.8491  MISS %:    14.1509  MPKI: 0.0006
LLC LOAD DATA	ACCESS:      80767  HIT:      77412  MISS:       3355  HIT %:    95.8461  MISS %:    4.15392  MPKI: 0.0671
LLC RFO DATA	ACCESS:      60036  HIT:      46402  MISS:      13634  HIT %:    77.2903  MISS %:    22.7097  MPKI: 0.27268
LLC PREFETCH DATA	ACCESS:      76881  HIT:      66980  MISS:       9901  HIT %:    87.1217  MISS %:    12.8783  MPKI: 0.19802
LLC WRITEBACK DATA	ACCESS:      85660  HIT:      85328  MISS:        332  HIT %:    99.6124  MISS %:   0.387579  MPKI: 0.00664
LLC LOAD TRANSLATION DATA	ACCESS:       1331  HIT:       1261  MISS:         70  HIT %:    94.7408  MISS %:     5.2592  MPKI: 0.0014
LLC TRANSLATION FROM L1D PREFETCHER DATA	ACCESS:         19  HIT:         19  MISS:          0  HIT %:        100  MISS %:          0  MPKI: 0

LLC AVERAGE MISS LATENCY: 157.002 cycles
LLC RQ	ACCESS:     439107	FORWARD:          0	MERGED:          0	TO_CACHE:     439104
LLC WQ	ACCESS:      85660	FORWARD:          3	MERGED:          0	TO_CACHE:      85660
LLC PQ	ACCESS:      76881	FORWARD:          0	MERGED:          0	TO_CACHE:      76881

LLC Dense regions hint to LLC: 0

RAW hits: 1949585
Loads Generated: 12634884
Loads sent to L1D: 10685298
Stores Generated: 6936813
Stores sent to L1D: 6936838
Major fault: 0 Minor fault: 2579
Allocated PAGES: 2579

stream: 
stream:times selected: 1193635
stream:pref_filled: 121721
stream:pref_useful: 23706
stream:pref_late: 6775
stream:misses: 8197
stream:misses_by_poll: 0

CS: 
CS:times selected: 178891
CS:pref_filled: 59707
CS:pref_useful: 36261
CS:pref_late: 7337
CS:misses: 16202
CS:misses_by_poll: 6

CPLX: 
CPLX:times selected: 1013480
CPLX:pref_filled: 19375
CPLX:pref_useful: 4361
CPLX:pref_late: 3169
CPLX:misses: 92573
CPLX:misses_by_poll: 1

NL_L1: 
NL:times selected: 21444
NL:pref_filled: 621
NL:pref_useful: 249
NL:pref_late: 374
NL:misses: 1684
NL:misses_by_poll: 0

total selections: 2407450
total_filled: 94164
total_useful: 33310
total_late: 18999
total_polluted: 7
total_misses_after_warmup: 763194
conflicts: 5507700

test: 120414

DRAM Statistics
 CHANNEL 0
 RQ ROW_BUFFER_HIT:      10198  ROW_BUFFER_MISS:      17631
 DBUS_CONGESTED:          8
 WQ ROW_BUFFER_HIT:       1318  ROW_BUFFER_MISS:      12200  FULL:          0

 AVG_CONGESTED_CYCLE: 4

CPU 0 Branch Prediction Accuracy: 99.8211% MPKI: 0.32714 Average ROB Occupancy at Mispredict: 198.882
Branch types
NOT_BRANCH: 40856049 81.7121%
BRANCH_DIRECT_JUMP: 549908 1.09982%
BRANCH_INDIRECT: 183773 0.367546%
BRANCH_CONDITIONAL: 6188804 12.3776%
BRANCH_DIRECT_CALL: 939715 1.87943%
BRANCH_INDIRECT_CALL: 170793 0.341586%
BRANCH_RETURN: 1110518 2.22104%
BRANCH_OTHER: 0 0%

DRAM PAGES: 1048576
Allocated PAGES: 2579
Average_ROB_Occupancy: 250.573
Average_Decode_Occupancy: 38.1672
Average_FTQ_Occupancy: 15.0129
Indirect max targets: 14 Average targets: 1.15017
Branch_type:  BRANCH_DIRECT_JUMP:  Count Percentage: 3.32786 6.69666 3.79685 7.96304 2.23298 6.01588 1.27011 68.6966 
Branch_type:  BRANCH_INDIRECT:  Count Percentage: 6.17441 3.43917 8.16997 9.6987 3.33358 2.79908 3.06183 63.3233 
Branch_type:  BRANCH_CONDITIONAL:  Count Percentage: 21.9558 2.44348 1.50196 4.35999 1.6661 3.6369 1.04507 63.3907 
Branch_type:  BRANCH_DIRECT_CALL:  Count Percentage: 0.38978 1.25354 0.766385 4.06738 2.11736 2.88518 1.06814 87.4522 
Branch_type:  BRANCH_INDIRECT_CALL:  Count Percentage: 9.52462 0 2.98531 0 0 2.42421 3.27608 81.7898 
Branch_type:  BRANCH_RETURN:  Count Percentage: 3.72964 1.37935 1.03977 4.73935 4.4031 3.8833 1.45137 79.3741 
Branch_type:  BRANCH_DIRECT_JUMP:  Total Count: 36501 73451 41645 87341 24492 65984 13931 753485 
Branch_type:  BRANCH_INDIRECT:  Total Count: 22630 12605 29944 35547 12218 10259 11222 232088 
Branch_type:  BRANCH_CONDITIONAL:  Total Count: 2714179 302063 185672 538982 205963 449594 129191 7836359 
Branch_type:  BRANCH_DIRECT_CALL:  Total Count: 7337 23596 14426 76562 39856 54309 20106 1646151 
Branch_type:  BRANCH_INDIRECT_CALL:  Total Count: 32626 0 10226 0 0 8304 11222 280166 
Branch_type:  BRANCH_RETURN:  Total Count: 83010 30700 23142 105483 97999 86430 32303 1766617 
Number of unique branch instructions: 9828
Upper 32 bits: 
aaaa
ffff
ffff0000
Unique upper 32 bits: 3
Unique upper 36 bits: 3
Unique upper 40 bits: 5
Unique upper 44 bits: 32
Unique upper 48 bits: 153
Variant_0 : 1398 0.227539
Variant_1 : 2936 0.477865
Variant_2 : 0 0
Variant_3 : 0 0
Offset_3 4041
Offset_4 242
Offset_5 448
Offset_6 499
Offset_7 578
Offset_8 507
Offset_9 464
Offset_10 377
Offset_11 313
Offset_12 283
Offset_13 199
Offset_14 228
Offset_15 189
Offset_16 219
Offset_17 142
Offset_18 126
Offset_19 235
Offset_20 139
Offset_21 235
Offset_22 389
Offset_23 241
Offset_24 324
Offset_25 88
Offset_47 80
Offset_64 2
decode_dispatch_called: 26349222 73.4186
Dispatch_width: 0 14210577 53.9317 39.5959
Dispatch_width: 1 1027460 3.89939 2.86288
Dispatch_width: 2 850474 3.2277 2.36973
Dispatch_width: 3 491492 1.8653 1.36948
Dispatch_width: 4 6357114 24.1264 17.7132
Dispatch_width: 5 104249 0.395644 0.290476
Dispatch_width: 6 3307856 12.5539 9.2169
Empty_decode_cycles: 9539818 26.5814
ROB_full_cycles: 10045100 27.9893
Starvation_cycles_per_kilo_instr: 225.361
Starvation_cycles_per_kilo_instr_3: 160.747
Starvation_cycles_per_kilo_instr_0: 137.053
Branch_type_1  (3,1)  (4,7)  (5,36)  (6,69)  (7,114)  (8,127)  (9,123)  (10,98)  (11,70)  (12,51)  (13,5)  (14,2)  (15,3)  (16,4)  (18,1)  (19,4)  (20,2)  (21,1)  (22,3)  (23,2)  (24,10)  (25,12) 
Branch_type_2  (3,1)  (5,1)  (8,3)  (9,3)  (12,1)  (13,1)  (14,1)  (16,3)  (17,2)  (20,2)  (21,2)  (23,5)  (24,1)  (47,36) 
Branch_type_3  (3,4039)  (4,235)  (5,407)  (6,414)  (7,433)  (8,317)  (9,255)  (10,152)  (11,128)  (12,58)  (13,4)  (64,2) 
Branch_type_4  (6,4)  (7,8)  (8,26)  (9,51)  (10,60)  (11,59)  (12,95)  (13,86)  (14,101)  (15,89)  (16,98)  (17,63)  (18,57)  (19,114)  (20,72)  (21,124)  (22,207)  (23,136)  (24,186)  (25,72) 
Branch_type_5  (8,2)  (9,1)  (10,3)  (11,5)  (12,3)  (13,14)  (14,16)  (15,11)  (16,20)  (17,11)  (18,16)  (19,12)  (20,10)  (21,13)  (22,42)  (23,26)  (24,36) 
Branch_type_6  (5,4)  (6,12)  (7,23)  (8,32)  (9,31)  (10,64)  (11,51)  (12,75)  (13,89)  (14,108)  (15,86)  (16,94)  (17,66)  (18,52)  (19,105)  (20,53)  (21,95)  (22,137)  (23,72)  (24,91)  (25,4)  (47,44) 
Unique trigger count: 
Variant_0_evicts_0 : 0
Variant_0_evicts_1 : 0
Variant_0_evicts_2 : 0
Variant_0_evicts_3 : 0
Variant_1_evicts_0 : 0
Variant_1_evicts_1 : 0
Variant_1_evicts_2 : 0
Variant_1_evicts_3 : 0
Variant_2_evicts_0 : 0
Variant_2_evicts_1 : 0
Variant_2_evicts_2 : 0
Variant_2_evicts_3 : 0
Variant_3_evicts_0 : 0
Variant_3_evicts_1 : 0
Variant_3_evicts_2 : 0
Variant_3_evicts_3 : 0
BTB PER SET UNIQUE ADDR: 7 3 4 6 6 4 6 4 4 9 7 6 5 4 6 7 7 6 6 4 2 4 4 5 7 4 2 6 3 6 6 7 6 4 3 5 5 4 4 5 5 4 5 5 2 4 5 7 7 4 4 3 4 4 6 5 6 5 5 6 4 4 4 5 4 6 5 5 7 4 5 4 4 4 4 5 5 4 5 6 6 5 8 6 6 6 3 4 5 5 3 4 4 6 3 6 9 6 5 5 6 5 6 5 6 6 5 4 5 6 4 2 6 3 5 6 4 4 4 5 7 5 5 6 8 7 8 3 7 4 6 5 7 4 6 5 5 3 5 5 5 5 5 5 5 5 6 4 6 7 7 5 3 6 7 4 5 7 3 5 7 3 4 4 3 6 4 4 6 6 6 6 6 4 7 4 3 8 5 3 5 3 7 7 5 4 6 6 7 5 7 7 5 5 5 6 4 3 4 6 3 5 4 5 3 6 5 9 7 4 6 7 5 6 4 4 6 6 7 7 3 5 6 4 7 6 4 6 7 5 6 5 4 6 6 6 4 6 4 4 6 5 6 5 5 5 7 6 4 4 8 7 5 3 4 6 6 6 6 7 3 5 5 5 4 6 6 4 2 5 5 4 5 6 6 4 8 3 4 6 5 6 3 5 4 7 5 7 7 5 4 6 5 5 7 4 6 3 7 6 6 4 6 6 6 5 6 4 4 5 8 3 6 3 3 5 5 6 5 6 7 4 7 7 6 5 5 5 6 4 5 4 6 3 3 4 4 5 6 3 5 5 4 8 4 4 6 4 5 6 8 4 4 4 5 5 4 6 7 7 6 5 6 3 3 4 6 5 4 5 6 6 5 5 4 6 5 5 4 2 4 4 3 8 7 7 4 5 6 4 4 5 5 6 4 4 6 4 4 3 5 5 5 6 5 4 5 3 8 6 5 4 4 7 6 4 6 8 6 4 7 4 5 6 7 6 5 6 5 5 5 5 7 5 6 4 4 3 5 4 5 5 2 5 4 6 5 4 6 6 6 2 3 5 5 6 5 5 4 7 3 4 3 5 5 4 5 6 5 6 4 5 5 5 4 8 5 5 3 5 3 4 5 3 5 8 5 6 5 6 6 5 5 5 6 6 7 4 6 7 8 7 6 8 6 4 4 4 6 5 3 3 5 3 0 5 6 2 5 6 3 5 3 3 5 5 2 7 4 5 4 5 5 4 2 2 2 4 5 5 4 3 6 5 3 6 3 7 5 5 2 6 4 5 4 7 3 2 5 3 2 3 3 6 2 3 6 5 2 2 4 3 2 4 3 3 5 2 5 4 1 6 5 3 4 3 2 2 5 5 4 2 5 3 3 6 4 6 5 4 5 3 2 3 2 2 4 2 3 3 4 5 5 4 2 3 5 5 4 5 3 3 6 4 3 5 1 4 4 6 2 4 4 3 3 2 3 3 6 4 3 6 2 3 2 4 3 4 4 3 5 2 5 6 3 4 4 3 2 2 2 3 3 4 4 1 5 3 8 1 4 3 3 7 4 3 3 5 3 5 3 4 2 6 5 4 3 7 5 3 4 3 5 2 2 4 4 1 5 6 4 4 4 3 5 5 2 3 5 5 4 2 3 4 4 3 4 4 1 2 3 6 3 4 4 3 4 4 1 4 3 5 5 3 5 4 4 5 1 5 3 5 5 6 1 2 6 3 3 3 4 4 3 4 4 5 2 6 3 4 6 5 5 4 2 6 3 5 6 3 5 4 2 6 5 3 5 6 2 4 5 4 3 2 6 4 3 4 4 5 4 2 4 3 5 2 4 2 3 3 5 3 4 2 4 4 4 3 4 5 5 2 0 3 1 2 5 3 4 5 5 4 4 4 4 3 5 3 4 3 5 5 2 4 5 5 4 4 2 5 2 5 3 5 4 1 5 5 2 2 4 6 3 4 4 3 6 3 3 3 2 3 3 5 5 3 4 4 4 3 5 4 6 2 0 3 3 2 4 5 3 3 3 5 4 3 6 4 3 1 4 2 2 0 3 3 1 3 4 3 4 1 5 3 4 4 5 4 5 6 4 3 3 3 5 5 4 2 3 5 2 2 5 4 3 3 4 2 4 2 3 5 4 5 3 5 5 5 3 3 3 3 6 4 3 2 3 2 7 3 5 3 5 4 5 4 4 3 5 2 3 5 4 5 4 3 4 3 2 5 6 2 3 6 4 5 4 4 5 5 3 4 3 5 5 3 4 2 4 3 6 3 5 5 6 7 3 5 5 3 6 3 3 1 4 5 3 3 2 2 3 4 4 5 3 6 2 3 2 4 2 4 5 5 6 1 5 5 5 1 2 4 4 2 3 6 5 5 3 5 3 4 4 5 6 3 5 4 4 5 4 3 5 4 2 4 5 4 3 5 4 3 7 4 3 4 4 4 4 4 2 6 3 3 4 3 3 5 4 2 6 4 6 2 5 4 5 1 3 2 2 5 3 6 6 3 4 5 2 2 6 5 4 6 2 5 2 6 4 1 2 5 4 3 5 5 6 5 4 7 4 3 3 5 3 5 3 6 2 2 4 2 4 1 2 3 4 4 2 3 5 4 1 2 2 5 2 5 4 3 4 5 1 2 3 2 4 4 2 2 5 3 4 3 3 3 5 4 4 4 4 2 3 5 2 3 5 3 2 5 4 3 4 4 5 4 4 2 4 3 4 4 4 2 5 3 4 3 3 1 3 2 2 3 4 3 3 1 6 4 5 3 6 4 3 5 5 4 5 5 5 1 5 5 5 5 2 6 5 2 4 2 4 4 4 4 3 5 4 4 4 4 6 3 4 3 7 4 1 3 2 5 6 3 4 3 2 3 3 5 2 5 3 5 5 3 5 5 3 4 4 5 3 2 5 3 5 3 5 4 5 4 5 6 5 6 6 2 4 3 3 3 5 4 4 4 4 5 3 7 3 3 3 5 3 5 3 2 5 5 4 5 4 3 3 3 4 4 2 1 5 3 2 3 6 2 4 4 5 4 2 4 2 3 3 4 4 4 2 4 6 5 1 4 6 5 3 2 4 3 4 3 3 5 4 2 5 1 5 5 2 5 5 6 3 2 3 0 7 6 3 5 2 5 3 6 4 7 3 6 2 1 2 4 4 2 2 5 2 2 1 5 3 4 0 5 3 4 3 2 3 4 4 4 3 4 4 3 3 4 3 5 5 4 5 2 3 7 3 3 2 4 3 6 4 2 4 7 3 5 5 3 4 5 4 5 3 5 6 3 4 2 2 2 5 3 4 3 5 5 2 4 2 3 1 4 4 2 6 2 3 4 5 4 4 3 1 2 3 6 4 3 4 2 5 2 3 3 6 3 5 5 3 6 6 3 5 4 4 3 2 4 3 4 4 6 4 3 4 2 4 2 3 5 4 3 3 4 4 4 6 4 4 2 5 5 8 5 2 4 4 2 2 5 4 3 4 3 3 4 3 5 4 4 5 3 
BTB PER SET COUNT: 7 1464 1464 1462 8 6 6 4 4 3405 7 6 5 4 6 8 7 7 6 4 2 4 4 5 509 4 2 8 5 6 7 7 6 5 3 7 8 5 4 5 5 4 5 6 2 4 506 7 25 4 4 3 5 4 6 5 1006 5 5 1466 963 4 5 5 4 6 8 5 7 4 5 4 4 4 4 11 6 4 964 6 7 5 9 6 6 7 3 4 1005 13 3 12 4 6 3 6 9 6 5 5 8 6 6 5 387 6 5 4 5 6 4 2 514 3 5 767 4 5 8 1465 13 5 924 8 11 7 8 3 9 4 965 7 7 4 6 5 5 3 5 6 807 5 6 5 6 5 6 4 10 11 7 465 4 6 7 964 5 8 3 5 7 3 5 4 3 9 5 4 6 7 352 8 6 4 9 4 3 10 5 3 5 3 8 10 5 6 11 637 11 5 91 8 5 1008 5 7 4 3 1820 6 3 1466 5 5 3 6 6 9 10 4 11 9 5 10 4 4 6 506 389 7 3 5 6 6 8 9 4 510 9 5 6 5 4 6 6 7 4 6 4 4 6 6 867 506 5 5 7888 154 4 4 135 7 5 3 5 6 6 8 7 7 4 5 5 5 4 6 6 4 2 5 5 4 6 6 6 5 18 3 4 6 5 97 3 7 4 7 5 7 1049 5 4 6 5 5 1003 4 6 3 7 7 6 4 8 155 209 10 6 4 4 1473 1506 3 15 3 3 5 6 6 5 6 7 4 1470 7 6 6 5 10 6 4 5 5 14 3 3 4 4 5 6 3 5 964 4 9 5 4 8 4 5 6 8 4 4 4 5 5 4 1506 13 8 6 5 1469 3 3 5 151 5 4 5 6 1505 2424 6 4 6 5 7 4 2 4 4 3 8 7 7 4 7 6 4 4 5 5 7 5 4 7 4 385 3 5 5 5 6 5 4 7 36 9 6 7 4 6 7 6 4 6 497 6 4 7 4 5 6 7 6 5 7 7 5 5 5 7 5 6 24 4 4 3830 4 7 5 502 5 595 8 1466 6 6 15 6 1003 3 5 5 6 8 5 4 33 1004 4 3 5 5 4 74 6 5 6 4 5 5 5 4 8 5 5 4 5 3 4 5 1463 157 250 5 1466 5 6 6 6 1346 5 8 8 7 4 6 7 8 1506 6 8 1347 4 4 4 7 6 3 3 1006 2002 0 5 6 503 5 7 3 5 3 3 254 6 2 388 4 8 1465 5 5 6 37 2 4 4 5 5 4 3 8 5 3 1465 3 9 5 5 2 6 1007 5 4 7 3 2 5 3 1003 3 3 6 2 3 2004 6 1003 3 4 3 2 4 3 3 6 2 5 4 3 6 964 3 4 3 2 2 5 1384 4 2 7 1004 1501 6 1464 6 5 5 6 3 1003 3 4 2 1003 2 3 4 4 5 969 4 2 3 17 5 14613 5 3 3 9 8 3 5 1 4 4 6 1001 4 4 4 3 2 3 4 6 4 3 6 2 3 2 4 3 4 5 3 5 961 5 6 3 4 4 3 2 2 2 3 3 4 4 1 7 3 9 1 4 3 3 3496 4 3 3 6 3 7 962 4 2 8 5 4 3 605 5 3 4 3 7 2 2 4 4 1 5 6 4 4 4 3 5 6 2 3 5 5 4 4 3 4 4 503 1001 5 1 2 3 6 4 5 4 3 5 4 1 4 3 5 5 3 5 6 4 6 1 104 3 5 7 6 1 2 6 3 4 3 4 4 3 4 175 7 2 6 186 4 10 5 5 72 2 6 3 3428 6 3 7 4 2 6 5 3 9 6 2 4 6 4 3 2 6 4 3 4 267 5 7 2 4 3 5 3 4 2 3 3 5 3 4 2 4 4 4 3 4 5 5 2 0 3 1 2 5 3 4 5 7 4 4 4 4 3 5 3 4 503 5 5 2 4 5 5 4 4 2 5 12 965 3 5 4 1 964 5 2 3 4 965 3 126 4 4 6 3 3 4 2 3 3 5 505 3 4 4 5 3 5 4 6 2 0 3 3 2 4 5 3 3 3 5 4 3 6 4 3 1 1464 2 2 0 7 3 1 3 4 3 4 1 5 1004 6 4 5 6 98 10 5 3 3 3 6 382 4 2 3 7 2 2 5 4 3 3 4 2 5 2 5 5 4 7 3 5 5 964 3 4 3 3 7 4 3 2 3 2 7 3 5 3 5 4 1006 4 4 3 2006 2 3 6 4 7 4 3 4 3 2 5 6 2 3 13 6 5 5 4 5 7 3 4 3 8 5 3 5 1005 4 3 7 3 5 5 6 9 3 1465 5 31 6 3 3 1 4 5 3 3 2 2 3 4 5 5 3 8 2 3 4 4 2 6 5 6 6 1 5 466 9 1 2 4 4 2 3 506 5 5 3 5 3 504 6 5 7 7 1006 4 4 8 4 5 10 6 2 4 5 178 3 6 4 3 7 4 3 7 4 4 4 4 2 438 3 3 8 3 3 5 4 6 7 4 6 2 5 4 11 1 3 2 2 5 3 8 6 3 24 5 92 2 8 7 6 2427 2 428 3 6 4 1 2 5 4 3 5 6 131 133 5 7 5 3 3 5 4 5 3 7 3 2 4 2 4 1 2 3 4 4 2 3 5 20451 1 2 2 7 2 5 4 4 4 5 1 2 3 2 4 5 2 2 5 3 4 3 7 3 5 4 6 4 1504 2 3 5 2 3 6 3 3 5 4 3 4 4 277 4 4 2 8 3 4 4 6 2 1936 3 4 3 3 1 3 2 2 6 4 3 3 1 6 385 1465 3 7 1464 3 5 6 6 5 5 399 1 5 7 5 5 2 8 5 2 4 2 4 4 4 18 3 5 4 4 7 12 6 6 4 4 1468 4 1 3 2 505 10 3 5 3 2 3 3 5 2 5 3 6 964 3 5 6 3 177 4 5 3 2 5 3 6 3 7 4 5 4 5 1120 5 6 6 2 5 3 3 3 5 4 4 4 4 5 3 9 4 3 5 5 3 5 3 2 5 5 4 5 4 3 5 3 4 4 2 1 5 3 2 3 6 2 4 1465 5 1464 2 4 3 5 3 4 4 5 2 6 6 5 1 4 7 7 3 2 42 3 4 3 3 386 4 2 5 1 5 8 2 5 5 6 3 2 3 0 7 6 3 5 3 5 7 6 5 7 3 507 2 1 2 4 4 2 2 5 2 2 1 7 3 4 0 7 3 4 7 2 3 7 6 4 5 4 4 4 5 52 3 7 6 4 5 2 3 228 3 3 2 4 3 10 4 3 4 7 3 5 5 5 4 2882 4 5 3 5 6 3 4 2 3 2 5 3 4 503 5 7 2 164 2 3 1 4 4 2 6 2 3 4 5 4 4 1465 1 3 3 7 4 3 4 2 5 2 3 3 13 3 5 5 962 6 6 3 5 6 4 3 2 4 3 4 4 6 4 3 4 2 5 3 3 5 4 3 3 4 4 6 8 4 4 2 5 5 9 5 2 4 4 2 2 5 4 3 5 3 962 4 3 5 4 4 5 3 
To predecode: 0
Predecoding something: 0
Predecode request dropped: 0
sizeofblock_0 0
sizeofblock_1 39823
sizeofblock_2 90560
sizeofblock_3 0
sizeofblock_4 0
sizeofblock_5 0
sizeofblock_6 0
sizeofblock_7 0
sizeofblock_8 0
Variant_0 Correct: 1611085 Incorrect: 0 Accuracy: 1
Variant_1 Correct: 5721643 Incorrect: 0 Accuracy: 1
Variant_2 Correct: 0 Incorrect: 0 Accuracy: -nan
Variant_3 Correct: 0 Incorrect: 0 Accuracy: -nan
