
*** ChampSim Multicore Out-of-Order Simulator ***

Warmup Instructions: 50000000
Simulation Instructions: 50000000
Number of CPUs: 1
LLC sets: 2048
LLC ways: 16
Off-chip DRAM Size: 4096 MB Channels: 1 Width: 64-bit Data Rate: 6400 MT/s
CPU 0 runs ./micro_traces/srv82.trace.gz
.gz
ITLB has LRU replacement policy
DTLB has LRU replacement policy
STLB has LRU replacement policy
CPU 0 L1I next line prefetcher
./conditional/srv82.cond
L1I has LRU replacement policy
L1D has LRU replacement policy
Initialize SRRIP state for L2C
Initialize DRRIP state for LLC
Heartbeat_Variant_0 : 1319 0.322021 per_variant_size: 0 1319 0 0 0 0 0 0 0 
Heartbeat_Variant_1 : 1226 0.299316 per_variant_size: 0 627 599 0 0 0 0 0 0 
Heartbeat_Variant_2 : 1317 0.321533 per_variant_size: 0 553 353 338 73 0 0 0 0 
Heartbeat_Variant_3 : 0 0 per_variant_size: 0 0 0 0 0 0 0 0 0 
Heartbeat_Variant_0_evicts 0 : 5966 1 : 262 2 : 322 3 : 0 
Heartbeat_Variant_1_evicts 0 : 249 1 : 0 2 : 480 3 : 0 
Heartbeat_Variant_2_evicts 0 : 305 1 : 470 2 : 0 3 : 0 
Heartbeat_Variant_3_evicts 0 : 0 1 : 0 2 : 0 3 : 0 
Heartbeat CPU 0 instructions: 10000000 cycles: 2797985 heartbeat IPC: 3.574 cumulative IPC: 3.574 (Simulation time: 0 hr 1 min 41 sec) 
Heartbeat_Variant_0 : 1351 0.329834 per_variant_size: 0 1351 0 0 0 0 0 0 0 
Heartbeat_Variant_1 : 1231 0.300537 per_variant_size: 0 572 659 0 0 0 0 0 0 
Heartbeat_Variant_2 : 1336 0.326172 per_variant_size: 0 543 359 358 76 0 0 0 0 
Heartbeat_Variant_3 : 0 0 per_variant_size: 0 0 0 0 0 0 0 0 0 
Heartbeat_Variant_0_evicts 0 : 5680 1 : 79 2 : 75 3 : 0 
Heartbeat_Variant_1_evicts 0 : 70 1 : 0 2 : 308 3 : 0 
Heartbeat_Variant_2_evicts 0 : 68 1 : 315 2 : 0 3 : 0 
Heartbeat_Variant_3_evicts 0 : 0 1 : 0 2 : 0 3 : 0 
Heartbeat CPU 0 instructions: 20000002 cycles: 5595066 heartbeat IPC: 3.57516 cumulative IPC: 3.57458 (Simulation time: 0 hr 3 min 15 sec) 
Heartbeat_Variant_0 : 1355 0.330811 per_variant_size: 0 1355 0 0 0 0 0 0 0 
Heartbeat_Variant_1 : 1238 0.302246 per_variant_size: 0 576 662 0 0 0 0 0 0 
Heartbeat_Variant_2 : 1344 0.328125 per_variant_size: 0 546 368 339 91 0 0 0 0 
Heartbeat_Variant_3 : 0 0 per_variant_size: 0 0 0 0 0 0 0 0 0 
Heartbeat_Variant_0_evicts 0 : 5597 1 : 62 2 : 67 3 : 0 
Heartbeat_Variant_1_evicts 0 : 63 1 : 0 2 : 304 3 : 0 
Heartbeat_Variant_2_evicts 0 : 68 1 : 302 2 : 0 3 : 0 
Heartbeat_Variant_3_evicts 0 : 0 1 : 0 2 : 0 3 : 0 
Heartbeat CPU 0 instructions: 30000002 cycles: 8392263 heartbeat IPC: 3.57501 cumulative IPC: 3.57472 (Simulation time: 0 hr 4 min 47 sec) 
Heartbeat_Variant_0 : 1355 0.330811 per_variant_size: 0 1355 0 0 0 0 0 0 0 
Heartbeat_Variant_1 : 1241 0.302979 per_variant_size: 0 576 665 0 0 0 0 0 0 
Heartbeat_Variant_2 : 1341 0.327393 per_variant_size: 0 539 370 358 74 0 0 0 0 
Heartbeat_Variant_3 : 0 0 per_variant_size: 0 0 0 0 0 0 0 0 0 
Heartbeat_Variant_0_evicts 0 : 5669 1 : 2 2 : 2 3 : 0 
Heartbeat_Variant_1_evicts 0 : 2 1 : 0 2 : 243 3 : 0 
Heartbeat_Variant_2_evicts 0 : 2 1 : 240 2 : 0 3 : 0 
Heartbeat_Variant_3_evicts 0 : 0 1 : 0 2 : 0 3 : 0 
Heartbeat CPU 0 instructions: 40000000 cycles: 11189674 heartbeat IPC: 3.57473 cumulative IPC: 3.57472 (Simulation time: 0 hr 6 min 18 sec) 
Heartbeat_Variant_0 : 1364 0.333008 per_variant_size: 0 1364 0 0 0 0 0 0 0 
Heartbeat_Variant_1 : 1259 0.307373 per_variant_size: 0 569 690 0 0 0 0 0 0 
Heartbeat_Variant_2 : 1347 0.328857 per_variant_size: 0 524 377 367 79 0 0 0 0 
Heartbeat_Variant_3 : 0 0 per_variant_size: 0 0 0 0 0 0 0 0 0 
Heartbeat_Variant_0_evicts 0 : 5561 1 : 81 2 : 104 3 : 0 
Heartbeat_Variant_1_evicts 0 : 86 1 : 0 2 : 313 3 : 0 
Heartbeat_Variant_2_evicts 0 : 97 1 : 317 2 : 0 3 : 0 
Heartbeat_Variant_3_evicts 0 : 0 1 : 0 2 : 0 3 : 0 
Heartbeat CPU 0 instructions: 50000000 cycles: 13986606 heartbeat IPC: 3.57535 cumulative IPC: 3.57485 (Simulation time: 0 hr 7 min 46 sec) 

Warmup complete CPU 0 instructions: 50000004 cycles: 13986607 (Simulation time: 0 hr 7 min 46 sec) 

Cycle: 20000000 FTQ IN: 58159323 FTQ occupancy: 19.5134 DECODE IN: 58159302 DECODE occupancy: 51.0046 ROB IN: 58159302 ROB occupancy: 311.959 ROB OUT: 58159302
Heartbeat_Variant_0 : 1363 0.332764 per_variant_size: 0 1363 0 0 0 0 0 0 0 
Heartbeat_Variant_1 : 1259 0.307373 per_variant_size: 0 574 685 0 0 0 0 0 0 
Heartbeat_Variant_2 : 1352 0.330078 per_variant_size: 0 530 375 362 85 0 0 0 0 
Heartbeat_Variant_3 : 0 0 per_variant_size: 0 0 0 0 0 0 0 0 0 
Heartbeat_Variant_0_evicts 0 : 5605 1 : 8 2 : 7 3 : 0 
Heartbeat_Variant_1_evicts 0 : 7 1 : 0 2 : 250 3 : 0 
Heartbeat_Variant_2_evicts 0 : 10 1 : 250 2 : 0 3 : 0 
Heartbeat_Variant_3_evicts 0 : 0 1 : 0 2 : 0 3 : 0 
Heartbeat CPU 0 instructions: 60000000 cycles: 21345159 heartbeat IPC: 1.35896 cumulative IPC: 1.35896 (Simulation time: 0 hr 9 min 22 sec) 
Heartbeat_Variant_0 : 1370 0.334473 per_variant_size: 0 1370 0 0 0 0 0 0 0 
Heartbeat_Variant_1 : 1271 0.310303 per_variant_size: 0 585 686 0 0 0 0 0 0 
Heartbeat_Variant_2 : 1353 0.330322 per_variant_size: 0 530 368 358 97 0 0 0 0 
Heartbeat_Variant_3 : 0 0 per_variant_size: 0 0 0 0 0 0 0 0 0 
Heartbeat_Variant_0_evicts 0 : 5770 1 : 89 2 : 101 3 : 0 
Heartbeat_Variant_1_evicts 0 : 98 1 : 0 2 : 364 3 : 0 
Heartbeat_Variant_2_evicts 0 : 95 1 : 365 2 : 0 3 : 0 
Heartbeat_Variant_3_evicts 0 : 0 1 : 0 2 : 0 3 : 0 
Heartbeat CPU 0 instructions: 70000000 cycles: 28776857 heartbeat IPC: 1.34559 cumulative IPC: 1.35224 (Simulation time: 0 hr 10 min 57 sec) 
Cycle: 30000000 FTQ IN: 13513868 FTQ occupancy: 11.579 DECODE IN: 13513889 DECODE occupancy: 30.0479 ROB IN: 13513889 ROB occupancy: 224.956 ROB OUT: 13513882
Heartbeat_Variant_0 : 1368 0.333984 per_variant_size: 0 1368 0 0 0 0 0 0 0 
Heartbeat_Variant_1 : 1275 0.311279 per_variant_size: 0 593 682 0 0 0 0 0 0 
Heartbeat_Variant_2 : 1354 0.330566 per_variant_size: 0 530 368 364 92 0 0 0 0 
Heartbeat_Variant_3 : 0 0 per_variant_size: 0 0 0 0 0 0 0 0 0 
Heartbeat_Variant_0_evicts 0 : 5611 1 : 11 2 : 18 3 : 0 
Heartbeat_Variant_1_evicts 0 : 15 1 : 0 2 : 261 3 : 0 
Heartbeat_Variant_2_evicts 0 : 18 1 : 262 2 : 0 3 : 0 
Heartbeat_Variant_3_evicts 0 : 0 1 : 0 2 : 0 3 : 0 
Heartbeat CPU 0 instructions: 80000000 cycles: 36101890 heartbeat IPC: 1.36518 cumulative IPC: 1.35653 (Simulation time: 0 hr 12 min 32 sec) 
Cycle: 40000000 FTQ IN: 13661547 FTQ occupancy: 11.6423 DECODE IN: 13661470 DECODE occupancy: 30.5693 ROB IN: 13661410 ROB occupancy: 227.08 ROB OUT: 13661326
Heartbeat_Variant_0 : 1369 0.334229 per_variant_size: 0 1369 0 0 0 0 0 0 0 
Heartbeat_Variant_1 : 1270 0.310059 per_variant_size: 0 579 691 0 0 0 0 0 0 
Heartbeat_Variant_2 : 1364 0.333008 per_variant_size: 0 529 380 364 91 0 0 0 0 
Heartbeat_Variant_3 : 0 0 per_variant_size: 0 0 0 0 0 0 0 0 0 
Heartbeat_Variant_0_evicts 0 : 5680 1 : 28 2 : 27 3 : 0 
Heartbeat_Variant_1_evicts 0 : 31 1 : 0 2 : 261 3 : 0 
Heartbeat_Variant_2_evicts 0 : 24 1 : 271 2 : 0 3 : 0 
Heartbeat_Variant_3_evicts 0 : 0 1 : 0 2 : 0 3 : 0 
Heartbeat CPU 0 instructions: 90000000 cycles: 43529705 heartbeat IPC: 1.34629 cumulative IPC: 1.35395 (Simulation time: 0 hr 14 min 8 sec) 
Cycle: 50000000 FTQ IN: 13478662 FTQ occupancy: 11.7713 DECODE IN: 13478697 DECODE occupancy: 30.6002 ROB IN: 13478743 ROB occupancy: 227.09 ROB OUT: 13478786
Heartbeat_Variant_0 : 1373 0.335205 per_variant_size: 0 1373 0 0 0 0 0 0 0 
Heartbeat_Variant_1 : 1273 0.310791 per_variant_size: 0 579 694 0 0 0 0 0 0 
Heartbeat_Variant_2 : 1359 0.331787 per_variant_size: 0 525 383 357 94 0 0 0 0 
Heartbeat_Variant_3 : 0 0 per_variant_size: 0 0 0 0 0 0 0 0 0 
Heartbeat_Variant_0_evicts 0 : 5640 1 : 19 2 : 26 3 : 0 
Heartbeat_Variant_1_evicts 0 : 22 1 : 0 2 : 254 3 : 0 
Heartbeat_Variant_2_evicts 0 : 20 1 : 255 2 : 0 3 : 0 
Heartbeat_Variant_3_evicts 0 : 0 1 : 0 2 : 0 3 : 0 
Heartbeat CPU 0 instructions: 100000000 cycles: 50871748 heartbeat IPC: 1.36202 cumulative IPC: 1.35556 (Simulation time: 0 hr 15 min 35 sec) 
Finished CPU 0 instructions: 50000003 cycles: 36885147 cumulative IPC: 1.35556 (Simulation time: 0 hr 15 min 35 sec) 

ChampSim completed all CPUs

Region of Interest Statistics

CPU 0 cumulative IPC: 1.35556 instructions: 50000003 cycles: 36885147
 Fetch stage stalled: 57.2494  Sim cycles: 36885147 fetch stall cycle: 21116542
 Empty decode stage: 39.8007  Sim cycles: 36885147 fetch stall cycle: 14680555
ITLB TOTAL     ACCESS:    6887149  HIT:    6383573  MISS:     503576  HIT %:    92.6882  MISS %:    7.31182   MPKI: 10.0715
ITLB LOAD TRANSLATION INSTRUCTION	ACCESS:    5665669  HIT:    5185450  MISS:     480219  HIT %:    91.5241  MISS %:    8.47595  MPKI: 9.60438
ITLB TRANSLATION FROM L1D PREFETCHER INSTRUCTION	ACCESS:    1221480  HIT:    1198123  MISS:      23357  HIT %:    98.0878  MISS %:    1.91219  MPKI: 0.46714

ITLB AVERAGE MISS LATENCY: 68178.6 cycles
ITLB RQ	ACCESS:   10152182	FORWARD:          0	MERGED:    2778982	TO_CACHE:    7373200

DTLB TOTAL     ACCESS:    8978516  HIT:    8508834  MISS:     469682  HIT %:    94.7688  MISS %:    5.23118   MPKI: 9.39364
DTLB LOAD TRANSLATION DATA	ACCESS:    8978516  HIT:    8508834  MISS:     469682  HIT %:    94.7688  MISS %:    5.23118  MPKI: 9.39364

DTLB AVERAGE MISS LATENCY: 9.3368 cycles
DTLB RQ	ACCESS:   13340340	FORWARD:          0	MERGED:    4325984	TO_CACHE:    9014356

STLB TOTAL     ACCESS:    1225491  HIT:    1223418  MISS:       2073  HIT %:    99.8308  MISS %:   0.169157   MPKI: 0.04146
STLB LOAD TRANSLATION INSTRUCTION	ACCESS:     479154  HIT:     478920  MISS:        234  HIT %:    99.9512  MISS %:  0.0488361  MPKI: 0.00468
STLB TRANSLATION FROM L1D PREFETCHER INSTRUCTION	ACCESS:      24422  HIT:      24393  MISS:         29  HIT %:    99.8813  MISS %:   0.118745  MPKI: 0.00058
STLB LOAD TRANSLATION DATA	ACCESS:     469682  HIT:     467894  MISS:       1788  HIT %:    99.6193  MISS %:   0.380683  MPKI: 0.03576
STLB TRANSLATION FROM L1D PREFETCHER DATA	ACCESS:     252233  HIT:     252211  MISS:         22  HIT %:    99.9913  MISS %: 0.00872209  MPKI: 0.00044

STLB AVERAGE MISS LATENCY: 71.4153 cycles
STLB RQ	ACCESS:    1387728	FORWARD:          0	MERGED:     121839	TO_CACHE:    1265889

STLB Hit, L1D data hit: 0
STLB Hit, L2C data hit: 0
STLB Hit, LLC data hit: 0
STLB Hit, LLC data miss: 0
STLB STLB hints to L2: 0
L1D TOTAL     ACCESS:   13082432  HIT:   11975667  MISS:    1106765  HIT %:    91.5401  MISS %:    8.45993   MPKI: 22.1353
L1D LOAD DATA	ACCESS:    6561149  HIT:    5832995  MISS:     728154  HIT %:     88.902  MISS %:     11.098  MPKI: 14.5631
L1D RFO DATA	ACCESS:    6187874  HIT:    5903630  MISS:     284244  HIT %:    95.4064  MISS %:    4.59356  MPKI: 5.68488
L1D PREFETCH DATA	ACCESS:     333409  HIT:     239042  MISS:      94367  HIT %:    71.6963  MISS %:    28.3037  MPKI: 1.88734

L1D PREFETCH  REQUESTED:     748763  ISSUED:     748763  USEFUL:      33288  USELESS:      69408
L1D USEFUL LOAD PREFETCHES:      33288 PREFETCH ISSUED TO LOWER LEVEL:     102801  ACCURACY: 32.381
 TIMELY PREFETCHES:      33288 LATE PREFETCHES: 8333 DROPPED PREFETCHES: 8
L1D AVERAGE MISS LATENCY: 248349 cycles
L1D RQ	ACCESS:   10699838	FORWARD:          0	MERGED:    3937820	TO_CACHE:    6599005
L1D WQ	ACCESS:    6936838	FORWARD:     163550	MERGED:     195503	TO_CACHE:    6741335
L1D PQ	ACCESS:     374650	FORWARD:          0	MERGED:          0	TO_CACHE:     374113

L1D UNIQUE REGIONS ACCESSED: 0
L1D REGIONS CONFLICTS: 0
L1D Cross Page Prefetch Requests: 6529
L1D Same Page Prefetch Requests: 755302
L1D ROI Sum of L1D PQ occupancy: 4764225
L1D PREFETCHES PUSHED FROM L2C: 0
L1I TOTAL     ACCESS:    8765229  HIT:    5463522  MISS:    3301707  HIT %:    62.3318  MISS %:    37.6682   MPKI: 66.0341
L1I LOAD INSTRUCTION	ACCESS:    6545022  HIT:    4440555  MISS:    2104467  HIT %:    67.8463  MISS %:    32.1537  MPKI: 42.0893
L1I PREFETCH INSTRUCTION	ACCESS:    2220207  HIT:    1022967  MISS:    1197240  HIT %:    46.0753  MISS %:    53.9247  MPKI: 23.9448

L1I PREFETCH  REQUESTED:    3932534  ISSUED:    3928983  USEFUL:     932560  USELESS:     491546
L1I USEFUL LOAD PREFETCHES:     932560 PREFETCH ISSUED TO LOWER LEVEL:    1424098  ACCURACY: 65.4843
 TIMELY PREFETCHES:     932560 LATE PREFETCHES: 226858 DROPPED PREFETCHES: 90348
L1I AVERAGE MISS LATENCY: 2.23588e+06 cycles
L1I RQ	ACCESS:    9494722	FORWARD:          0	MERGED:    2738446	TO_CACHE:    6756276
L1I PQ	ACCESS:    3928983	FORWARD:          0	MERGED:     533077	TO_CACHE:    3395906

L1BTB TOTAL     ACCESS:    5672624  HIT:    2059762  MISS:    3612862  HIT %:    36.3106  MISS %:    63.6894   MPKI: 72.2572
L1BTB BRANCH_DIRECT_JUMP	ACCESS:     549908  HIT:     146842  MISS:     403066	AVERAGE STALL: 46.0469
L1BTB BRANCH_INDIRECT	ACCESS:     183773  HIT:      66657  MISS:     117116	AVERAGE STALL: 103.051
L1BTB BRANCH_CONDITIONAL	ACCESS:    2717917  HIT:    1429391  MISS:    1288526	AVERAGE STALL: 53.4897
L1BTB BRANCH_DIRECT_CALL	ACCESS:     939715  HIT:     105741  MISS:     833974	AVERAGE STALL: 67.3571
L1BTB BRANCH_INDIRECT_CALL	ACCESS:     170793  HIT:      21000  MISS:     149793	AVERAGE STALL: 126.312
L1BTB BRANCH_RETURN	ACCESS:    1110518  HIT:     290131  MISS:     820387	AVERAGE STALL: 50.7904
L1BTB BRANCH_OTHER ACCESS:          0  HIT:          0  MISS:          0	AVERAGE STALL: -nan
L1BTB TOTAL ROB OCCUPANCY AT BTB MISS: 4.85969

L2BTB TOTAL     ACCESS:    3587334  HIT:    3484744  MISS:     102590  HIT %:    97.1402  MISS %:    2.85978   MPKI: 2.0518
L2BTB BRANCH_DIRECT_JUMP	ACCESS:     398816  HIT:     393072  MISS:       5744	AVERAGE STALL: 46.0469
L2BTB BRANCH_INDIRECT	ACCESS:     106886  HIT:     104294  MISS:       2592	AVERAGE STALL: 103.051
L2BTB BRANCH_CONDITIONAL	ACCESS:    1288526  HIT:    1265767  MISS:      22759	AVERAGE STALL: 53.4897
L2BTB BRANCH_DIRECT_CALL	ACCESS:     833974  HIT:     832619  MISS:       1355	AVERAGE STALL: 67.3571
L2BTB BRANCH_INDIRECT_CALL	ACCESS:     140157  HIT:     129921  MISS:      10236	AVERAGE STALL: 126.312
L2BTB BRANCH_RETURN	ACCESS:     818975  HIT:     759071  MISS:      59904	AVERAGE STALL: 50.7904
L2BTB BRANCH_OTHER ACCESS:          0  HIT:          0  MISS:          0	AVERAGE STALL: -nan
L2BTB TOTAL ROB OCCUPANCY AT BTB MISS: 171.141

L2C TOTAL     ACCESS:    5689070  HIT:    4722003  MISS:     967067  HIT %:    83.0013  MISS %:    16.9987   MPKI: 19.3413
L2C LOAD INSTRUCTION	ACCESS:    1877610  HIT:    1591039  MISS:     286571  HIT %:    84.7375  MISS %:    15.2625  MPKI: 5.73142
L2C PREFETCH INSTRUCTION	ACCESS:    1424098  HIT:    1214350  MISS:     209748  HIT %:    85.2715  MISS %:    14.7285  MPKI: 4.19496
L2C LOAD TRANSLATION INSTRUCTION	ACCESS:        265  HIT:         61  MISS:        204  HIT %:    23.0189  MISS %:    76.9811  MPKI: 0.00408
L2C TRANSLATION FROM L1D PREFETCHER INSTRUCTION	ACCESS:      60783  HIT:      42144  MISS:      18639  HIT %:    69.3352  MISS %:    30.6648  MPKI: 0.37278
L2C LOAD DATA	ACCESS:     719783  HIT:     592135  MISS:     127648  HIT %:    82.2658  MISS %:    17.7342  MPKI: 2.55296
L2C RFO DATA	ACCESS:     284119  HIT:     197238  MISS:      86881  HIT %:    69.4209  MISS %:    30.5791  MPKI: 1.73762
L2C PREFETCH DATA	ACCESS:     803488  HIT:     603970  MISS:     199518  HIT %:    75.1685  MISS %:    24.8315  MPKI: 3.99036
L2C WRITEBACK DATA	ACCESS:     517012  HIT:     480674  MISS:      36338  HIT %:    92.9715  MISS %:    7.02846  MPKI: 0.72676
L2C LOAD TRANSLATION DATA	ACCESS:       1872  HIT:        368  MISS:       1504  HIT %:    19.6581  MISS %:    80.3419  MPKI: 0.03008
L2C TRANSLATION FROM L1D PREFETCHER DATA	ACCESS:         40  HIT:         24  MISS:         16  HIT %:         60  MISS %:         40  MPKI: 0.00032

L2C PREFETCH  REQUESTED:    1502094  ISSUED:    1502094  USEFUL:      35999  USELESS:     394575
L2C USEFUL LOAD PREFETCHES:      35999 PREFETCH ISSUED TO LOWER LEVEL:     411149  ACCURACY: 8.75571
 TIMELY PREFETCHES:      35999 LATE PREFETCHES: 1883 DROPPED PREFETCHES: 0
L2C AVERAGE MISS LATENCY: 34.1758 cycles
L2C RQ	ACCESS:    2944534	FORWARD:          0	MERGED:          0	TO_CACHE:    2944472
L2C WQ	ACCESS:     517012	FORWARD:         62	MERGED:          0	TO_CACHE:     517012
L2C PQ	ACCESS:    3028993	FORWARD:          0	MERGED:     780933	TO_CACHE:    2248060

L2C Dense regions hint from L2: 0
PSCL5 TOTAL     ACCESS:      84878  HIT:      42439  MISS:      42439  HIT %:         50  MISS %:         50   MPKI: 0.84878
PSCL5 LOAD TRANSLATION INSTRUCTION	ACCESS:       4030  HIT:       2015  MISS:       2015  HIT %:         50  MISS %:         50  MPKI: 0.0403
PSCL5 TRANSLATION FROM L1D PREFETCHER INSTRUCTION	ACCESS:      80848  HIT:      40424  MISS:      40424  HIT %:         50  MISS %:         50  MPKI: 0.80848


PSCL4 TOTAL     ACCESS:      78343  HIT:      39166  MISS:      39177  HIT %:     49.993  MISS %:     50.007   MPKI: 0.78354
PSCL4 LOAD TRANSLATION INSTRUCTION	ACCESS:       2208  HIT:       1808  MISS:        400  HIT %:    81.8841  MISS %:    18.1159  MPKI: 0.008
PSCL4 TRANSLATION FROM L1D PREFETCHER INSTRUCTION	ACCESS:      49781  HIT:      37358  MISS:      12423  HIT %:    75.0447  MISS %:    24.9553  MPKI: 0.24846
PSCL4 LOAD TRANSLATION DATA	ACCESS:       1419  HIT:          0  MISS:       1419  HIT %:          0  MISS %:        100  MPKI: 0.02838
PSCL4 TRANSLATION FROM L1D PREFETCHER DATA	ACCESS:      24935  HIT:          0  MISS:      24935  HIT %:          0  MISS %:        100  MPKI: 0.4987


PSCL3 TOTAL     ACCESS:      78459  HIT:      39224  MISS:      39235  HIT %:     49.993  MISS %:     50.007   MPKI: 0.7847
PSCL3 LOAD TRANSLATION INSTRUCTION	ACCESS:       2266  HIT:       1866  MISS:        400  HIT %:    82.3477  MISS %:    17.6523  MPKI: 0.008
PSCL3 TRANSLATION FROM L1D PREFETCHER INSTRUCTION	ACCESS:      49781  HIT:      37358  MISS:      12423  HIT %:    75.0447  MISS %:    24.9553  MPKI: 0.24846
PSCL3 LOAD TRANSLATION DATA	ACCESS:       1477  HIT:          0  MISS:       1477  HIT %:          0  MISS %:        100  MPKI: 0.02954
PSCL3 TRANSLATION FROM L1D PREFETCHER DATA	ACCESS:      24935  HIT:          0  MISS:      24935  HIT %:          0  MISS %:        100  MPKI: 0.4987


PSCL2 TOTAL     ACCESS:      49873  HIT:      24882  MISS:      24991  HIT %:    49.8907  MISS %:    50.1093   MPKI: 0.49982
PSCL2 LOAD TRANSLATION INSTRUCTION	ACCESS:       2157  HIT:       1915  MISS:        242  HIT %:    88.7807  MISS %:    11.2193  MPKI: 0.00484
PSCL2 TRANSLATION FROM L1D PREFETCHER INSTRUCTION	ACCESS:      43335  HIT:      22967  MISS:      20368  HIT %:    52.9987  MISS %:    47.0013  MPKI: 0.40736
PSCL2 LOAD TRANSLATION DATA	ACCESS:       1782  HIT:          0  MISS:       1782  HIT %:          0  MISS %:        100  MPKI: 0.03564
PSCL2 TRANSLATION FROM L1D PREFETCHER DATA	ACCESS:       2599  HIT:          0  MISS:       2599  HIT %:          0  MISS %:        100  MPKI: 0.05198


LLC TOTAL     ACCESS:    1058173  HIT:    1026278  MISS:      31895  HIT %:    96.9858  MISS %:    3.01416   MPKI: 0.6379
LLC LOAD INSTRUCTION	ACCESS:     285515  HIT:     284890  MISS:        625  HIT %:    99.7811  MISS %:   0.218903  MPKI: 0.0125
LLC PREFETCH INSTRUCTION	ACCESS:     207833  HIT:     206440  MISS:       1393  HIT %:    99.3298  MISS %:    0.67025  MPKI: 0.02786
LLC LOAD TRANSLATION INSTRUCTION	ACCESS:        204  HIT:        201  MISS:          3  HIT %:    98.5294  MISS %:    1.47059  MPKI: 6e-05
LLC TRANSLATION FROM L1D PREFETCHER INSTRUCTION	ACCESS:      18639  HIT:      18528  MISS:        111  HIT %:    99.4045  MISS %:   0.595526  MPKI: 0.00222
LLC LOAD DATA	ACCESS:     126838  HIT:     122912  MISS:       3926  HIT %:    96.9047  MISS %:    3.09529  MPKI: 0.07852
LLC RFO DATA	ACCESS:      86861  HIT:      73130  MISS:      13731  HIT %:     84.192  MISS %:     15.808  MPKI: 0.27462
LLC PREFETCH DATA	ACCESS:     203316  HIT:     191601  MISS:      11715  HIT %:     94.238  MISS %:    5.76197  MPKI: 0.2343
LLC WRITEBACK DATA	ACCESS:     127447  HIT:     127135  MISS:        312  HIT %:    99.7552  MISS %:   0.244808  MPKI: 0.00624
LLC LOAD TRANSLATION DATA	ACCESS:       1504  HIT:       1425  MISS:         79  HIT %:    94.7473  MISS %:    5.25266  MPKI: 0.00158
LLC TRANSLATION FROM L1D PREFETCHER DATA	ACCESS:         16  HIT:         16  MISS:          0  HIT %:        100  MISS %:          0  MPKI: 0

LLC AVERAGE MISS LATENCY: 159.447 cycles
LLC RQ	ACCESS:     519580	FORWARD:          0	MERGED:          0	TO_CACHE:     519577
LLC WQ	ACCESS:     127447	FORWARD:          3	MERGED:          0	TO_CACHE:     127447
LLC PQ	ACCESS:     411149	FORWARD:          0	MERGED:          0	TO_CACHE:     411149

LLC Dense regions hint to LLC: 0

RAW hits: 1935045
Loads Generated: 12634884
Loads sent to L1D: 10699838
Stores Generated: 6936813
Stores sent to L1D: 6936838
Major fault: 0 Minor fault: 2579
Allocated PAGES: 2579
I-Shadow cache 408 bytes
Touched + WorthPF tables 12288 bytes 
MMA filter 42 bytes 
FNL filter 272 bytes 
TOTAL PREFETCHER STORAGE SIZE: 19922 bytes
CPU 0 L1I next line prefetcher final stats

stream: 
stream:times selected: 1195808
stream:pref_filled: 119353
stream:pref_useful: 22143
stream:pref_late: 8249
stream:misses: 8567
stream:misses_by_poll: 0

CS: 
CS:times selected: 180467
CS:pref_filled: 56990
CS:pref_useful: 33497
CS:pref_late: 10356
CS:misses: 19525
CS:misses_by_poll: 1

CPLX: 
CPLX:times selected: 1014112
CPLX:pref_filled: 19097
CPLX:pref_useful: 3707
CPLX:pref_late: 3848
CPLX:misses: 94291
CPLX:misses_by_poll: 2

NL_L1: 
NL:times selected: 19180
NL:pref_filled: 556
NL:pref_useful: 205
NL:pref_late: 364
NL:misses: 1543
NL:misses_by_poll: 0

total selections: 2409567
total_filled: 94367
total_useful: 33288
total_late: 24135
total_polluted: 3
total_misses_after_warmup: 766007
conflicts: 5514200

test: 120786

DRAM Statistics
 CHANNEL 0
 RQ ROW_BUFFER_HIT:      10516  ROW_BUFFER_MISS:      21062
 DBUS_CONGESTED:          3
 WQ ROW_BUFFER_HIT:       1438  ROW_BUFFER_MISS:      13283  FULL:          0

 AVG_CONGESTED_CYCLE: 7

CPU 0 Branch Prediction Accuracy: 99.8211% MPKI: 0.32714 Average ROB Occupancy at Mispredict: 188.742
Branch types
NOT_BRANCH: 40856049 81.7121%
BRANCH_DIRECT_JUMP: 549908 1.09982%
BRANCH_INDIRECT: 183773 0.367546%
BRANCH_CONDITIONAL: 6188804 12.3776%
BRANCH_DIRECT_CALL: 939715 1.87943%
BRANCH_INDIRECT_CALL: 170793 0.341586%
BRANCH_RETURN: 1110518 2.22104%
BRANCH_OTHER: 0 0%

DRAM PAGES: 1048576
Allocated PAGES: 2579
Average_ROB_Occupancy: 227.634
Average_Decode_Occupancy: 30.3251
Average_FTQ_Occupancy: 11.6176
Indirect max targets: 14 Average targets: 1.15017
Branch_type:  BRANCH_DIRECT_JUMP:  Count Percentage: 3.32786 6.69666 3.79685 7.96304 2.23298 6.01588 1.27011 68.6966 
Branch_type:  BRANCH_INDIRECT:  Count Percentage: 6.17441 3.43917 8.16997 9.6987 3.33358 2.79908 3.06183 63.3233 
Branch_type:  BRANCH_CONDITIONAL:  Count Percentage: 21.9558 2.44348 1.50196 4.35999 1.6661 3.6369 1.04507 63.3907 
Branch_type:  BRANCH_DIRECT_CALL:  Count Percentage: 0.38978 1.25354 0.766385 4.06738 2.11736 2.88518 1.06814 87.4522 
Branch_type:  BRANCH_INDIRECT_CALL:  Count Percentage: 9.52462 0 2.98531 0 0 2.42421 3.27608 81.7898 
Branch_type:  BRANCH_RETURN:  Count Percentage: 3.72964 1.37935 1.03977 4.73935 4.4031 3.8833 1.45137 79.3741 
Branch_type:  BRANCH_DIRECT_JUMP:  Total Count: 36501 73451 41645 87341 24492 65984 13931 753485 
Branch_type:  BRANCH_INDIRECT:  Total Count: 22630 12605 29944 35547 12218 10259 11222 232088 
Branch_type:  BRANCH_CONDITIONAL:  Total Count: 2714179 302063 185672 538982 205963 449594 129191 7836359 
Branch_type:  BRANCH_DIRECT_CALL:  Total Count: 7337 23596 14426 76562 39856 54309 20106 1646151 
Branch_type:  BRANCH_INDIRECT_CALL:  Total Count: 32626 0 10226 0 0 8304 11222 280166 
Branch_type:  BRANCH_RETURN:  Total Count: 83010 30700 23142 105483 97999 86430 32303 1766617 
Number of unique branch instructions: 9828
Upper 32 bits: 
aaaa
ffff
ffff0000
Unique upper 32 bits: 3
Unique upper 36 bits: 3
Unique upper 40 bits: 5
Unique upper 44 bits: 32
Unique upper 48 bits: 153
Variant_0 : 1373 0.335205
Variant_1 : 1273 0.310791
Variant_2 : 1359 0.331787
Variant_3 : 0 0
Offset_3 4041
Offset_4 242
Offset_5 448
Offset_6 499
Offset_7 578
Offset_8 507
Offset_9 464
Offset_10 377
Offset_11 313
Offset_12 283
Offset_13 199
Offset_14 228
Offset_15 189
Offset_16 219
Offset_17 142
Offset_18 126
Offset_19 235
Offset_20 139
Offset_21 235
Offset_22 389
Offset_23 241
Offset_24 324
Offset_25 88
Offset_47 80
Offset_64 2
decode_dispatch_called: 24369645 66.069
Dispatch_width: 0 12991916 53.3119 35.2226
Dispatch_width: 1 827035 3.39371 2.24219
Dispatch_width: 2 786466 3.22724 2.1322
Dispatch_width: 3 459489 1.8855 1.24573
Dispatch_width: 4 4709388 19.3248 12.7677
Dispatch_width: 5 188420 0.773175 0.510829
Dispatch_width: 6 4406931 18.0837 11.9477
Empty_decode_cycles: 12515502 33.931
ROB_full_cycles: 7544699 20.4546
Starvation_cycles_per_kilo_instr: 249.335
Starvation_cycles_per_kilo_instr_3: 200.357
Starvation_cycles_per_kilo_instr_0: 179.627
Branch_type_1  (3,1)  (4,7)  (5,36)  (6,69)  (7,114)  (8,127)  (9,123)  (10,98)  (11,70)  (12,51)  (13,5)  (14,2)  (15,3)  (16,4)  (18,1)  (19,4)  (20,2)  (21,1)  (22,3)  (23,2)  (24,10)  (25,12) 
Branch_type_2  (3,1)  (5,1)  (8,3)  (9,3)  (12,1)  (13,1)  (14,1)  (16,3)  (17,2)  (20,2)  (21,2)  (23,5)  (24,1)  (47,36) 
Branch_type_3  (3,4039)  (4,235)  (5,407)  (6,414)  (7,433)  (8,317)  (9,255)  (10,152)  (11,128)  (12,58)  (13,4)  (64,2) 
Branch_type_4  (6,4)  (7,8)  (8,26)  (9,51)  (10,60)  (11,59)  (12,95)  (13,86)  (14,101)  (15,89)  (16,98)  (17,63)  (18,57)  (19,114)  (20,72)  (21,124)  (22,207)  (23,136)  (24,186)  (25,72) 
Branch_type_5  (8,2)  (9,1)  (10,3)  (11,5)  (12,3)  (13,14)  (14,16)  (15,11)  (16,20)  (17,11)  (18,16)  (19,12)  (20,10)  (21,13)  (22,42)  (23,26)  (24,36) 
Branch_type_6  (5,4)  (6,12)  (7,23)  (8,32)  (9,31)  (10,64)  (11,51)  (12,75)  (13,89)  (14,108)  (15,86)  (16,94)  (17,66)  (18,52)  (19,105)  (20,53)  (21,95)  (22,137)  (23,72)  (24,91)  (25,4)  (47,44) 
Unique trigger count: 
Variant_0_evicts_0 : 0
Variant_0_evicts_1 : 0
Variant_0_evicts_2 : 0
Variant_0_evicts_3 : 0
Variant_1_evicts_0 : 0
Variant_1_evicts_1 : 0
Variant_1_evicts_2 : 0
Variant_1_evicts_3 : 0
Variant_2_evicts_0 : 0
Variant_2_evicts_1 : 0
Variant_2_evicts_2 : 0
Variant_2_evicts_3 : 0
Variant_3_evicts_0 : 0
Variant_3_evicts_1 : 0
Variant_3_evicts_2 : 0
Variant_3_evicts_3 : 0
BTB PER SET UNIQUE ADDR: 13 11 6 13 11 10 8 10 8 13 9 12 11 14 9 9 7 6 13 11 8 12 14 12 9 11 9 7 10 8 11 11 11 8 9 10 11 10 9 9 9 8 10 10 8 9 10 9 9 7 9 12 8 9 9 4 11 8 6 12 11 10 11 10 13 9 8 10 12 12 13 11 12 10 9 7 8 11 10 12 13 7 7 9 11 10 14 8 8 16 8 5 12 8 5 8 9 7 12 16 13 15 13 8 13 8 12 12 10 7 8 11 11 9 7 5 9 16 11 10 12 10 11 7 12 12 6 10 12 11 11 6 10 13 6 11 9 12 7 15 11 9 10 10 11 10 13 7 7 12 13 11 13 10 11 10 12 14 11 11 11 9 12 9 9 9 8 7 9 8 7 10 7 10 5 9 10 10 7 8 5 14 12 8 16 16 10 11 8 12 11 10 8 14 13 11 6 15 13 10 12 10 5 9 5 9 11 10 9 8 7 11 11 9 8 13 12 8 12 18 9 15 10 6 8 9 12 10 7 12 7 5 8 9 6 13 11 9 9 7 9 10 15 10 8 8 13 10 11 6 16 9 12 12 11 14 11 9 9 9 10 12 7 9 9 5 7 11 9 8 8 9 7 5 5 8 11 11 13 9 8 9 8 10 9 6 9 16 12 15 8 6 11 16 3 15 8 9 10 13 8 7 11 15 13 9 10 9 16 8 11 15 9 13 11 8 13 9 10 12 7 14 8 10 14 8 11 8 10 10 8 8 7 8 10 11 10 11 7 15 10 10 7 14 11 12 14 10 10 6 8 11 15 10 12 14 9 13 11 8 10 10 9 12 8 7 6 10 14 12 11 7 13 9 11 15 12 15 11 13 11 8 9 7 6 11 10 11 11 8 10 7 10 17 5 7 8 9 11 11 10 12 13 8 14 12 9 10 14 8 13 5 12 16 10 12 12 9 18 10 8 14 9 11 9 9 10 7 10 7 14 7 8 13 9 9 13 11 7 11 14 8 8 14 20 9 6 11 17 5 12 14 14 12 15 14 14 15 9 14 6 9 11 10 7 9 8 13 10 13 6 10 13 10 7 9 5 14 6 14 13 11 12 12 9 8 9 10 13 10 8 17 7 6 8 9 13 14 5 9 4 13 11 12 10 9 8 20 16 9 10 11 10 7 11 14 7 17 10 7 9 10 9 7 7 16 18 8 7 18 13 8 9 7 9 14 12 10 13 12 15 10 12 9 11 16 8 14 9 10 11 15 9 8 10 13 13 9 11 12 7 8 13 7 7 9 14 12 8 10 11 14 10 9 12 11 14 15 9 9 11 9 7 7 14 9 12 4 11 12 8 15 13 11 15 5 8 12 7 10 8 10 11 4 12 7 18 12 10 11 15 12 4 10 5 11 11 13 11 9 15 13 4 4 9 14 8 13 7 9 8 9 14 13 6 11 13 16 7 15 11 11 14 6 15 12 14 14 14 9 9 13 7 13 11 11 10 12 8 9 8 8 12 16 9 14 7 8 9 10 12 9 12 12 15 6 14 10 7 10 11 16 10 10 17 10 7 11 18 14 11 12 13 7 9 10 11 11 7 13 7 11 15 14 6 8 10 5 7 8 10 8 5 11 9 12 12 9 9 11 9 10 12 13 12 8 12 6 7 13 14 7 14 10 7 8 17 14 14 9 11 11 14 12 10 17 11 12 7 10 12 9 14 11 9 10 10 8 9 5 13 6 9 8 6 10 11 6 8 11 10 14 9 5 10 8 12 8 14 10 9 13 10 9 11 11 8 9 8 9 6 9 7 13 17 12 9 6 13 8 12 12 17 13 12 10 13 10 6 13 13 10 10 9 9 12 14 11 7 14 14 17 9 10 15 10 9 11 14 12 12 12 11 9 12 12 13 10 7 7 13 13 11 13 9 12 7 13 7 10 7 10 11 11 12 12 12 11 7 10 10 11 10 10 11 8 12 11 15 8 8 13 12 13 12 4 11 10 8 12 9 9 8 12 10 11 16 11 11 14 16 8 10 9 12 12 11 10 13 9 10 9 12 12 6 7 10 11 7 15 9 12 7 10 13 10 12 10 8 9 11 11 9 7 6 11 8 10 12 5 8 12 17 8 7 8 8 9 10 9 8 8 9 6 8 14 8 12 11 13 9 12 8 14 10 11 8 9 10 11 13 10 13 11 11 7 12 10 6 13 10 15 10 7 15 13 16 9 16 15 8 11 12 9 8 15 8 10 17 9 11 7 7 16 13 11 9 9 15 8 13 10 10 8 17 11 12 14 11 14 13 12 13 5 11 11 4 8 6 9 8 11 8 11 
BTB PER SET COUNT: 1017 159 2005 1391 2585 1422 54 967 3431 786 2198 3387 22767 3143 4235 140 2822 515 3035 18 815 821 3537 265 1433 23 504 2139 633 559 3697 817 984 14 67 635 1077 3175 10 3667 931 1856 1367 26 1203 147 1315 13 1523 503 255 642 16 1096 2527 4 455 4055 17 19 38 747 23 65 3933 897 1294 1254 4025 293 3741 3574 17 190 3269 7 10 5816 471 513 835 1016 2948 3193 1725 1834 97 652 23 1866 78 858 491 89 1672 10 4247 7 20 2123 97 3906 2307 14 3257 605 1072 3531 3720 1993 293 570 396 2303 609 5 2536 4248 2590 1100 3552 3940 3225 61 3871 2888 576 12 21 5828 1467 1494 14 626 13 2015 2049 40 1590 1956 15 1942 23 5792 175 2411 4072 512 144 1575 2022 42 4267 3918 3797 3169 4651 3049 347 7243 1107 97 825 3661 682 354 182 974 726 1051 716 177 9 1281 7 231 1370 775 28 986 1466 331 1638 9 1593 523 1245 21 256 2803 95 2080 805 2355 7503 7651 359 1725 1032 6538 1234 1518 34 1674 5 307 2048 2006 151 1268 48 16 3766 11 27 5765 2062 1289 2751 328 1841 632 10 2123 515 1652 3319 1167 1940 4405 582 737 17 1251 8 1457 1966 4004 964 10 525 5912 1058 1920 460 7262 2539 1155 192 7 2505 10 817 8281 293 2402 4919 1740 610 11 2735 2910 202 15 2173 145 9 4590 204 3210 1026 1532 1934 80 1877 627 1403 4781 2323 2436 26 13 2538 1151 5828 6 2835 3579 8739 2907 1974 1400 2652 3343 3 1432 3689 1499 802 203 4368 2925 3244 773 3366 2979 1378 1504 877 1974 5298 5900 1594 259 459 11 442 14 51 1532 483 4693 9 1057 5323 13 5562 49 786 2943 1627 1091 27 5810 55 137 2267 4270 538 181 1732 1433 3790 5708 334 2799 4350 1278 3454 6 12 487 2123 10 3610 4528 9 6463 1005 3019 16 1314 249 1154 1712 18 3369 2301 28 2853 2610 1667 1098 1964 615 3731 1907 2595 408 4945 2958 3241 5099 1434 1435 205 3594 600 1904 3671 1635 3399 50 2289 13 150 10 20 3263 2280 818 681 1234 115 1681 3805 22 691 998 3815 1466 99 3785 42 11 2353 2262 2227 5518 1758 17 2927 15 22 2831 1367 10 2138 1777 1707 4552 7 3054 2139 65 20 22 527 295 1309 345 997 3691 124 2609 12 46 19 21 5 2440 205 197 4151 2024 4745 975 3828 4300 5149 6 3847 2962 2729 12 4863 1459 1521 2207 402 661 748 1067 14 3150 1337 6 1080 515 967 317 480 3263 3740 775 1359 2176 15 4524 3588 843 3237 9130 6 669 7626 8959 3903 5 37 246 6370 3042 2762 934 1237 12 1123 2376 642 1190 1444 2077 1499 1780 400 1470 5018 118 65 1543 3130 257 519 9 2284 1626 419 7 1560 2924 10 720 972 456 1014 490 1940 372 4561 1013 3856 1665 1112 1741 483 1023 551 880 1903 2436 5810 4404 2573 3680 32 2619 6013 149 3831 13 19 514 807 11 527 23 1269 2653 400 2421 2255 1454 2775 5405 1236 1161 6094 124 1489 1867 1135 833 5871 1125 3144 3281 105 1775 1337 2855 3660 2197 4133 2950 1468 1987 2735 464 3670 974 1695 582 6 16 365 2042 5415 2389 15 5168 71 6 1928 14 669 1833 2146 1136 195 4849 281 6 5792 3778 207 980 5825 1658 893 5938 15 3908 2030 1463 2067 2534 2933 9 5008 152 2167 1983 182 6602 168 4818 5210 182 1809 1952 2048 1084 1455 1515 544 1358 3086 8 1551 15 68 1322 5456 101 1746 11 2658 4463 1129 2378 242 1739 5024 2957 6 7758 6750 11 305 3620 1569 16 2099 5231 4001 26 1416 1061 1771 2162 2067 2044 693 2867 10 109 847 55 727 153 3805 2785 201 11 1698 4239 5 2404 425 2818 1978 1043 4416 1171 1413 646 142 157 1299 12 2597 5200 4629 1586 1145 2502 7 4742 379 41 175 82 1727 2181 2900 5282 543 346 9616 1418 2246 3747 383 13 4265 754 1462 32 34 3112 1795 2695 4110 3664 1904 2083 3579 33 5 258 2679 1202 1194 72 623 3074 2402 144 2291 2148 5380 1139 5 265 12 2201 10 1590 269 3548 457 3818 386 4669 882 751 440 1570 10 8 68 373 2721 3434 3193 425 987 3765 136 144 916 965 441 2931 1651 3511 2386 19 2008 2422 740 514 49 107 6448 280 4084 3470 2808 1511 3162 1497 610 4760 1231 1561 1465 21 766 632 3760 906 1484 1336 1939 263 1769 259 1474 2328 768 629 17 2168 203 9 1208 9 14620 10 2157 5988 193 4364 5467 2795 11 22 1146 21 1261 982 57 1683 90 547 2015 3385 30 11 523 2363 5118 353 968 6240 3486 6207 157 2662 2256 9 7342 4612 3311 2531 124 1439 7625 6986 1505 139 2765 242 274 3636 507 4202 419 2236 503 185 1907 6 9 1584 23 2095 192 2208 2448 12 1722 2242 52 3292 3634 1318 9 3961 2004 2605 4323 26 1563 50 13 5400 8 9 1425 5320 1705 7 3044 6362 929 896 1008 4294 504 2790 2225 7742 2994 11 1468 1633 1473 1517 1192 5256 8298 3679 164 322 247 2581 1531 133 3777 4094 382 573 8 1733 1726 13 1543 737 1338 12 2642 7472 1434 599 1266 2099 2501 386 3907 801 1059 17 3840 18 1441 2299 759 305 7 14 782 879 2212 36 1908 30 99 3368 1935 666 315 2799 3285 224 4621 843 5215 77 935 1109 7 1048 3697 17 10 563 341 1641 1466 14 887 
To predecode: 1197240
Predecoding something: 749642
Predecode request dropped: 0
sizeofblock_0 0
sizeofblock_1 337677
sizeofblock_2 418906
sizeofblock_3 813503
sizeofblock_4 196591
sizeofblock_5 0
sizeofblock_6 0
sizeofblock_7 0
sizeofblock_8 0
Variant_0 Correct: 1609023 Incorrect: 0 Accuracy: 1
Variant_1 Correct: 2085487 Incorrect: 0 Accuracy: 1
Variant_2 Correct: 5037543 Incorrect: 0 Accuracy: 1
Variant_3 Correct: 0 Incorrect: 0 Accuracy: -nan
