
*** ChampSim Multicore Out-of-Order Simulator ***

Warmup Instructions: 50000000
Simulation Instructions: 50000000
Number of CPUs: 1
LLC sets: 2048
LLC ways: 16
Off-chip DRAM Size: 4096 MB Channels: 1 Width: 64-bit Data Rate: 6400 MT/s
CPU 0 runs ./micro_traces/srv82.trace.gz
.gz
ITLB has LRU replacement policy
DTLB has LRU replacement policy
STLB has LRU replacement policy
FDIP Prefetcher at L1I
L1I has LRU replacement policy
L1D has LRU replacement policy
Initialize SRRIP state for L2C
Initialize DRRIP state for LLC
Heartbeat_Variant_0 : 1333 0.21696 per_variant_size: 0 1333 0 0 0 0 0 0 0 
Heartbeat_Variant_1 : 1302 0.211914 per_variant_size: 0 766 536 0 0 0 0 0 0 
Heartbeat_Variant_2 : 1454 0.236654 per_variant_size: 0 719 394 184 157 0 0 0 0 
Heartbeat_Variant_3 : 0 0 per_variant_size: 0 0 0 0 0 0 0 0 0 
Heartbeat_Variant_0_evicts 0 : 5675 1 : 14 2 : 18 3 : 0 
Heartbeat_Variant_1_evicts 0 : 21 1 : 0 2 : 204 3 : 0 
Heartbeat_Variant_2_evicts 0 : 17 1 : 212 2 : 0 3 : 0 
Heartbeat_Variant_3_evicts 0 : 0 1 : 0 2 : 0 3 : 0 
Heartbeat CPU 0 instructions: 10000000 cycles: 2797659 heartbeat IPC: 3.57442 cumulative IPC: 3.57442 (Simulation time: 0 hr 2 min 6 sec) 
Heartbeat_Variant_0 : 1379 0.224447 per_variant_size: 0 1379 0 0 0 0 0 0 0 
Heartbeat_Variant_1 : 1349 0.219564 per_variant_size: 0 788 561 0 0 0 0 0 0 
Heartbeat_Variant_2 : 1487 0.242025 per_variant_size: 0 708 416 187 176 0 0 0 0 
Heartbeat_Variant_3 : 0 0 per_variant_size: 0 0 0 0 0 0 0 0 0 
Heartbeat_Variant_0_evicts 0 : 5590 1 : 6 2 : 2 3 : 0 
Heartbeat_Variant_1_evicts 0 : 5 1 : 0 2 : 202 3 : 0 
Heartbeat_Variant_2_evicts 0 : 3 1 : 200 2 : 0 3 : 0 
Heartbeat_Variant_3_evicts 0 : 0 1 : 0 2 : 0 3 : 0 
Heartbeat CPU 0 instructions: 20000002 cycles: 5594298 heartbeat IPC: 3.57572 cumulative IPC: 3.57507 (Simulation time: 0 hr 4 min 12 sec) 
Heartbeat_Variant_0 : 1380 0.224609 per_variant_size: 0 1380 0 0 0 0 0 0 0 
Heartbeat_Variant_1 : 1352 0.220052 per_variant_size: 0 790 562 0 0 0 0 0 0 
Heartbeat_Variant_2 : 1489 0.24235 per_variant_size: 0 710 416 183 180 0 0 0 0 
Heartbeat_Variant_3 : 0 0 per_variant_size: 0 0 0 0 0 0 0 0 0 
Heartbeat_Variant_0_evicts 0 : 5537 1 : 0 2 : 2 3 : 0 
Heartbeat_Variant_1_evicts 0 : 0 1 : 0 2 : 196 3 : 0 
Heartbeat_Variant_2_evicts 0 : 1 1 : 195 2 : 0 3 : 0 
Heartbeat_Variant_3_evicts 0 : 0 1 : 0 2 : 0 3 : 0 
Heartbeat CPU 0 instructions: 30000002 cycles: 8390866 heartbeat IPC: 3.57581 cumulative IPC: 3.57532 (Simulation time: 0 hr 6 min 14 sec) 
Heartbeat_Variant_0 : 1380 0.224609 per_variant_size: 0 1380 0 0 0 0 0 0 0 
Heartbeat_Variant_1 : 1356 0.220703 per_variant_size: 0 792 564 0 0 0 0 0 0 
Heartbeat_Variant_2 : 1489 0.24235 per_variant_size: 0 709 417 186 177 0 0 0 0 
Heartbeat_Variant_3 : 0 0 per_variant_size: 0 0 0 0 0 0 0 0 0 
Heartbeat_Variant_0_evicts 0 : 5668 1 : 0 2 : 0 3 : 0 
Heartbeat_Variant_1_evicts 0 : 2 1 : 0 2 : 198 3 : 0 
Heartbeat_Variant_2_evicts 0 : 0 1 : 198 2 : 0 3 : 0 
Heartbeat_Variant_3_evicts 0 : 0 1 : 0 2 : 0 3 : 0 
Heartbeat CPU 0 instructions: 40000000 cycles: 11188046 heartbeat IPC: 3.57503 cumulative IPC: 3.57524 (Simulation time: 0 hr 8 min 17 sec) 
Heartbeat_Variant_0 : 1397 0.227376 per_variant_size: 0 1397 0 0 0 0 0 0 0 
Heartbeat_Variant_1 : 1385 0.225423 per_variant_size: 0 785 600 0 0 0 0 0 0 
Heartbeat_Variant_2 : 1505 0.244954 per_variant_size: 0 708 426 189 182 0 0 0 0 
Heartbeat_Variant_3 : 0 0 per_variant_size: 0 0 0 0 0 0 0 0 0 
Heartbeat_Variant_0_evicts 0 : 5453 1 : 1 2 : 0 3 : 0 
Heartbeat_Variant_1_evicts 0 : 2 1 : 0 2 : 192 3 : 0 
Heartbeat_Variant_2_evicts 0 : 1 1 : 193 2 : 0 3 : 0 
Heartbeat_Variant_3_evicts 0 : 0 1 : 0 2 : 0 3 : 0 
Heartbeat CPU 0 instructions: 50000000 cycles: 13984475 heartbeat IPC: 3.57599 cumulative IPC: 3.57539 (Simulation time: 0 hr 10 min 18 sec) 

Warmup complete CPU 0 instructions: 50000004 cycles: 13984476 (Simulation time: 0 hr 10 min 18 sec) 

Cycle: 20000000 FTQ IN: 58324869 FTQ occupancy: 20.0165 DECODE IN: 58324721 DECODE occupancy: 52.2823 ROB IN: 58324661 ROB occupancy: 314.788 ROB OUT: 58324309
Heartbeat_Variant_0 : 1397 0.227376 per_variant_size: 0 1397 0 0 0 0 0 0 0 
Heartbeat_Variant_1 : 1385 0.225423 per_variant_size: 0 787 598 0 0 0 0 0 0 
Heartbeat_Variant_2 : 1505 0.244954 per_variant_size: 0 708 426 189 182 0 0 0 0 
Heartbeat_Variant_3 : 0 0 per_variant_size: 0 0 0 0 0 0 0 0 0 
Heartbeat_Variant_0_evicts 0 : 5599 1 : 0 2 : 0 3 : 0 
Heartbeat_Variant_1_evicts 0 : 0 1 : 0 2 : 196 3 : 0 
Heartbeat_Variant_2_evicts 0 : 0 1 : 196 2 : 0 3 : 0 
Heartbeat_Variant_3_evicts 0 : 0 1 : 0 2 : 0 3 : 0 
Heartbeat CPU 0 instructions: 60000000 cycles: 21208121 heartbeat IPC: 1.38434 cumulative IPC: 1.38434 (Simulation time: 0 hr 12 min 34 sec) 
Heartbeat_Variant_0 : 1397 0.227376 per_variant_size: 0 1397 0 0 0 0 0 0 0 
Heartbeat_Variant_1 : 1393 0.226725 per_variant_size: 0 790 603 0 0 0 0 0 0 
Heartbeat_Variant_2 : 1514 0.246419 per_variant_size: 0 715 425 194 180 0 0 0 0 
Heartbeat_Variant_3 : 0 0 per_variant_size: 0 0 0 0 0 0 0 0 0 
Heartbeat_Variant_0_evicts 0 : 5688 1 : 0 2 : 0 3 : 0 
Heartbeat_Variant_1_evicts 0 : 2 1 : 0 2 : 199 3 : 0 
Heartbeat_Variant_2_evicts 0 : 1 1 : 199 2 : 0 3 : 0 
Heartbeat_Variant_3_evicts 0 : 0 1 : 0 2 : 0 3 : 0 
Heartbeat CPU 0 instructions: 70000000 cycles: 28503846 heartbeat IPC: 1.37067 cumulative IPC: 1.37747 (Simulation time: 0 hr 14 min 52 sec) 
Cycle: 30000000 FTQ IN: 13747270 FTQ occupancy: 13.2214 DECODE IN: 13747354 DECODE occupancy: 34.1967 ROB IN: 13747414 ROB occupancy: 234.992 ROB OUT: 13747465
Heartbeat_Variant_0 : 1397 0.227376 per_variant_size: 0 1397 0 0 0 0 0 0 0 
Heartbeat_Variant_1 : 1394 0.226888 per_variant_size: 0 792 602 0 0 0 0 0 0 
Heartbeat_Variant_2 : 1513 0.246257 per_variant_size: 0 714 425 192 182 0 0 0 0 
Heartbeat_Variant_3 : 0 0 per_variant_size: 0 0 0 0 0 0 0 0 0 
Heartbeat_Variant_0_evicts 0 : 5600 1 : 0 2 : 0 3 : 0 
Heartbeat_Variant_1_evicts 0 : 0 1 : 0 2 : 197 3 : 0 
Heartbeat_Variant_2_evicts 0 : 0 1 : 196 2 : 0 3 : 0 
Heartbeat_Variant_3_evicts 0 : 0 1 : 0 2 : 0 3 : 0 
Heartbeat CPU 0 instructions: 80000000 cycles: 35723943 heartbeat IPC: 1.38502 cumulative IPC: 1.37998 (Simulation time: 0 hr 16 min 58 sec) 
Cycle: 40000000 FTQ IN: 13799049 FTQ occupancy: 13.2573 DECODE IN: 13798971 DECODE occupancy: 34.5414 ROB IN: 13798911 ROB occupancy: 237.47 ROB OUT: 13798860
Heartbeat_Variant_0 : 1398 0.227539 per_variant_size: 0 1398 0 0 0 0 0 0 0 
Heartbeat_Variant_1 : 1400 0.227865 per_variant_size: 0 791 609 0 0 0 0 0 0 
Heartbeat_Variant_2 : 1519 0.247233 per_variant_size: 0 718 427 191 183 0 0 0 0 
Heartbeat_Variant_3 : 0 0 per_variant_size: 0 0 0 0 0 0 0 0 0 
Heartbeat_Variant_0_evicts 0 : 5648 1 : 0 2 : 1 3 : 0 
Heartbeat_Variant_1_evicts 0 : 0 1 : 0 2 : 197 3 : 0 
Heartbeat_Variant_2_evicts 0 : 1 1 : 196 2 : 0 3 : 0 
Heartbeat_Variant_3_evicts 0 : 0 1 : 0 2 : 0 3 : 0 
Heartbeat CPU 0 instructions: 90000000 cycles: 43021016 heartbeat IPC: 1.37041 cumulative IPC: 1.37757 (Simulation time: 0 hr 19 min 7 sec) 
Cycle: 50000000 FTQ IN: 13813227 FTQ occupancy: 13.2353 DECODE IN: 13813302 DECODE occupancy: 34.2147 ROB IN: 13813310 ROB occupancy: 235.583 ROB OUT: 13813314
Heartbeat_Variant_0 : 1398 0.227539 per_variant_size: 0 1398 0 0 0 0 0 0 0 
Heartbeat_Variant_1 : 1400 0.227865 per_variant_size: 0 793 607 0 0 0 0 0 0 
Heartbeat_Variant_2 : 1519 0.247233 per_variant_size: 0 718 427 199 175 0 0 0 0 
Heartbeat_Variant_3 : 0 0 per_variant_size: 0 0 0 0 0 0 0 0 0 
Heartbeat_Variant_0_evicts 0 : 5612 1 : 0 2 : 0 3 : 0 
Heartbeat_Variant_1_evicts 0 : 0 1 : 0 2 : 197 3 : 0 
Heartbeat_Variant_2_evicts 0 : 0 1 : 197 2 : 0 3 : 0 
Heartbeat_Variant_3_evicts 0 : 0 1 : 0 2 : 0 3 : 0 
Heartbeat CPU 0 instructions: 100000000 cycles: 50227230 heartbeat IPC: 1.38769 cumulative IPC: 1.37959 (Simulation time: 0 hr 23 min 23 sec) 
Finished CPU 0 instructions: 50000003 cycles: 36242760 cumulative IPC: 1.37959 (Simulation time: 0 hr 23 min 23 sec) 

ChampSim completed all CPUs

Region of Interest Statistics

CPU 0 cumulative IPC: 1.37959 instructions: 50000003 cycles: 36242760
 Fetch stage stalled: 53.8459  Sim cycles: 36242760 fetch stall cycle: 19515241
 Empty decode stage: 33.9646  Sim cycles: 36242760 fetch stall cycle: 12309720
ITLB TOTAL     ACCESS:    5858818  HIT:    5368190  MISS:     490628  HIT %:    91.6258  MISS %:    8.37418   MPKI: 9.81256
ITLB LOAD TRANSLATION INSTRUCTION	ACCESS:    5739848  HIT:    5249220  MISS:     490628  HIT %:    91.4522  MISS %:    8.54775  MPKI: 9.81256
ITLB TRANSLATION FROM L1D PREFETCHER INSTRUCTION	ACCESS:     118970  HIT:     118970  MISS:          0  HIT %:        100  MISS %:          0  MPKI: 0

ITLB AVERAGE MISS LATENCY: 9.05505 cycles
ITLB RQ	ACCESS:    8000360	FORWARD:          0	MERGED:    1701128	TO_CACHE:    6299232

DTLB TOTAL     ACCESS:    8971966  HIT:    8502046  MISS:     469920  HIT %:    94.7624  MISS %:    5.23765   MPKI: 9.3984
DTLB LOAD TRANSLATION DATA	ACCESS:    8971966  HIT:    8502046  MISS:     469920  HIT %:    94.7624  MISS %:    5.23765  MPKI: 9.3984

DTLB AVERAGE MISS LATENCY: 9.32306 cycles
DTLB RQ	ACCESS:   13340642	FORWARD:          0	MERGED:    4332003	TO_CACHE:    9008639

STLB TOTAL     ACCESS:    1212123  HIT:    1210081  MISS:       2042  HIT %:    99.8315  MISS %:   0.168465   MPKI: 0.04084
STLB LOAD TRANSLATION INSTRUCTION	ACCESS:     490628  HIT:     490378  MISS:        250  HIT %:     99.949  MISS %:  0.0509551  MPKI: 0.005
STLB LOAD TRANSLATION DATA	ACCESS:     469920  HIT:     468150  MISS:       1770  HIT %:    99.6233  MISS %:    0.37666  MPKI: 0.0354
STLB TRANSLATION FROM L1D PREFETCHER DATA	ACCESS:     251575  HIT:     251553  MISS:         22  HIT %:    99.9913  MISS %: 0.00874491  MPKI: 0.00044

STLB AVERAGE MISS LATENCY: 72.6141 cycles
STLB RQ	ACCESS:    1333984	FORWARD:          0	MERGED:     121811	TO_CACHE:    1212173

STLB Hit, L1D data hit: 0
STLB Hit, L2C data hit: 0
STLB Hit, LLC data hit: 0
STLB Hit, LLC data miss: 0
STLB STLB hints to L2: 0
L1D TOTAL     ACCESS:   13096506  HIT:   11990500  MISS:    1106006  HIT %:     91.555  MISS %:    8.44505   MPKI: 22.1201
L1D LOAD DATA	ACCESS:    6564903  HIT:    5837487  MISS:     727416  HIT %:    88.9196  MISS %:    11.0804  MPKI: 14.5483
L1D RFO DATA	ACCESS:    6197843  HIT:    5913617  MISS:     284226  HIT %:    95.4141  MISS %:    4.58589  MPKI: 5.68452
L1D PREFETCH DATA	ACCESS:     333760  HIT:     239396  MISS:      94364  HIT %:     71.727  MISS %:     28.273  MPKI: 1.88728

L1D PREFETCH  REQUESTED:     747168  ISSUED:     747168  USEFUL:      33049  USELESS:      68947
L1D USEFUL LOAD PREFETCHES:      33049 PREFETCH ISSUED TO LOWER LEVEL:     102077  ACCURACY: 32.3765
 TIMELY PREFETCHES:      33049 LATE PREFETCHES: 7634 DROPPED PREFETCHES: 13
L1D AVERAGE MISS LATENCY: 224897 cycles
L1D RQ	ACCESS:   10693428	FORWARD:          0	MERGED:    3934145	TO_CACHE:    6598614
L1D WQ	ACCESS:    6936838	FORWARD:     160969	MERGED:     194810	TO_CACHE:    6742028
L1D PQ	ACCESS:     373734	FORWARD:          0	MERGED:          0	TO_CACHE:     373434

L1D UNIQUE REGIONS ACCESSED: 0
L1D REGIONS CONFLICTS: 0
L1D Cross Page Prefetch Requests: 7078
L1D Same Page Prefetch Requests: 752280
L1D ROI Sum of L1D PQ occupancy: 4746509
L1D PREFETCHES PUSHED FROM L2C: 0
L1I TOTAL     ACCESS:    7166332  HIT:    4418271  MISS:    2748061  HIT %:    61.6532  MISS %:    38.3468   MPKI: 54.9612
L1I LOAD INSTRUCTION	ACCESS:    6493029  HIT:    3744968  MISS:    2748061  HIT %:    57.6767  MISS %:    42.3233  MPKI: 54.9612
L1I PREFETCH INSTRUCTION	ACCESS:     673303  HIT:     673303  MISS:          0  HIT %:        100  MISS %:          0  MPKI: 0

L1I PREFETCH  REQUESTED:    1620326  ISSUED:    1620326  USEFUL:          0  USELESS:          0
L1I USEFUL LOAD PREFETCHES:          0 PREFETCH ISSUED TO LOWER LEVEL:          0  ACCURACY: -nan
 TIMELY PREFETCHES:          0 LATE PREFETCHES: 0 DROPPED PREFETCHES: 0
L1I AVERAGE MISS LATENCY: 17.9354 cycles
L1I RQ	ACCESS:    9509107	FORWARD:          0	MERGED:    2687895	TO_CACHE:    6821212
L1I PQ	ACCESS:    1620326	FORWARD:          0	MERGED:     441178	TO_CACHE:    1179148

L1BTB TOTAL     ACCESS:    5672617  HIT:    2059757  MISS:    3612860  HIT %:    36.3105  MISS %:    63.6895   MPKI: 72.2572
L1BTB BRANCH_DIRECT_JUMP	ACCESS:     549908  HIT:     146844  MISS:     403064	AVERAGE STALL: 52.158
L1BTB BRANCH_INDIRECT	ACCESS:     183773  HIT:      66657  MISS:     117116	AVERAGE STALL: 104.012
L1BTB BRANCH_CONDITIONAL	ACCESS:    2717910  HIT:    1429385  MISS:    1288525	AVERAGE STALL: 57.9905
L1BTB BRANCH_DIRECT_CALL	ACCESS:     939715  HIT:     105740  MISS:     833975	AVERAGE STALL: 72.4555
L1BTB BRANCH_INDIRECT_CALL	ACCESS:     170793  HIT:      21000  MISS:     149793	AVERAGE STALL: 136.878
L1BTB BRANCH_RETURN	ACCESS:    1110518  HIT:     290131  MISS:     820387	AVERAGE STALL: 51.9307
L1BTB BRANCH_OTHER ACCESS:          0  HIT:          0  MISS:          0	AVERAGE STALL: -nan
L1BTB TOTAL ROB OCCUPANCY AT BTB MISS: 2.42296

L2BTB TOTAL     ACCESS:    3587346  HIT:    3525162  MISS:      62184  HIT %:    98.2666  MISS %:    1.73343   MPKI: 1.24368
L2BTB BRANCH_DIRECT_JUMP	ACCESS:     398818  HIT:     394656  MISS:       4162	AVERAGE STALL: 52.158
L2BTB BRANCH_INDIRECT	ACCESS:     106887  HIT:     104309  MISS:       2578	AVERAGE STALL: 104.012
L2BTB BRANCH_CONDITIONAL	ACCESS:    1288525  HIT:    1284260  MISS:       4265	AVERAGE STALL: 57.9905
L2BTB BRANCH_DIRECT_CALL	ACCESS:     833975  HIT:     833693  MISS:        282	AVERAGE STALL: 72.4555
L2BTB BRANCH_INDIRECT_CALL	ACCESS:     140157  HIT:     129856  MISS:      10301	AVERAGE STALL: 136.878
L2BTB BRANCH_RETURN	ACCESS:     818984  HIT:     778388  MISS:      40596	AVERAGE STALL: 51.9307
L2BTB BRANCH_OTHER ACCESS:          0  HIT:          0  MISS:          0	AVERAGE STALL: -nan
L2BTB TOTAL ROB OCCUPANCY AT BTB MISS: 140.773

L2C TOTAL     ACCESS:    4460907  HIT:    3903015  MISS:     557892  HIT %:    87.4938  MISS %:    12.5062   MPKI: 11.1578
L2C LOAD INSTRUCTION	ACCESS:    2748060  HIT:    2423131  MISS:     324929  HIT %:    88.1761  MISS %:    11.8239  MPKI: 6.49858
L2C LOAD TRANSLATION INSTRUCTION	ACCESS:        280  HIT:         60  MISS:        220  HIT %:    21.4286  MISS %:    78.5714  MPKI: 0.0044
L2C LOAD DATA	ACCESS:     719748  HIT:     638973  MISS:      80775  HIT %:    88.7773  MISS %:    11.2227  MPKI: 1.6155
L2C RFO DATA	ACCESS:     284126  HIT:     224824  MISS:      59302  HIT %:    79.1283  MISS %:    20.8717  MPKI: 1.18604
L2C PREFETCH DATA	ACCESS:     189958  HIT:     116594  MISS:      73364  HIT %:    61.3788  MISS %:    38.6212  MPKI: 1.46728
L2C WRITEBACK DATA	ACCESS:     516842  HIT:     498908  MISS:      17934  HIT %:    96.5301  MISS %:    3.46992  MPKI: 0.35868
L2C LOAD TRANSLATION DATA	ACCESS:       1846  HIT:        495  MISS:       1351  HIT %:    26.8147  MISS %:    73.1853  MPKI: 0.02702
L2C TRANSLATION FROM L1D PREFETCHER DATA	ACCESS:         47  HIT:         30  MISS:         17  HIT %:    63.8298  MISS %:    36.1702  MPKI: 0.00034

L2C PREFETCH  REQUESTED:      96503  ISSUED:      96503  USEFUL:       9430  USELESS:      64501
L2C USEFUL LOAD PREFETCHES:       9430 PREFETCH ISSUED TO LOWER LEVEL:      73933  ACCURACY: 12.7548
 TIMELY PREFETCHES:       9430 LATE PREFETCHES: 569 DROPPED PREFETCHES: 0
L2C AVERAGE MISS LATENCY: 37.0101 cycles
L2C RQ	ACCESS:    3754162	FORWARD:          0	MERGED:          0	TO_CACHE:    3754108
L2C WQ	ACCESS:     516842	FORWARD:         54	MERGED:          0	TO_CACHE:     516842
L2C PQ	ACCESS:     198580	FORWARD:          0	MERGED:       3969	TO_CACHE:     194611

L2C Dense regions hint from L2: 0
PSCL5 TOTAL     ACCESS:       4114  HIT:       2057  MISS:       2057  HIT %:         50  MISS %:         50   MPKI: 0.04114
PSCL5 LOAD TRANSLATION INSTRUCTION	ACCESS:       4020  HIT:       2010  MISS:       2010  HIT %:         50  MISS %:         50  MPKI: 0.0402
PSCL5 TRANSLATION FROM L1D PREFETCHER INSTRUCTION	ACCESS:         94  HIT:         47  MISS:         47  HIT %:         50  MISS %:         50  MPKI: 0.00094


PSCL4 TOTAL     ACCESS:       3496  HIT:       1743  MISS:       1753  HIT %:     49.857  MISS %:     50.143   MPKI: 0.03506
PSCL4 LOAD TRANSLATION INSTRUCTION	ACCESS:       1740  HIT:       1704  MISS:         36  HIT %:     97.931  MISS %:    2.06897  MPKI: 0.00072
PSCL4 TRANSLATION FROM L1D PREFETCHER INSTRUCTION	ACCESS:         39  HIT:         39  MISS:          0  HIT %:        100  MISS %:          0  MPKI: 0
PSCL4 LOAD TRANSLATION DATA	ACCESS:       1678  HIT:          0  MISS:       1678  HIT %:          0  MISS %:        100  MPKI: 0.03356
PSCL4 TRANSLATION FROM L1D PREFETCHER DATA	ACCESS:         39  HIT:          0  MISS:         39  HIT %:          0  MISS %:        100  MPKI: 0.00078


PSCL3 TOTAL     ACCESS:       3526  HIT:       1758  MISS:       1768  HIT %:    49.8582  MISS %:    50.1418   MPKI: 0.03536
PSCL3 LOAD TRANSLATION INSTRUCTION	ACCESS:       1755  HIT:       1719  MISS:         36  HIT %:    97.9487  MISS %:    2.05128  MPKI: 0.00072
PSCL3 TRANSLATION FROM L1D PREFETCHER INSTRUCTION	ACCESS:         39  HIT:         39  MISS:          0  HIT %:        100  MISS %:          0  MPKI: 0
PSCL3 LOAD TRANSLATION DATA	ACCESS:       1693  HIT:          0  MISS:       1693  HIT %:          0  MISS %:        100  MPKI: 0.03386
PSCL3 TRANSLATION FROM L1D PREFETCHER DATA	ACCESS:         39  HIT:          0  MISS:         39  HIT %:          0  MISS %:        100  MPKI: 0.00078


PSCL2 TOTAL     ACCESS:       4018  HIT:       1961  MISS:       2057  HIT %:    48.8054  MISS %:    51.1946   MPKI: 0.04114
PSCL2 LOAD TRANSLATION INSTRUCTION	ACCESS:       2163  HIT:       1914  MISS:        249  HIT %:    88.4882  MISS %:    11.5118  MPKI: 0.00498
PSCL2 TRANSLATION FROM L1D PREFETCHER INSTRUCTION	ACCESS:         47  HIT:         47  MISS:          0  HIT %:        100  MISS %:          0  MPKI: 0
PSCL2 LOAD TRANSLATION DATA	ACCESS:       1761  HIT:          0  MISS:       1761  HIT %:          0  MISS %:        100  MPKI: 0.03522
PSCL2 TRANSLATION FROM L1D PREFETCHER DATA	ACCESS:         47  HIT:          0  MISS:         47  HIT %:          0  MISS %:        100  MPKI: 0.00094


LLC TOTAL     ACCESS:     625049  HIT:     597088  MISS:      27961  HIT %:    95.5266  MISS %:    4.47341   MPKI: 0.55922
LLC LOAD INSTRUCTION	ACCESS:     324929  HIT:     324152  MISS:        777  HIT %:    99.7609  MISS %:   0.239129  MPKI: 0.01554
LLC LOAD TRANSLATION INSTRUCTION	ACCESS:        220  HIT:        190  MISS:         30  HIT %:    86.3636  MISS %:    13.6364  MPKI: 0.0006
LLC LOAD DATA	ACCESS:      80225  HIT:      76802  MISS:       3423  HIT %:    95.7333  MISS %:    4.26675  MPKI: 0.06846
LLC RFO DATA	ACCESS:      59280  HIT:      45679  MISS:      13601  HIT %:    77.0563  MISS %:    22.9437  MPKI: 0.27202
LLC PREFETCH DATA	ACCESS:      73933  HIT:      64145  MISS:       9788  HIT %:     86.761  MISS %:     13.239  MPKI: 0.19576
LLC WRITEBACK DATA	ACCESS:      85094  HIT:      84816  MISS:        278  HIT %:    99.6733  MISS %:   0.326698  MPKI: 0.00556
LLC LOAD TRANSLATION DATA	ACCESS:       1351  HIT:       1288  MISS:         63  HIT %:    95.3368  MISS %:    4.66321  MPKI: 0.00126
LLC TRANSLATION FROM L1D PREFETCHER DATA	ACCESS:         17  HIT:         16  MISS:          1  HIT %:    94.1176  MISS %:    5.88235  MPKI: 2e-05

LLC AVERAGE MISS LATENCY: 157.483 cycles
LLC RQ	ACCESS:     466025	FORWARD:          0	MERGED:          0	TO_CACHE:     466022
LLC WQ	ACCESS:      85094	FORWARD:          3	MERGED:          0	TO_CACHE:      85094
LLC PQ	ACCESS:      73933	FORWARD:          0	MERGED:          0	TO_CACHE:      73933

LLC Dense regions hint to LLC: 0

RAW hits: 1941455
Loads Generated: 12634884
Loads sent to L1D: 10693428
Stores Generated: 6936813
Stores sent to L1D: 6936838
Major fault: 0 Minor fault: 2579
Allocated PAGES: 2579

stream: 
stream:times selected: 1193759
stream:pref_filled: 121538
stream:pref_useful: 23624
stream:pref_late: 6691
stream:misses: 8297
stream:misses_by_poll: 0

CS: 
CS:times selected: 178992
CS:pref_filled: 60117
CS:pref_useful: 36684
CS:pref_late: 6859
CS:misses: 15850
CS:misses_by_poll: 3

CPLX: 
CPLX:times selected: 1013463
CPLX:pref_filled: 19323
CPLX:pref_useful: 4362
CPLX:pref_late: 3003
CPLX:misses: 92136
CPLX:misses_by_poll: 1

NL_L1: 
NL:times selected: 21484
NL:pref_filled: 644
NL:pref_useful: 245
NL:pref_late: 382
NL:misses: 1725
NL:misses_by_poll: 0

total selections: 2407698
total_filled: 94364
total_useful: 33049
total_late: 18318
total_polluted: 4
total_misses_after_warmup: 761124
conflicts: 5513464

test: 120458

DRAM Statistics
 CHANNEL 0
 RQ ROW_BUFFER_HIT:      10117  ROW_BUFFER_MISS:      17555
 DBUS_CONGESTED:          9
 WQ ROW_BUFFER_HIT:       1337  ROW_BUFFER_MISS:      12443  FULL:          0

 AVG_CONGESTED_CYCLE: 4

CPU 0 Branch Prediction Accuracy: 99.8211% MPKI: 0.32714 Average ROB Occupancy at Mispredict: 192.716
Branch types
NOT_BRANCH: 40856049 81.7121%
BRANCH_DIRECT_JUMP: 549908 1.09982%
BRANCH_INDIRECT: 183773 0.367546%
BRANCH_CONDITIONAL: 6188804 12.3776%
BRANCH_DIRECT_CALL: 939715 1.87943%
BRANCH_INDIRECT_CALL: 170793 0.341586%
BRANCH_RETURN: 1110518 2.22104%
BRANCH_OTHER: 0 0%

DRAM PAGES: 1048576
Allocated PAGES: 2579
Average_ROB_Occupancy: 237.231
Average_Decode_Occupancy: 34.2818
Average_FTQ_Occupancy: 13.2057
Indirect max targets: 14 Average targets: 1.15017
Branch_type:  BRANCH_DIRECT_JUMP:  Count Percentage: 3.32786 6.69666 3.79685 7.96304 2.23298 6.01588 1.27011 68.6966 
Branch_type:  BRANCH_INDIRECT:  Count Percentage: 6.17441 3.43917 8.16997 9.6987 3.33358 2.79908 3.06183 63.3233 
Branch_type:  BRANCH_CONDITIONAL:  Count Percentage: 21.9558 2.44348 1.50196 4.35999 1.6661 3.6369 1.04507 63.3907 
Branch_type:  BRANCH_DIRECT_CALL:  Count Percentage: 0.38978 1.25354 0.766385 4.06738 2.11736 2.88518 1.06814 87.4522 
Branch_type:  BRANCH_INDIRECT_CALL:  Count Percentage: 9.52462 0 2.98531 0 0 2.42421 3.27608 81.7898 
Branch_type:  BRANCH_RETURN:  Count Percentage: 3.72964 1.37935 1.03977 4.73935 4.4031 3.8833 1.45137 79.3741 
Branch_type:  BRANCH_DIRECT_JUMP:  Total Count: 36501 73451 41645 87341 24492 65984 13931 753485 
Branch_type:  BRANCH_INDIRECT:  Total Count: 22630 12605 29944 35547 12218 10259 11222 232088 
Branch_type:  BRANCH_CONDITIONAL:  Total Count: 2714179 302063 185672 538982 205963 449594 129191 7836359 
Branch_type:  BRANCH_DIRECT_CALL:  Total Count: 7337 23596 14426 76562 39856 54309 20106 1646151 
Branch_type:  BRANCH_INDIRECT_CALL:  Total Count: 32626 0 10226 0 0 8304 11222 280166 
Branch_type:  BRANCH_RETURN:  Total Count: 83010 30700 23142 105483 97999 86430 32303 1766617 
Number of unique branch instructions: 9828
Upper 32 bits: 
aaaa
ffff
ffff0000
Unique upper 32 bits: 3
Unique upper 36 bits: 3
Unique upper 40 bits: 5
Unique upper 44 bits: 32
Unique upper 48 bits: 153
Variant_0 : 1398 0.227539
Variant_1 : 1400 0.227865
Variant_2 : 1519 0.247233
Variant_3 : 0 0
Offset_3 4041
Offset_4 242
Offset_5 448
Offset_6 499
Offset_7 578
Offset_8 507
Offset_9 464
Offset_10 377
Offset_11 313
Offset_12 283
Offset_13 199
Offset_14 228
Offset_15 189
Offset_16 219
Offset_17 142
Offset_18 126
Offset_19 235
Offset_20 139
Offset_21 235
Offset_22 389
Offset_23 241
Offset_24 324
Offset_25 88
Offset_47 80
Offset_64 2
decode_dispatch_called: 25395262 70.0699
Dispatch_width: 0 13607920 53.5845 37.5466
Dispatch_width: 1 951305 3.74599 2.62481
Dispatch_width: 2 812075 3.19774 2.24065
Dispatch_width: 3 480184 1.89084 1.32491
Dispatch_width: 4 5568776 21.9284 15.3652
Dispatch_width: 5 141402 0.556805 0.390152
Dispatch_width: 6 3833600 15.0957 10.5776
Empty_decode_cycles: 10847498 29.9301
ROB_full_cycles: 8754759 24.1559
Starvation_cycles_per_kilo_instr: 236.544
Starvation_cycles_per_kilo_instr_3: 179.442
Starvation_cycles_per_kilo_instr_0: 157.007
Branch_type_1  (3,1)  (4,7)  (5,36)  (6,69)  (7,114)  (8,127)  (9,123)  (10,98)  (11,70)  (12,51)  (13,5)  (14,2)  (15,3)  (16,4)  (18,1)  (19,4)  (20,2)  (21,1)  (22,3)  (23,2)  (24,10)  (25,12) 
Branch_type_2  (3,1)  (5,1)  (8,3)  (9,3)  (12,1)  (13,1)  (14,1)  (16,3)  (17,2)  (20,2)  (21,2)  (23,5)  (24,1)  (47,36) 
Branch_type_3  (3,4039)  (4,235)  (5,407)  (6,414)  (7,433)  (8,317)  (9,255)  (10,152)  (11,128)  (12,58)  (13,4)  (64,2) 
Branch_type_4  (6,4)  (7,8)  (8,26)  (9,51)  (10,60)  (11,59)  (12,95)  (13,86)  (14,101)  (15,89)  (16,98)  (17,63)  (18,57)  (19,114)  (20,72)  (21,124)  (22,207)  (23,136)  (24,186)  (25,72) 
Branch_type_5  (8,2)  (9,1)  (10,3)  (11,5)  (12,3)  (13,14)  (14,16)  (15,11)  (16,20)  (17,11)  (18,16)  (19,12)  (20,10)  (21,13)  (22,42)  (23,26)  (24,36) 
Branch_type_6  (5,4)  (6,12)  (7,23)  (8,32)  (9,31)  (10,64)  (11,51)  (12,75)  (13,89)  (14,108)  (15,86)  (16,94)  (17,66)  (18,52)  (19,105)  (20,53)  (21,95)  (22,137)  (23,72)  (24,91)  (25,4)  (47,44) 
Unique trigger count: 
Variant_0_evicts_0 : 0
Variant_0_evicts_1 : 0
Variant_0_evicts_2 : 0
Variant_0_evicts_3 : 0
Variant_1_evicts_0 : 0
Variant_1_evicts_1 : 0
Variant_1_evicts_2 : 0
Variant_1_evicts_3 : 0
Variant_2_evicts_0 : 0
Variant_2_evicts_1 : 0
Variant_2_evicts_2 : 0
Variant_2_evicts_3 : 0
Variant_3_evicts_0 : 0
Variant_3_evicts_1 : 0
Variant_3_evicts_2 : 0
Variant_3_evicts_3 : 0
BTB PER SET UNIQUE ADDR: 7 4 5 8 7 5 7 3 7 10 6 5 3 5 5 7 4 7 4 7 3 7 5 5 4 7 2 8 4 9 5 6 4 5 12 5 7 3 4 4 7 6 8 5 2 4 4 6 7 7 6 6 3 5 6 5 8 4 9 6 6 4 3 5 7 6 4 7 6 6 4 6 5 4 5 7 6 6 9 7 9 6 5 5 7 4 3 6 7 7 4 5 5 8 2 6 8 3 7 4 5 5 6 7 5 6 4 3 7 8 4 2 3 4 9 6 4 4 8 6 8 3 6 7 13 7 5 7 5 4 4 7 8 3 7 6 6 3 4 4 3 8 8 6 7 10 7 4 5 6 7 7 3 7 6 5 5 4 3 7 7 4 8 10 5 6 3 4 6 6 6 3 7 6 4 4 4 7 3 2 6 2 5 8 6 4 5 5 5 5 3 7 4 6 5 4 6 5 3 8 3 6 4 7 6 9 5 7 5 4 7 8 7 7 6 5 5 6 9 6 4 4 4 4 4 5 6 4 6 7 5 8 4 6 6 5 8 6 4 5 6 7 7 7 6 10 7 4 7 6 5 6 4 3 4 7 7 4 7 5 4 7 6 3 4 4 5 8 7 7 8 5 5 9 5 6 9 4 9 6 5 6 5 7 4 8 8 7 9 5 3 5 8 6 5 8 10 3 7 6 7 5 5 8 6 3 7 8 6 5 4 6 8 3 3 7 11 5 5 3 8 6 7 6 8 5 3 5 5 5 4 6 7 3 2 4 3 4 5 3 5 5 5 9 5 6 7 4 4 6 7 6 3 5 4 7 2 8 4 5 6 7 6 3 2 3 6 3 5 2 9 5 8 3 5 6 5 5 3 6 6 5 4 6 6 11 5 3 7 8 4 8 4 7 5 3 6 5 2 5 8 4 5 7 3 4 9 4 12 7 2 4 4 5 3 4 8 8 9 3 5 5 3 7 9 7 3 6 5 4 7 4 4 4 4 6 6 2 6 6 11 4 4 5 6 5 5 4 6 4 7 3 4 4 7 5 4 4 7 6 3 3 3 9 3 3 6 8 4 6 4 3 5 5 4 9 9 7 3 4 6 7 5 3 6 7 5 8 4 4 11 3 6 5 4 7 8 3 4 4 7 5 6 5 8 4 3 8 5 5 5 2 4 2 3 3 6 2 5 4 3 3 4 3 3 7 2 4 3 4 5 4 3 2 3 4 3 6 3 5 4 3 6 5 2 5 3 8 5 4 2 3 1 3 4 6 4 1 6 4 2 3 3 8 2 2 6 4 3 3 3 3 1 3 2 4 4 1 4 5 2 5 2 4 4 2 2 2 4 5 5 4 5 3 2 5 6 5 4 4 4 4 2 2 2 3 3 2 1 2 3 5 4 4 2 2 6 5 3 3 3 2 4 3 6 5 2 6 3 6 3 5 4 3 3 1 3 3 4 3 2 5 1 1 3 2 3 3 2 4 3 5 5 5 3 4 3 1 5 2 2 2 3 4 2 1 4 2 5 2 5 5 4 3 3 1 2 4 4 4 3 6 3 4 4 4 1 7 5 3 4 3 4 3 1 4 4 2 2 7 5 2 3 2 5 5 3 3 5 5 4 1 2 3 4 5 2 4 2 2 3 5 2 4 4 3 4 3 2 5 3 2 6 3 2 1 6 2 1 4 5 8 5 4 1 2 7 4 3 2 4 4 4 3 5 6 2 4 2 3 3 3 4 5 2 4 4 6 3 7 3 4 1 3 3 3 5 4 2 4 4 3 4 3 8 7 3 3 3 3 4 1 4 4 4 3 8 2 5 2 5 3 3 1 3 3 6 3 4 6 7 3 1 3 1 4 5 3 3 3 4 4 5 2 3 1 3 2 6 3 2 3 2 5 5 3 4 4 3 4 0 6 3 6 4 2 5 5 2 4 5 5 3 4 4 3 8 5 2 5 2 6 3 7 6 3 6 1 6 4 5 4 7 2 2 3 3 4 2 3 5 5 3 4 3 4 6 4 2 0 7 2 2 5 4 2 3 3 4 4 4 2 5 3 3 3 5 5 5 5 3 2 3 3 6 3 3 2 3 3 2 5 3 5 4 2 5 3 3 2 3 7 4 4 3 5 4 2 2 4 4 4 2 5 2 1 4 3 5 4 4 3 4 3 5 4 5 5 4 2 4 5 6 5 3 2 5 3 2 4 6 1 2 7 2 5 2 6 4 2 2 3 3 4 5 0 3 4 3 3 3 3 4 6 2 3 2 5 3 3 6 4 2 2 5 5 3 5 3 2 2 4 7 5 3 4 3 4 2 3 2 3 5 5 5 4 4 3 6 1 3 3 4 2 3 6 5 4 2 4 4 4 3 5 7 1 6 2 2 3 4 2 5 3 4 5 6 2 2 4 3 5 4 4 3 2 6 4 3 2 1 6 3 3 3 3 3 4 5 5 6 1 4 2 3 4 4 2 3 6 2 3 5 6 6 3 5 4 1 3 4 6 6 5 3 5 2 4 3 1 2 4 2 2 8 2 5 3 5 6 4 2 3 7 4 7 3 5 2 2 4 2 4 1 2 2 4 3 3 4 4 5 1 3 2 5 4 3 6 2 3 4 0 1 3 1 4 4 3 2 5 3 3 4 2 3 3 5 4 4 7 2 6 5 2 3 4 3 1 4 2 2 6 4 5 5 5 1 3 6 4 5 3 1 2 4 3 3 3 1 3 3 1 1 3 3 3 1 4 1 3 4 4 7 3 4 3 5 3 5 5 1 4 4 5 5 3 2 4 1 4 1 2 2 5 4 2 2 3 2 0 4 6 1 3 3 4 3 2 5 3 4 4 1 5 4 1 3 2 6 3 4 3 4 2 2 3 3 2 6 6 4 3 2 3 3 5 2 5 2 5 3 8 6 3 5 3 3 4 3 6 2 4 5 3 4 4 3 4 4 3 3 3 6 3 3 4 2 3 4 5 8 3 3 4 6 5 4 2 1 4 3 2 3 7 2 4 3 6 4 2 5 3 3 5 4 3 4 3 7 3 2 2 5 5 5 3 2 3 2 3 3 4 7 4 1 4 0 7 4 4 3 3 3 4 3 1 3 4 5 2 5 3 6 3 5 5 4 2 4 2 2 2 3 4 2 5 7 1 2 3 3 5 4 0 4 4 5 3 6 4 4 4 2 1 2 5 4 2 6 3 4 4 3 7 2 2 5 1 3 2 4 5 7 4 3 5 5 5 4 4 2 5 5 4 4 8 5 7 2 4 5 2 3 6 6 4 5 3 4 3 2 3 3 2 3 5 1 4 4 4 3 3 7 5 8 3 2 3 4 3 2 3 1 5 3 5 3 5 5 2 5 2 6 5 3 5 3 5 3 2 3 4 7 3 6 4 2 3 2 5 3 6 6 5 6 2 3 7 3 2 5 4 2 4 3 6 5 1 6 4 2 3 5 3 2 6 4 4 4 3 4 4 3 5 4 
BTB PER SET COUNT: 7 1465 1465 967 7 5 7 3 7 512 6 5 3 5 5 7 4 8 4 7 3 7 5 5 505 373 2 390 6 9 5 506 4 5 512 5 8 3 5 4 7 6 8 5 2 4 53 6 7 7 6 7 3 5 6 5 510 4 9 1466 6 4 3 5 7 6 179 7 6 867 4 6 6 4 5 155 7 8 968 7 9 6 1005 5 7 5 3 6 508 1925 4 5 635 8 2 6 8 3 7 4 5 6 6 7 5 6 4 3 7 8 4 2 3 4 13 437 4 5 11 6 14 3 761 9 15 7 5 7 6 4 963 9 8 3 8 6 6 3 4 5 803 8 9 7 7 12 7 4 7 14 7 467 5 9 6 965 5 4 3 7 7 4 9 10 5 7 3 4 6 1505 6 3 97 6 4 4 4 7 3 2 8 2 5 9 7 4 8 5 5 5 3 256 4 1006 5 4 7 5 1463 10 3 1468 5 9 10 11 8 7 42 4 247 10 7 769 7 7 5 862 733 6 4 4 4 6 4 7 19808 6 8 8 5 8 4 6 1007 5 8 6 4 5 6 8 7 509 6 10 7884 4 1467 6 5 6 8 3 4 7 7 5 10 5 5 7 6 3 4 4 6 9 7 7 8 5 5 11 5 7 21 4 19 6 9 6 7 9 4 8 8 7 11 5 3 5 8 6 5 10 11 650 7 6 7 6 7 106 6 8 9 8 6 1473 1003 7 13 3 3 8 12 5 7 3 9 7 1468 6 1925 6 3 8 5 5 4 7 11 3 2 4 4 4 5 3 5 5 5 10 6 6 7 4 4 6 7 6 3 5 4 7 2 8 10 6 6 7 605 4 2 4 7 3 5 2 9 1504 1966 4 5 7 5 7 3 6 8 5 4 6 6 11 6 3 7 8 4 8 4 9 7 3 7 5 2 5 11 4 7 7 3 4 16 37 13 7 2 4 157 5 3 4 9 532 9 3 5 5 3 8 9 7 3 7 7 4 8 4 4 4 4 572 6 3 3005 6 17 4 397 5 6 7 1466 6 6 5 7 6 4 4 828 5 4 4 7 6 1004 3 3 11 3 3 7 11 4 8 4 4 5 5 4 13 17 2925 4 4 6 7 5 1463 84 15 5 2926 84 4 11 3 1848 5 4 9 8 3 4 4 151 5 7 5 8 4 3 8 6 5 5 2 1005 2001 3 3 6 503 5 4 3 3 4 3 3 7 2 4 3 5 2424 4 3 4 38 4 4 97 3 5 4 3 7 6 2 1464 3 8 5 4 2 3 1002 3 4 6 4 1 6 4 1003 3 3 8 2 2 1005 5 1005 4 3 3 1 3 2 4 5 1 4 5 2 5 961 4 4 2 2 2 4 925 5 4 5 1004 2 5 1466 5 4 5 5 4 1003 2 4 3 1002 2 1 3 3 5 963 4 2 2 1471 5 14612 3 3 2 398 5 6 5 2 6 3 6 4 5 4 3 3 1 3 3 4 3 2 5 1 1 3 2 3 3 3 503 3 966 5 5 3 4 3 1 5 2 2 2 3 4 2 1 6 2 5 2 5 8 4 2922 3 1 2 5 4 4 962 412 3 6 4 4 1 9 5 3 4 3 6 3 1 4 4 2 2 7 5 2 3 2 5 6 4 3 5 1002 5 1 2 3 4 1006 2 5 2 2 3 5 2 5 4 3 5 3 2 5 3 2 6 3 2 1 6 2 1 103 5 8 7 4 1 2 7 4 4 2 4 4 4 3 1003 8 2 4 2 3 7 3 4 40 2 4 4 3433 3 7 3 4 3 3 3 3 9 4 2 4 5 3 4 3 8 7 3 3 145 3 7 1 4 4 4 962 8 2 6 2 6 3 3 1 3 3 6 3 4 8 8 3 2 3 1 4 6 3 3 3 4 4 5 2 3 1 3 2 260 507 2 3 2 5 5 3 4 4 3 4 0 965 3 6 4 2 964 5 2 963 5 964 3 4 4 4 8 5 2 6 2 6 3 7 506 3 6 1 8 4 5 4 7 2 2 3 3 4 2 4 5 5 3 4 3 4 6 4 2 0 1467 2 2 5 8 2 384 3 4 4 4 2 5 1004 5 3 5 9 6 5 3 2 3 3 7 463 3 2 3 3 502 5 3 5 4 2 5 3 5 2 5 7 4 5 3 9 6 2 2 5 4 4 2 11 2 1 4 3 5 4 4 3 4 3 1006 4 5 5 2005 2 5 6 8 7 4 2 505 3 2 4 6 1 2 14 4 5 3 8 4 2 2 3 3 5 5 0 5 1007 5 3 3 3 4 6 2 3 2 1465 3 31 6 5 2 2 5 5 3 5 3 2 2 4 8 5 3 5 3 4 4 3 2 5 5 5 5 4 4 462 10 1 3 3 4 2 3 6 5 4 2 4 4 504 3 5 8 1 507 2 2 3 4 2 6 3 4 5 8 176 2 5 3 5 4 4 3 2 6 4 3 2 1 438 3 3 5 3 5 4 5 9 7 1 4 2 3 4 7 2 3 6 2 3 7 8 6 3 25 5 1 3 6 8 8 2426 384 382 2 5 3 1 2 4 2 2 9 2 7 3 8 6 5 2 4 9 6 8 3 5 3 3 5 2 4 1 2 2 4 3 3 4 4 652 1 3 2 5 4 3 6 2 3 4 0 1 3 1 5 4 3 2 5 3 3 5 2 3 3 5 5 4 507 2 6 1004 2 3 4 3 2 4 2 2 6 4 278 5 5 1 5 6 4 6 3 1 1931 4 3 3 3 1 3 3 1 1 3 5 3 1 4 1 1463 4 4 1467 3 4 4 5 3 5 5 1 4 5 5 5 3 2 4 1 4 1 3 2 5 18 2 2 3 2 0 12 6 1 3 4 1465 3 2 5 3 6 6 1 5 4 1 3 2 6 3 50 3 4 2 2 3 4 2 182 7 4 3 2 3 3 5 2 5 2 5 3 8 965 3 5 3 3 4 3 6 2 4 5 3 4 4 3 4 4 4 3 5 6 3 3 5 2 3 4 5 10 3 3 6 6 6 4 2 2 4 3 2 3 7 2 5 1462 6 4 2 5 4 6 5 4 3 5 3 9 3 2 2 5 6 5 3 2 41 2 3 3 5 7 4 1 4 0 8 6 13 3 3 3 4 3 1 3 4 5 2 5 3 6 3 5 6 4 2 505 2 2 2 3 4 2 6 9 1 2 3 3 5 4 0 5 4 5 7 6 4 7 4 2 1 2 5 5 2 101 3 4 5 3 7 2 2 224 1 3 2 4 5 11 4 4 5 5 6 2421 4 3 5 2882 4 4 8 5 7 2 4 6 3 1000 6 1347 4 5 3 4 3 2 3 3 2 3 5 1 4 4 4 3 3 7 5 2332 3 2 3 4 3 2 3 1 5 3 5 3 11 5 2 5 2 8 5 3 5 3 5 3 2 3 4 11 3 6 4 2 3 2 260 3 6 6 5 965 2 3 10 3 2 5 4 2 4 504 6 5 1 965 5 2 3 5 3 2 7 4 963 4 3 5 4 3 5 4 
To predecode: 0
Predecoding something: 0
Predecode request dropped: 0
sizeofblock_0 0
sizeofblock_1 37267
sizeofblock_2 36450
sizeofblock_3 37156
sizeofblock_4 19565
sizeofblock_5 0
sizeofblock_6 0
sizeofblock_7 0
sizeofblock_8 0
Variant_0 Correct: 1611038 Incorrect: 0 Accuracy: 1
Variant_1 Correct: 2086609 Incorrect: 0 Accuracy: 1
Variant_2 Correct: 3634845 Incorrect: 94 Accuracy: 0.999974
Variant_3 Correct: 0 Incorrect: 0 Accuracy: -nan
