
*** ChampSim Multicore Out-of-Order Simulator ***

Warmup Instructions: 50000000
Simulation Instructions: 50000000
Number of CPUs: 1
LLC sets: 2048
LLC ways: 16
Off-chip DRAM Size: 4096 MB Channels: 1 Width: 64-bit Data Rate: 6400 MT/s
CPU 0 runs ./micro_traces/srv92.trace.gz
.gz
ITLB has LRU replacement policy
DTLB has LRU replacement policy
STLB has LRU replacement policy
FDIP Prefetcher at L1I
L1I has LRU replacement policy
L1D has LRU replacement policy
Initialize SRRIP state for L2C
Initialize DRRIP state for LLC
Heartbeat_Variant_0 : 1316 0.321289 per_variant_size: 0 1316 0 0 0 0 0 0 0 
Heartbeat_Variant_1 : 2538 0.619629 per_variant_size: 0 558 1980 0 0 0 0 0 0 
Heartbeat_Variant_2 : 0 0 per_variant_size: 0 0 0 0 0 0 0 0 0 
Heartbeat_Variant_3 : 0 0 per_variant_size: 0 0 0 0 0 0 0 0 0 
Heartbeat_Variant_0_evicts 0 : 5742 1 : 482 2 : 0 3 : 0 
Heartbeat_Variant_1_evicts 0 : 418 1 : 0 2 : 0 3 : 0 
Heartbeat_Variant_2_evicts 0 : 0 1 : 0 2 : 0 3 : 0 
Heartbeat_Variant_3_evicts 0 : 0 1 : 0 2 : 0 3 : 0 
Heartbeat CPU 0 instructions: 10000003 cycles: 2800749 heartbeat IPC: 3.57047 cumulative IPC: 3.57047 (Simulation time: 0 hr 2 min 34 sec) 
Heartbeat_Variant_0 : 1323 0.322998 per_variant_size: 0 1323 0 0 0 0 0 0 0 
Heartbeat_Variant_1 : 2552 0.623047 per_variant_size: 0 561 1991 0 0 0 0 0 0 
Heartbeat_Variant_2 : 0 0 per_variant_size: 0 0 0 0 0 0 0 0 0 
Heartbeat_Variant_3 : 0 0 per_variant_size: 0 0 0 0 0 0 0 0 0 
Heartbeat_Variant_0_evicts 0 : 5686 1 : 68 2 : 0 3 : 0 
Heartbeat_Variant_1_evicts 0 : 69 1 : 0 2 : 0 3 : 0 
Heartbeat_Variant_2_evicts 0 : 0 1 : 0 2 : 0 3 : 0 
Heartbeat_Variant_3_evicts 0 : 0 1 : 0 2 : 0 3 : 0 
Heartbeat CPU 0 instructions: 20000003 cycles: 5599854 heartbeat IPC: 3.57257 cumulative IPC: 3.57152 (Simulation time: 0 hr 4 min 29 sec) 
Heartbeat_Variant_0 : 1364 0.333008 per_variant_size: 0 1364 0 0 0 0 0 0 0 
Heartbeat_Variant_1 : 2605 0.635986 per_variant_size: 0 476 2129 0 0 0 0 0 0 
Heartbeat_Variant_2 : 0 0 per_variant_size: 0 0 0 0 0 0 0 0 0 
Heartbeat_Variant_3 : 0 0 per_variant_size: 0 0 0 0 0 0 0 0 0 
Heartbeat_Variant_0_evicts 0 : 5776 1 : 302 2 : 0 3 : 0 
Heartbeat_Variant_1_evicts 0 : 286 1 : 0 2 : 0 3 : 0 
Heartbeat_Variant_2_evicts 0 : 0 1 : 0 2 : 0 3 : 0 
Heartbeat_Variant_3_evicts 0 : 0 1 : 0 2 : 0 3 : 0 
Heartbeat CPU 0 instructions: 30000000 cycles: 8399483 heartbeat IPC: 3.5719 cumulative IPC: 3.57165 (Simulation time: 0 hr 6 min 14 sec) 
Heartbeat_Variant_0 : 1365 0.333252 per_variant_size: 0 1365 0 0 0 0 0 0 0 
Heartbeat_Variant_1 : 2610 0.637207 per_variant_size: 0 476 2134 0 0 0 0 0 0 
Heartbeat_Variant_2 : 0 0 per_variant_size: 0 0 0 0 0 0 0 0 0 
Heartbeat_Variant_3 : 0 0 per_variant_size: 0 0 0 0 0 0 0 0 0 
Heartbeat_Variant_0_evicts 0 : 5691 1 : 17 2 : 0 3 : 0 
Heartbeat_Variant_1_evicts 0 : 19 1 : 0 2 : 0 3 : 0 
Heartbeat_Variant_2_evicts 0 : 0 1 : 0 2 : 0 3 : 0 
Heartbeat_Variant_3_evicts 0 : 0 1 : 0 2 : 0 3 : 0 
Heartbeat CPU 0 instructions: 40000003 cycles: 11199306 heartbeat IPC: 3.57166 cumulative IPC: 3.57165 (Simulation time: 0 hr 8 min 7 sec) 
Heartbeat_Variant_0 : 1376 0.335938 per_variant_size: 0 1376 0 0 0 0 0 0 0 
Heartbeat_Variant_1 : 2630 0.64209 per_variant_size: 0 477 2153 0 0 0 0 0 0 
Heartbeat_Variant_2 : 0 0 per_variant_size: 0 0 0 0 0 0 0 0 0 
Heartbeat_Variant_3 : 0 0 per_variant_size: 0 0 0 0 0 0 0 0 0 
Heartbeat_Variant_0_evicts 0 : 5721 1 : 327 2 : 0 3 : 0 
Heartbeat_Variant_1_evicts 0 : 319 1 : 0 2 : 0 3 : 0 
Heartbeat_Variant_2_evicts 0 : 0 1 : 0 2 : 0 3 : 0 
Heartbeat_Variant_3_evicts 0 : 0 1 : 0 2 : 0 3 : 0 
Heartbeat CPU 0 instructions: 50000000 cycles: 13998985 heartbeat IPC: 3.57184 cumulative IPC: 3.57169 (Simulation time: 0 hr 10 min 4 sec) 

Warmup complete CPU 0 instructions: 50000004 cycles: 13998986 (Simulation time: 0 hr 10 min 4 sec) 

Cycle: 20000000 FTQ IN: 58352335 FTQ occupancy: 20.5758 DECODE IN: 58352288 DECODE occupancy: 53.2929 ROB IN: 58352234 ROB occupancy: 318.809 ROB OUT: 58352181
Heartbeat_Variant_0 : 1381 0.337158 per_variant_size: 0 1381 0 0 0 0 0 0 0 
Heartbeat_Variant_1 : 2628 0.641602 per_variant_size: 0 483 2145 0 0 0 0 0 0 
Heartbeat_Variant_2 : 0 0 per_variant_size: 0 0 0 0 0 0 0 0 0 
Heartbeat_Variant_3 : 0 0 per_variant_size: 0 0 0 0 0 0 0 0 0 
Heartbeat_Variant_0_evicts 0 : 5650 1 : 39 2 : 0 3 : 0 
Heartbeat_Variant_1_evicts 0 : 35 1 : 0 2 : 0 3 : 0 
Heartbeat_Variant_2_evicts 0 : 0 1 : 0 2 : 0 3 : 0 
Heartbeat_Variant_3_evicts 0 : 0 1 : 0 2 : 0 3 : 0 
Heartbeat CPU 0 instructions: 60000002 cycles: 21173875 heartbeat IPC: 1.39375 cumulative IPC: 1.39375 (Simulation time: 0 hr 12 min 14 sec) 
Heartbeat_Variant_0 : 1374 0.335449 per_variant_size: 0 1374 0 0 0 0 0 0 0 
Heartbeat_Variant_1 : 2640 0.644531 per_variant_size: 0 484 2156 0 0 0 0 0 0 
Heartbeat_Variant_2 : 0 0 per_variant_size: 0 0 0 0 0 0 0 0 0 
Heartbeat_Variant_3 : 0 0 per_variant_size: 0 0 0 0 0 0 0 0 0 
Heartbeat_Variant_0_evicts 0 : 5678 1 : 117 2 : 0 3 : 0 
Heartbeat_Variant_1_evicts 0 : 124 1 : 0 2 : 0 3 : 0 
Heartbeat_Variant_2_evicts 0 : 0 1 : 0 2 : 0 3 : 0 
Heartbeat_Variant_3_evicts 0 : 0 1 : 0 2 : 0 3 : 0 
Heartbeat CPU 0 instructions: 70000001 cycles: 28442805 heartbeat IPC: 1.37572 cumulative IPC: 1.38468 (Simulation time: 0 hr 14 min 24 sec) 
Cycle: 30000000 FTQ IN: 13813869 FTQ occupancy: 15.0122 DECODE IN: 13813916 DECODE occupancy: 37.3505 ROB IN: 13813970 ROB occupancy: 246.431 ROB OUT: 13814001
Heartbeat_Variant_0 : 1377 0.336182 per_variant_size: 0 1377 0 0 0 0 0 0 0 
Heartbeat_Variant_1 : 2686 0.655762 per_variant_size: 0 444 2242 0 0 0 0 0 0 
Heartbeat_Variant_2 : 0 0 per_variant_size: 0 0 0 0 0 0 0 0 0 
Heartbeat_Variant_3 : 0 0 per_variant_size: 0 0 0 0 0 0 0 0 0 
Heartbeat_Variant_0_evicts 0 : 5976 1 : 604 2 : 0 3 : 0 
Heartbeat_Variant_1_evicts 0 : 608 1 : 0 2 : 0 3 : 0 
Heartbeat_Variant_2_evicts 0 : 0 1 : 0 2 : 0 3 : 0 
Heartbeat_Variant_3_evicts 0 : 0 1 : 0 2 : 0 3 : 0 
Heartbeat CPU 0 instructions: 80000001 cycles: 35839480 heartbeat IPC: 1.35196 cumulative IPC: 1.3736 (Simulation time: 0 hr 16 min 33 sec) 
Cycle: 40000000 FTQ IN: 13619040 FTQ occupancy: 14.431 DECODE IN: 13619040 DECODE occupancy: 35.9904 ROB IN: 13619040 ROB occupancy: 241.205 ROB OUT: 13618830
Heartbeat_Variant_0 : 1382 0.337402 per_variant_size: 0 1382 0 0 0 0 0 0 0 
Heartbeat_Variant_1 : 2685 0.655518 per_variant_size: 0 453 2232 0 0 0 0 0 0 
Heartbeat_Variant_2 : 0 0 per_variant_size: 0 0 0 0 0 0 0 0 0 
Heartbeat_Variant_3 : 0 0 per_variant_size: 0 0 0 0 0 0 0 0 0 
Heartbeat_Variant_0_evicts 0 : 5723 1 : 212 2 : 0 3 : 0 
Heartbeat_Variant_1_evicts 0 : 208 1 : 0 2 : 0 3 : 0 
Heartbeat_Variant_2_evicts 0 : 0 1 : 0 2 : 0 3 : 0 
Heartbeat_Variant_3_evicts 0 : 0 1 : 0 2 : 0 3 : 0 
Heartbeat CPU 0 instructions: 90000002 cycles: 43014895 heartbeat IPC: 1.39365 cumulative IPC: 1.37855 (Simulation time: 0 hr 18 min 50 sec) 
Cycle: 50000000 FTQ IN: 13801366 FTQ occupancy: 14.7967 DECODE IN: 13801264 DECODE occupancy: 36.99 ROB IN: 13801204 ROB occupancy: 246.782 ROB OUT: 13801301
Heartbeat_Variant_0 : 1378 0.336426 per_variant_size: 0 1378 0 0 0 0 0 0 0 
Heartbeat_Variant_1 : 2700 0.65918 per_variant_size: 0 407 2293 0 0 0 0 0 0 
Heartbeat_Variant_2 : 0 0 per_variant_size: 0 0 0 0 0 0 0 0 0 
Heartbeat_Variant_3 : 0 0 per_variant_size: 0 0 0 0 0 0 0 0 0 
Heartbeat_Variant_0_evicts 0 : 5803 1 : 439 2 : 0 3 : 0 
Heartbeat_Variant_1_evicts 0 : 446 1 : 0 2 : 0 3 : 0 
Heartbeat_Variant_2_evicts 0 : 0 1 : 0 2 : 0 3 : 0 
Heartbeat_Variant_3_evicts 0 : 0 1 : 0 2 : 0 3 : 0 
Heartbeat CPU 0 instructions: 100000000 cycles: 50322884 heartbeat IPC: 1.36837 cumulative IPC: 1.3765 (Simulation time: 0 hr 21 min 1 sec) 
Finished CPU 0 instructions: 50000000 cycles: 36323899 cumulative IPC: 1.3765 (Simulation time: 0 hr 21 min 1 sec) 

ChampSim completed all CPUs

Region of Interest Statistics

CPU 0 cumulative IPC: 1.3765 instructions: 50000000 cycles: 36323899
 Fetch stage stalled: 46.8957  Sim cycles: 36323899 fetch stall cycle: 17034364
 Empty decode stage: 27.5737  Sim cycles: 36323899 fetch stall cycle: 10015835
ITLB TOTAL     ACCESS:    5843121  HIT:    5350419  MISS:     492702  HIT %:    91.5678  MISS %:    8.43217   MPKI: 9.85404
ITLB LOAD TRANSLATION INSTRUCTION	ACCESS:    5710326  HIT:    5217624  MISS:     492702  HIT %:    91.3717  MISS %:    8.62826  MPKI: 9.85404
ITLB TRANSLATION FROM L1D PREFETCHER INSTRUCTION	ACCESS:     132795  HIT:     132795  MISS:          0  HIT %:        100  MISS %:          0  MPKI: 0

ITLB AVERAGE MISS LATENCY: 9.06056 cycles
ITLB RQ	ACCESS:    7949859	FORWARD:          0	MERGED:    1622411	TO_CACHE:    6327448

DTLB TOTAL     ACCESS:    8968977  HIT:    8500581  MISS:     468396  HIT %:    94.7776  MISS %:     5.2224   MPKI: 9.36792
DTLB LOAD TRANSLATION DATA	ACCESS:    8968977  HIT:    8500581  MISS:     468396  HIT %:    94.7776  MISS %:     5.2224  MPKI: 9.36792

DTLB AVERAGE MISS LATENCY: 9.36384 cycles
DTLB RQ	ACCESS:   13334266	FORWARD:          0	MERGED:    4329262	TO_CACHE:    9005004

STLB TOTAL     ACCESS:    1211032  HIT:    1208735  MISS:       2297  HIT %:    99.8103  MISS %:   0.189673   MPKI: 0.04594
STLB LOAD TRANSLATION INSTRUCTION	ACCESS:     492702  HIT:     492393  MISS:        309  HIT %:    99.9373  MISS %:  0.0627154  MPKI: 0.00618
STLB LOAD TRANSLATION DATA	ACCESS:     468394  HIT:     466442  MISS:       1952  HIT %:    99.5833  MISS %:   0.416743  MPKI: 0.03904
STLB TRANSLATION FROM L1D PREFETCHER DATA	ACCESS:     249936  HIT:     249900  MISS:         36  HIT %:    99.9856  MISS %:  0.0144037  MPKI: 0.00072

STLB AVERAGE MISS LATENCY: 74.2177 cycles
STLB RQ	ACCESS:    1333309	FORWARD:          0	MERGED:     122229	TO_CACHE:    1211080

STLB Hit, L1D data hit: 0
STLB Hit, L2C data hit: 0
STLB Hit, LLC data hit: 0
STLB Hit, LLC data miss: 0
STLB STLB hints to L2: 0
L1D TOTAL     ACCESS:   13079332  HIT:   11962690  MISS:    1116642  HIT %:    91.4625  MISS %:    8.53745   MPKI: 22.3328
L1D LOAD DATA	ACCESS:    6549714  HIT:    5814407  MISS:     735307  HIT %:    88.7734  MISS %:    11.2266  MPKI: 14.7061
L1D RFO DATA	ACCESS:    6199226  HIT:    5913333  MISS:     285893  HIT %:    95.3882  MISS %:    4.61175  MPKI: 5.71786
L1D PREFETCH DATA	ACCESS:     330392  HIT:     234950  MISS:      95442  HIT %:    71.1125  MISS %:    28.8875  MPKI: 1.90884

L1D PREFETCH  REQUESTED:     744866  ISSUED:     744866  USEFUL:      34241  USELESS:      69043
L1D USEFUL LOAD PREFETCHES:      34241 PREFETCH ISSUED TO LOWER LEVEL:     103372  ACCURACY: 33.1241
 TIMELY PREFETCHES:      34241 LATE PREFETCHES: 7829 DROPPED PREFETCHES: 9
L1D AVERAGE MISS LATENCY: 235418 cycles
L1D RQ	ACCESS:   10697037	FORWARD:          0	MERGED:    3946807	TO_CACHE:    6587518
L1D WQ	ACCESS:    6943889	FORWARD:     163154	MERGED:     197141	TO_CACHE:    6746748
L1D PQ	ACCESS:     372654	FORWARD:          0	MERGED:          0	TO_CACHE:     372212

L1D UNIQUE REGIONS ACCESSED: 0
L1D REGIONS CONFLICTS: 0
L1D Cross Page Prefetch Requests: 7144
L1D Same Page Prefetch Requests: 755408
L1D ROI Sum of L1D PQ occupancy: 4743921
L1D PREFETCHES PUSHED FROM L2C: 0
L1I TOTAL     ACCESS:    6584721  HIT:    2035621  MISS:    4549100  HIT %:    30.9143  MISS %:    69.0857   MPKI: 90.982
L1I LOAD INSTRUCTION	ACCESS:    6263394  HIT:    1729164  MISS:    4534230  HIT %:    27.6075  MISS %:    72.3925  MPKI: 90.6846
L1I PREFETCH INSTRUCTION	ACCESS:     321327  HIT:     306457  MISS:      14870  HIT %:    95.3723  MISS %:    4.62768  MPKI: 0.2974

L1I PREFETCH  REQUESTED:    1607042  ISSUED:    1607042  USEFUL:       6258  USELESS:      14869
L1I USEFUL LOAD PREFETCHES:       6258 PREFETCH ISSUED TO LOWER LEVEL:      21128  ACCURACY: 29.6195
 TIMELY PREFETCHES:       6258 LATE PREFETCHES: 6258 DROPPED PREFETCHES: 0
L1I AVERAGE MISS LATENCY: 44375.7 cycles
L1I RQ	ACCESS:    9560092	FORWARD:          0	MERGED:    2793443	TO_CACHE:    6766649
L1I PQ	ACCESS:    1607042	FORWARD:          0	MERGED:     423832	TO_CACHE:    1183210

L1BTB TOTAL     ACCESS:    5671934  HIT:    2048681  MISS:    3623253  HIT %:    36.1196  MISS %:    63.8804   MPKI: 72.4651
L1BTB BRANCH_DIRECT_JUMP	ACCESS:     548684 HIT:     145256 MISS:     403428 AVERAGE STALL: 52.8866 AVERAGE FETCH STALL: 16.7019 AVERAGE FETCH QUEUE STALL: 16.7362 AVERAGE DECODE STALL: 18.5341 AVERAGE EXECUTE STALL: 2.14397e+15
L1BTB BRANCH_INDIRECT	ACCESS:     183200 HIT:      66212 MISS:     116988 AVERAGE STALL: 113.201 AVERAGE FETCH STALL: 21.2786 AVERAGE FETCH QUEUE STALL: 9.75272 AVERAGE DECODE STALL: 11.6833 AVERAGE EXECUTE STALL: 69.5252
L1BTB BRANCH_CONDITIONAL	ACCESS:    2711665 HIT:    1420422 MISS:    1291243 AVERAGE STALL: 65.7698 AVERAGE FETCH STALL: 23.4142 AVERAGE FETCH QUEUE STALL: 24.6922 AVERAGE DECODE STALL: 16.9405 AVERAGE EXECUTE STALL: 2.60253e+15
L1BTB BRANCH_DIRECT_CALL	ACCESS:     942904 HIT:     105466 MISS:     837438 AVERAGE STALL: 86.2307 AVERAGE FETCH STALL: 29.7284 AVERAGE FETCH QUEUE STALL: 28.9411 AVERAGE DECODE STALL: 26.8855 AVERAGE EXECUTE STALL: 6.14073e+15
L1BTB BRANCH_INDIRECT_CALL	ACCESS:     171292 HIT:      21142 MISS:     150150 AVERAGE STALL: 141.404 AVERAGE FETCH STALL: 14.0664 AVERAGE FETCH QUEUE STALL: 15.1667 AVERAGE DECODE STALL: 11.5723 AVERAGE EXECUTE STALL: 100.108
L1BTB BRANCH_RETURN	ACCESS:    1114189 HIT:     290183 MISS:     824006 AVERAGE STALL: 51.755 AVERAGE FETCH STALL: 19.7484 AVERAGE FETCH QUEUE STALL: 5.94932 AVERAGE DECODE STALL: 6.4827 AVERAGE EXECUTE STALL: 4.22461e+14
L1BTB BRANCH_OTHER ACCESS:          0 HIT:          0 MISS:          0 AVERAGE STALL: -nan AVERAGE FETCH STALL: -nan AVERAGE FETCH QUEUE STALL: -nan AVERAGE DECODE STALL: -nan AVERAGE EXECUTE STALL: -nan
L1BTB TOTAL ROB OCCUPANCY AT BTB MISS: 2.93205

L2BTB TOTAL     ACCESS:    3597786  HIT:    3527399  MISS:      70387  HIT %:    98.0436  MISS %:     1.9564   MPKI: 1.40774
L2BTB BRANCH_DIRECT_JUMP	ACCESS:     399233 HIT:     394770 MISS:       4463 AVERAGE STALL: 52.8866 AVERAGE FETCH STALL: 16.7019 AVERAGE FETCH QUEUE STALL: 16.7362 AVERAGE DECODE STALL: 18.5341 AVERAGE EXECUTE STALL: 2.14397e+15
L2BTB BRANCH_INDIRECT	ACCESS:     106694 HIT:     103913 MISS:       2781 AVERAGE STALL: 113.201 AVERAGE FETCH STALL: 21.2786 AVERAGE FETCH QUEUE STALL: 9.75272 AVERAGE DECODE STALL: 11.6833 AVERAGE EXECUTE STALL: 69.5252
L2BTB BRANCH_CONDITIONAL	ACCESS:    1291243 HIT:    1283989 MISS:       7254 AVERAGE STALL: 65.7698 AVERAGE FETCH STALL: 23.4142 AVERAGE FETCH QUEUE STALL: 24.6922 AVERAGE DECODE STALL: 16.9405 AVERAGE EXECUTE STALL: 2.60253e+15
L2BTB BRANCH_DIRECT_CALL	ACCESS:     837438 HIT:     834353 MISS:       3085 AVERAGE STALL: 86.2307 AVERAGE FETCH STALL: 29.7284 AVERAGE FETCH QUEUE STALL: 28.9411 AVERAGE DECODE STALL: 26.8855 AVERAGE EXECUTE STALL: 6.14073e+15
L2BTB BRANCH_INDIRECT_CALL	ACCESS:     140574 HIT:     130104 MISS:      10470 AVERAGE STALL: 141.404 AVERAGE FETCH STALL: 14.0664 AVERAGE FETCH QUEUE STALL: 15.1667 AVERAGE DECODE STALL: 11.5723 AVERAGE EXECUTE STALL: 100.108
L2BTB BRANCH_RETURN	ACCESS:     822604 HIT:     780270 MISS:      42334 AVERAGE STALL: 51.755 AVERAGE FETCH STALL: 19.7484 AVERAGE FETCH QUEUE STALL: 5.94932 AVERAGE DECODE STALL: 6.4827 AVERAGE EXECUTE STALL: 4.22461e+14
L2BTB BRANCH_OTHER ACCESS:          0 HIT:          0 MISS:          0 AVERAGE STALL: -nan AVERAGE FETCH STALL: -nan AVERAGE FETCH QUEUE STALL: -nan AVERAGE DECODE STALL: -nan AVERAGE EXECUTE STALL: -nan
L2BTB TOTAL ROB OCCUPANCY AT BTB MISS: 150.931

L2C TOTAL     ACCESS:    6289389  HIT:    5754856  MISS:     534533  HIT %:     91.501  MISS %:    8.49897   MPKI: 10.6907
L2C LOAD INSTRUCTION	ACCESS:    4527971  HIT:    4254344  MISS:     273627  HIT %:     93.957  MISS %:    6.04304  MPKI: 5.47254
L2C PREFETCH INSTRUCTION	ACCESS:      21128  HIT:      21128  MISS:          0  HIT %:        100  MISS %:          0  MPKI: 0
L2C LOAD TRANSLATION INSTRUCTION	ACCESS:        349  HIT:        108  MISS:        241  HIT %:    30.9456  MISS %:    69.0544  MPKI: 0.00482
L2C LOAD DATA	ACCESS:     727457  HIT:     642391  MISS:      85066  HIT %:    88.3064  MISS %:    11.6936  MPKI: 1.70132
L2C RFO DATA	ACCESS:     285771  HIT:     213524  MISS:      72247  HIT %:    74.7186  MISS %:    25.2814  MPKI: 1.44494
L2C PREFETCH DATA	ACCESS:     203316  HIT:     125874  MISS:      77442  HIT %:    61.9105  MISS %:    38.0895  MPKI: 1.54884
L2C WRITEBACK DATA	ACCESS:     521298  HIT:     496819  MISS:      24479  HIT %:    95.3042  MISS %:    4.69578  MPKI: 0.48958
L2C LOAD TRANSLATION DATA	ACCESS:       2032  HIT:        627  MISS:       1405  HIT %:    30.8563  MISS %:    69.1437  MPKI: 0.0281
L2C TRANSLATION FROM L1D PREFETCHER DATA	ACCESS:         67  HIT:         41  MISS:         26  HIT %:     61.194  MISS %:     38.806  MPKI: 0.00052

L2C PREFETCH  REQUESTED:     109945  ISSUED:     109945  USEFUL:       9117  USELESS:      69063
L2C USEFUL LOAD PREFETCHES:       9117 PREFETCH ISSUED TO LOWER LEVEL:      78065  ACCURACY: 11.6787
 TIMELY PREFETCHES:       9117 LATE PREFETCHES: 623 DROPPED PREFETCHES: 0
L2C AVERAGE MISS LATENCY: 37.6405 cycles
L2C RQ	ACCESS:    5543690	FORWARD:          0	MERGED:          0	TO_CACHE:    5543648
L2C WQ	ACCESS:     521298	FORWARD:         42	MERGED:          0	TO_CACHE:     521298
L2C PQ	ACCESS:     234445	FORWARD:          0	MERGED:       4072	TO_CACHE:     230373

L2C Dense regions hint from L2: 0
PSCL5 TOTAL     ACCESS:       4622  HIT:       2311  MISS:       2311  HIT %:         50  MISS %:         50   MPKI: 0.04622
PSCL5 LOAD TRANSLATION INSTRUCTION	ACCESS:       4490  HIT:       2245  MISS:       2245  HIT %:         50  MISS %:         50  MPKI: 0.0449
PSCL5 TRANSLATION FROM L1D PREFETCHER INSTRUCTION	ACCESS:        132  HIT:         66  MISS:         66  HIT %:         50  MISS %:         50  MPKI: 0.00132


PSCL4 TOTAL     ACCESS:       4479  HIT:       2235  MISS:       2244  HIT %:    49.8995  MISS %:    50.1005   MPKI: 0.04488
PSCL4 LOAD TRANSLATION INSTRUCTION	ACCESS:       2317  HIT:       2178  MISS:        139  HIT %:    94.0009  MISS %:    5.99914  MPKI: 0.00278
PSCL4 TRANSLATION FROM L1D PREFETCHER INSTRUCTION	ACCESS:         57  HIT:         57  MISS:          0  HIT %:        100  MISS %:          0  MPKI: 0
PSCL4 LOAD TRANSLATION DATA	ACCESS:       2048  HIT:          0  MISS:       2048  HIT %:          0  MISS %:        100  MPKI: 0.04096
PSCL4 TRANSLATION FROM L1D PREFETCHER DATA	ACCESS:         57  HIT:          0  MISS:         57  HIT %:          0  MISS %:        100  MPKI: 0.00114


PSCL3 TOTAL     ACCESS:       4545  HIT:       2268  MISS:       2277  HIT %:     49.901  MISS %:     50.099   MPKI: 0.04554
PSCL3 LOAD TRANSLATION INSTRUCTION	ACCESS:       2350  HIT:       2211  MISS:        139  HIT %:    94.0851  MISS %:    5.91489  MPKI: 0.00278
PSCL3 TRANSLATION FROM L1D PREFETCHER INSTRUCTION	ACCESS:         57  HIT:         57  MISS:          0  HIT %:        100  MISS %:          0  MPKI: 0
PSCL3 LOAD TRANSLATION DATA	ACCESS:       2081  HIT:          0  MISS:       2081  HIT %:          0  MISS %:        100  MPKI: 0.04162
PSCL3 TRANSLATION FROM L1D PREFETCHER DATA	ACCESS:         57  HIT:          0  MISS:         57  HIT %:          0  MISS %:        100  MPKI: 0.00114


PSCL2 TOTAL     ACCESS:       4499  HIT:       2188  MISS:       2311  HIT %:     48.633  MISS %:     51.367   MPKI: 0.04622
PSCL2 LOAD TRANSLATION INSTRUCTION	ACCESS:       2434  HIT:       2123  MISS:        311  HIT %:    87.2227  MISS %:    12.7773  MPKI: 0.00622
PSCL2 TRANSLATION FROM L1D PREFETCHER INSTRUCTION	ACCESS:         65  HIT:         65  MISS:          0  HIT %:        100  MISS %:          0  MPKI: 0
PSCL2 LOAD TRANSLATION DATA	ACCESS:       1935  HIT:          0  MISS:       1935  HIT %:          0  MISS %:        100  MPKI: 0.0387
PSCL2 TRANSLATION FROM L1D PREFETCHER DATA	ACCESS:         65  HIT:          0  MISS:         65  HIT %:          0  MISS %:        100  MPKI: 0.0013


LLC TOTAL     ACCESS:     608007  HIT:     577803  MISS:      30204  HIT %:    95.0323  MISS %:    4.96771   MPKI: 0.60408
LLC LOAD INSTRUCTION	ACCESS:     273522  HIT:     272134  MISS:       1388  HIT %:    99.4925  MISS %:   0.507455  MPKI: 0.02776
LLC LOAD TRANSLATION INSTRUCTION	ACCESS:        241  HIT:        202  MISS:         39  HIT %:    83.8174  MISS %:    16.1826  MPKI: 0.00078
LLC LOAD DATA	ACCESS:      84576  HIT:      80899  MISS:       3677  HIT %:    95.6524  MISS %:    4.34757  MPKI: 0.07354
LLC RFO DATA	ACCESS:      72215  HIT:      57730  MISS:      14485  HIT %:    79.9418  MISS %:    20.0582  MPKI: 0.2897
LLC PREFETCH DATA	ACCESS:      78064  HIT:      67921  MISS:      10143  HIT %:    87.0068  MISS %:    12.9932  MPKI: 0.20286
LLC WRITEBACK DATA	ACCESS:      97958  HIT:      97600  MISS:        358  HIT %:    99.6345  MISS %:   0.365463  MPKI: 0.00716
LLC LOAD TRANSLATION DATA	ACCESS:       1405  HIT:       1291  MISS:        114  HIT %:    91.8861  MISS %:    8.11388  MPKI: 0.00228
LLC TRANSLATION FROM L1D PREFETCHER DATA	ACCESS:         26  HIT:         26  MISS:          0  HIT %:        100  MISS %:          0  MPKI: 0

LLC AVERAGE MISS LATENCY: 158.171 cycles
LLC RQ	ACCESS:     431989	FORWARD:          0	MERGED:          0	TO_CACHE:     431985
LLC WQ	ACCESS:      97958	FORWARD:          5	MERGED:          0	TO_CACHE:      97958
LLC PQ	ACCESS:      78065	FORWARD:          0	MERGED:          0	TO_CACHE:      78064

LLC Dense regions hint to LLC: 0

RAW hits: 1938510
Loads Generated: 12635545
Loads sent to L1D: 10697037
Stores Generated: 6943879
Stores sent to L1D: 6943889
Major fault: 0 Minor fault: 2651
Allocated PAGES: 2651

stream: 
stream:times selected: 1195749
stream:pref_filled: 120570
stream:pref_useful: 22844
stream:pref_late: 8456
stream:misses: 8505
stream:misses_by_poll: 0

CS: 
CS:times selected: 179067
CS:pref_filled: 56338
CS:pref_useful: 32896
CS:pref_late: 11530
CS:misses: 20525
CS:misses_by_poll: 6

CPLX: 
CPLX:times selected: 1015570
CPLX:pref_filled: 19226
CPLX:pref_useful: 3986
CPLX:pref_late: 3733
CPLX:misses: 95568
CPLX:misses_by_poll: 0

NL_L1: 
NL:times selected: 21187
NL:pref_filled: 668
NL:pref_useful: 260
NL:pref_late: 449
NL:misses: 1745
NL:misses_by_poll: 0

total selections: 2411573
total_filled: 95442
total_useful: 34241
total_late: 25405
total_polluted: 6
total_misses_after_warmup: 773115
conflicts: 5514869

test: 119073

DRAM Statistics
 CHANNEL 0
 RQ ROW_BUFFER_HIT:      10855  ROW_BUFFER_MISS:      18980
 DBUS_CONGESTED:         12
 WQ ROW_BUFFER_HIT:       1608  ROW_BUFFER_MISS:      13163  FULL:          0

 AVG_CONGESTED_CYCLE: 4

CPU 0 Branch Prediction Accuracy: 99.809% MPKI: 0.34924 Average ROB Occupancy at Mispredict: 181.557
Branch types
NOT_BRANCH: 40856115 81.7122%
BRANCH_DIRECT_JUMP: 548684 1.09737%
BRANCH_INDIRECT: 183200 0.3664%
BRANCH_CONDITIONAL: 6183322 12.3666%
BRANCH_DIRECT_CALL: 942904 1.88581%
BRANCH_INDIRECT_CALL: 171292 0.342584%
BRANCH_RETURN: 1114189 2.22838%
BRANCH_OTHER: 0 0%

DRAM PAGES: 1048576
Allocated PAGES: 2651
Average_ROB_Occupancy: 246.476
Average_Decode_Occupancy: 36.825
Average_FTQ_Occupancy: 14.7587
Indirect max targets: 14 Average targets: 1.17666
Branch_type:  BRANCH_DIRECT_JUMP:  Count Percentage: 4.44429 6.96901 3.76375 3.23078 2.76627 12.4918 6.26359 60.0705 
Branch_type:  BRANCH_INDIRECT:  Count Percentage: 13.751 3.48842 2.59115 0 1.33267 27.7647 15.4901 35.582 
Branch_type:  BRANCH_CONDITIONAL:  Count Percentage: 25.3214 3.08894 1.64601 5.86437 1.3403 9.118 3.19716 50.4238 
Branch_type:  BRANCH_DIRECT_CALL:  Count Percentage: 0.870415 1.25838 0.755823 2.65564 2.66314 4.80586 2.21775 84.773 
Branch_type:  BRANCH_INDIRECT_CALL:  Count Percentage: 9.55196 0 2.99309 0.00087748 0.882745 3.42305 1.00062 82.1477 
Branch_type:  BRANCH_RETURN:  Count Percentage: 9.95664 1.41934 0.733937 5.7703 2.23114 11.9223 2.80752 65.1588 
Branch_type:  BRANCH_DIRECT_JUMP:  Total Count: 48757 76455 41291 35444 30348 137044 68716 659016 
Branch_type:  BRANCH_INDIRECT:  Total Count: 50405 12787 9498 0 4885 101773 56780 130428 
Branch_type:  BRANCH_CONDITIONAL:  Total Count: 3130068 381835 203469 724917 165680 1127110 395213 6233077 
Branch_type:  BRANCH_DIRECT_CALL:  Total Count: 16369 23665 14214 49942 50083 90379 41707 1594239 
Branch_type:  BRANCH_INDIRECT_CALL:  Total Count: 32657 0 10233 3 3018 11703 3421 280853 
Branch_type:  BRANCH_RETURN:  Total Count: 221371 31557 16318 128294 49606 265075 62421 1448709 
Number of unique branch instructions: 10830
Upper 32 bits: 
aaaa
ffff
ffff0000
Unique upper 32 bits: 3
Unique upper 36 bits: 3
Unique upper 40 bits: 5
Unique upper 44 bits: 32
Unique upper 48 bits: 158
Variant_0 : 1378 0.336426
Variant_1 : 2700 0.65918
Variant_2 : 0 0
Variant_3 : 0 0
Offset_3 4484
Offset_4 257
Offset_5 485
Offset_6 540
Offset_7 639
Offset_8 582
Offset_9 525
Offset_10 428
Offset_11 356
Offset_12 326
Offset_13 238
Offset_14 247
Offset_15 191
Offset_16 234
Offset_17 173
Offset_18 151
Offset_19 262
Offset_20 141
Offset_21 235
Offset_22 413
Offset_23 241
Offset_24 353
Offset_25 117
Offset_47 94
decode_dispatch_called: 26265440 72.309
Dispatch_width: 0 14180578 53.9895 39.0393
Dispatch_width: 1 1014411 3.86215 2.79268
Dispatch_width: 2 843283 3.21062 2.32157
Dispatch_width: 3 500290 1.90475 1.3773
Dispatch_width: 4 6216504 23.668 17.1141
Dispatch_width: 5 130328 0.496196 0.358794
Dispatch_width: 6 3380046 12.8688 9.3053
Empty_decode_cycles: 10058459 27.691
ROB_full_cycles: 9950848 27.3948
Starvation_cycles_per_kilo_instr: 229.93
Starvation_cycles_per_kilo_instr_3: 166.462
Starvation_cycles_per_kilo_instr_0: 142.882
Branch_type_1  (3,1)  (4,9)  (5,39)  (6,73)  (7,126)  (8,150)  (9,140)  (10,111)  (11,81)  (12,55)  (13,12)  (14,2)  (15,3)  (16,4)  (18,1)  (19,5)  (20,2)  (21,1)  (22,3)  (23,2)  (24,10)  (25,12) 
Branch_type_2  (3,1)  (4,1)  (5,1)  (8,4)  (9,4)  (10,1)  (12,1)  (13,1)  (14,1)  (16,3)  (17,2)  (20,2)  (21,2)  (23,5)  (24,1)  (47,43) 
Branch_type_3  (3,4482)  (4,247)  (5,441)  (6,451)  (7,483)  (8,361)  (9,286)  (10,174)  (11,142)  (12,62)  (13,10) 
Branch_type_4  (6,3)  (7,8)  (8,25)  (9,56)  (10,68)  (11,68)  (12,116)  (13,100)  (14,112)  (15,90)  (16,104)  (17,79)  (18,66)  (19,128)  (20,72)  (21,124)  (22,218)  (23,136)  (24,208)  (25,101) 
Branch_type_5  (8,3)  (9,1)  (10,4)  (11,5)  (12,3)  (13,14)  (14,16)  (15,11)  (16,22)  (17,13)  (18,23)  (19,14)  (20,11)  (21,13)  (22,43)  (23,26)  (24,38) 
Branch_type_6  (5,4)  (6,13)  (7,22)  (8,39)  (9,38)  (10,70)  (11,60)  (12,89)  (13,101)  (14,116)  (15,87)  (16,101)  (17,79)  (18,61)  (19,115)  (20,54)  (21,95)  (22,149)  (23,72)  (24,96)  (25,4)  (47,51) 
Unique trigger count: 
Variant_0_evicts_0 : 0
Variant_0_evicts_1 : 0
Variant_0_evicts_2 : 0
Variant_0_evicts_3 : 0
Variant_1_evicts_0 : 0
Variant_1_evicts_1 : 0
Variant_1_evicts_2 : 0
Variant_1_evicts_3 : 0
Variant_2_evicts_0 : 0
Variant_2_evicts_1 : 0
Variant_2_evicts_2 : 0
Variant_2_evicts_3 : 0
Variant_3_evicts_0 : 0
Variant_3_evicts_1 : 0
Variant_3_evicts_2 : 0
Variant_3_evicts_3 : 0
BTB PER SET UNIQUE ADDR: 12 16 13 14 14 14 10 15 9 12 12 14 14 13 7 7 14 16 8 13 13 10 16 11 9 11 14 15 15 17 11 11 15 11 10 9 13 13 10 13 11 16 13 14 13 10 15 15 11 13 17 14 11 18 12 6 14 10 13 13 9 13 11 10 14 19 10 7 19 14 16 12 18 11 11 10 9 13 12 16 16 10 11 12 14 14 15 13 11 20 12 8 8 10 7 15 12 10 14 13 13 16 10 13 12 12 10 10 8 10 9 23 17 11 9 11 11 12 12 7 11 15 11 12 9 12 6 15 19 11 10 17 10 13 10 12 10 13 10 18 16 16 11 15 10 12 14 8 8 15 12 15 8 14 11 14 15 15 15 15 11 12 16 14 11 15 14 8 12 9 13 13 8 13 11 12 12 13 10 12 8 11 12 14 14 14 8 14 16 16 17 13 9 12 16 8 11 10 9 13 11 13 8 9 9 9 13 13 12 13 12 13 10 13 13 14 12 11 10 21 9 12 12 13 11 12 13 11 8 15 13 4 13 15 8 13 13 12 13 7 15 11 16 19 10 13 9 11 18 11 20 14 13 10 13 17 13 12 10 7 12 8 4 12 12 10 9 10 13 12 14 12 13 6 7 11 13 12 11 14 12 11 13 11 14 7 9 19 18 10 11 13 11 20 11 14 16 9 14 12 9 8 11 19 11 18 13 9 14 9 9 14 8 16 15 10 14 12 17 15 10 15 11 11 10 22 11 10 10 9 10 15 12 12 9 17 11 8 7 13 9 18 6 12 13 10 12 15 10 8 12 14 10 14 15 15 9 15 9 10 12 14 8 16 12 13 7 14 14 12 8 11 11 11 11 14 13 12 13 14 17 10 10 12 11 17 12 16 12 12 12 14 14 18 7 9 15 12 16 11 10 13 13 15 14 15 15 17 12 14 16 10 12 17 11 13 13 17 22 14 13 11 13 13 13 9 14 12 13 11 20 14 9 9 16 16 14 9 15 13 14 15 12 11 20 8 14 13 18 12 14 21 15 13 13 15 16 13 12 12 11 15 11 12 21 14 13 12 9 14 15 13 14 15 11 16 12 15 10 13 13 16 16 15 11 17 12 19 21 11 10 16 13 10 13 11 13 10 11 13 12 17 12 18 13 10 11 11 9 12 11 17 11 13 10 16 12 13 10 10 8 13 12 12 14 14 20 8 8 12 12 12 11 12 14 15 13 13 13 13 12 9 16 11 14 11 8 10 10 11 14 19 13 11 13 18 13 12 16 14 10 18 16 10 9 13 11 16 12 20 13 13 13 18 11 11 13 13 12 13 13 13 11 13 13 14 14 11 15 13 12 11 11 11 13 12 11 12 12 10 13 10 11 9 8 20 15 15 14 13 16 17 9 11 8 13 9 13 17 12 18 10 10 11 14 15 11 13 9 12 12 19 13 12 13 12 13 16 11 12 14 12 11 16 9 12 11 12 14 12 10 14 10 11 10 10 13 11 14 13 11 8 15 19 10 12 10 9 10 10 14 14 10 19 17 10 16 15 14 16 8 19 11 16 13 14 14 14 12 14 11 14 10 8 12 9 10 13 10 14 9 17 12 16 11 16 13 13 7 8 12 16 9 13 8 14 16 13 7 9 11 12 8 11 12 12 15 11 14 13 13 11 12 10 10 20 10 14 15 12 12 9 16 13 18 12 12 14 18 8 14 10 12 13 10 13 14 14 12 14 10 10 9 8 9 18 10 16 13 14 12 14 14 8 10 12 17 13 13 15 8 12 20 10 10 10 15 15 7 9 10 8 15 13 16 12 13 8 16 11 15 17 17 17 15 11 13 13 14 10 13 15 11 11 13 17 20 14 6 13 12 21 9 14 12 15 13 11 9 11 9 11 13 13 9 13 16 9 12 12 9 15 9 12 13 13 11 14 11 7 13 10 11 14 11 13 15 14 11 12 12 13 12 10 14 7 10 11 15 10 13 17 17 10 10 10 13 12 11 12 12 9 13 12 13 14 16 10 14 12 14 14 12 9 11 18 18 9 10 11 12 14 17 14 9 13 12 13 13 11 11 11 11 15 16 13 15 14 17 14 13 16 9 10 16 12 10 11 14 13 11 20 11 13 16 13 10 12 15 18 7 17 15 13 9 13 15 18 12 12 11 13 6 10 11 15 13 11 18 12 12 8 15 13 12 11 12 9 13 11 11 12 11 11 13 13 14 10 13 23 15 17 11 16 10 15 15 13 15 12 15 10 14 17 13 9 11 13 19 12 17 15 11 14 16 12 15 18 9 16 13 13 14 6 12 10 9 8 9 8 12 20 10 11 
BTB PER SET COUNT: 20 19 1918 18 17 24 17 25 1472 18 15 376 21 14 9 9 2044 21 13 20 45 178 525 11 21 13 22 18 219 379 16 943 22 18 12 11 19 13 12 19 11 28 20 421 1359 14 23 20 13 421 31 34 16 27 20 379 23 16 16 22 11 23 411 10 18 25 12 10 33 19 126 909 27 15 15 18 9 17 14 22 26 13 17 14 17 79 23 20 506 32 18 439 413 92 8 20 274 972 16 21 18 170 12 17 1591 13 10 12 597 11 12 32 29 16 16 1122 13 17 1344 8 22 55 16 18 10 91 6 28 33 1018 13 734 13 17 11 27 965 18 12 33 29 1079 16 24 13 158 1168 9 10 20 17 303 12 22 20 18 985 18 22 28 13 18 227 18 330 21 26 9 22 381 28 19 11 23 13 19 15 23 12 487 10 15 307 17 18 624 10 17 549 839 25 15 9 12 22 10 11 11 10 33 12 216 880 13 10 12 16 474 19 2250 24 18 16 14 16 1485 23 11 673 35 14 18 22 18 14 34 23 15 9 16 17 4 19 20 8 17 23 112 21 10 23 16 527 48 12 910 11 15 436 18 33 19 19 12 18 28 23 23 13 16 21 11 4 122 12 16 10 15 476 17 17 16 932 7 7 13 33 14 13 100 20 14 15 16 24 7 17 27 28 11 14 16 12 35 12 23 18 14 18 602 11 8 420 38 18 157 19 9 20 539 10 22 8 21 1181 222 21 18 28 27 11 3164 24 13 11 378 328 12 19 11 11 24 50 18 11 24 15 11 7 100 11 1597 6 16 339 17 13 24 15 73 15 221 11 23 20 26 16 21 10 13 18 17 9 29 14 1625 7 20 20 16 8 22 12 14 881 18 29 14 24 567 31 15 12 14 14 23 1238 25 14 13 161 19 19 30 10 15 22 16 363 420 16 16 460 21 27 21 27 72 19 20 868 16 14 25 12 14 13 29 33 16 17 11 19 20 22 10 383 17 22 13 33 19 14 12 20 25 17 935 17 18 275 29 42 14 2454 15 81 21 30 21 957 36 18 18 154 339 24 15 13 13 32 407 16 17 30 125 14734 18 10 19 22 23 25 31 14 27 16 21 11 15 17 182 28 19 308 183 182 28 38 13 12 20 981 14 24 19 1223 297 13 20 16 17 19 28 23 11 12 14 15 18 21 129 315 90 12 20 25 18 14 14 10 16 20 153 18 784 30 290 11 1478 13 15 14 24 22 21 329 1021 20 20 15 14 22 11 25 14 11 15 12 1770 17 31 582 148 19 28 17 13 33 21 13 104 19 11 10 18 15 26 19 328 335 17 20 30 1482 15 29 454 15 19 18 17 12 2947 15 20 459 13 20 24 907 19 16 11 19 20 14 391 261 11 16 16 13 11 10 31 19 1840 15 17 24 27 10 15 10 15 205 23 25 26 24 18 16 480 16 20 18 19 10 21 22 28 18 17 15 18 15 729 13 16 18 17 13 19 14 17 116 17 20 18 21 24 11 18 10 53 19 11 644 15 389 10 26 30 20478 20 19 973 1502 16 15 16 379 35 26 11 35 24 21 28 8 24 314 513 15 20 22 16 23 15 16 20 14 8 2446 10 483 3183 10 19 12 38 505 23 16 421 24 15 10 10 188 446 912 18 13 19 645 21 9 9 14 772 9 1926 23 13 26 12 336 23 21 12 15 13 13 1553 16 17 23 31 45 11 29 16 27 20 898 18 23 8 673 16 1103 746 1471 17 24 17 18 22 12 16 9 393 11 28 13 26 20 256 17 20 23 8 12 14 23 953 19 825 1235 18 205 12 12 10 22 22 8 14 12 82 25 16 24 25 24 17 28 303 19 34 421 116 343 13 19 28 24 71 17 7903 24 15 216 180 145 1978 8 21 17 27 10 37 218 17 16 11 10 22 10 18 18 17 10 1944 17 475 399 20 17 1263 10 14 56 20 286 21 14 15 624 1041 740 27 692 14 122 22 17 16 219 18 331 15 28 10 10 20 22 14 24 63 21 15 14 11 16 14 3013 23 18 10 139 14 14 328 19 16 22 230 15 331 1471 10 12 27 31 11 17 18 16 17 29 329 11 21 16 16 157 13 17 1014 15 19 29 19 649 30 26 18 17 236 510 14 22 19 18 13 33 28 21 33 378 15 23 22 13 59 476 26 8 236 24 25 9 479 25 21 21 12 476 17 10 175 14 28 209 13 99 21 215 9 825 16 14 14 377 12 17 11 50 1746 15 18 20 19 21 16 23 175 338 297 421 220 15 1068 42 983 23 17 20 15 218 1012 23 13 15 1484 22 13 27 1168 17 27 23 18 27 28 15 24 126 408 23 7 14 13 9 10 13 9 16 193 19 15 
To predecode: 0
Predecoding something: 0
Predecode request dropped: 0
sizeofblock_0 0
sizeofblock_1 48330
sizeofblock_2 92956
sizeofblock_3 0
sizeofblock_4 0
sizeofblock_5 0
sizeofblock_6 0
sizeofblock_7 0
sizeofblock_8 0
Variant_0 Correct: 1608241 Incorrect: 0 Accuracy: 1
Variant_1 Correct: 5717427 Incorrect: 0 Accuracy: 1
Variant_2 Correct: 0 Incorrect: 0 Accuracy: -nan
Variant_3 Correct: 0 Incorrect: 0 Accuracy: -nan
