
*** ChampSim Multicore Out-of-Order Simulator ***

Warmup Instructions: 10000000
Simulation Instructions: 10000000
Number of CPUs: 1
LLC sets: 2048
LLC ways: 16
Off-chip DRAM Size: 4096 MB Channels: 1 Width: 64-bit Data Rate: 6400 MT/s
CPU 0 runs /media/ashish/Windows/Ashish/traces/public/spec_perlbench_001.champsimtrace.xz
.xz
ITLB has LRU replacement policy
DTLB has LRU replacement policy
STLB has LRU replacement policy
FDIP Prefetcher at L1I
L1I has LRU replacement policy
L1D has LRU replacement policy
Initialize SRRIP state for L2C
Initialize DRRIP state for LLC
Heartbeat CPU 0 instructions: 10000000 cycles: 2806494 heartbeat IPC: 3.56316 cumulative IPC: 3.56316 (Simulation time: 0 hr 4 min 33 sec) 

Warmup complete CPU 0 instructions: 10000004 cycles: 2806495 (Simulation time: 0 hr 4 min 33 sec) 

Cycle: 10000000 FTQ IN: 15609236 FTQ occupancy: 9.58979 DECODE IN: 15609232 DECODE occupancy: 25.8643 ROB IN: 15609215 ROB occupancy: 222.671 ROB OUT: 15609156
Heartbeat CPU 0 instructions: 20000001 cycles: 14652201 heartbeat IPC: 0.844188 cumulative IPC: 0.844187 (Simulation time: 0 hr 6 min 54 sec) 
Finished CPU 0 instructions: 10000001 cycles: 11845707 cumulative IPC: 0.844188 (Simulation time: 0 hr 6 min 54 sec) 

ChampSim completed all CPUs

Region of Interest Statistics

CPU 0 cumulative IPC: 0.844188 instructions: 10000001 cycles: 11845707
 Fetch stage stalled: 72.5965  Sim cycles: 11845707 fetch stall cycle: 8599569
 Empty decode stage: 29.6019  Sim cycles: 11845707 fetch stall cycle: 3506557
ITLB TOTAL     ACCESS:    1268500  HIT:    1260816  MISS:       7684  HIT %:    99.3942  MISS %:   0.605755   MPKI: 0.7684
ITLB LOAD TRANSLATION INSTRUCTION	ACCESS:    1249388  HIT:    1241704  MISS:       7684  HIT %:     99.385  MISS %:   0.615021  MPKI: 0.7684
ITLB TRANSLATION FROM L1D PREFETCHER INSTRUCTION	ACCESS:      19112  HIT:      19112  MISS:          0  HIT %:        100  MISS %:          0  MPKI: 0

ITLB AVERAGE MISS LATENCY: 12.9206 cycles
ITLB RQ	ACCESS:    1556675	FORWARD:          0	MERGED:     278301	TO_CACHE:    1278374

DTLB TOTAL     ACCESS:    1939079  HIT:    1874970  MISS:      64109  HIT %:    96.6938  MISS %:    3.30616   MPKI: 6.4109
DTLB LOAD TRANSLATION DATA	ACCESS:    1939079  HIT:    1874970  MISS:      64109  HIT %:    96.6938  MISS %:    3.30616  MPKI: 6.4109

DTLB AVERAGE MISS LATENCY: 14.6424 cycles
DTLB RQ	ACCESS:    2540477	FORWARD:          0	MERGED:     599168	TO_CACHE:    1941309

STLB TOTAL     ACCESS:     128038  HIT:     125278  MISS:       2760  HIT %:    97.8444  MISS %:    2.15561   MPKI: 0.276
STLB LOAD TRANSLATION INSTRUCTION	ACCESS:       7684  HIT:       7483  MISS:        201  HIT %:    97.3842  MISS %:    2.61583  MPKI: 0.0201
STLB LOAD TRANSLATION DATA	ACCESS:      64109  HIT:      61559  MISS:       2550  HIT %:    96.0224  MISS %:     3.9776  MPKI: 0.255
STLB TRANSLATION FROM L1D PREFETCHER DATA	ACCESS:      56245  HIT:      56236  MISS:          9  HIT %:     99.984  MISS %:  0.0160014  MPKI: 0.0009

STLB AVERAGE MISS LATENCY: 140.287 cycles
STLB RQ	ACCESS:     138313	FORWARD:          0	MERGED:      10265	TO_CACHE:     128048

STLB Hit, L1D data hit: 0
STLB Hit, L2C data hit: 0
STLB Hit, LLC data hit: 0
STLB Hit, LLC data miss: 0
STLB STLB hints to L2: 0
L1D TOTAL     ACCESS:    2591655  HIT:    2495540  MISS:      96115  HIT %:    96.2914  MISS %:    3.70863   MPKI: 9.6115
L1D LOAD DATA	ACCESS:    1275623  HIT:    1210466  MISS:      65157  HIT %:    94.8921  MISS %:    5.10786  MPKI: 6.5157
L1D RFO DATA	ACCESS:    1251464  HIT:    1243787  MISS:       7677  HIT %:    99.3866  MISS %:   0.613442  MPKI: 0.7677
L1D PREFETCH DATA	ACCESS:      64568  HIT:      41287  MISS:      23281  HIT %:    63.9434  MISS %:    36.0566  MPKI: 2.3281

L1D PREFETCH  REQUESTED:     133086  ISSUED:     133086  USEFUL:       7244  USELESS:      16676
L1D USEFUL LOAD PREFETCHES:       7244 PREFETCH ISSUED TO LOWER LEVEL:      23952  ACCURACY: 30.2438
 TIMELY PREFETCHES:       7244 LATE PREFETCHES: 640 DROPPED PREFETCHES: 8
L1D AVERAGE MISS LATENCY: 64673.1 cycles
L1D RQ	ACCESS:    2008181	FORWARD:          0	MERGED:     706911	TO_CACHE:    1278823
L1D WQ	ACCESS:    1298436	FORWARD:      22493	MERGED:      36782	TO_CACHE:    1261654
L1D PQ	ACCESS:      66566	FORWARD:          0	MERGED:          0	TO_CACHE:      66520

L1D UNIQUE REGIONS ACCESSED: 0
L1D REGIONS CONFLICTS: 0
L1D Cross Page Prefetch Requests: 713
L1D Same Page Prefetch Requests: 115705
L1D ROI Sum of L1D PQ occupancy: 865817
L1D PREFETCHES PUSHED FROM L2C: 0
L1I TOTAL     ACCESS:    1537939  HIT:    1432491  MISS:     105448  HIT %:    93.1436  MISS %:    6.85645   MPKI: 10.5448
L1I LOAD INSTRUCTION	ACCESS:    1381393  HIT:    1275945  MISS:     105448  HIT %:    92.3665  MISS %:    7.63345  MPKI: 10.5448
L1I PREFETCH INSTRUCTION	ACCESS:     156546  HIT:     156546  MISS:          0  HIT %:        100  MISS %:          0  MPKI: 0

L1I PREFETCH  REQUESTED:     221073  ISSUED:     221073  USEFUL:          0  USELESS:          0
L1I USEFUL LOAD PREFETCHES:          0 PREFETCH ISSUED TO LOWER LEVEL:          0  ACCURACY: -nan
 TIMELY PREFETCHES:          0 LATE PREFETCHES: 0 DROPPED PREFETCHES: 0
L1I AVERAGE MISS LATENCY: 18.7989 cycles
L1I RQ	ACCESS:    1879303	FORWARD:          0	MERGED:     491153	TO_CACHE:    1388150
L1I PQ	ACCESS:     221073	FORWARD:          0	MERGED:      52548	TO_CACHE:     168525

L1BTB TOTAL     ACCESS:    1216598  HIT:     749718  MISS:     466880  HIT %:    61.6241  MISS %:    38.3759   MPKI: 46.688
L1BTB BRANCH_DIRECT_JUMP	ACCESS:     164091 HIT:     105904 MISS:      58187 AVERAGE STALL: 86.4876 AVERAGE FETCH STALL: 67.6894 AVERAGE FETCH QUEUE STALL: 11.1335 AVERAGE DECODE STALL: 6.82609 AVERAGE EXECUTE STALL: 5.7288e+16
L1BTB BRANCH_INDIRECT	ACCESS:      38055 HIT:       7016 MISS:      31039 AVERAGE STALL: 63.7252 AVERAGE FETCH STALL: 7.76755 AVERAGE FETCH QUEUE STALL: 2.72287 AVERAGE DECODE STALL: 6.10686 AVERAGE EXECUTE STALL: 46.1551
L1BTB BRANCH_CONDITIONAL	ACCESS:     729582 HIT:     506655 MISS:     222927 AVERAGE STALL: 100.532 AVERAGE FETCH STALL: 80.1947 AVERAGE FETCH QUEUE STALL: 11.7895 AVERAGE DECODE STALL: 7.76974 AVERAGE EXECUTE STALL: 2.4272e+16
L1BTB BRANCH_DIRECT_CALL	ACCESS:     101210 HIT:      50790 MISS:      50420 AVERAGE STALL: 100.856 AVERAGE FETCH STALL: 81.9575 AVERAGE FETCH QUEUE STALL: 11.4419 AVERAGE DECODE STALL: 6.63173 AVERAGE EXECUTE STALL: 5.22571e+16
L1BTB BRANCH_INDIRECT_CALL	ACCESS:      41225 HIT:       3579 MISS:      37646 AVERAGE STALL: 112.417 AVERAGE FETCH STALL: 7.90095 AVERAGE FETCH QUEUE STALL: 5.26317 AVERAGE DECODE STALL: 8.15183 AVERAGE EXECUTE STALL: 91.1005
L1BTB BRANCH_RETURN	ACCESS:     142435 HIT:      75774 MISS:      66661 AVERAGE STALL: 94.7541 AVERAGE FETCH STALL: 76.6284 AVERAGE FETCH QUEUE STALL: 12.5355 AVERAGE DECODE STALL: 4.95082 AVERAGE EXECUTE STALL: 1.00802e+17
L1BTB BRANCH_OTHER ACCESS:          0 HIT:          0 MISS:          0 AVERAGE STALL: -nan AVERAGE FETCH STALL: -nan AVERAGE FETCH QUEUE STALL: -nan AVERAGE DECODE STALL: -nan AVERAGE EXECUTE STALL: -nan
L1BTB TOTAL ROB OCCUPANCY AT BTB MISS: 14.8222

L2BTB TOTAL     ACCESS:     408350  HIT:     399098  MISS:       9252  HIT %:    97.7343  MISS %:     2.2657   MPKI: 0.9252
L2BTB BRANCH_DIRECT_JUMP	ACCESS:      58187 HIT:      57711 MISS:        476 AVERAGE STALL: 86.4876 AVERAGE FETCH STALL: 67.6894 AVERAGE FETCH QUEUE STALL: 11.1335 AVERAGE DECODE STALL: 6.82609 AVERAGE EXECUTE STALL: 5.7288e+16
L2BTB BRANCH_INDIRECT	ACCESS:       6077 HIT:       1495 MISS:       4582 AVERAGE STALL: 63.7252 AVERAGE FETCH STALL: 7.76755 AVERAGE FETCH QUEUE STALL: 2.72287 AVERAGE DECODE STALL: 6.10686 AVERAGE EXECUTE STALL: 46.1551
L2BTB BRANCH_CONDITIONAL	ACCESS:     222927 HIT:     221509 MISS:       1418 AVERAGE STALL: 100.532 AVERAGE FETCH STALL: 80.1947 AVERAGE FETCH QUEUE STALL: 11.7895 AVERAGE DECODE STALL: 7.76974 AVERAGE EXECUTE STALL: 2.4272e+16
L2BTB BRANCH_DIRECT_CALL	ACCESS:      50420 HIT:      49854 MISS:        566 AVERAGE STALL: 100.856 AVERAGE FETCH STALL: 81.9575 AVERAGE FETCH QUEUE STALL: 11.4419 AVERAGE DECODE STALL: 6.63173 AVERAGE EXECUTE STALL: 5.22571e+16
L2BTB BRANCH_INDIRECT_CALL	ACCESS:       4078 HIT:       2153 MISS:       1925 AVERAGE STALL: 112.417 AVERAGE FETCH STALL: 7.90095 AVERAGE FETCH QUEUE STALL: 5.26317 AVERAGE DECODE STALL: 8.15183 AVERAGE EXECUTE STALL: 91.1005
L2BTB BRANCH_RETURN	ACCESS:      66661 HIT:      66376 MISS:        285 AVERAGE STALL: 94.7541 AVERAGE FETCH STALL: 76.6284 AVERAGE FETCH QUEUE STALL: 12.5355 AVERAGE DECODE STALL: 4.95082 AVERAGE EXECUTE STALL: 1.00802e+17
L2BTB BRANCH_OTHER ACCESS:          0 HIT:          0 MISS:          0 AVERAGE STALL: -nan AVERAGE FETCH STALL: -nan AVERAGE FETCH QUEUE STALL: -nan AVERAGE DECODE STALL: -nan AVERAGE EXECUTE STALL: -nan
L2BTB TOTAL ROB OCCUPANCY AT BTB MISS: 747.967

L2C TOTAL     ACCESS:     247816  HIT:     201834  MISS:      45982  HIT %:    81.4451  MISS %:    18.5549   MPKI: 4.5982
L2C LOAD INSTRUCTION	ACCESS:     105448  HIT:      99265  MISS:       6183  HIT %:    94.1364  MISS %:    5.86355  MPKI: 0.6183
L2C LOAD TRANSLATION INSTRUCTION	ACCESS:        216  HIT:        102  MISS:        114  HIT %:    47.2222  MISS %:    52.7778  MPKI: 0.0114
L2C LOAD DATA	ACCESS:      64513  HIT:      45022  MISS:      19491  HIT %:    69.7875  MISS %:    30.2125  MPKI: 1.9491
L2C RFO DATA	ACCESS:       7643  HIT:       5952  MISS:       1691  HIT %:    77.8752  MISS %:    22.1248  MPKI: 0.1691
L2C PREFETCH DATA	ACCESS:      38006  HIT:      21555  MISS:      16451  HIT %:    56.7147  MISS %:    43.2853  MPKI: 1.6451
L2C WRITEBACK DATA	ACCESS:      28717  HIT:      28289  MISS:        428  HIT %:    98.5096  MISS %:    1.49041  MPKI: 0.0428
L2C LOAD TRANSLATION DATA	ACCESS:       3250  HIT:       1633  MISS:       1617  HIT %:    50.2462  MISS %:    49.7538  MPKI: 0.1617
L2C TRANSLATION FROM L1D PREFETCHER DATA	ACCESS:         23  HIT:         16  MISS:          7  HIT %:    69.5652  MISS %:    30.4348  MPKI: 0.0007

L2C PREFETCH  REQUESTED:      15559  ISSUED:      15559  USEFUL:       2692  USELESS:      14022
L2C USEFUL LOAD PREFETCHES:       2692 PREFETCH ISSUED TO LOWER LEVEL:      16564  ACCURACY: 16.2521
 TIMELY PREFETCHES:       2692 LATE PREFETCHES: 113 DROPPED PREFETCHES: 0
L2C AVERAGE MISS LATENCY: 120.268 cycles
L2C RQ	ACCESS:     181101	FORWARD:          0	MERGED:          0	TO_CACHE:     181095
L2C WQ	ACCESS:      28717	FORWARD:          6	MERGED:          0	TO_CACHE:      28717
L2C PQ	ACCESS:      39511	FORWARD:          0	MERGED:        360	TO_CACHE:      39151

L2C Dense regions hint from L2: 0
PSCL5 TOTAL     ACCESS:       5537  HIT:       2768  MISS:       2769  HIT %:     49.991  MISS %:     50.009   MPKI: 0.2769
PSCL5 LOAD TRANSLATION INSTRUCTION	ACCESS:       5499  HIT:       2749  MISS:       2750  HIT %:    49.9909  MISS %:    50.0091  MPKI: 0.275
PSCL5 TRANSLATION FROM L1D PREFETCHER INSTRUCTION	ACCESS:         38  HIT:         19  MISS:         19  HIT %:         50  MISS %:         50  MPKI: 0.0019


PSCL4 TOTAL     ACCESS:       5536  HIT:       2767  MISS:       2769  HIT %:    49.9819  MISS %:    50.0181   MPKI: 0.2769
PSCL4 LOAD TRANSLATION INSTRUCTION	ACCESS:       5467  HIT:       2748  MISS:       2719  HIT %:    50.2652  MISS %:    49.7348  MPKI: 0.2719
PSCL4 TRANSLATION FROM L1D PREFETCHER INSTRUCTION	ACCESS:         38  HIT:         19  MISS:         19  HIT %:         50  MISS %:         50  MPKI: 0.0019
PSCL4 LOAD TRANSLATION DATA	ACCESS:         31  HIT:          0  MISS:         31  HIT %:          0  MISS %:        100  MPKI: 0.0031


PSCL3 TOTAL     ACCESS:       5535  HIT:       2766  MISS:       2769  HIT %:    49.9729  MISS %:    50.0271   MPKI: 0.2769
PSCL3 LOAD TRANSLATION INSTRUCTION	ACCESS:       5466  HIT:       2747  MISS:       2719  HIT %:    50.2561  MISS %:    49.7439  MPKI: 0.2719
PSCL3 TRANSLATION FROM L1D PREFETCHER INSTRUCTION	ACCESS:         38  HIT:         19  MISS:         19  HIT %:         50  MISS %:         50  MPKI: 0.0019
PSCL3 LOAD TRANSLATION DATA	ACCESS:         31  HIT:          0  MISS:         31  HIT %:          0  MISS %:        100  MPKI: 0.0031


PSCL2 TOTAL     ACCESS:       4797  HIT:       2031  MISS:       2766  HIT %:     42.339  MISS %:     57.661   MPKI: 0.2766
PSCL2 LOAD TRANSLATION INSTRUCTION	ACCESS:       2194  HIT:       2016  MISS:        178  HIT %:     91.887  MISS %:    8.11304  MPKI: 0.0178
PSCL2 TRANSLATION FROM L1D PREFETCHER INSTRUCTION	ACCESS:         15  HIT:         15  MISS:          0  HIT %:        100  MISS %:          0  MPKI: 0
PSCL2 LOAD TRANSLATION DATA	ACCESS:       2573  HIT:          0  MISS:       2573  HIT %:          0  MISS %:        100  MPKI: 0.2573
PSCL2 TRANSLATION FROM L1D PREFETCHER DATA	ACCESS:         15  HIT:          0  MISS:         15  HIT %:          0  MISS %:        100  MPKI: 0.0015


LLC TOTAL     ACCESS:      52115  HIT:      24940  MISS:      27175  HIT %:    47.8557  MISS %:    52.1443   MPKI: 2.7175
LLC LOAD INSTRUCTION	ACCESS:       6183  HIT:       4206  MISS:       1977  HIT %:    68.0252  MISS %:    31.9748  MPKI: 0.1977
LLC LOAD TRANSLATION INSTRUCTION	ACCESS:        114  HIT:         68  MISS:         46  HIT %:    59.6491  MISS %:    40.3509  MPKI: 0.0046
LLC LOAD DATA	ACCESS:      19383  HIT:       6834  MISS:      12549  HIT %:    35.2577  MISS %:    64.7423  MPKI: 1.2549
LLC RFO DATA	ACCESS:       1686  HIT:        664  MISS:       1022  HIT %:    39.3832  MISS %:    60.6168  MPKI: 0.1022
LLC PREFETCH DATA	ACCESS:      16564  HIT:       5863  MISS:      10701  HIT %:     35.396  MISS %:     64.604  MPKI: 1.0701
LLC WRITEBACK DATA	ACCESS:       6561  HIT:       6307  MISS:        254  HIT %:    96.1286  MISS %:    3.87136  MPKI: 0.0254
LLC LOAD TRANSLATION DATA	ACCESS:       1617  HIT:        992  MISS:        625  HIT %:    61.3482  MISS %:    38.6518  MPKI: 0.0625
LLC TRANSLATION FROM L1D PREFETCHER DATA	ACCESS:          7  HIT:          6  MISS:          1  HIT %:    85.7143  MISS %:    14.2857  MPKI: 0.0001

LLC AVERAGE MISS LATENCY: 152.545 cycles
LLC RQ	ACCESS:      28990	FORWARD:          0	MERGED:          0	TO_CACHE:      28990
LLC WQ	ACCESS:       6561	FORWARD:          0	MERGED:          0	TO_CACHE:       6561
LLC PQ	ACCESS:      16564	FORWARD:          0	MERGED:          0	TO_CACHE:      16564

LLC Dense regions hint to LLC: 0

RAW hits: 428078
Loads Generated: 2436259
Loads sent to L1D: 2008181
Stores Generated: 1298435
Stores sent to L1D: 1298436
Major fault: 0 Minor fault: 4041
Allocated PAGES: 4041

stream: 
stream:times selected: 174005
stream:pref_filled: 28374
stream:pref_useful: 8715
stream:pref_late: 640
stream:misses: 2886
stream:misses_by_poll: 0

CS: 
CS:times selected: 5605
CS:pref_filled: 1194
CS:pref_useful: 891
CS:pref_late: 4
CS:misses: 98
CS:misses_by_poll: 0

CPLX: 
CPLX:times selected: 171378
CPLX:pref_filled: 9174
CPLX:pref_useful: 1329
CPLX:pref_late: 106
CPLX:misses: 13933
CPLX:misses_by_poll: 2

NL_L1: 
NL:times selected: 4167
NL:pref_filled: 522
NL:pref_useful: 141
NL:pref_late: 5
NL:misses: 280
NL:misses_by_poll: 0

total selections: 355155
total_filled: 23281
total_useful: 7244
total_late: 825
total_polluted: 2
total_misses_after_warmup: 68357
conflicts: 1003222

test: 62089

DRAM Statistics
 CHANNEL 0
 RQ ROW_BUFFER_HIT:       5661  ROW_BUFFER_MISS:      21260
 DBUS_CONGESTED:          9
 WQ ROW_BUFFER_HIT:        750  ROW_BUFFER_MISS:       1819  FULL:          0

 AVG_CONGESTED_CYCLE: 5

CPU 0 Branch Prediction Accuracy: 98.3451% MPKI: 3.5404 Average ROB Occupancy at Mispredict: 120.723
Branch types
NOT_BRANCH: 7860274 78.6027%
BRANCH_DIRECT_JUMP: 164091 1.64091%
BRANCH_INDIRECT: 38055 0.38055%
BRANCH_CONDITIONAL: 1652302 16.523%
BRANCH_DIRECT_CALL: 101210 1.0121%
BRANCH_INDIRECT_CALL: 41225 0.41225%
BRANCH_RETURN: 142435 1.42435%
BRANCH_OTHER: 0 0%

DRAM PAGES: 1048576
Allocated PAGES: 4041
Average_ROB_Occupancy: 171.166
Average_Decode_Occupancy: 13.2243
Average_FTQ_Occupancy: 4.63033
Indirect max targets: 109 Average targets: 4.41667
Branch_type:  BRANCH_DIRECT_JUMP:  Count Percentage: 8.20587 0.124341 3.09347 17.587 7.23356 2.63357 0.933937 60.1883 
Branch_type:  BRANCH_INDIRECT:  Count Percentage: 94.456 0 0.01456 3.93791 0.232959 0 0.0839997 1.27456 
Branch_type:  BRANCH_CONDITIONAL:  Count Percentage: 17.3816 0.931911 1.76829 9.46098 6.67209 2.66111 0.968483 60.1555 
Branch_type:  BRANCH_DIRECT_CALL:  Count Percentage: 1.51817 1.30907 1.15992 11.5236 2.2629 4.12522 0.531084 77.57 
Branch_type:  BRANCH_INDIRECT_CALL:  Count Percentage: 0.00262264 0.0275377 0 91.677 0.00393396 0.88383 0 7.40503 
Branch_type:  BRANCH_RETURN:  Count Percentage: 4.19846 2.45186 0.671826 5.08103 2.16082 2.32033 1.80801 81.3077 
Branch_type:  BRANCH_DIRECT_JUMP:  Total Count: 26728 405 10076 57284 23561 8578 3042 196044 
Branch_type:  BRANCH_INDIRECT:  Total Count: 84336 0 13 3516 208 0 75 1138 
Branch_type:  BRANCH_CONDITIONAL:  Total Count: 551321 29559 56088 300090 211630 84407 30719 1908055 
Branch_type:  BRANCH_DIRECT_CALL:  Total Count: 3013 2598 2302 22870 4491 8187 1054 153947 
Branch_type:  BRANCH_INDIRECT_CALL:  Total Count: 2 21 0 69912 3 674 0 5647 
Branch_type:  BRANCH_RETURN:  Total Count: 11555 6748 1849 13984 5947 6386 4976 223775 
Number of unique branch instructions: 8302
Upper 32 bits: 
0
ffff0000
Unique upper 32 bits: 2
Unique upper 36 bits: 2
Unique upper 40 bits: 2
Unique upper 44 bits: 8
Unique upper 48 bits: 47
Offset_3 4118
Offset_4 221
Offset_5 467
Offset_6 380
Offset_7 473
Offset_8 484
Offset_9 630
Offset_10 523
Offset_11 463
Offset_12 325
Offset_13 230
Offset_14 155
Offset_15 77
Offset_16 130
Offset_17 146
Offset_18 178
Offset_19 337
Offset_20 466
Offset_21 186
Offset_22 11
Offset_24 24
Offset_64 1
decode_dispatch_called: 4522923 38.182
Dispatch_width: 0 2337798 51.6878 19.7354
Dispatch_width: 1 168592 3.7275 1.42323
Dispatch_width: 2 181215 4.00659 1.52979
Dispatch_width: 3 142813 3.15754 1.20561
Dispatch_width: 4 502968 11.1204 4.24599
Dispatch_width: 5 108839 2.40639 0.918805
Dispatch_width: 6 1080698 23.8938 9.12312
Empty_decode_cycles: 7322784 61.818
ROB_full_cycles: 1414935 11.9447
Starvation_cycles_per_kilo_instr: 467.504
Starvation_cycles_per_kilo_instr_3: 436.913
Starvation_cycles_per_kilo_instr_0: 412.282
Branch_type_1  (4,9)  (5,19)  (6,54)  (7,68)  (8,107)  (9,169)  (10,159)  (11,153)  (12,101)  (13,68)  (14,40)  (15,7)  (18,1)  (19,4)  (20,2)  (21,2) 
Branch_type_2  (3,1)  (7,1)  (8,2)  (9,3)  (10,6)  (11,10)  (12,5)  (13,3)  (14,2) 
Branch_type_3  (3,4117)  (4,212)  (5,448)  (6,325)  (7,396)  (8,365)  (9,446)  (10,333)  (11,256)  (12,152)  (13,96)  (14,45)  (15,2)  (64,1) 
Branch_type_4  (7,1)  (8,4)  (9,7)  (10,14)  (11,19)  (12,36)  (13,35)  (14,32)  (15,38)  (16,71)  (17,56)  (18,101)  (19,204)  (20,259)  (21,107)  (22,5)  (24,8) 
Branch_type_5  (7,1)  (13,1)  (14,1)  (15,1)  (16,6)  (17,13)  (18,2)  (19,13)  (20,5)  (21,1)  (22,1)  (24,7) 
Branch_type_6  (6,1)  (7,6)  (8,6)  (9,5)  (10,11)  (11,25)  (12,31)  (13,27)  (14,35)  (15,29)  (16,53)  (17,77)  (18,74)  (19,116)  (20,200)  (21,76)  (22,5)  (24,9) 
5564c0: 103dac 13621f 13c98d 13cb48 13cb81 13d4e1 13d615 13d632 13d64d 14356a 143836 1457e9 151b8e 154274 1558d5 1558fd 155e02 159501 159f45 15d453 15d9c0 15dd59 15efd6 16d7df 16d7ef 16d83f 16e71e 
580ed4: 16044d 160579 16073e 16074f 160882 160885 16088a 160892 16089b 1608ae 160a4b 160a7e 160ab8 160ae2 160b6c 160b79 160b7b 160cbd 1610a1 16151a 
580f90: 160595 1605b5 1605de 160674 16073d 160745 160774 1607cf 1607df 160883 16088d 160890 1608dd 160a3f 160a49 160a7c 160aaf 160ade 160b43 160b4c 160fcd 16108d 161098 16109e 1615db 
590af0: 142ae4 142cf0 142da6 1437eb 14459f 1446a6 1446b7 144727 144770 144797 144829 146595 15173d 159d39 15b508 164733 164a24 165303 165325 1712d9 
5b21d8: 10404b 10ad05 10d7c4 130217 13023d 13028a 130295 1302ac 130343 130412 130450 130490 13049c 1304bb 1304ef 1305a8 130619 1306a5 1306b0 1306f7 130702 130740 130750 130842 130970 130982 13099c 130b0c 130b28 130c5c 130c98 130d8b 130e44 130e4a 130ee7 130f7d 130f85 131083 1313bf 131474 1316d4 131754 13295e 133259 133454 1337ba 133ca6 1418c9 142d1c 142d97 142e16 142e81 142f9a 142ff4 143136 143267 143436 143492 1434ea 1435c9 14373e 14380d 143997 144194 144475 14460e 144818 144840 1449ab 144aed 1457c2 14582f 145837 145c31 145cb2 1463b2 146471 146505 14655e 14658d 1466a7 146a2b 146b7c 1470e4 147222 147399 1478b2 1478ea 147a43 147aa8 147dcc 14832c 1485df 148b2d 148f03 149365 149400 16f06e 16f143 16f1c5 16f80b 16f8c4 16f953 16fa06 16fad3 16fb80 16fc90 16fd13 16fdc9 17041f 170618 17071e 17074e 170772 170854 170b2d 170d26 170d8e 170dab 17111e 17116c 1712e7 17132e 171349 1713a4 1714bf 171527 17168c 1716e0 171712 171757 17175f 171805 17185e 1719bb 1719c2 171b89 
5b32b0: 100ae7 1031e4 109dfb 109e3d 11d54d 136365 13bdd3 13c835 13d11a 14381d 1443d8 1447a0 145b9e 145c9a 154d44 1554e0 155c31 15631c 1570f1 15f1e4 16423f 168814 16ceb4 16cebe 16d341 16dbaa 16ea6d 171396 1714b3 1716c9 
5b4b70: 130bbc 142fff 14334e 14354a 143b21 147212 14738f 147dbb 149469 152283 16d351 16f16e 16f1db 16f800 16fc84 16fdf6 1705fd 170d3b 171122 171163 1717bd 
5e66f8: 11d4b1 13622e 136230 14934d 151b1a 154240 15424f 1557a4 1557c3 1557d7 1558a8 1558b2 159ac5 15ef64 15ef6d 15ef93 15efb3 15efba 164298 166b55 16c92d 
5e97d0: 109e19 10a2d2 10a361 12baf0 13b86f 13b88f 13b8ab 13c86e 13c94b 13c97c 13cae8 13cb34 144a37 1482ec 1597cf 15f3b0 1602e8 1602f4 1602fe 16590f 16cd82 16e038 179738 17a5f3 18044e 180463 18079c 
Unique trigger count: 
1 7761
2 756
3 120
4 38
5 22
6 14
7 6
8 7
9 4
10 4
11 5
12 4
13 3
14 3
15 1
17 3
18 1
19 1
20 2
21 2
25 1
27 2
30 1
137 1
BTB PER SET UNIQUE ADDR: 4 1 2 3 3 4 3 2 1 3 3 4 3 0 2 1 2 4 3 1 1 5 4 3 3 2 0 4 2 3 4 4 3 4 2 1 3 1 2 4 0 2 2 2 4 1 3 2 3 3 3 1 2 1 2 2 3 4 2 4 1 4 0 2 1 2 3 2 4 1 2 3 2 2 2 1 3 4 4 3 4 1 4 1 1 6 1 3 1 2 1 3 2 3 3 2 0 2 3 3 4 1 4 2 0 4 1 1 2 0 0 1 0 3 1 2 3 1 0 4 3 1 5 2 2 3 4 2 4 2 2 3 3 4 3 2 1 1 1 1 4 1 2 1 1 2 1 0 1 2 1 5 1 3 1 3 4 0 1 3 3 2 4 0 3 2 3 0 2 2 3 1 0 3 0 4 3 4 2 2 3 2 1 1 3 3 4 2 1 1 3 3 2 6 7 2 2 3 3 2 3 2 3 3 3 3 4 2 3 2 3 2 0 4 4 2 0 4 1 3 1 1 4 6 2 1 2 4 2 5 2 2 4 3 1 2 3 0 0 4 1 3 3 3 3 3 5 2 0 1 1 1 1 3 2 4 2 2 2 2 4 2 5 0 4 0 6 1 2 2 2 2 3 2 2 2 1 3 1 3 3 0 1 3 3 3 2 2 5 2 4 0 1 1 5 1 6 3 2 1 2 3 2 6 5 4 2 3 2 4 0 3 4 1 2 1 3 2 1 4 1 1 6 4 4 2 2 3 0 3 2 2 1 5 1 3 4 1 1 1 2 1 4 2 2 0 0 2 1 3 4 1 0 3 3 4 1 0 2 1 3 4 2 1 1 3 1 2 1 1 1 5 2 3 2 1 4 2 3 3 2 0 2 4 3 5 5 3 4 5 4 1 3 2 4 3 2 2 4 3 2 2 2 1 1 5 3 2 2 4 4 4 1 1 3 7 2 1 5 4 4 3 3 4 2 3 2 5 1 4 0 2 6 4 1 4 3 1 3 0 4 2 4 0 3 2 2 4 3 1 5 2 3 4 5 8 4 4 4 3 3 4 4 5 2 2 2 2 0 2 3 1 1 2 4 2 3 0 2 2 4 6 1 2 2 1 0 3 2 2 2 2 3 2 2 4 1 1 0 1 3 2 5 3 1 3 2 2 3 4 0 2 2 4 2 5 2 1 1 5 1 4 3 1 3 3 2 2 3 4 6 3 2 3 5 7 2 2 3 3 1 5 1 4 4 6 3 4 4 5 5 2 3 6 3 2 1 3 2 1 1 5 2 0 3 0 2 4 0 3 2 2 2 2 4 5 3 3 4 5 0 5 5 2 4 2 1 2 2 4 1 2 1 0 1 4 3 6 3 2 3 1 2 2 4 2 2 2 2 1 1 5 4 2 4 4 4 1 4 0 7 0 2 3 4 2 4 9 3 3 0 2 2 1 3 2 2 5 4 3 2 1 5 3 4 3 3 5 5 4 2 2 2 3 5 1 3 2 2 5 3 3 2 0 1 4 3 3 2 1 1 1 4 5 2 5 5 4 3 4 5 2 6 3 5 3 4 6 3 6 4 3 5 1 5 2 2 3 6 5 4 2 5 4 1 4 2 3 2 1 4 2 4 3 1 3 4 2 2 7 1 1 4 2 2 2 2 4 2 4 1 2 4 1 0 4 7 6 2 5 5 1 3 2 2 5 3 0 2 4 1 5 3 2 2 5 2 2 1 5 4 4 5 2 5 1 6 2 1 3 5 6 4 6 2 4 2 6 5 1 2 6 3 3 1 3 2 3 3 7 3 2 4 7 3 6 4 3 5 3 4 5 3 6 2 4 0 4 5 4 1 2 4 4 3 8 3 3 5 3 3 2 5 5 3 0 2 5 1 4 2 4 7 2 7 4 2 3 0 6 3 4 2 3 2 4 6 4 2 2 3 3 5 3 2 4 3 4 4 3 3 7 3 3 4 6 7 3 4 3 2 5 2 5 5 2 1 3 3 1 6 4 5 1 3 1 2 2 2 5 2 5 2 2 3 4 6 4 4 5 2 6 2 4 1 4 4 2 5 2 3 1 1 0 1 3 1 7 6 2 1 3 4 1 2 4 1 1 3 5 3 0 2 1 1 1 1 4 3 1 2 2 0 3 1 2 4 3 2 3 3 2 4 3 2 4 1 2 1 1 3 2 3 1 0 3 3 3 4 3 2 1 3 2 3 4 0 4 1 3 3 4 2 3 2 3 4 5 0 2 5 3 4 2 2 4 5 0 2 6 3 2 2 2 4 3 2 3 3 2 5 5 5 4 4 2 2 3 4 3 6 3 6 1 3 0 4 3 7 1 5 3 1 1 4 1 1 4 3 3 5 5 0 2 4 3 4 3 3 5 1 2 7 1 2 2 3 5 3 4 2 6 4 2 7 2 2 0 3 1 5 4 1 1 4 5 2 2 1 2 2 2 1 2 3 1 4 2 2 1 4 3 3 0 2 2 3 2 0 5 1 1 4 5 2 0 2 4 3 1 0 7 2 3 7 2 3 1 2 4 4 5 2 3 3 5 5 4 1 2 4 1 0 3 3 1 6 1 2 4 0 3 3 2 1 4 1 4 4 4 6 3 0 3 4 1 4 3 4 1 3 3 4 3 0 6 0 2 1 5 3 1 2 2 0 2 0 5 0 3 3 2 1 2 6 4 5 8 2 3 4 1 6 2 5 4 6 5 6 0 3 3 2 0 1 5 2 1 3 1 4 3 3 3 6 2 5 2 1 3 4 3 3 1 1 1 7 3 2 2 2 4 3 5 1 3 4 3 3 0 0 4 5 1 6 3 5 2 5 5 1 6 1 3 5 2 1 3 6 2 2 5 2 1 3 5 2 1 4 3 4 4 1 1 0 1 4 0 3 3 2 3 2 3 2 2 0 5 4 2 2 1 2 1 4 7 1 3 5 4 0 1 2 1 2 3 4 4 2 7 1 2 3 3 5 2 2 2 2 3 3 1 2 2 2 2 2 2 5 3 2 2 7 3 4 3 4 1 1 3 0 4 3 4 0 2 7 1 1 5 6 2 3 3 6 5 3 2 2 4 1 2 5 4 7 2 1 2 1 2 2 3 1 2 3 2 3 4 3 4 4 2 2 6 3 3 2 3 3 1 4 2 2 5 4 3 4 3 3 1 3 2 3 1 5 1 3 5 3 0 1 3 3 3 3 4 3 5 4 3 2 3 1 4 3 1 2 0 4 1 3 1 1 3 2 4 1 2 0 0 1 3 1 1 3 3 3 1 1 4 1 3 2 3 1 0 4 2 2 3 3 5 1 3 3 5 1 4 2 0 4 2 4 3 3 1 4 2 5 5 0 4 4 2 1 5 4 5 1 2 2 3 3 3 1 1 1 5 3 3 4 5 0 5 2 4 1 2 5 3 3 3 0 4 7 1 2 3 3 2 1 1 1 2 2 5 2 2 4 1 2 1 2 1 4 2 3 7 1 2 4 1 3 1 4 3 3 3 1 7 5 0 3 1 3 2 3 2 3 2 2 0 5 3 2 1 1 2 4 2 5 2 1 1 1 5 3 4 1 1 5 1 4 2 3 3 2 4 5 1 1 3 3 1 2 0 1 2 3 4 2 2 2 6 4 2 4 2 2 1 0 4 3 4 1 5 2 5 1 3 4 2 0 6 1 3 2 4 4 2 1 4 4 1 0 4 3 2 3 0 0 3 2 2 2 0 3 2 1 5 0 3 3 4 0 4 1 3 2 2 4 1 2 6 2 6 3 4 3 5 5 2 4 4 1 6 2 3 1 2 3 3 2 3 4 2 5 4 3 3 2 4 2 3 1 8 3 2 4 2 2 2 5 1 5 4 1 2 4 1 5 2 7 1 4 3 1 5 0 2 3 0 1 3 3 0 4 3 1 5 1 6 3 4 5 2 4 3 4 2 4 1 3 0 2 2 2 1 1 1 4 2 5 0 5 5 5 3 2 1 4 3 1 0 2 5 5 1 3 4 1 3 2 7 3 4 2 3 3 1 1 1 3 2 4 3 2 6 4 1 2 4 1 2 1 3 5 4 1 1 0 4 0 6 4 2 3 0 5 4 3 6 4 4 0 4 1 1 2 5 2 3 2 3 3 3 2 0 1 3 3 5 6 6 2 1 3 2 2 4 2 4 2 5 3 1 4 1 6 2 1 1 5 3 4 4 3 1 5 4 2 6 5 4 7 5 7 3 3 2 3 2 1 3 6 4 2 5 1 2 1 2 1 3 6 3 3 3 5 2 7 4 3 1 5 2 2 5 4 6 4 5 6 2 7 1 0 2 5 3 3 2 7 2 3 4 6 5 2 2 3 8 4 6 5 5 1 7 3 2 3 1 1 3 6 1 4 3 2 5 1 4 2 5 2 3 4 3 1 4 8 3 1 3 3 1 4 1 2 3 1 1 3 1 1 0 0 4 2 0 3 0 4 1 4 5 1 3 4 3 1 4 2 1 1 2 4 3 5 1 5 4 3 5 7 1 1 1 1 1 2 1 1 3 3 3 2 3 3 3 1 4 4 2 3 2 2 4 1 3 5 3 2 0 4 4 0 1 3 2 1 4 2 2 2 1 7 3 5 1 1 3 5 5 6 3 4 0 
BTB PER SET COUNT: 8 1 2 3 8 11 10 5 2 4 5 7 4 0 2 1 12 4 6 1 1 6 5 5 5 3 0 7 2 3 9 9 5 7 2 2 13 29 2 6 0 10 3 2 9 1 65634 4 7 5 4 1 2 1 2 5 6 5 2 5 1 5 0 2 2 2 14 2 9 1 2 6 4 12 7 1 5 7 4 7 7 3 11 12 1 11 3 6 5 2 5 14 3 7 34 8 0 4 5 6 4 1 6 2 0 8 3 1 2 0 0 1 0 11 1 2 10 2 0 9 6 1 9 4 4 5 4 4 6 10 7 17 16 13 5 10 2 1 1 8 10 23 2 1 1 4 2 0 1 10 1 10 5 16 2 18 43 0 1 3 5 3 6 0 3 2 3 0 2 4 3 1 0 4 0 16 9 18 3 80 4 4 4 1 20 100 6 2 1 1 10 3 12 49 47 6 7 5 3 10 3 3 5 4 11 8 19 4 10 3 10 2 0 16 30 26 0 8 3 11 1 1 9 13 2 1 2 6 2 10 4 5 13 6 1 2 6 0 0 11 1 20 5 4 25 7 16 2 0 5 1 1 2 8 4 7 2 3 2 3 28 5 10 0 10 0 25 1 4 15 3 7 13 2 2 13 1 11 2 15 3 0 1 13 4 6 3 18 50 10 9 0 153 2 92 2 28 4 2 1 4 69 2 19 13 6 34 11 4 8 0 9 8 1 5 1 5 5 1 10 1 3 7 5 7 2 8 3 0 5 2 2 1 8 2 6 8 1 2 2 4 3 9 4 18 0 0 73 1 4 6 1 0 5 23 7 1 0 2 2 3 34 3 1 4 5 1 2 5 1 1 12 2 4 6 1 9 2 4 3 39 0 4 6 7 128 13 6 5 36 4 1 7 158 14 25 81 11 115 3 4 4 8 1 5 27 5 4 19 20 26 33 3 2 11 40 2 3 8 10 8 3 26 7 5 19 2 19 16 6 0 7 12 15 1 7 7 1 4 0 8 3 5 0 7 3 4 16 16 2 22 5 9 27 11 23 19 7 5 4 5 16 23 9 3 2 4 3 0 3 36 3 4 2 6 2 6 0 7 2 110 14 1 126 54 1 0 37 9 3 14 9 18 6 8 13 44 1 0 1 5 2 14 15 3 7 2 3 5 21 0 7 7 19 2 15 9 3 7 8 1 10 8 1 3 4 7 6 12 4 41 36 2 3 37 20 11 2 4 6 3 32 1 40 5 6 4 11 11 90 21 4 10 10 7 15 1 8 4 9 10 12 2 0 49 0 2 11 0 7 9 4 3 2 8 20 5 4 71 22 0 7 15 3 4 3 1 3 2 12 1 2 1 0 1 8 10 13 4 4 5 2 2 6 9 2 72 3 3 5 7 64 6 3 26 5 6 3 9 0 133 0 2 7 7 2 4 22 10 5 0 8 3 1 27 6 10 8 8 126 2 18 10 12 9 9 24 12 41 22 6 10 4 8 11 1 5 4 11 9 3 5 4 0 1 7 4 6 6 1 1 1 13 18 10 9 12 172 4 24 202 4 7 6 12 10 5 16 13 29 8 14 12 1 27 2 3 6 10 23 25 4 7 14 3 5 2 11 3 1 7 2 5 44 5 5 9 2 2 59 1 1 13 14 4 3 4 5 2 9 1 3 14 7 0 8 10 14 2 87 9 1 6 5 4 29 15 0 3 13 3 11 7 3 7 6 8 3 7 10 13 10 8 5 7 2 8 5 1 5 15 29 6 11 2 7 2 11 15 2 131 30 12 8 1 7 3 6 34 13 7 2 8 20 8 9 5 5 8 3 10 21 9 10 5 6 0 57 7 9 3 8 5 4 13 21 6 3 11 12 4 3 36 17 24 0 3 10 4 10 6 6 330 3 55 33 5 3 0 26 7 14 12 9 5 14 21 48 79 2 34 15 10 33 4 9 13 13 7 84 145 18 8 16 6 11 25 5 16 5 9 12 4 9 10 3 2 9 3 5 21 9 12 1 3 3 2 2 18 17 4 19 4 5 7 5 7 11 6 9 3 13 3 13 1 7 7 3 6 2 5 3 1 0 2 6 1 50 29 4 2 5 16 1 2 7 1 2 62 12 15 0 3 9 21 3 1 30 16 2 35 2 0 7 20 3 5 38 7 5 26 4 4 11 4 7 1 4 38 12 12 3 28 1 0 3 14 4 48 5 2 1 8 2 13 12 0 47 11 14 5 7 7 3 3 12 8 8 0 3 14 3 4 5 46 7 8 0 34 145 9 2 2 2 5 4 3 8 3 2 10 18 6 11 4 5 8 8 8 7 9 5 66 2 8 0 8 3 50 2 48 5 1 3 14 2 1 7 9 13 18 24 0 42 18 14 5 8 4 9 39 4 36 4 8 34 3 19 4 10 2 17 6 2 19 3 3 0 6 1 20 26 1 2 7 8 4 5 3 2 4 7 1 4 4 1 5 6 37 2 17 33 5 0 8 3 16 4 0 28 4 1 4 15 2 0 5 19 3 978 0 42 3 4 14 55440 3 1 9 21 18 25 5 10 4 13 7 4 1 3 7 1 0 33 11 1 170 11 2 14 0 7 21 4 5 9 2 9 11 6 50 5 0 26 6 3 10 4 30 1 198 35 6 23 0 95 0 4 1 20 61 10 11 5 0 23 0 13 0 47 14 2 1 15 20 14 9 62 4 8 7 2 10 2 13 5 41 9 10985 0 14 5 4 0 1 12 38 6 37 1 6 3 6 32 14 3 32 2 5 72 5 7 3 1 1 1 7 4 9 19 2 8 7 20 4 3 24 4 7 0 0 17 12 1 52 16 80 4 6 21 1 11 1 10 7 13 2 6 6 3 2 6 95 10 5 67 9 1 12 7 5 10 2 2 0 3 66 0 22 15 3 3 4 27 13 3 0 19 11 2 4 3 5 1 6 26 4 6 9 5 0 1 3 1 18 6 7 4 5 10 1 3 4 14 6 7 2 5 5 7 6 2 6 3 3 9 33 5 19 3 3 2 21 11 5 4 6 6 1 10 0 5 4 5 0 2 12 1 1 30 17 3 5 3 11 9 3 7 5 7 1 6 12 18 107 2 2 6 6 8 2 6 3 3 10 17 5 15 6 10 8 2 2 13 7 4 3 5 3 1 27 23 8 8 6 6 10 5 3 2 5 2 8 1 9 3 9 14 10 0 1 10 6 6 19 4 5 5 6 4 4 5 1 4 5 1 5 0 57 1 8 2 5 10 2 29 1 2 0 0 3 59 1 68 63 4 227 2 1 9 1 4 16 4 1 0 7 2 4 5 6 9 1 9 3 8 1 15 2 0 9 2 45 9 7 6 9 68 91 11 0 7 8 4 1 10 5 11 1 3 3 26 5 23 1 1 1 6 31 3 6 8 0 28 45 9 2 2 9 8 6 3 0 42 18 5 2 6 20 5 1 1 9 3 3 7 3 3 7 1 2 4 4 2 5 2 8 20 1 10 16 1 20 1 12 5 6 4 1 63 9 0 11 1 4 6 3 2 5 2 2 0 6 5 6 1 4 41 33 15 7 2 1 1 1 52 6 7 1 2 110 3 14 10 11 101 3 8 19 1 3 130 8 2 2 0 1 17 15 7 12 10 4 155 10 4 16 13 75 1 0 10 14 15 88 22 4 6 1 15 4 51 0 182 3 3 2 10 10 2 1 11 12 1 0 7 4 4 4 0 0 23 4 5 8 0 4 4 4 6 0 70 13 31 0 4 1 4 8 4 21 1 15 12 2 46 6 30 7 5 10 13 9 16 1 23 2 6 2 11 5 12 8 6 13 2 28 29 195 4 32 7 5 11 25 87 4 4 13 3 35 2 11 1 12 6 14 15 5 7 13 5 15 2 8 12 3 26 0 6 13 0 1 4 4 0 48 5 1 19 4 20 5 12 27 35 15 8 9 5 5 1 8 0 3 4 65 2 6 1 5 9 305 0 12 15 39 3 3 13 74 5 2 0 9 7 65 13 4 19 1 10 3 13 3 15 2 4 6 4 13 1 14 9 14 3 2 11 72 3 14 6 2 3 1 9 12 5 2 3 0 20 0 15 22 7 29 0 8 7 17 113 6 50 0 14 6 1 2 37 2 4 6 60 4 4 2 0 1 11 8 16 10 25 4 2 8 2 2 7 2 5 32 24 45 1 4 2 22 2 1 1 5 7 30 11 4 1 20 17 19 12 31 16 25 17 42 16 16 6 8 5 1 8 9 7 2 30 2 7 6 5 1 32 27 17 125 5 49 45 26 10 22 2 110 9 2 6 9 28 19 14 10 3 112 4 0 2 7 5 8 3 26 3 8 5 18 11 3 2 3 14 13 29 8 5 2 20 15 3 4 16 1 3 24 1 4 6 3 36 6 31 5 27 2 5 8 4 6 14 13 4 1 4 3 1 6 1 2 5 2 2 7 2 1 0 0 4 12 0 15 0 8 1 11 12 4 14 4 6 10 4 6 1 1 2 4 7 9 1 8 4 3 14 143 1 1 3 25 1 2 2 1 10 15 3 6 6 3 4 4 6 5 7 6 3 4 4 1 6 12 9 19 0 9 6 0 2 4 4 1 13 5 2 3 2 11 121 6 1 11 6 22 14 6 11 4 0 
