
*** ChampSim Multicore Out-of-Order Simulator ***

Warmup Instructions: 10000000
Simulation Instructions: 10000000
Number of CPUs: 1
LLC sets: 2048
LLC ways: 16
Off-chip DRAM Size: 4096 MB Channels: 1 Width: 64-bit Data Rate: 6400 MT/s
CPU 0 runs /media/ashish/Windows1/Ashish/traces/public/spec_x264_001.champsimtrace.xz
.xz
ITLB has LRU replacement policy
DTLB has LRU replacement policy
STLB has LRU replacement policy
FDIP Prefetcher at L1I
L1I has LRU replacement policy
L1D has LRU replacement policy
Initialize SRRIP state for L2C
Initialize DRRIP state for LLC
Heartbeat CPU 0 instructions: 10000002 cycles: 2630348 heartbeat IPC: 3.80178 cumulative IPC: 3.80178 (Simulation time: 0 hr 4 min 41 sec) 

Warmup complete CPU 0 instructions: 10000002 cycles: 2630348 (Simulation time: 0 hr 4 min 41 sec) 

Heartbeat CPU 0 instructions: 20000003 cycles: 7753245 heartbeat IPC: 1.95202 cumulative IPC: 1.95202 (Simulation time: 0 hr 7 min 44 sec) 
Finished CPU 0 instructions: 10000001 cycles: 5122897 cumulative IPC: 1.95202 (Simulation time: 0 hr 7 min 44 sec) 

ChampSim completed all CPUs

Region of Interest Statistics

CPU 0 cumulative IPC: 1.95202 instructions: 10000001 cycles: 5122897
 Fetch stage stalled: 22.5514  Sim cycles: 5122897 fetch stall cycle: 1155284
 Empty decode stage: 9.90754  Sim cycles: 5122897 fetch stall cycle: 507553
ITLB TOTAL     ACCESS:     847555  HIT:     846894  MISS:        661  HIT %:     99.922  MISS %:   0.077989   MPKI: 0.0661
ITLB LOAD TRANSLATION INSTRUCTION	ACCESS:     814063  HIT:     813402  MISS:        661  HIT %:    99.9188  MISS %:  0.0811976  MPKI: 0.0661
ITLB TRANSLATION FROM L1D PREFETCHER INSTRUCTION	ACCESS:      33492  HIT:      33492  MISS:          0  HIT %:        100  MISS %:          0  MPKI: 0

ITLB AVERAGE MISS LATENCY: 28.6384 cycles
ITLB RQ	ACCESS:     991114	FORWARD:          0	MERGED:     142962	TO_CACHE:     848152

DTLB TOTAL     ACCESS:    1029736  HIT:    1016533  MISS:      13203  HIT %:    98.7178  MISS %:    1.28217   MPKI: 1.3203
DTLB LOAD TRANSLATION DATA	ACCESS:    1029736  HIT:    1016533  MISS:      13203  HIT %:    98.7178  MISS %:    1.28217  MPKI: 1.3203

DTLB AVERAGE MISS LATENCY: 11.474 cycles
DTLB RQ	ACCESS:    1243305	FORWARD:          0	MERGED:     208161	TO_CACHE:    1035144

STLB TOTAL     ACCESS:      74767  HIT:      74584  MISS:        183  HIT %:    99.7552  MISS %:    0.24476   MPKI: 0.0183
STLB LOAD TRANSLATION INSTRUCTION	ACCESS:        661  HIT:        608  MISS:         53  HIT %:    91.9818  MISS %:    8.01815  MPKI: 0.0053
STLB LOAD TRANSLATION DATA	ACCESS:      13203  HIT:      13073  MISS:        130  HIT %:    99.0154  MISS %:   0.984625  MPKI: 0.013
STLB TRANSLATION FROM L1D PREFETCHER DATA	ACCESS:      60903  HIT:      60903  MISS:          0  HIT %:        100  MISS %:          0  MPKI: 0

STLB AVERAGE MISS LATENCY: 247.852 cycles
STLB RQ	ACCESS:     119025	FORWARD:          0	MERGED:      44256	TO_CACHE:      74769

STLB Hit, L1D data hit: 0
STLB Hit, L2C data hit: 0
STLB Hit, LLC data hit: 0
STLB Hit, LLC data miss: 0
STLB STLB hints to L2: 0
L1D TOTAL     ACCESS:    1335089  HIT:    1296655  MISS:      38434  HIT %:    97.1212  MISS %:    2.87876   MPKI: 3.8434
L1D LOAD DATA	ACCESS:     659313  HIT:     645750  MISS:      13563  HIT %:    97.9429  MISS %:    2.05714  MPKI: 1.3563
L1D RFO DATA	ACCESS:     571946  HIT:     564498  MISS:       7448  HIT %:    98.6978  MISS %:    1.30222  MPKI: 0.7448
L1D PREFETCH DATA	ACCESS:     103830  HIT:      86407  MISS:      17423  HIT %:    83.2197  MISS %:    16.7803  MPKI: 1.7423

L1D PREFETCH  REQUESTED:     210364  ISSUED:     210364  USEFUL:       3907  USELESS:      13731
L1D USEFUL LOAD PREFETCHES:       3907 PREFETCH ISSUED TO LOWER LEVEL:      17647  ACCURACY: 22.1397
 TIMELY PREFETCHES:       3907 LATE PREFETCHES: 223 DROPPED PREFETCHES: 2
L1D AVERAGE MISS LATENCY: 29126.7 cycles
L1D RQ	ACCESS:    1776640	FORWARD:          0	MERGED:    1114242	TO_CACHE:     661129
L1D WQ	ACCESS:     584597	FORWARD:       1311	MERGED:       2421	TO_CACHE:     582176
L1D PQ	ACCESS:     105203	FORWARD:          0	MERGED:          0	TO_CACHE:     105161

L1D UNIQUE REGIONS ACCESSED: 0
L1D REGIONS CONFLICTS: 0
L1D Cross Page Prefetch Requests: 1533
L1D Same Page Prefetch Requests: 212611
L1D ROI Sum of L1D PQ occupancy: 1369458
L1D PREFETCHES PUSHED FROM L2C: 0
L1I TOTAL     ACCESS:     977526  HIT:     922541  MISS:      54985  HIT %:    94.3751  MISS %:    5.62491   MPKI: 5.4985
L1I LOAD INSTRUCTION	ACCESS:     833976  HIT:     778991  MISS:      54985  HIT %:    93.4069  MISS %:    6.59312  MPKI: 5.4985
L1I PREFETCH INSTRUCTION	ACCESS:     143550  HIT:     143550  MISS:          0  HIT %:        100  MISS %:          0  MPKI: 0

L1I PREFETCH  REQUESTED:     255312  ISSUED:     255312  USEFUL:          0  USELESS:          0
L1I USEFUL LOAD PREFETCHES:          0 PREFETCH ISSUED TO LOWER LEVEL:          0  ACCURACY: -nan
 TIMELY PREFETCHES:          0 LATE PREFETCHES: 0 DROPPED PREFETCHES: 0
L1I AVERAGE MISS LATENCY: 15.4436 cycles
L1I RQ	ACCESS:    1551908	FORWARD:          0	MERGED:     713674	TO_CACHE:     838234
L1I PQ	ACCESS:     255312	FORWARD:          0	MERGED:     102432	TO_CACHE:     152880

L1BTB TOTAL     ACCESS:     500276  HIT:     447094  MISS:      53182  HIT %:    89.3695  MISS %:    10.6305   MPKI: 5.3182
L1BTB BRANCH_DIRECT_JUMP	ACCESS:      29181 HIT:      21155 MISS:       8026 AVERAGE STALL: 115.76 AVERAGE FETCH STALL: 105.32 AVERAGE FETCH QUEUE STALL: 2.48 AVERAGE DECODE STALL: 7.08 AVERAGE EXECUTE STALL: 7.3787e+17
L1BTB BRANCH_INDIRECT	ACCESS:          0 HIT:          0 MISS:          0 AVERAGE STALL: -nan AVERAGE FETCH STALL: -nan AVERAGE FETCH QUEUE STALL: -nan AVERAGE DECODE STALL: -nan AVERAGE EXECUTE STALL: -nan
L1BTB BRANCH_CONDITIONAL	ACCESS:     400414 HIT:     375045 MISS:      25369 AVERAGE STALL: 143.454 AVERAGE FETCH STALL: 133.546 AVERAGE FETCH QUEUE STALL: 4.75258 AVERAGE DECODE STALL: 4.43299 AVERAGE EXECUTE STALL: 1.90173e+17
L1BTB BRANCH_DIRECT_CALL	ACCESS:      21947 HIT:      14437 MISS:       7510 AVERAGE STALL: 127.64 AVERAGE FETCH STALL: 116.244 AVERAGE FETCH QUEUE STALL: 5.24419 AVERAGE DECODE STALL: 5.30233 AVERAGE EXECUTE STALL: 2.14497e+17
L1BTB BRANCH_INDIRECT_CALL	ACCESS:      13394 HIT:       7258 MISS:       6136 AVERAGE STALL: 118.087 AVERAGE FETCH STALL: 11.5378 AVERAGE FETCH QUEUE STALL: 26.1761 AVERAGE DECODE STALL: 17.0894 AVERAGE EXECUTE STALL: 62.7964
L1BTB BRANCH_RETURN	ACCESS:      35340 HIT:      29199 MISS:       6141 AVERAGE STALL: 122.161 AVERAGE FETCH STALL: 104.323 AVERAGE FETCH QUEUE STALL: 10.7581 AVERAGE DECODE STALL: 6.29032 AVERAGE EXECUTE STALL: 2.97528e+17
L1BTB BRANCH_OTHER ACCESS:          0 HIT:          0 MISS:          0 AVERAGE STALL: -nan AVERAGE FETCH STALL: -nan AVERAGE FETCH QUEUE STALL: -nan AVERAGE DECODE STALL: -nan AVERAGE EXECUTE STALL: -nan
L1BTB TOTAL ROB OCCUPANCY AT BTB MISS: 3.64005

L2BTB TOTAL     ACCESS:      52605  HIT:      51991  MISS:        614  HIT %:    98.8328  MISS %:    1.16719   MPKI: 0.0614
L2BTB BRANCH_DIRECT_JUMP	ACCESS:       8026 HIT:       7982 MISS:         44 AVERAGE STALL: 115.76 AVERAGE FETCH STALL: 105.32 AVERAGE FETCH QUEUE STALL: 2.48 AVERAGE DECODE STALL: 7.08 AVERAGE EXECUTE STALL: 7.3787e+17
L2BTB BRANCH_INDIRECT	ACCESS:          0 HIT:          0 MISS:          0 AVERAGE STALL: -nan AVERAGE FETCH STALL: -nan AVERAGE FETCH QUEUE STALL: -nan AVERAGE DECODE STALL: -nan AVERAGE EXECUTE STALL: -nan
L2BTB BRANCH_CONDITIONAL	ACCESS:      25369 HIT:      25177 MISS:        192 AVERAGE STALL: 143.454 AVERAGE FETCH STALL: 133.546 AVERAGE FETCH QUEUE STALL: 4.75258 AVERAGE DECODE STALL: 4.43299 AVERAGE EXECUTE STALL: 1.90173e+17
L2BTB BRANCH_DIRECT_CALL	ACCESS:       7510 HIT:       7387 MISS:        123 AVERAGE STALL: 127.64 AVERAGE FETCH STALL: 116.244 AVERAGE FETCH QUEUE STALL: 5.24419 AVERAGE DECODE STALL: 5.30233 AVERAGE EXECUTE STALL: 2.14497e+17
L2BTB BRANCH_INDIRECT_CALL	ACCESS:       5559 HIT:       5404 MISS:        155 AVERAGE STALL: 118.087 AVERAGE FETCH STALL: 11.5378 AVERAGE FETCH QUEUE STALL: 26.1761 AVERAGE DECODE STALL: 17.0894 AVERAGE EXECUTE STALL: 62.7964
L2BTB BRANCH_RETURN	ACCESS:       6141 HIT:       6041 MISS:        100 AVERAGE STALL: 122.161 AVERAGE FETCH STALL: 104.323 AVERAGE FETCH QUEUE STALL: 10.7581 AVERAGE DECODE STALL: 6.29032 AVERAGE EXECUTE STALL: 2.97528e+17
L2BTB BRANCH_OTHER ACCESS:          0 HIT:          0 MISS:          0 AVERAGE STALL: -nan AVERAGE FETCH STALL: -nan AVERAGE FETCH QUEUE STALL: -nan AVERAGE DECODE STALL: -nan AVERAGE EXECUTE STALL: -nan
L2BTB TOTAL ROB OCCUPANCY AT BTB MISS: 315.285

L2C TOTAL     ACCESS:     106212  HIT:      95994  MISS:      10218  HIT %:    90.3796  MISS %:    9.62038   MPKI: 1.0218
L2C LOAD INSTRUCTION	ACCESS:      54985  HIT:      54172  MISS:        813  HIT %:    98.5214  MISS %:    1.47859  MPKI: 0.0813
L2C LOAD TRANSLATION INSTRUCTION	ACCESS:         53  HIT:         27  MISS:         26  HIT %:    50.9434  MISS %:    49.0566  MPKI: 0.0026
L2C LOAD DATA	ACCESS:      13340  HIT:      11877  MISS:       1463  HIT %:     89.033  MISS %:     10.967  MPKI: 0.1463
L2C RFO DATA	ACCESS:       7393  HIT:       5155  MISS:       2238  HIT %:    69.7281  MISS %:    30.2719  MPKI: 0.2238
L2C PREFETCH DATA	ACCESS:      21567  HIT:      16047  MISS:       5520  HIT %:    74.4053  MISS %:    25.5947  MPKI: 0.552
L2C WRITEBACK DATA	ACCESS:       8742  HIT:       8638  MISS:        104  HIT %:    98.8103  MISS %:    1.18966  MPKI: 0.0104
L2C LOAD TRANSLATION DATA	ACCESS:        130  HIT:         76  MISS:         54  HIT %:    58.4615  MISS %:    41.5385  MPKI: 0.0054
L2C TRANSLATION FROM L1D PREFETCHER DATA	ACCESS:          2  HIT:          2  MISS:          0  HIT %:        100  MISS %:          0  MPKI: 0

L2C PREFETCH  REQUESTED:       4020  ISSUED:       4020  USEFUL:       2019  USELESS:       3426
L2C USEFUL LOAD PREFETCHES:       2019 PREFETCH ISSUED TO LOWER LEVEL:       5523  ACCURACY: 36.5562
 TIMELY PREFETCHES:       2019 LATE PREFETCHES: 3 DROPPED PREFETCHES: 0
L2C AVERAGE MISS LATENCY: 125.992 cycles
L2C RQ	ACCESS:      75957	FORWARD:          0	MERGED:          0	TO_CACHE:      75903
L2C WQ	ACCESS:       8742	FORWARD:         54	MERGED:          0	TO_CACHE:       8742
L2C PQ	ACCESS:      21667	FORWARD:          0	MERGED:         77	TO_CACHE:      21590

L2C Dense regions hint from L2: 0
PSCL5 TOTAL     ACCESS:        369  HIT:        184  MISS:        185  HIT %:    49.8645  MISS %:    50.1355   MPKI: 0.0185
PSCL5 LOAD TRANSLATION INSTRUCTION	ACCESS:        365  HIT:        182  MISS:        183  HIT %:     49.863  MISS %:     50.137  MPKI: 0.0183
PSCL5 TRANSLATION FROM L1D PREFETCHER INSTRUCTION	ACCESS:          4  HIT:          2  MISS:          2  HIT %:         50  MISS %:         50  MPKI: 0.0002


PSCL4 TOTAL     ACCESS:        368  HIT:        183  MISS:        185  HIT %:    49.7283  MISS %:    50.2717   MPKI: 0.0185
PSCL4 LOAD TRANSLATION INSTRUCTION	ACCESS:        261  HIT:        181  MISS:         80  HIT %:    69.3487  MISS %:    30.6513  MPKI: 0.008
PSCL4 TRANSLATION FROM L1D PREFETCHER INSTRUCTION	ACCESS:          2  HIT:          2  MISS:          0  HIT %:        100  MISS %:          0  MPKI: 0
PSCL4 LOAD TRANSLATION DATA	ACCESS:        103  HIT:          0  MISS:        103  HIT %:          0  MISS %:        100  MPKI: 0.0103
PSCL4 TRANSLATION FROM L1D PREFETCHER DATA	ACCESS:          2  HIT:          0  MISS:          2  HIT %:          0  MISS %:        100  MPKI: 0.0002


PSCL3 TOTAL     ACCESS:        367  HIT:        182  MISS:        185  HIT %:    49.5913  MISS %:    50.4087   MPKI: 0.0185
PSCL3 LOAD TRANSLATION INSTRUCTION	ACCESS:        260  HIT:        180  MISS:         80  HIT %:    69.2308  MISS %:    30.7692  MPKI: 0.008
PSCL3 TRANSLATION FROM L1D PREFETCHER INSTRUCTION	ACCESS:          2  HIT:          2  MISS:          0  HIT %:        100  MISS %:          0  MPKI: 0
PSCL3 LOAD TRANSLATION DATA	ACCESS:        103  HIT:          0  MISS:        103  HIT %:          0  MISS %:        100  MPKI: 0.0103
PSCL3 TRANSLATION FROM L1D PREFETCHER DATA	ACCESS:          2  HIT:          0  MISS:          2  HIT %:          0  MISS %:        100  MPKI: 0.0002


PSCL2 TOTAL     ACCESS:        355  HIT:        170  MISS:        185  HIT %:    47.8873  MISS %:    52.1127   MPKI: 0.0185
PSCL2 LOAD TRANSLATION INSTRUCTION	ACCESS:        223  HIT:        168  MISS:         55  HIT %:    75.3363  MISS %:    24.6637  MPKI: 0.0055
PSCL2 TRANSLATION FROM L1D PREFETCHER INSTRUCTION	ACCESS:          2  HIT:          2  MISS:          0  HIT %:        100  MISS %:          0  MPKI: 0
PSCL2 LOAD TRANSLATION DATA	ACCESS:        128  HIT:          0  MISS:        128  HIT %:          0  MISS %:        100  MPKI: 0.0128
PSCL2 TRANSLATION FROM L1D PREFETCHER DATA	ACCESS:          2  HIT:          0  MISS:          2  HIT %:          0  MISS %:        100  MPKI: 0.0002


LLC TOTAL     ACCESS:      13341  HIT:       6626  MISS:       6715  HIT %:    49.6664  MISS %:    50.3336   MPKI: 0.6715
LLC LOAD INSTRUCTION	ACCESS:        813  HIT:        431  MISS:        382  HIT %:    53.0135  MISS %:    46.9865  MPKI: 0.0382
LLC LOAD TRANSLATION INSTRUCTION	ACCESS:         26  HIT:          1  MISS:         25  HIT %:    3.84615  MISS %:    96.1538  MPKI: 0.0025
LLC LOAD DATA	ACCESS:       1461  HIT:        694  MISS:        767  HIT %:    47.5017  MISS %:    52.4983  MPKI: 0.0767
LLC RFO DATA	ACCESS:       2237  HIT:         89  MISS:       2148  HIT %:    3.97854  MISS %:    96.0215  MPKI: 0.2148
LLC PREFETCH DATA	ACCESS:       5523  HIT:       2213  MISS:       3310  HIT %:    40.0688  MISS %:    59.9312  MPKI: 0.331
LLC WRITEBACK DATA	ACCESS:       3227  HIT:       3185  MISS:         42  HIT %:    98.6985  MISS %:    1.30152  MPKI: 0.0042
LLC LOAD TRANSLATION DATA	ACCESS:         54  HIT:         13  MISS:         41  HIT %:    24.0741  MISS %:    75.9259  MPKI: 0.0041

LLC AVERAGE MISS LATENCY: 145.693 cycles
LLC RQ	ACCESS:       4591	FORWARD:          0	MERGED:          0	TO_CACHE:       4591
LLC WQ	ACCESS:       3227	FORWARD:          0	MERGED:          0	TO_CACHE:       3227
LLC PQ	ACCESS:       5523	FORWARD:          0	MERGED:          0	TO_CACHE:       5523

LLC Dense regions hint to LLC: 0

RAW hits: 28410
Loads Generated: 1805058
Loads sent to L1D: 1776640
Stores Generated: 584595
Stores sent to L1D: 584597
Major fault: 0 Minor fault: 592
Allocated PAGES: 592

stream: 
stream:times selected: 274377
stream:pref_filled: 18150
stream:pref_useful: 5106
stream:pref_late: 34
stream:misses: 1667
stream:misses_by_poll: 0

CS: 
CS:times selected: 57930
CS:pref_filled: 748
CS:pref_useful: 348
CS:pref_late: 27
CS:misses: 46
CS:misses_by_poll: 0

CPLX: 
CPLX:times selected: 266659
CPLX:pref_filled: 13589
CPLX:pref_useful: 3208
CPLX:pref_late: 335
CPLX:misses: 10485
CPLX:misses_by_poll: 9

NL_L1: 
NL:times selected: 2755
NL:pref_filled: 396
NL:pref_useful: 150
NL:pref_late: 3
NL:misses: 234
NL:misses_by_poll: 0

total selections: 601721
total_filled: 17423
total_useful: 3907
total_late: 423
total_polluted: 9
total_misses_after_warmup: 15381
conflicts: 388154

test: 49978

DRAM Statistics
 CHANNEL 0
 RQ ROW_BUFFER_HIT:       2856  ROW_BUFFER_MISS:       3817
 DBUS_CONGESTED:          0
 WQ ROW_BUFFER_HIT:          0  ROW_BUFFER_MISS:          0  FULL:          0

 AVG_CONGESTED_CYCLE: -

CPU 0 Branch Prediction Accuracy: 97.6265% MPKI: 1.3648 Average ROB Occupancy at Mispredict: 162.619
Branch types
NOT_BRANCH: 9425000 94.25%
BRANCH_DIRECT_JUMP: 29181 0.29181%
BRANCH_INDIRECT: 0 0%
BRANCH_CONDITIONAL: 475154 4.75154%
BRANCH_DIRECT_CALL: 21947 0.21947%
BRANCH_INDIRECT_CALL: 13394 0.13394%
BRANCH_RETURN: 35340 0.3534%
BRANCH_OTHER: 0 0%

DRAM PAGES: 1048576
Allocated PAGES: 592
Average_ROB_Occupancy: 272.466
Average_Decode_Occupancy: 47.0753
Average_FTQ_Occupancy: 17.9894
Indirect max targets: 5 Average targets: 1.14179
Branch_type:  BRANCH_DIRECT_JUMP:  Count Percentage: 26.5213 19.338 10.2569 7.2522 5.48354 1.02569 3.5718 26.5506 
Branch_type:  BRANCH_INDIRECT:  Count Percentage: -nan -nan -nan -nan -nan -nan -nan -nan 
Branch_type:  BRANCH_CONDITIONAL:  Count Percentage: 68.463 12.5296 2.9341 2.67204 1.75469 0.176891 0.536527 10.9332 
Branch_type:  BRANCH_DIRECT_CALL:  Count Percentage: 12.4466 3.10014 0.276538 7.77702 5.62051 1.93091 0.147972 68.7003 
Branch_type:  BRANCH_INDIRECT_CALL:  Count Percentage: 5.72379 1.31529 16.8617 17.5843 10.1858 1.23117 0 47.098 
Branch_type:  BRANCH_RETURN:  Count Percentage: 60.999 7.48409 0.692615 3.03981 5.58088 1.07296 0.5461 20.5846 
Branch_type:  BRANCH_DIRECT_JUMP:  Total Count: 15385 11218 5950 4207 3181 595 2072 15402 
Branch_type:  BRANCH_INDIRECT:  Total Count: 0 0 0 0 0 0 0 0 
Branch_type:  BRANCH_CONDITIONAL:  Total Count: 678470 124169 29077 26480 17389 1753 5317 108348 
Branch_type:  BRANCH_DIRECT_CALL:  Total Count: 5131 1278 114 3206 2317 796 61 28321 
Branch_type:  BRANCH_INDIRECT_CALL:  Total Count: 1497 344 4410 4599 2664 322 0 12318 
Branch_type:  BRANCH_RETURN:  Total Count: 41217 5057 468 2054 3771 725 369 13909 
Number of unique branch instructions: 2165
Upper 32 bits: 
0
ffff0000
Unique upper 32 bits: 2
Unique upper 36 bits: 2
Unique upper 40 bits: 2
Unique upper 44 bits: 6
Unique upper 48 bits: 27
Offset_0 1
Offset_3 972
Offset_4 40
Offset_5 83
Offset_6 131
Offset_7 135
Offset_8 166
Offset_9 198
Offset_10 165
Offset_11 153
Offset_12 76
Offset_13 97
Offset_14 28
Offset_15 26
Offset_16 41
Offset_17 86
Offset_18 133
Offset_19 134
Offset_20 12
Offset_22 11
Offset_24 24
decode_dispatch_called: 4270349 83.3581
Dispatch_width: 0 1810228 42.3906 35.336
Dispatch_width: 1 175894 4.11896 3.43349
Dispatch_width: 2 74066 1.73442 1.44578
Dispatch_width: 3 62134 1.45501 1.21287
Dispatch_width: 4 1695244 39.698 33.0915
Dispatch_width: 5 8101 0.189703 0.158133
Dispatch_width: 6 444682 10.4132 8.68028
Empty_decode_cycles: 852548 16.6419
ROB_full_cycles: 1316515 25.6986
Starvation_cycles_per_kilo_instr: 168.085
Starvation_cycles_per_kilo_instr_3: 82.9177
Starvation_cycles_per_kilo_instr_0: 67.313
Branch_type_1  (4,7)  (5,6)  (6,18)  (7,25)  (8,35)  (9,43)  (10,42)  (11,37)  (12,19)  (13,25)  (14,1)  (16,1)  (17,1) 
Branch_type_3  (0,1)  (3,972)  (4,33)  (5,76)  (6,108)  (7,100)  (8,124)  (9,143)  (10,95)  (11,73)  (12,42)  (13,37)  (14,1) 
Branch_type_4  (7,1)  (8,2)  (9,9)  (10,19)  (11,38)  (12,9)  (13,26)  (14,15)  (15,9)  (16,15)  (17,34)  (18,19)  (19,49)  (20,5)  (22,5)  (24,8) 
Branch_type_5  (7,1)  (13,1)  (15,1)  (16,8)  (17,21)  (18,60)  (19,33)  (20,1)  (22,1)  (24,7) 
Branch_type_6  (5,1)  (6,5)  (7,8)  (8,5)  (9,3)  (10,9)  (11,5)  (12,6)  (13,8)  (14,11)  (15,16)  (16,17)  (17,30)  (18,54)  (19,52)  (20,6)  (22,5)  (24,9) 
40b240: 102db4 102db7 102dba 102dbf 102dc4 102dc7 102dca 102dcd 102dd0 102dd3 102dd6 102dd9 102ddc 102ddf 102de2 102de5 102de8 102deb 102dee 102df3 
40b9a0: 102f31 102f35 102f39 102f3f 102f45 102f49 102f4d 102f51 102f55 102f59 102f5d 102f61 102f65 102f69 102f6d 102f71 102f75 102f79 102f7d 102f83 
47cd60: 10deb5 10dec9 10deec 10df75 10e0a6 10e0f6 10e0fa 10e0fc 10f355 10f3b3 10f4d9 10f506 10f508 10f50c 10f50e 10f568 10f598 10f6a9 11f827 11f83a 11f854 11f8d9 11f91d 11f92f 11f948 11f9cd 11fa13 11fa26 11fa40 11fac5 11fc0b 11fc1e 11fc38 11fcbd 
47ce90: 10deae 10deda 10df25 10e008 10e08c 10e09b 10e0eb 10f16b 10f176 10f1b1 10f30e 10f34e 10f372 10f385 10f398 10f4ad 10f4be 10f4e6 11f822 11f88c 11f8f3 11f918 11f980 11f9e7 11fa0e 11fa78 11fadf 11fc06 11fc70 11fcd7 
Unique trigger count: 
1 2067
2 208
3 59
4 22
5 6
6 5
8 1
10 1
16 1
20 2
30 1
34 1
BTB PER SET UNIQUE ADDR: 0 1 2 1 2 2 1 1 0 1 4 0 0 1 1 2 0 3 0 1 2 3 3 2 1 3 1 1 1 1 2 2 0 1 2 1 0 1 0 1 0 0 0 0 1 1 1 0 1 1 0 1 1 0 1 1 0 1 1 0 0 1 0 0 1 1 0 1 5 1 0 1 0 1 2 1 1 1 0 0 1 2 0 0 0 2 0 2 0 1 1 1 0 0 0 0 1 3 0 0 1 2 2 1 1 1 1 0 1 0 0 0 0 2 0 0 0 0 0 0 0 1 2 1 1 2 3 1 1 2 0 0 1 0 0 1 0 0 1 1 0 1 0 1 0 2 2 1 2 0 0 2 1 2 1 0 0 2 2 1 0 1 0 0 0 0 0 0 2 0 1 1 1 0 0 1 0 1 1 1 2 1 0 2 3 1 2 0 1 1 1 2 1 1 1 2 1 0 0 1 2 0 0 1 3 1 0 1 0 1 3 0 1 0 0 0 3 1 0 0 1 0 1 0 2 0 1 1 1 1 2 0 1 0 1 0 1 3 0 0 0 0 0 0 0 1 0 1 1 1 0 0 0 1 1 2 2 0 1 1 1 0 0 0 1 0 3 1 1 1 1 3 2 0 1 1 1 2 1 2 0 0 2 0 1 0 1 2 2 0 0 0 0 2 0 0 3 0 0 0 1 2 0 3 3 0 1 0 0 1 0 0 3 2 1 0 0 1 1 2 1 0 0 0 0 1 0 1 0 0 0 0 0 3 0 2 1 2 1 1 1 0 0 0 1 0 1 2 1 1 1 2 1 0 1 1 2 3 0 0 1 1 3 0 0 2 2 2 2 1 0 3 0 1 1 0 0 2 1 0 1 0 0 3 1 1 3 1 0 1 3 0 0 1 2 1 2 1 0 1 1 0 0 1 0 1 1 0 0 1 2 0 0 1 0 1 1 1 1 3 0 2 2 2 0 0 3 0 0 2 1 1 2 0 0 2 0 2 2 0 1 1 0 1 1 1 1 2 2 2 1 0 0 1 3 3 0 2 2 1 0 0 0 1 0 0 0 1 0 1 0 0 0 2 0 0 1 0 1 1 1 2 2 0 1 1 0 1 1 1 1 1 2 1 0 2 1 2 1 1 1 2 1 0 2 1 1 1 3 3 0 0 1 1 0 0 0 1 0 1 0 0 0 1 1 0 1 0 0 1 0 0 0 0 1 0 0 0 0 1 1 1 0 2 2 2 2 1 1 1 1 1 2 1 0 0 0 1 0 0 1 3 1 1 1 0 1 2 1 0 0 1 1 0 1 2 1 0 0 2 0 1 0 2 2 2 0 1 2 3 1 2 0 0 1 1 1 2 2 0 1 0 1 0 1 1 0 1 0 1 1 1 1 0 0 2 0 0 1 1 3 1 1 0 2 0 0 1 0 0 2 0 2 0 0 0 0 0 1 0 2 2 2 1 1 0 1 2 1 2 2 1 1 1 1 1 2 0 0 0 2 1 1 1 1 1 3 2 0 4 2 0 0 1 1 0 1 1 0 1 1 3 1 0 1 2 1 2 1 0 2 1 0 1 0 2 3 0 0 0 0 0 1 1 0 0 1 0 0 0 1 1 1 0 0 0 3 0 0 0 0 0 0 0 0 0 2 1 1 1 0 1 1 0 0 0 0 2 1 0 1 1 1 0 1 2 0 0 0 1 0 0 1 1 1 0 1 2 1 0 1 1 2 1 1 1 2 0 1 0 1 2 0 1 2 0 1 2 0 2 0 2 0 1 1 1 1 2 1 0 2 0 0 1 2 0 1 0 1 0 1 2 0 2 1 1 0 0 0 2 1 1 3 0 2 2 0 4 1 1 1 0 0 1 1 0 1 0 0 1 0 0 0 1 2 1 0 2 0 1 0 0 0 2 1 2 1 1 1 1 0 0 0 1 0 2 1 1 0 0 1 0 0 0 2 1 1 1 0 0 1 0 1 2 0 1 1 0 1 0 1 2 3 0 1 2 0 1 1 0 0 0 1 1 1 2 1 1 1 0 2 1 1 3 1 1 2 1 0 0 1 1 0 3 0 1 0 0 1 0 0 0 0 0 0 0 0 0 2 1 0 0 1 0 0 1 0 1 1 1 0 0 0 2 1 0 0 0 1 1 0 2 0 2 0 1 0 1 0 1 0 0 1 1 1 1 1 5 0 3 0 0 1 1 0 1 0 1 1 0 0 2 0 2 1 1 2 2 2 0 0 1 0 1 1 1 2 0 1 0 1 3 0 1 0 0 0 1 1 3 2 0 0 3 0 1 1 0 0 0 1 2 3 0 2 0 1 2 0 0 0 3 1 0 2 1 1 0 1 1 1 0 2 0 0 0 2 1 2 0 1 0 2 1 1 2 2 1 0 0 1 0 1 1 1 1 1 1 0 1 2 0 2 1 0 1 0 1 0 2 0 1 0 0 1 0 1 0 1 1 0 0 3 2 0 1 0 1 2 0 1 1 1 0 2 1 1 1 1 0 1 1 1 3 2 0 0 2 2 1 0 0 2 2 0 1 0 1 1 1 1 1 0 1 2 1 1 1 1 0 1 0 0 2 1 0 1 0 1 2 0 2 0 1 0 0 0 0 2 1 0 0 0 0 0 0 1 0 1 4 0 0 1 0 2 0 0 1 3 1 2 1 0 2 1 1 1 0 0 1 1 1 0 1 0 0 1 1 1 0 0 1 1 0 0 2 1 0 0 0 1 2 0 1 1 0 0 1 0 1 3 0 3 1 0 0 3 0 0 1 0 1 0 2 1 0 1 2 1 0 1 1 3 2 1 1 2 0 0 1 2 1 0 2 2 0 0 1 3 1 0 1 3 1 3 2 0 1 2 0 1 0 0 0 1 0 0 2 4 1 1 0 1 0 0 0 1 1 1 0 1 1 0 0 0 0 0 1 1 1 0 1 0 0 1 0 0 1 0 0 2 0 0 0 1 0 0 2 0 1 1 0 0 2 0 2 0 0 0 0 1 0 1 1 1 1 1 2 0 1 1 1 2 2 0 0 3 0 1 2 2 0 2 1 2 2 1 2 2 2 0 0 0 1 0 1 1 0 0 2 3 1 0 2 1 0 0 2 0 2 2 0 0 3 1 1 2 0 1 1 1 0 0 0 1 0 0 0 0 0 1 0 2 0 1 1 0 1 3 1 2 0 2 1 1 3 0 1 1 1 0 1 2 3 2 0 0 2 1 1 1 0 0 1 1 0 1 0 0 2 0 1 1 1 0 1 0 2 1 1 1 1 0 0 1 0 0 0 0 2 1 1 1 0 0 0 0 1 1 0 1 0 0 0 0 0 1 0 0 0 0 2 0 0 0 0 1 2 0 0 0 0 0 0 0 0 2 1 2 1 0 0 2 1 2 1 0 0 0 0 0 0 0 2 0 0 1 0 1 0 0 0 1 0 2 1 0 1 0 0 2 1 1 0 2 1 0 1 1 0 1 0 1 0 0 0 1 2 0 3 0 0 2 1 4 0 0 1 0 2 0 0 2 0 0 0 0 0 1 0 0 0 0 0 3 0 2 0 0 1 0 0 0 0 1 0 1 1 0 1 0 1 0 0 2 1 1 0 3 1 1 1 0 1 1 0 1 0 0 0 0 0 0 0 0 0 0 0 0 1 1 0 0 0 0 1 2 0 0 0 0 1 1 0 0 1 1 0 0 0 1 0 0 1 0 0 0 0 0 1 1 0 0 0 1 1 1 0 0 0 1 0 0 1 0 1 0 1 0 1 1 0 2 0 1 1 0 2 0 1 1 0 0 0 0 0 0 1 1 1 1 2 0 2 1 2 1 1 2 2 1 1 2 1 0 2 1 1 0 0 3 1 5 0 0 0 2 1 1 0 1 1 0 2 1 1 1 0 0 0 0 1 0 1 0 0 0 0 0 0 1 0 1 0 0 2 0 0 1 1 1 0 1 0 0 0 0 1 0 0 0 1 0 1 1 1 0 0 2 1 1 0 0 1 1 1 0 0 0 0 0 1 1 1 0 0 0 0 0 1 1 3 2 0 1 0 1 1 0 2 1 1 0 0 0 2 2 2 0 1 1 0 2 2 0 1 1 1 2 0 2 3 1 0 0 3 4 1 3 2 2 0 2 1 0 1 1 1 0 0 1 2 2 1 2 1 2 1 2 3 0 2 0 1 2 1 1 1 1 1 1 1 0 1 2 3 2 0 0 1 1 0 0 0 1 4 0 0 0 0 3 0 0 0 2 1 0 2 1 0 1 0 1 1 1 2 0 1 3 1 0 0 2 2 2 1 0 0 1 1 1 0 1 2 0 1 2 1 0 3 1 1 0 0 0 1 2 3 0 1 0 1 0 1 0 1 1 0 0 0 0 1 0 2 1 1 1 1 1 1 1 0 1 1 1 0 0 1 1 1 1 1 1 1 1 1 1 0 2 0 1 0 1 0 1 1 1 4 0 0 1 1 2 1 1 1 1 1 0 0 0 2 0 4 3 0 6 0 2 1 1 3 3 3 1 2 1 0 1 1 1 1 1 0 1 0 0 2 0 0 0 1 1 1 2 0 2 1 0 2 2 1 0 0 1 2 1 0 1 1 2 0 0 0 2 2 1 1 
BTB PER SET COUNT: 0 1 3 1 2 2 2 1 0 2 6 0 0 9 1 19 0 14 0 2 4 3 3 2 1 3 1 1 1 1 47 2 0 1 2 1 0 41 0 1 0 0 0 0 1 61 1 0 1 1 0 1 46 0 2 1 0 1 1 0 0 3 0 0 1 1 0 1 26 1 0 1 0 13 2 1 2 1 0 0 1 4 0 0 0 3 0 2 0 1 1 1 0 0 0 0 1 5 0 0 1 11 2 1 1 1 1 0 1 0 0 0 0 3 0 0 0 0 0 0 0 1 2 1 3 3 9 1 1 3 0 0 14 0 0 5 0 0 4 1 0 4 0 2 0 6 3 1 2 0 0 2 9 4 3 0 0 11 4 3 0 1 0 0 0 0 0 0 2 0 11 1 5 0 0 1 0 2 1 3 4 3 0 2 11 1 3 0 2 1 1 2 1 1 1 23 3 0 0 1 20 0 0 1 4 16 0 1 0 1 9 0 2 0 0 0 17 1 0 0 9 0 4 0 2 0 1 1 5 1 3 0 5 0 57 0 1 6 0 0 0 0 0 0 0 1 0 6 25 9 0 0 0 3 1 23 6 0 1 3 1 0 0 0 1 0 8 1 2 2 2 4 2 0 1 4 1 2 1 2 0 0 24 0 1 0 2 24 2 0 0 0 0 10 0 0 4 0 0 0 1 3 0 3 10 0 1 0 0 2 0 0 9 3 1 0 0 1 8 2 1 0 0 0 0 1 0 1 0 0 0 0 0 3 0 10 1 43 1 1 1 0 0 0 1 0 1 8 7 1 1 2 1 0 1 2 6 4 0 0 6 28 10 0 0 2 2 2 2 1 0 3 0 2 1 0 0 2 1 0 1 0 0 3 3 1 3 1 0 3 11 0 0 1 4 2 3 2 0 1 6 0 0 1 0 1 2 0 0 1 2 0 0 4 0 1 1 1 1 3 0 2 4 2 0 0 5 0 0 40 1 2 4 0 0 2 0 23 2 0 2 1 0 1 1 1 1 2 5 2 1 0 0 1 3 3 0 7 2 1 0 0 0 1 0 0 0 1 0 2 0 0 0 888 0 0 5 0 5 1 1 4 2 0 10 1 0 1 3 1 1 7 11 70 0 2 1 2 2 8 1 2 1 0 3 1 1 2 11 13 0 0 1 1 0 0 0 1 0 1 0 0 0 3 10 0 1 0 0 1 0 0 0 0 1 0 0 0 0 2 1 1 0 3 5 3 2 1 1 3 1 1 26 1 0 0 0 3 0 0 9 3 1 2 1 0 1 2 6 0 0 1 1 0 1 2 4 0 0 2 0 1 0 2 2 3 0 1 3 4 1 2 0 0 1 1 1 18 2 0 2 0 1 0 1 1 0 1 0 1 59 2 2 0 0 2 0 0 1 1 24 1 1 0 3 0 0 1 0 0 8 0 35 0 0 0 0 0 18 0 2 8 4 1 1 0 7 3 2 4 6 1 5 1 1 1 2 0 0 0 3 2 1 1 1 1 3 2 0 4 9 0 0 1 1 0 1 1 0 5 1 3 1 0 2 2 1 3 1 0 3 1 0 1 0 3 3 0 0 0 0 0 2 69 0 0 1 0 0 0 2 1 1 0 0 0 70 0 0 0 0 0 0 0 0 0 7 1 1 4 0 6 1 0 0 0 0 2 1 0 1 1 1 0 1 4 0 0 0 4 0 0 2 1 3 0 1 20 2 0 4 1 4 1 1 1 2 0 1 0 16 2 0 3 2 0 1 5 0 2 0 4 0 1 1 14 1 3 16 0 3 0 0 1 3 0 1 0 1 0 27 200 0 3 1 1 0 0 0 2 85 1 24 0 2 2 0 149 18 1 2 0 0 1 9 0 46 0 0 78 0 0 0 1 3 3 0 2 0 1 0 0 0 11 1 3 15 1 1 1 0 0 0 1 0 2 4 7 0 0 1 0 0 0 4 2 2 4 0 0 1 0 5 2 0 1 1 0 1 0 1 7 11 0 2 23 0 11 13 0 0 0 1 26 1 16 1 69 1 0 24 48 2 3 2 1 2 3 0 0 1 1 0 7 0 13 0 0 2 0 0 0 0 0 0 0 0 0 3 140 0 0 140 0 0 1 0 2 1 1 0 0 0 2 1 0 0 0 1 1 0 2 0 72 0 8 0 1 0 14 0 0 3 1 2 1 3 95 0 4 0 0 1 1 0 3 0 1 34 0 0 3 0 2 1 1 2 2 10 0 0 1 0 1 1 1 60 0 2 0 45 3 0 1 0 0 0 1 1 16 2 0 0 153 0 67 2 0 0 0 1 2 3 0 3 0 38 4 0 0 0 14 1 0 14 5 1 0 2 77 1 0 17 0 0 0 9 1 4 0 1 0 5 1 1 3 28 1 0 0 1 0 1 2 7 32 1 1 0 1 2 0 7 1 0 1 0 12 0 66 0 1 0 0 1 0 1 0 1 2 0 0 45 8 0 2 0 27 7 0 4 27 3 0 2 101 3 1 1 0 1 94 1 7 27 0 0 2 3 1 0 0 20 3 0 8 0 1 1 1 2 1 0 1 7 1 12 1 1 0 1 0 0 161 1 0 1 0 1 21 0 5 0 2 0 0 0 0 13 21 0 0 0 0 0 0 1 0 2 86 0 0 6 0 3 0 0 4 6 31 2 1 0 3 1 1 2 0 0 2 1 1 0 2 0 0 1 1 67 0 0 68 1 0 0 2 1 0 0 0 1 2 0 3 18 0 0 3 0 1 3 0 5 10 0 0 4 0 0 1 0 2 0 7 13 0 7 2 1 0 1 1 3 4 1 3 108 0 0 1 2 1 0 3 2 0 0 1 3 2 0 1 35 3 97 3 0 1 2 0 2 0 0 0 5 0 0 3 13 1 1 0 1 0 0 0 11 9 19 0 1 1 0 0 0 0 0 1 1 1 0 1 0 0 1 0 0 1 0 0 2 0 0 0 1 0 0 7 0 1 1 0 0 2 0 2 0 0 0 0 1 0 1 2 1 1 1 2 0 1 1 1 3 2 0 0 3 0 1 65 92 0 2 1 13 2 1 2 2 3 0 0 0 1 0 1 1 0 0 5 17 18 0 37 1 0 0 3 0 2 2 0 0 28 12 1 2 0 1 11 1 0 0 0 1 0 0 0 0 0 1 0 4 0 1 1 0 1 3 1 2 0 4 9 1 4 0 1 3 1 0 1 2 4 2 0 0 17 1 1 1 0 0 1 1 0 1 0 0 3 0 1 1 1 0 1 0 24 1 2 2 1 0 0 1 0 0 0 0 2 1 12 1 0 0 0 0 14 1 0 1 0 0 0 0 0 31 0 0 0 0 2 0 0 0 0 1 2 0 0 0 0 0 0 0 0 2 1 4 1 0 0 37 2 2 1 0 0 0 0 0 0 0 2 0 0 1 0 1 0 0 0 1 0 2 1 0 1 0 0 2 1 1 0 2 1 0 2 8 0 1 0 2 0 0 0 1 2 0 3 0 0 5 2 26 0 0 1 0 2 0 0 2 0 0 0 0 0 4 0 0 0 0 0 3 0 5 0 0 1 0 0 0 0 1 0 1 2 0 4 0 2 0 0 2 2 1 0 22 1 8 1 0 1 1 0 2 0 0 0 0 0 0 0 0 0 0 0 0 2 1 0 0 0 0 1 2 0 0 0 0 3 1 0 0 1 1 0 0 0 1 0 0 2 0 0 0 0 0 2 1 0 0 0 1 1 1 0 0 0 2 0 0 1 0 50 0 1 0 5 1 0 61 0 1 36 0 9 0 34 2 0 0 0 0 0 0 98 1 2 2 46 0 5 12 2 1 1 50 19 1 1 47 23 0 2 2 3 0 0 3 6 46 0 0 0 8 10 46 0 2 1 0 2 1 10 1 0 0 0 0 1 0 2 0 0 0 0 0 0 1 0 1 0 0 2 0 0 1 1 1 0 2 0 0 0 0 4 0 0 0 14 0 1 1 4 0 0 12 2 1 0 0 1 1 2 0 0 0 0 0 1 1 17 0 0 0 0 0 111 2 3 2 0 3 0 2 1 0 3 4 1 0 0 0 7 2 2 0 1 1 0 24 86 0 1 1 1 4 0 12 5 1 0 0 22 21 1 5 3 10 0 2 2 0 19 1 1 0 0 1 2 19 1 2 1 3 1 4 3 0 6 0 1 2 1 1 6 1 1 1 1 0 1 5 12 2 0 0 1 1 0 0 0 1 5 0 0 0 0 26 0 0 0 2 1 0 9 1 0 1 0 3 4 3 27 0 1 3 1 0 0 17 15 2 1 0 0 1 1 4 0 1 5 0 11 2 1 0 3 1 1 0 0 0 1 3 4 0 1 0 1 0 1 0 1 1 0 0 0 0 1 0 2 1 1 1 2 1 1 1 0 5 1 1 0 0 1 1 1 1 1 1 2 1 1 1 0 2 0 1 0 1 0 1 1 4 7 0 0 12 1 3 4 1 10 1 2 0 0 0 3 0 25 5 0 10 0 13 1 1 6 5 6 2 11 23 0 2 1 43 1 1 0 25 0 0 3 0 0 0 2 1 1 4 0 31 1 0 5 2 1 0 0 1 3 1 0 1 1 2 0 0 0 2 2 1 2 
